MODEL 1
REMARK minimizedAffinity -10.9041414
REMARK CNNscore 0.625273585
REMARK CNNaffinity 7.22764969
REMARK  8 active torsions:
REMARK  status: ('A' for Active; 'I' for Inactive)
REMARK    1  A    between atoms: C12_12  and  O1_13 
REMARK    2  A    between atoms: C17_18  and  O2_19 
REMARK    3  A    between atoms: C18_20  and  C19_21 
REMARK    4  A    between atoms: C19_21  and  C21_23 
REMARK    5  A    between atoms: C21_23  and  C22_24 
REMARK    6  A    between atoms: C22_24  and  C23_25 
REMARK    7  A    between atoms: C24_26  and  C26_28 
REMARK    8  A    between atoms: C26_28  and  O3_29 
ROOT
HETATM    1  C1  UNL     1      -4.207   3.244  10.542  1.00  0.00     0.044 C 
HETATM    2  C2  UNL     1      -4.883   3.792  11.774  1.00  0.00    -0.074 C 
HETATM    3  C3  UNL     1      -4.393   4.736  12.621  1.00  0.00    -0.044 C 
HETATM    4  C4  UNL     1      -2.980   5.216  12.689  1.00  0.00    -0.048 C 
HETATM    5  C5  UNL     1      -2.664   6.366  13.349  1.00  0.00    -0.064 C 
HETATM    6  C6  UNL     1      -3.689   7.281  13.969  1.00  0.00     0.036 C 
HETATM    7  C7  UNL     1      -5.120   6.894  13.638  1.00  0.00     0.014 C 
HETATM    8  C8  UNL     1      -5.306   5.369  13.697  1.00  0.00     0.030 C 
HETATM    9  C9  UNL     1      -6.826   4.970  13.645  1.00  0.00    -0.014 C 
HETATM   10  C10 UNL     1      -7.627   5.798  12.611  1.00  0.00     0.018 C 
HETATM   11  C11 UNL     1      -7.480   5.213  15.025  1.00  0.00     0.018 C 
HETATM   12  C12 UNL     1      -6.891   3.461  13.322  1.00  0.00     0.130 C 
HETATM   13  C13 UNL     1      -6.248   3.164  11.968  1.00  0.00     0.067 C 
HETATM   14  C14 UNL     1      -1.203   6.740  13.616  1.00  0.00    -0.010 C 
HETATM   15  C15 UNL     1      -0.893   6.104  15.011  1.00  0.00     0.021 C 
HETATM   16  C16 UNL     1      -0.788   8.223  13.686  1.00  0.00     0.046 C 
HETATM   17  C17 UNL     1       0.747   8.212  13.471  1.00  0.00     0.124 C 
HETATM   18  C18 UNL     1       1.100   6.823  12.856  1.00  0.00     0.027 C 
HETATM   19  C27 UNL     1      -0.288   6.262  12.428  1.00  0.00    -0.026 C 
HETATM   20  C28 UNL     1      -0.734   6.859  11.059  1.00  0.00     0.016 C 
HETATM   21  C29 UNL     1      -0.400   4.737  12.361  1.00  0.00     0.015 C 
HETATM   22  C30 UNL     1      -1.868   4.313  12.131  1.00  0.00     0.040 C 
ENDROOT
BRANCH  18  23
HETATM   23  C19 UNL     1       2.353   6.686  11.935  1.00  0.00    -0.011 C 
HETATM   24  C20 UNL     1       2.592   8.040  11.235  1.00  0.00     0.010 C 
BRANCH  23  25
HETATM   25  C21 UNL     1       2.376   5.544  10.891  1.00  0.00     0.008 C 
BRANCH  25  26
HETATM   26  C22 UNL     1       3.272   5.772   9.663  1.00  0.00     0.028 C 
BRANCH  26  27
HETATM   27  C23 UNL     1       2.606   6.551   8.562  1.00  0.00    -0.022 C 
HETATM   28  C24 UNL     1       2.486   6.201   7.264  1.00  0.00    -0.064 C 
HETATM   29  C25 UNL     1       1.742   7.089   6.299  1.00  0.00     0.045 C 
BRANCH  28  30
HETATM   30  C26 UNL     1       3.049   4.946   6.654  1.00  0.00     0.197 C 
BRANCH  30  31
HETATM   31  O3  UNL     1       3.296   4.001   7.686  1.00  0.00    -0.397 OA
HETATM   32  H41 UNL     1       2.465   3.917   8.187  1.00  0.00     0.209 HD
ENDBRANCH  30  31
ENDBRANCH  28  30
ENDBRANCH  26  27
ENDBRANCH  25  26
ENDBRANCH  23  25
ENDBRANCH  18  23
BRANCH  17  33
HETATM   33  O2  UNL     1       1.117   9.306  12.658  1.00  0.00    -0.395 OA
HETATM   34  H25 UNL     1       0.858  10.121  13.122  1.00  0.00     0.210 HD
ENDBRANCH  17  33
BRANCH  12  35
HETATM   35  O1  UNL     1      -8.230   2.961  13.342  1.00  0.00    -0.394 OA
HETATM   36  H16 UNL     1      -8.695   3.291  12.555  1.00  0.00     0.210 HD
ENDBRANCH  12  35
TORSDOF 8
ENDMDL
MODEL 2
REMARK minimizedAffinity -6.56045485
REMARK CNNscore 0.593087554
REMARK CNNaffinity 6.65784979
REMARK  8 active torsions:
REMARK  status: ('A' for Active; 'I' for Inactive)
REMARK    1  A    between atoms: C12_12  and  O1_13 
REMARK    2  A    between atoms: C17_18  and  O2_19 
REMARK    3  A    between atoms: C18_20  and  C19_21 
REMARK    4  A    between atoms: C19_21  and  C21_23 
REMARK    5  A    between atoms: C21_23  and  C22_24 
REMARK    6  A    between atoms: C22_24  and  C23_25 
REMARK    7  A    between atoms: C24_26  and  C26_28 
REMARK    8  A    between atoms: C26_28  and  O3_29 
ROOT
HETATM    1  C1  UNL     1      -5.646  13.402  19.886  1.00  0.00     0.044 C 
HETATM    2  C2  UNL     1      -4.322  14.105  20.049  1.00  0.00    -0.074 C 
HETATM    3  C3  UNL     1      -3.198  13.907  19.311  1.00  0.00    -0.044 C 
HETATM    4  C4  UNL     1      -2.935  12.762  18.388  1.00  0.00    -0.048 C 
HETATM    5  C5  UNL     1      -1.924  12.818  17.475  1.00  0.00    -0.064 C 
HETATM    6  C6  UNL     1      -1.066  14.037  17.255  1.00  0.00     0.036 C 
HETATM    7  C7  UNL     1      -1.546  15.258  18.020  1.00  0.00     0.014 C 
HETATM    8  C8  UNL     1      -1.999  14.876  19.439  1.00  0.00     0.030 C 
HETATM    9  C9  UNL     1      -2.223  16.148  20.336  1.00  0.00    -0.014 C 
HETATM   10  C10 UNL     1      -2.947  17.291  19.584  1.00  0.00     0.018 C 
HETATM   11  C11 UNL     1      -0.859  16.707  20.804  1.00  0.00     0.018 C 
HETATM   12  C12 UNL     1      -3.027  15.698  21.574  1.00  0.00     0.130 C 
HETATM   13  C13 UNL     1      -4.385  15.127  21.167  1.00  0.00     0.067 C 
HETATM   14  C14 UNL     1      -1.508  11.570  16.690  1.00  0.00    -0.010 C 
HETATM   15  C15 UNL     1      -0.393  10.917  17.572  1.00  0.00     0.021 C 
HETATM   16  C16 UNL     1      -0.940  11.713  15.264  1.00  0.00     0.046 C 
HETATM   17  C17 UNL     1      -1.104  10.306  14.635  1.00  0.00     0.124 C 
HETATM   18  C18 UNL     1      -2.133   9.538  15.521  1.00  0.00     0.027 C 
HETATM   19  C27 UNL     1      -2.761  10.667  16.392  1.00  0.00    -0.026 C 
HETATM   20  C28 UNL     1      -3.868  11.429  15.603  1.00  0.00     0.016 C 
HETATM   21  C29 UNL     1      -3.331  10.228  17.743  1.00  0.00     0.015 C 
HETATM   22  C30 UNL     1      -3.729  11.461  18.586  1.00  0.00     0.040 C 
ENDROOT
BRANCH  18  23
HETATM   23  C19 UNL     1      -3.011   8.417  14.883  1.00  0.00    -0.011 C 
HETATM   24  C20 UNL     1      -2.094   7.232  14.514  1.00  0.00     0.010 C 
BRANCH  23  25
HETATM   25  C21 UNL     1      -3.907   8.784  13.676  1.00  0.00     0.008 C 
BRANCH  25  26
HETATM   26  C22 UNL     1      -5.279   8.094  13.621  1.00  0.00     0.028 C 
BRANCH  26  27
HETATM   27  C23 UNL     1      -5.906   7.881  14.972  1.00  0.00    -0.022 C 
HETATM   28  C24 UNL     1      -7.047   7.218  15.254  1.00  0.00    -0.064 C 
HETATM   29  C25 UNL     1      -7.507   7.062  16.681  1.00  0.00     0.045 C 
BRANCH  28  30
HETATM   30  C26 UNL     1      -7.950   6.583  14.231  1.00  0.00     0.197 C 
BRANCH  30  31
HETATM   31  O3  UNL     1      -8.158   5.221  14.577  1.00  0.00    -0.397 OA
HETATM   32  H41 UNL     1      -8.463   5.217  15.503  1.00  0.00     0.209 HD
ENDBRANCH  30  31
ENDBRANCH  28  30
ENDBRANCH  26  27
ENDBRANCH  25  26
ENDBRANCH  23  25
ENDBRANCH  18  23
BRANCH  17  33
HETATM   33  O2  UNL     1      -1.499  10.435  13.285  1.00  0.00    -0.395 OA
HETATM   34  H25 UNL     1      -0.799  10.924  12.817  1.00  0.00     0.210 HD
ENDBRANCH  17  33
BRANCH  12  35
HETATM   35  O1  UNL     1      -3.211  16.758  22.515  1.00  0.00    -0.394 OA
HETATM   36  H16 UNL     1      -3.858  17.385  22.152  1.00  0.00     0.210 HD
ENDBRANCH  12  35
TORSDOF 8
ENDMDL
MODEL 3
REMARK minimizedAffinity -8.16869068
REMARK CNNscore 0.577662587
REMARK CNNaffinity 7.56948996
REMARK  8 active torsions:
REMARK  status: ('A' for Active; 'I' for Inactive)
REMARK    1  A    between atoms: C12_12  and  O1_13 
REMARK    2  A    between atoms: C17_18  and  O2_19 
REMARK    3  A    between atoms: C18_20  and  C19_21 
REMARK    4  A    between atoms: C19_21  and  C21_23 
REMARK    5  A    between atoms: C21_23  and  C22_24 
REMARK    6  A    between atoms: C22_24  and  C23_25 
REMARK    7  A    between atoms: C24_26  and  C26_28 
REMARK    8  A    between atoms: C26_28  and  O3_29 
ROOT
HETATM    1  C1  UNL     1     -10.436   6.728  11.492  1.00  0.00     0.044 C 
HETATM    2  C2  UNL     1     -10.892   7.210  12.846  1.00  0.00    -0.074 C 
HETATM    3  C3  UNL     1     -10.103   7.528  13.906  1.00  0.00    -0.044 C 
HETATM    4  C4  UNL     1      -8.655   7.194  14.064  1.00  0.00    -0.048 C 
HETATM    5  C5  UNL     1      -7.892   7.817  15.007  1.00  0.00    -0.064 C 
HETATM    6  C6  UNL     1      -8.399   8.933  15.884  1.00  0.00     0.036 C 
HETATM    7  C7  UNL     1      -9.785   9.420  15.501  1.00  0.00     0.014 C 
HETATM    8  C8  UNL     1     -10.703   8.240  15.141  1.00  0.00     0.030 C 
HETATM    9  C9  UNL     1     -12.206   8.690  15.025  1.00  0.00    -0.014 C 
HETATM   10  C10 UNL     1     -12.369  10.040  14.283  1.00  0.00     0.018 C 
HETATM   11  C11 UNL     1     -12.810   8.873  16.436  1.00  0.00     0.018 C 
HETATM   12  C12 UNL     1     -12.966   7.560  14.300  1.00  0.00     0.130 C 
HETATM   13  C13 UNL     1     -12.401   7.331  12.898  1.00  0.00     0.067 C 
HETATM   14  C14 UNL     1      -6.478   7.321  15.324  1.00  0.00    -0.010 C 
HETATM   15  C15 UNL     1      -6.686   6.287  16.480  1.00  0.00     0.021 C 
HETATM   16  C16 UNL     1      -5.399   8.319  15.789  1.00  0.00     0.046 C 
HETATM   17  C17 UNL     1      -4.056   7.589  15.535  1.00  0.00     0.124 C 
HETATM   18  C18 UNL     1      -4.363   6.419  14.551  1.00  0.00     0.027 C 
HETATM   19  C27 UNL     1      -5.788   6.765  14.024  1.00  0.00    -0.026 C 
HETATM   20  C28 UNL     1      -5.720   7.829  12.887  1.00  0.00     0.016 C 
HETATM   21  C29 UNL     1      -6.626   5.579  13.542  1.00  0.00     0.015 C 
HETATM   22  C30 UNL     1      -8.075   6.029  13.246  1.00  0.00     0.040 C 
ENDROOT
BRANCH  18  23
HETATM   23  C19 UNL     1      -3.242   5.907  13.592  1.00  0.00    -0.011 C 
HETATM   24  C20 UNL     1      -2.529   7.130  12.980  1.00  0.00     0.010 C 
BRANCH  23  25
HETATM   25  C21 UNL     1      -3.632   4.911  12.473  1.00  0.00     0.008 C 
BRANCH  25  26
HETATM   26  C22 UNL     1      -3.938   3.474  12.926  1.00  0.00     0.028 C 
BRANCH  26  27
HETATM   27  C23 UNL     1      -4.563   2.621  11.857  1.00  0.00    -0.022 C 
HETATM   28  C24 UNL     1      -5.841   2.192  11.789  1.00  0.00    -0.064 C 
HETATM   29  C25 UNL     1      -6.312   1.375  10.613  1.00  0.00     0.045 C 
BRANCH  28  30
HETATM   30  C26 UNL     1      -6.897   2.467  12.825  1.00  0.00     0.197 C 
BRANCH  30  31
HETATM   31  O3  UNL     1      -8.060   1.713  12.513  1.00  0.00    -0.397 OA
HETATM   32  H41 UNL     1      -7.769   0.789  12.409  1.00  0.00     0.209 HD
ENDBRANCH  30  31
ENDBRANCH  28  30
ENDBRANCH  26  27
ENDBRANCH  25  26
ENDBRANCH  23  25
ENDBRANCH  18  23
BRANCH  17  33
HETATM   33  O2  UNL     1      -3.103   8.511  15.046  1.00  0.00    -0.395 OA
HETATM   34  H25 UNL     1      -2.980   9.197  15.725  1.00  0.00     0.210 HD
ENDBRANCH  17  33
BRANCH  12  35
HETATM   35  O1  UNL     1     -14.370   7.817  14.219  1.00  0.00    -0.394 OA
HETATM   36  H16 UNL     1     -14.518   8.522  13.568  1.00  0.00     0.210 HD
ENDBRANCH  12  35
TORSDOF 8
ENDMDL
MODEL 4
REMARK minimizedAffinity -11.1718483
REMARK CNNscore 0.558332384
REMARK CNNaffinity 7.12906885
REMARK  8 active torsions:
REMARK  status: ('A' for Active; 'I' for Inactive)
REMARK    1  A    between atoms: C12_12  and  O1_13 
REMARK    2  A    between atoms: C17_18  and  O2_19 
REMARK    3  A    between atoms: C18_20  and  C19_21 
REMARK    4  A    between atoms: C19_21  and  C21_23 
REMARK    5  A    between atoms: C21_23  and  C22_24 
REMARK    6  A    between atoms: C22_24  and  C23_25 
REMARK    7  A    between atoms: C24_26  and  C26_28 
REMARK    8  A    between atoms: C26_28  and  O3_29 
ROOT
HETATM    1  C1  UNL     1      -4.242   3.204  10.723  1.00  0.00     0.044 C 
HETATM    2  C2  UNL     1      -4.902   3.832  11.924  1.00  0.00    -0.074 C 
HETATM    3  C3  UNL     1      -4.392   4.812  12.716  1.00  0.00    -0.044 C 
HETATM    4  C4  UNL     1      -2.969   5.267  12.756  1.00  0.00    -0.048 C 
HETATM    5  C5  UNL     1      -2.627   6.445  13.350  1.00  0.00    -0.064 C 
HETATM    6  C6  UNL     1      -3.632   7.413  13.920  1.00  0.00     0.036 C 
HETATM    7  C7  UNL     1      -5.072   7.037  13.614  1.00  0.00     0.014 C 
HETATM    8  C8  UNL     1      -5.288   5.522  13.758  1.00  0.00     0.030 C 
HETATM    9  C9  UNL     1      -6.816   5.151  13.731  1.00  0.00    -0.014 C 
HETATM   10  C10 UNL     1      -7.603   5.937  12.654  1.00  0.00     0.018 C 
HETATM   11  C11 UNL     1      -7.461   5.483  15.096  1.00  0.00     0.018 C 
HETATM   12  C12 UNL     1      -6.913   3.629  13.492  1.00  0.00     0.130 C 
HETATM   13  C13 UNL     1      -6.279   3.243  12.155  1.00  0.00     0.067 C 
HETATM   14  C14 UNL     1      -1.158   6.803  13.593  1.00  0.00    -0.010 C 
HETATM   15  C15 UNL     1      -0.857   6.238  15.021  1.00  0.00     0.021 C 
HETATM   16  C16 UNL     1      -0.714   8.279  13.580  1.00  0.00     0.046 C 
HETATM   17  C17 UNL     1       0.820   8.225  13.363  1.00  0.00     0.124 C 
HETATM   18  C18 UNL     1       1.143   6.797  12.826  1.00  0.00     0.027 C 
HETATM   19  C27 UNL     1      -0.257   6.241  12.432  1.00  0.00    -0.026 C 
HETATM   20  C28 UNL     1      -0.695   6.771  11.033  1.00  0.00     0.016 C 
HETATM   21  C29 UNL     1      -0.399   4.718  12.450  1.00  0.00     0.015 C 
HETATM   22  C30 UNL     1      -1.877   4.312  12.246  1.00  0.00     0.040 C 
ENDROOT
BRANCH  18  23
HETATM   23  C19 UNL     1       2.391   6.584  11.912  1.00  0.00    -0.011 C 
HETATM   24  C20 UNL     1       2.930   7.969  11.496  1.00  0.00     0.010 C 
BRANCH  23  25
HETATM   25  C21 UNL     1       2.241   5.682  10.663  1.00  0.00     0.008 C 
BRANCH  25  26
HETATM   26  C22 UNL     1       3.271   5.905   9.544  1.00  0.00     0.028 C 
BRANCH  26  27
HETATM   27  C23 UNL     1       2.663   6.011   8.172  1.00  0.00    -0.022 C 
HETATM   28  C24 UNL     1       2.226   7.127   7.550  1.00  0.00    -0.064 C 
HETATM   29  C25 UNL     1       1.681   7.055   6.146  1.00  0.00     0.045 C 
BRANCH  28  30
HETATM   30  C26 UNL     1       2.232   8.506   8.151  1.00  0.00     0.197 C 
BRANCH  30  31
HETATM   31  O3  UNL     1       3.332   9.235   7.626  1.00  0.00    -0.397 OA
HETATM   32  H41 UNL     1       3.264   9.174   6.655  1.00  0.00     0.209 HD
ENDBRANCH  30  31
ENDBRANCH  28  30
ENDBRANCH  26  27
ENDBRANCH  25  26
ENDBRANCH  23  25
ENDBRANCH  18  23
BRANCH  17  33
HETATM   33  O2  UNL     1       1.210   9.265  12.490  1.00  0.00    -0.395 OA
HETATM   34  H25 UNL     1       0.968  10.110  12.909  1.00  0.00     0.210 HD
ENDBRANCH  17  33
BRANCH  12  35
HETATM   35  O1  UNL     1      -8.261   3.158  13.542  1.00  0.00    -0.394 OA
HETATM   36  H16 UNL     1      -8.721   3.452  12.739  1.00  0.00     0.210 HD
ENDBRANCH  12  35
TORSDOF 8
ENDMDL
MODEL 5
REMARK minimizedAffinity -10.389307
REMARK CNNscore 0.45119375
REMARK CNNaffinity 7.09688568
REMARK  8 active torsions:
REMARK  status: ('A' for Active; 'I' for Inactive)
REMARK    1  A    between atoms: C12_12  and  O1_13 
REMARK    2  A    between atoms: C17_18  and  O2_19 
REMARK    3  A    between atoms: C18_20  and  C19_21 
REMARK    4  A    between atoms: C19_21  and  C21_23 
REMARK    5  A    between atoms: C21_23  and  C22_24 
REMARK    6  A    between atoms: C22_24  and  C23_25 
REMARK    7  A    between atoms: C24_26  and  C26_28 
REMARK    8  A    between atoms: C26_28  and  O3_29 
ROOT
HETATM    1  C1  UNL     1      -3.960   3.284  10.216  1.00  0.00     0.044 C 
HETATM    2  C2  UNL     1      -4.749   3.602  11.462  1.00  0.00    -0.074 C 
HETATM    3  C3  UNL     1      -4.410   4.485  12.438  1.00  0.00    -0.044 C 
HETATM    4  C4  UNL     1      -3.067   5.106  12.642  1.00  0.00    -0.048 C 
HETATM    5  C5  UNL     1      -2.916   6.197  13.447  1.00  0.00    -0.064 C 
HETATM    6  C6  UNL     1      -4.067   6.911  14.107  1.00  0.00     0.036 C 
HETATM    7  C7  UNL     1      -5.427   6.412  13.652  1.00  0.00     0.014 C 
HETATM    8  C8  UNL     1      -5.437   4.879  13.525  1.00  0.00     0.030 C 
HETATM    9  C9  UNL     1      -6.897   4.324  13.341  1.00  0.00    -0.014 C 
HETATM   10  C10 UNL     1      -7.742   5.177  12.364  1.00  0.00     0.018 C 
HETATM   11  C11 UNL     1      -7.635   4.326  14.699  1.00  0.00     0.018 C 
HETATM   12  C12 UNL     1      -6.772   2.868  12.844  1.00  0.00     0.130 C 
HETATM   13  C13 UNL     1      -6.039   2.808  11.504  1.00  0.00     0.067 C 
HETATM   14  C14 UNL     1      -1.521   6.695  13.838  1.00  0.00    -0.010 C 
HETATM   15  C15 UNL     1      -1.202   5.933  15.167  1.00  0.00     0.021 C 
HETATM   16  C16 UNL     1      -1.286   8.195  14.101  1.00  0.00     0.046 C 
HETATM   17  C17 UNL     1       0.248   8.379  13.975  1.00  0.00     0.124 C 
HETATM   18  C18 UNL     1       0.787   7.121  13.227  1.00  0.00     0.027 C 
HETATM   19  C27 UNL     1      -0.506   6.466  12.658  1.00  0.00    -0.026 C 
HETATM   20  C28 UNL     1      -0.957   7.171  11.343  1.00  0.00     0.016 C 
HETATM   21  C29 UNL     1      -0.436   4.958  12.410  1.00  0.00     0.015 C 
HETATM   22  C30 UNL     1      -1.834   4.405  12.049  1.00  0.00     0.040 C 
ENDROOT
BRANCH  18  23
HETATM   23  C19 UNL     1       2.087   7.235  12.370  1.00  0.00    -0.011 C 
HETATM   24  C20 UNL     1       3.219   7.771  13.273  1.00  0.00     0.010 C 
BRANCH  23  25
HETATM   25  C21 UNL     1       2.032   8.053  11.057  1.00  0.00     0.008 C 
BRANCH  25  26
HETATM   26  C22 UNL     1       3.319   8.066  10.217  1.00  0.00     0.028 C 
BRANCH  26  27
HETATM   27  C23 UNL     1       3.108   7.681   8.778  1.00  0.00    -0.022 C 
HETATM   28  C24 UNL     1       1.939   7.616   8.107  1.00  0.00    -0.064 C 
HETATM   29  C25 UNL     1       1.916   7.253   6.644  1.00  0.00     0.045 C 
BRANCH  28  30
HETATM   30  C26 UNL     1       0.586   7.889   8.707  1.00  0.00     0.197 C 
BRANCH  30  31
HETATM   31  O3  UNL     1       0.192   9.214   8.379  1.00  0.00    -0.397 OA
HETATM   32  H41 UNL     1       0.273   9.293   7.411  1.00  0.00     0.209 HD
ENDBRANCH  30  31
ENDBRANCH  28  30
ENDBRANCH  26  27
ENDBRANCH  25  26
ENDBRANCH  23  25
ENDBRANCH  18  23
BRANCH  17  33
HETATM   33  O2  UNL     1       0.524   9.597  13.316  1.00  0.00    -0.395 OA
HETATM   34  H25 UNL     1       0.152  10.317  13.855  1.00  0.00     0.210 HD
ENDBRANCH  17  33
BRANCH  12  35
HETATM   35  O1  UNL     1      -8.043   2.224  12.729  1.00  0.00    -0.394 OA
HETATM   36  H16 UNL     1      -8.508   2.593  11.960  1.00  0.00     0.210 HD
ENDBRANCH  12  35
TORSDOF 8
ENDMDL
MODEL 6
REMARK minimizedAffinity -7.61163998
REMARK CNNscore 0.441610426
REMARK CNNaffinity 5.77658796
REMARK  8 active torsions:
REMARK  status: ('A' for Active; 'I' for Inactive)
REMARK    1  A    between atoms: C12_12  and  O1_13 
REMARK    2  A    between atoms: C17_18  and  O2_19 
REMARK    3  A    between atoms: C18_20  and  C19_21 
REMARK    4  A    between atoms: C19_21  and  C21_23 
REMARK    5  A    between atoms: C21_23  and  C22_24 
REMARK    6  A    between atoms: C22_24  and  C23_25 
REMARK    7  A    between atoms: C24_26  and  C26_28 
REMARK    8  A    between atoms: C26_28  and  O3_29 
ROOT
HETATM    1  C1  UNL     1       0.802   8.929  13.177  1.00  0.00     0.044 C 
HETATM    2  C2  UNL     1       1.407   8.598  11.836  1.00  0.00    -0.074 C 
HETATM    3  C3  UNL     1       2.720   8.375  11.567  1.00  0.00    -0.044 C 
HETATM    4  C4  UNL     1       3.874   8.694  12.461  1.00  0.00    -0.048 C 
HETATM    5  C5  UNL     1       5.106   8.155  12.233  1.00  0.00    -0.064 C 
HETATM    6  C6  UNL     1       5.387   7.146  11.149  1.00  0.00     0.036 C 
HETATM    7  C7  UNL     1       4.134   6.651  10.447  1.00  0.00     0.014 C 
HETATM    8  C8  UNL     1       3.151   7.806  10.194  1.00  0.00     0.030 C 
HETATM    9  C9  UNL     1       1.992   7.377   9.222  1.00  0.00    -0.014 C 
HETATM   10  C10 UNL     1       1.445   5.962   9.533  1.00  0.00     0.018 C 
HETATM   11  C11 UNL     1       2.510   7.352   7.765  1.00  0.00     0.018 C 
HETATM   12  C12 UNL     1       0.881   8.442   9.338  1.00  0.00     0.130 C 
HETATM   13  C13 UNL     1       0.338   8.514  10.765  1.00  0.00     0.067 C 
HETATM   14  C14 UNL     1       6.333   8.653  13.002  1.00  0.00    -0.010 C 
HETATM   15  C15 UNL     1       6.904   9.804  12.110  1.00  0.00     0.021 C 
HETATM   16  C16 UNL     1       7.495   7.687  13.304  1.00  0.00     0.046 C 
HETATM   17  C17 UNL     1       8.273   8.359  14.464  1.00  0.00     0.124 C 
HETATM   18  C18 UNL     1       7.318   9.428  15.080  1.00  0.00     0.027 C 
HETATM   19  C27 UNL     1       5.933   9.059  14.469  1.00  0.00    -0.026 C 
HETATM   20  C28 UNL     1       5.274   7.882  15.251  1.00  0.00     0.016 C 
HETATM   21  C29 UNL     1       4.926  10.205  14.360  1.00  0.00     0.015 C 
HETATM   22  C30 UNL     1       3.684   9.757  13.555  1.00  0.00     0.040 C 
ENDROOT
BRANCH  18  23
HETATM   23  C19 UNL     1       7.468   9.816  16.584  1.00  0.00    -0.011 C 
HETATM   24  C20 UNL     1       6.646  11.097  16.839  1.00  0.00     0.010 C 
BRANCH  23  25
HETATM   25  C21 UNL     1       8.894   9.984  17.160  1.00  0.00     0.008 C 
BRANCH  25  26
HETATM   26  C22 UNL     1       8.993  10.705  18.515  1.00  0.00     0.028 C 
BRANCH  26  27
HETATM   27  C23 UNL     1      10.397  11.083  18.900  1.00  0.00    -0.022 C 
HETATM   28  C24 UNL     1      10.797  11.744  20.007  1.00  0.00    -0.064 C 
HETATM   29  C25 UNL     1      12.261  12.001  20.256  1.00  0.00     0.045 C 
BRANCH  28  30
HETATM   30  C26 UNL     1       9.876  12.275  21.073  1.00  0.00     0.197 C 
BRANCH  30  31
HETATM   31  O3  UNL     1      10.214  13.627  21.346  1.00  0.00    -0.397 OA
HETATM   32  H41 UNL     1      10.214  14.089  20.488  1.00  0.00     0.209 HD
ENDBRANCH  30  31
ENDBRANCH  28  30
ENDBRANCH  26  27
ENDBRANCH  25  26
ENDBRANCH  23  25
ENDBRANCH  18  23
BRANCH  17  33
HETATM   33  O2  UNL     1       8.694   7.373  15.384  1.00  0.00    -0.395 OA
HETATM   34  H25 UNL     1       9.281   6.757  14.910  1.00  0.00     0.210 HD
ENDBRANCH  17  33
BRANCH  12  35
HETATM   35  O1  UNL     1      -0.192   8.206   8.423  1.00  0.00    -0.394 OA
HETATM   36  H16 UNL     1      -0.702   7.441   8.736  1.00  0.00     0.210 HD
ENDBRANCH  12  35
TORSDOF 8
ENDMDL
MODEL 7
REMARK minimizedAffinity -7.1802783
REMARK CNNscore 0.375813723
REMARK CNNaffinity 6.46158743
REMARK  8 active torsions:
REMARK  status: ('A' for Active; 'I' for Inactive)
REMARK    1  A    between atoms: C12_12  and  O1_13 
REMARK    2  A    between atoms: C17_18  and  O2_19 
REMARK    3  A    between atoms: C18_20  and  C19_21 
REMARK    4  A    between atoms: C19_21  and  C21_23 
REMARK    5  A    between atoms: C21_23  and  C22_24 
REMARK    6  A    between atoms: C22_24  and  C23_25 
REMARK    7  A    between atoms: C24_26  and  C26_28 
REMARK    8  A    between atoms: C26_28  and  O3_29 
ROOT
HETATM    1  C1  UNL     1      -0.600  13.401  14.671  1.00  0.00     0.044 C 
HETATM    2  C2  UNL     1      -1.598  13.012  15.732  1.00  0.00    -0.074 C 
HETATM    3  C3  UNL     1      -2.004  11.753  16.047  1.00  0.00    -0.044 C 
HETATM    4  C4  UNL     1      -1.784  10.522  15.230  1.00  0.00    -0.048 C 
HETATM    5  C5  UNL     1      -1.955   9.283  15.772  1.00  0.00    -0.064 C 
HETATM    6  C6  UNL     1      -2.278   9.046  17.225  1.00  0.00     0.036 C 
HETATM    7  C7  UNL     1      -2.222  10.308  18.068  1.00  0.00     0.014 C 
HETATM    8  C8  UNL     1      -2.844  11.499  17.320  1.00  0.00     0.030 C 
HETATM    9  C9  UNL     1      -3.059  12.732  18.273  1.00  0.00    -0.014 C 
HETATM   10  C10 UNL     1      -1.859  12.969  19.223  1.00  0.00     0.018 C 
HETATM   11  C11 UNL     1      -4.302  12.499  19.161  1.00  0.00     0.018 C 
HETATM   12  C12 UNL     1      -3.311  13.963  17.376  1.00  0.00     0.130 C 
HETATM   13  C13 UNL     1      -2.111  14.233  16.468  1.00  0.00     0.067 C 
HETATM   14  C14 UNL     1      -1.954   8.033  14.887  1.00  0.00    -0.010 C 
HETATM   15  C15 UNL     1      -3.457   7.838  14.497  1.00  0.00     0.021 C 
HETATM   16  C16 UNL     1      -1.449   6.690  15.452  1.00  0.00     0.046 C 
HETATM   17  C17 UNL     1      -1.134   5.832  14.200  1.00  0.00     0.124 C 
HETATM   18  C18 UNL     1      -1.040   6.819  12.995  1.00  0.00     0.027 C 
HETATM   19  C27 UNL     1      -0.953   8.212  13.685  1.00  0.00    -0.026 C 
HETATM   20  C28 UNL     1       0.500   8.509  14.164  1.00  0.00     0.016 C 
HETATM   21  C29 UNL     1      -1.453   9.399  12.858  1.00  0.00     0.015 C 
HETATM   22  C30 UNL     1      -1.507  10.677  13.725  1.00  0.00     0.040 C 
ENDROOT
BRANCH  18  23
HETATM   23  C19 UNL     1      -0.138   6.457  11.774  1.00  0.00    -0.011 C 
HETATM   24  C20 UNL     1      -0.673   5.154  11.144  1.00  0.00     0.010 C 
BRANCH  23  25
HETATM   25  C21 UNL     1       1.390   6.343  11.998  1.00  0.00     0.008 C 
BRANCH  25  26
HETATM   26  C22 UNL     1       2.251   7.426  11.329  1.00  0.00     0.028 C 
BRANCH  26  27
HETATM   27  C23 UNL     1       1.943   7.631   9.871  1.00  0.00    -0.022 C 
HETATM   28  C24 UNL     1       2.411   6.920   8.823  1.00  0.00    -0.064 C 
HETATM   29  C25 UNL     1       1.959   7.238   7.421  1.00  0.00     0.045 C 
BRANCH  28  30
HETATM   30  C26 UNL     1       3.388   5.779   8.925  1.00  0.00     0.197 C 
BRANCH  30  31
HETATM   31  O3  UNL     1       3.171   4.887   7.841  1.00  0.00    -0.397 OA
HETATM   32  H41 UNL     1       3.201   5.427   7.030  1.00  0.00     0.209 HD
ENDBRANCH  30  31
ENDBRANCH  28  30
ENDBRANCH  26  27
ENDBRANCH  25  26
ENDBRANCH  23  25
ENDBRANCH  18  23
BRANCH  17  33
HETATM   33  O2  UNL     1       0.046   5.089  14.422  1.00  0.00    -0.395 OA
HETATM   34  H25 UNL     1      -0.109   4.507  15.187  1.00  0.00     0.210 HD
ENDBRANCH  17  33
BRANCH  12  35
HETATM   35  O1  UNL     1      -3.614  15.133  18.137  1.00  0.00    -0.394 OA
HETATM   36  H16 UNL     1      -2.800  15.442  18.568  1.00  0.00     0.210 HD
ENDBRANCH  12  35
TORSDOF 8
ENDMDL
MODEL 8
REMARK minimizedAffinity -7.68994331
REMARK CNNscore 0.36971122
REMARK CNNaffinity 5.88763952
REMARK  8 active torsions:
REMARK  status: ('A' for Active; 'I' for Inactive)
REMARK    1  A    between atoms: C12_12  and  O1_13 
REMARK    2  A    between atoms: C17_18  and  O2_19 
REMARK    3  A    between atoms: C18_20  and  C19_21 
REMARK    4  A    between atoms: C19_21  and  C21_23 
REMARK    5  A    between atoms: C21_23  and  C22_24 
REMARK    6  A    between atoms: C22_24  and  C23_25 
REMARK    7  A    between atoms: C24_26  and  C26_28 
REMARK    8  A    between atoms: C26_28  and  O3_29 
ROOT
HETATM    1  C1  UNL     1      -3.586  10.756  18.902  1.00  0.00     0.044 C 
HETATM    2  C2  UNL     1      -3.085  10.388  17.528  1.00  0.00    -0.074 C 
HETATM    3  C3  UNL     1      -1.792  10.359  17.112  1.00  0.00    -0.044 C 
HETATM    4  C4  UNL     1      -0.621  10.963  17.819  1.00  0.00    -0.048 C 
HETATM    5  C5  UNL     1       0.654  10.617  17.481  1.00  0.00    -0.064 C 
HETATM    6  C6  UNL     1       0.988   9.557  16.463  1.00  0.00     0.036 C 
HETATM    7  C7  UNL     1      -0.226   8.786  15.975  1.00  0.00     0.014 C 
HETATM    8  C8  UNL     1      -1.422   9.725  15.751  1.00  0.00     0.030 C 
HETATM    9  C9  UNL     1      -2.587   9.004  14.978  1.00  0.00    -0.014 C 
HETATM   10  C10 UNL     1      -2.833   7.560  15.479  1.00  0.00     0.018 C 
HETATM   11  C11 UNL     1      -2.239   8.909  13.475  1.00  0.00     0.018 C 
HETATM   12  C12 UNL     1      -3.851   9.875  15.143  1.00  0.00     0.130 C 
HETATM   13  C13 UNL     1      -4.235  10.009  16.616  1.00  0.00     0.067 C 
HETATM   14  C14 UNL     1       1.850  11.393  18.039  1.00  0.00    -0.010 C 
HETATM   15  C15 UNL     1       2.101  12.521  16.983  1.00  0.00     0.021 C 
HETATM   16  C16 UNL     1       3.193  10.675  18.272  1.00  0.00     0.046 C 
HETATM   17  C17 UNL     1       3.962  11.590  19.258  1.00  0.00     0.124 C 
HETATM   18  C18 UNL     1       2.906  12.544  19.896  1.00  0.00     0.027 C 
HETATM   19  C27 UNL     1       1.551  11.884  19.504  1.00  0.00    -0.026 C 
HETATM   20  C28 UNL     1       1.205  10.706  20.465  1.00  0.00     0.016 C 
HETATM   21  C29 UNL     1       0.348  12.826  19.426  1.00  0.00     0.015 C 
HETATM   22  C30 UNL     1      -0.875  12.092  18.831  1.00  0.00     0.040 C 
ENDROOT
BRANCH  18  23
HETATM   23  C19 UNL     1       3.151  13.113  21.329  1.00  0.00    -0.011 C 
HETATM   24  C20 UNL     1       2.111  14.222  21.595  1.00  0.00     0.010 C 
BRANCH  23  25
HETATM   25  C21 UNL     1       4.568  13.627  21.682  1.00  0.00     0.008 C 
BRANCH  25  26
HETATM   26  C22 UNL     1       5.074  13.287  23.094  1.00  0.00     0.028 C 
BRANCH  26  27
HETATM   27  C23 UNL     1       6.303  12.420  23.105  1.00  0.00    -0.022 C 
HETATM   28  C24 UNL     1       7.592  12.818  23.060  1.00  0.00    -0.064 C 
HETATM   29  C25 UNL     1       8.707  11.806  23.126  1.00  0.00     0.045 C 
BRANCH  28  30
HETATM   30  C26 UNL     1       8.048  14.248  22.948  1.00  0.00     0.197 C 
BRANCH  30  31
HETATM   31  O3  UNL     1       8.702  14.621  24.152  1.00  0.00    -0.397 OA
HETATM   32  H41 UNL     1       9.388  13.948  24.312  1.00  0.00     0.209 HD
ENDBRANCH  30  31
ENDBRANCH  28  30
ENDBRANCH  26  27
ENDBRANCH  25  26
ENDBRANCH  23  25
ENDBRANCH  18  23
BRANCH  17  33
HETATM   33  O2  UNL     1       4.654  10.794  20.198  1.00  0.00    -0.395 OA
HETATM   34  H25 UNL     1       5.285  10.238  19.709  1.00  0.00     0.210 HD
ENDBRANCH  17  33
BRANCH  12  35
HETATM   35  O1  UNL     1      -4.960   9.364  14.399  1.00  0.00    -0.394 OA
HETATM   36  H16 UNL     1      -5.286   8.563  14.841  1.00  0.00     0.210 HD
ENDBRANCH  12  35
TORSDOF 8
ENDMDL
MODEL 9
REMARK minimizedAffinity -6.56855631
REMARK CNNscore 0.345480949
REMARK CNNaffinity 6.23699141
REMARK  8 active torsions:
REMARK  status: ('A' for Active; 'I' for Inactive)
REMARK    1  A    between atoms: C12_12  and  O1_13 
REMARK    2  A    between atoms: C17_18  and  O2_19 
REMARK    3  A    between atoms: C18_20  and  C19_21 
REMARK    4  A    between atoms: C19_21  and  C21_23 
REMARK    5  A    between atoms: C21_23  and  C22_24 
REMARK    6  A    between atoms: C22_24  and  C23_25 
REMARK    7  A    between atoms: C24_26  and  C26_28 
REMARK    8  A    between atoms: C26_28  and  O3_29 
ROOT
HETATM    1  C1  UNL     1      -5.620  13.484  19.911  1.00  0.00     0.044 C 
HETATM    2  C2  UNL     1      -4.292  14.181  20.069  1.00  0.00    -0.074 C 
HETATM    3  C3  UNL     1      -3.170  13.975  19.329  1.00  0.00    -0.044 C 
HETATM    4  C4  UNL     1      -2.915  12.826  18.408  1.00  0.00    -0.048 C 
HETATM    5  C5  UNL     1      -1.906  12.874  17.493  1.00  0.00    -0.064 C 
HETATM    6  C6  UNL     1      -1.042  14.089  17.267  1.00  0.00     0.036 C 
HETATM    7  C7  UNL     1      -1.515  15.315  18.030  1.00  0.00     0.014 C 
HETATM    8  C8  UNL     1      -1.966  14.939  19.451  1.00  0.00     0.030 C 
HETATM    9  C9  UNL     1      -2.181  16.214  20.346  1.00  0.00    -0.014 C 
HETATM   10  C10 UNL     1      -2.902  17.358  19.592  1.00  0.00     0.018 C 
HETATM   11  C11 UNL     1      -0.814  16.767  20.809  1.00  0.00     0.018 C 
HETATM   12  C12 UNL     1      -2.985  15.770  21.587  1.00  0.00     0.130 C 
HETATM   13  C13 UNL     1      -4.347  15.205  21.184  1.00  0.00     0.067 C 
HETATM   14  C14 UNL     1      -1.498  11.623  16.710  1.00  0.00    -0.010 C 
HETATM   15  C15 UNL     1      -0.384  10.966  17.591  1.00  0.00     0.021 C 
HETATM   16  C16 UNL     1      -0.934  11.759  15.282  1.00  0.00     0.046 C 
HETATM   17  C17 UNL     1      -1.105  10.351  14.657  1.00  0.00     0.124 C 
HETATM   18  C18 UNL     1      -2.136   9.591  15.548  1.00  0.00     0.027 C 
HETATM   19  C27 UNL     1      -2.756  10.725  16.417  1.00  0.00    -0.026 C 
HETATM   20  C28 UNL     1      -3.861  11.491  15.629  1.00  0.00     0.016 C 
HETATM   21  C29 UNL     1      -3.325  10.292  17.770  1.00  0.00     0.015 C 
HETATM   22  C30 UNL     1      -3.715  11.529  18.611  1.00  0.00     0.040 C 
ENDROOT
BRANCH  18  23
HETATM   23  C19 UNL     1      -3.021   8.472  14.915  1.00  0.00    -0.011 C 
HETATM   24  C20 UNL     1      -4.447   8.596  15.493  1.00  0.00     0.010 C 
BRANCH  23  25
HETATM   25  C21 UNL     1      -2.537   7.006  15.019  1.00  0.00     0.008 C 
BRANCH  25  26
HETATM   26  C22 UNL     1      -2.669   6.160  13.742  1.00  0.00     0.028 C 
BRANCH  26  27
HETATM   27  C23 UNL     1      -3.992   5.457  13.613  1.00  0.00    -0.022 C 
HETATM   28  C24 UNL     1      -4.345   4.529  12.699  1.00  0.00    -0.064 C 
HETATM   29  C25 UNL     1      -5.710   3.890  12.746  1.00  0.00     0.045 C 
BRANCH  28  30
HETATM   30  C26 UNL     1      -3.462   4.042  11.581  1.00  0.00     0.197 C 
BRANCH  30  31
HETATM   31  O3  UNL     1      -3.062   2.707  11.856  1.00  0.00    -0.397 OA
HETATM   32  H41 UNL     1      -3.880   2.205  12.027  1.00  0.00     0.209 HD
ENDBRANCH  30  31
ENDBRANCH  28  30
ENDBRANCH  26  27
ENDBRANCH  25  26
ENDBRANCH  23  25
ENDBRANCH  18  23
BRANCH  17  33
HETATM   33  O2  UNL     1      -1.503  10.479  13.308  1.00  0.00    -0.395 OA
HETATM   34  H25 UNL     1      -0.802  10.963  12.837  1.00  0.00     0.210 HD
ENDBRANCH  17  33
BRANCH  12  35
HETATM   35  O1  UNL     1      -3.161  16.834  22.525  1.00  0.00    -0.394 OA
HETATM   36  H16 UNL     1      -3.806  17.463  22.162  1.00  0.00     0.210 HD
ENDBRANCH  12  35
TORSDOF 8
ENDMDL
