MODEL 1
REMARK minimizedAffinity -10.2257071
REMARK  7 active torsions:
REMARK  status: ('A' for Active; 'I' for Inactive)
REMARK    1  A    between atoms: C2_2  and  C3_3 
REMARK    2  A    between atoms: C2_2  and  C9_11 
REMARK    3  A    between atoms: C3_3  and  C4_4 
REMARK    4  A    between atoms: C5_5  and  C6_6 
REMARK    5  A    between atoms: C6_6  and  O1_9 
REMARK    6  A    between atoms: O1_9  and  O2_10 
REMARK    7  A    between atoms: C10_12  and  O3_13 
ROOT
HETATM    1  C9  UNL     1      -3.136   7.605  14.675  1.00  0.00     0.028 C 
HETATM    2  C10 UNL     1      -4.015   8.474  13.730  1.00  0.00     0.124 C 
HETATM    3  C11 UNL     1      -3.131   8.866  12.519  1.00  0.00     0.046 C 
HETATM    4  C12 UNL     1      -1.704   8.388  12.883  1.00  0.00    -0.010 C 
HETATM    5  C13 UNL     1      -1.040   9.547  13.692  1.00  0.00     0.021 C 
HETATM    6  C14 UNL     1      -0.726   8.078  11.754  1.00  0.00    -0.070 C 
HETATM    7  C15 UNL     1      -0.731   8.774  10.597  1.00  0.00    -0.022 C 
HETATM    8  C16 UNL     1       0.277   8.607   9.495  1.00  0.00     0.034 C 
HETATM    9  C17 UNL     1       1.182   7.383   9.710  1.00  0.00     0.013 C 
HETATM   10  C18 UNL     1       2.274   7.137   8.620  1.00  0.00     0.018 C 
HETATM   11  C19 UNL     1       1.625   7.065   7.222  1.00  0.00     0.023 C 
HETATM   12  C20 UNL     1       3.391   8.186   8.576  1.00  0.00     0.023 C 
HETATM   13  C21 UNL     1       2.923   5.768   8.894  1.00  0.00     0.135 C 
HETATM   14  O4  UNL     1       3.639   5.208   8.062  1.00  0.00    -0.297 OA
HETATM   15  C22 UNL     1       2.638   5.109  10.228  1.00  0.00     0.080 C 
HETATM   16  C23 UNL     1       2.723   6.146  11.339  1.00  0.00     0.017 C 
HETATM   17  C24 UNL     1       1.670   7.287  11.210  1.00  0.00    -0.031 C 
HETATM   18  C25 UNL     1       2.335   8.586  11.741  1.00  0.00     0.016 C 
HETATM   19  C26 UNL     1       0.349   7.003  12.042  1.00  0.00     0.024 C 
HETATM   20  C27 UNL     1       0.551   6.745  13.558  1.00  0.00     0.010 C 
HETATM   21  C28 UNL     1      -0.737   6.602  14.404  1.00  0.00     0.011 C 
HETATM   22  C29 UNL     1      -2.017   7.092  13.705  1.00  0.00    -0.026 C 
HETATM   23  C30 UNL     1      -2.593   5.927  12.838  1.00  0.00     0.016 C 
ENDROOT
BRANCH   1  24
HETATM   24  C2  UNL     1      -3.852   6.519  15.541  1.00  0.00    -0.008 C 
HETATM   25  C1  UNL     1      -3.312   5.090  15.405  1.00  0.00     0.011 C 
BRANCH  24  26
HETATM   26  C3  UNL     1      -5.392   6.525  15.344  1.00  0.00     0.031 C 
BRANCH  26  27
HETATM   27  C4  UNL     1      -5.890   5.819  14.114  1.00  0.00    -0.027 C 
HETATM   28  C5  UNL     1      -6.889   4.918  14.122  1.00  0.00     0.009 C 
BRANCH  28  29
HETATM   29  C6  UNL     1      -7.471   4.156  12.941  1.00  0.00     0.106 C 
HETATM   30  C7  UNL     1      -6.412   3.522  12.023  1.00  0.00     0.053 C 
HETATM   31  C8  UNL     1      -8.347   5.087  12.089  1.00  0.00     0.053 C 
BRANCH  29  32
HETATM   32  O1  UNL     1      -8.258   3.044  13.425  1.00  0.00    -0.229 OA
BRANCH  32  33
HETATM   33  O2  UNL     1      -7.935   1.865  12.622  1.00  0.00    -0.249 OA
HETATM   34  H15 UNL     1      -8.811   1.787  12.205  1.00  0.00     0.253 HD
ENDBRANCH  32  33
ENDBRANCH  29  32
ENDBRANCH  28  29
ENDBRANCH  26  27
ENDBRANCH  24  26
ENDBRANCH   1  24
BRANCH   2  35
HETATM   35  O3  UNL     1      -4.492   9.636  14.394  1.00  0.00    -0.395 OA
HETATM   36  H18 UNL     1      -3.733  10.201  14.616  1.00  0.00     0.210 HD
ENDBRANCH   2  35
TORSDOF 7
ENDMDL
MODEL 2
REMARK minimizedAffinity -9.65856457
REMARK  7 active torsions:
REMARK  status: ('A' for Active; 'I' for Inactive)
REMARK    1  A    between atoms: C2_2  and  C3_3 
REMARK    2  A    between atoms: C2_2  and  C9_11 
REMARK    3  A    between atoms: C3_3  and  C4_4 
REMARK    4  A    between atoms: C5_5  and  C6_6 
REMARK    5  A    between atoms: C6_6  and  O1_9 
REMARK    6  A    between atoms: O1_9  and  O2_10 
REMARK    7  A    between atoms: C10_12  and  O3_13 
ROOT
HETATM    1  C9  UNL     1      -5.426   6.981  15.067  1.00  0.00     0.028 C 
HETATM    2  C10 UNL     1      -5.937   8.209  14.260  1.00  0.00     0.124 C 
HETATM    3  C11 UNL     1      -4.734   8.751  13.448  1.00  0.00     0.046 C 
HETATM    4  C12 UNL     1      -3.507   7.955  13.954  1.00  0.00    -0.010 C 
HETATM    5  C13 UNL     1      -2.962   8.724  15.200  1.00  0.00     0.021 C 
HETATM    6  C14 UNL     1      -2.307   7.794  13.027  1.00  0.00    -0.070 C 
HETATM    7  C15 UNL     1      -1.941   8.765  12.162  1.00  0.00    -0.022 C 
HETATM    8  C16 UNL     1      -0.703   8.727  11.309  1.00  0.00     0.034 C 
HETATM    9  C17 UNL     1      -0.014   7.353  11.338  1.00  0.00     0.013 C 
HETATM   10  C18 UNL     1       1.292   7.223  10.491  1.00  0.00     0.018 C 
HETATM   11  C19 UNL     1       1.025   7.640   9.030  1.00  0.00     0.023 C 
HETATM   12  C20 UNL     1       2.483   8.037  11.011  1.00  0.00     0.023 C 
HETATM   13  C21 UNL     1       1.706   5.740  10.475  1.00  0.00     0.135 C 
HETATM   14  O4  UNL     1       2.553   5.308   9.691  1.00  0.00    -0.297 OA
HETATM   15  C22 UNL     1       1.019   4.808  11.452  1.00  0.00     0.080 C 
HETATM   16  C23 UNL     1       0.918   5.480  12.814  1.00  0.00     0.017 C 
HETATM   17  C24 UNL     1       0.056   6.777  12.808  1.00  0.00    -0.031 C 
HETATM   18  C25 UNL     1       0.688   7.753  13.837  1.00  0.00     0.016 C 
HETATM   19  C26 UNL     1      -1.458   6.514  13.205  1.00  0.00     0.024 C 
HETATM   20  C27 UNL     1      -1.683   5.829  14.579  1.00  0.00     0.010 C 
HETATM   21  C28 UNL     1      -3.154   5.689  15.039  1.00  0.00     0.011 C 
HETATM   22  C29 UNL     1      -4.152   6.561  14.257  1.00  0.00    -0.026 C 
HETATM   23  C30 UNL     1      -4.598   5.787  12.976  1.00  0.00     0.016 C 
ENDROOT
BRANCH   1  24
HETATM   24  C2  UNL     1      -6.449   5.843  15.387  1.00  0.00    -0.008 C 
HETATM   25  C1  UNL     1      -6.908   4.999  14.191  1.00  0.00     0.011 C 
BRANCH  24  26
HETATM   26  C3  UNL     1      -7.682   6.358  16.178  1.00  0.00     0.031 C 
BRANCH  26  27
HETATM   27  C4  UNL     1      -8.940   6.530  15.374  1.00  0.00    -0.027 C 
HETATM   28  C5  UNL     1      -9.555   7.713  15.193  1.00  0.00     0.009 C 
BRANCH  28  29
HETATM   29  C6  UNL     1     -10.821   7.997  14.398  1.00  0.00     0.106 C 
HETATM   30  C7  UNL     1     -10.898   7.247  13.057  1.00  0.00     0.053 C 
HETATM   31  C8  UNL     1     -10.942   9.502  14.114  1.00  0.00     0.053 C 
BRANCH  29  32
HETATM   32  O1  UNL     1     -11.973   7.542  15.145  1.00  0.00    -0.229 OA
BRANCH  32  33
HETATM   33  O2  UNL     1     -12.292   6.180  14.719  1.00  0.00    -0.249 OA
HETATM   34  H15 UNL     1     -13.146   6.404  14.308  1.00  0.00     0.253 HD
ENDBRANCH  32  33
ENDBRANCH  29  32
ENDBRANCH  28  29
ENDBRANCH  26  27
ENDBRANCH  24  26
ENDBRANCH   1  24
BRANCH   2  35
HETATM   35  O3  UNL     1      -6.450   9.215  15.122  1.00  0.00    -0.395 OA
HETATM   36  H18 UNL     1      -5.721   9.561  15.664  1.00  0.00     0.210 HD
ENDBRANCH   2  35
TORSDOF 7
ENDMDL
MODEL 3
REMARK minimizedAffinity -9.32601452
REMARK  7 active torsions:
REMARK  status: ('A' for Active; 'I' for Inactive)
REMARK    1  A    between atoms: C2_2  and  C3_3 
REMARK    2  A    between atoms: C2_2  and  C9_11 
REMARK    3  A    between atoms: C3_3  and  C4_4 
REMARK    4  A    between atoms: C5_5  and  C6_6 
REMARK    5  A    between atoms: C6_6  and  O1_9 
REMARK    6  A    between atoms: O1_9  and  O2_10 
REMARK    7  A    between atoms: C10_12  and  O3_13 
ROOT
HETATM    1  C9  UNL     1      -1.816   4.756  12.224  1.00  0.00     0.028 C 
HETATM    2  C10 UNL     1      -0.318   4.448  12.507  1.00  0.00     0.124 C 
HETATM    3  C11 UNL     1       0.264   5.672  13.256  1.00  0.00     0.046 C 
HETATM    4  C12 UNL     1      -0.850   6.746  13.213  1.00  0.00    -0.010 C 
HETATM    5  C13 UNL     1      -0.663   7.527  11.873  1.00  0.00     0.021 C 
HETATM    6  C14 UNL     1      -0.876   7.817  14.299  1.00  0.00    -0.070 C 
HETATM    7  C15 UNL     1       0.258   8.308  14.842  1.00  0.00    -0.022 C 
HETATM    8  C16 UNL     1       0.313   9.446  15.823  1.00  0.00     0.034 C 
HETATM    9  C17 UNL     1      -1.080   9.841  16.340  1.00  0.00     0.013 C 
HETATM   10  C18 UNL     1      -1.123  11.027  17.355  1.00  0.00     0.018 C 
HETATM   11  C19 UNL     1      -0.186  10.743  18.548  1.00  0.00     0.023 C 
HETATM   12  C20 UNL     1      -0.750  12.394  16.768  1.00  0.00     0.023 C 
HETATM   13  C21 UNL     1      -2.555  11.128  17.911  1.00  0.00     0.135 C 
HETATM   14  O4  UNL     1      -2.823  11.809  18.903  1.00  0.00    -0.297 OA
HETATM   15  C22 UNL     1      -3.640  10.340  17.207  1.00  0.00     0.080 C 
HETATM   16  C23 UNL     1      -3.475  10.478  15.700  1.00  0.00     0.017 C 
HETATM   17  C24 UNL     1      -2.133   9.900  15.163  1.00  0.00    -0.031 C 
HETATM   18  C25 UNL     1      -1.694  10.792  13.970  1.00  0.00     0.016 C 
HETATM   19  C26 UNL     1      -2.262   8.398  14.667  1.00  0.00     0.024 C 
HETATM   20  C27 UNL     1      -3.333   8.140  13.575  1.00  0.00     0.010 C 
HETATM   21  C28 UNL     1      -3.377   6.709  12.987  1.00  0.00     0.011 C 
HETATM   22  C29 UNL     1      -2.135   5.854  13.295  1.00  0.00    -0.026 C 
HETATM   23  C30 UNL     1      -2.331   5.167  14.684  1.00  0.00     0.016 C 
ENDROOT
BRANCH   1  24
HETATM   24  C2  UNL     1      -2.808   3.550  12.155  1.00  0.00    -0.008 C 
HETATM   25  C1  UNL     1      -2.271   2.277  11.487  1.00  0.00     0.011 C 
BRANCH  24  26
HETATM   26  C3  UNL     1      -4.175   3.941  11.529  1.00  0.00     0.031 C 
BRANCH  26  27
HETATM   27  C4  UNL     1      -5.318   4.062  12.497  1.00  0.00    -0.027 C 
HETATM   28  C5  UNL     1      -6.611   3.958  12.143  1.00  0.00     0.009 C 
BRANCH  28  29
HETATM   29  C6  UNL     1      -7.837   4.057  13.038  1.00  0.00     0.106 C 
HETATM   30  C7  UNL     1      -8.712   5.293  12.764  1.00  0.00     0.053 C 
HETATM   31  C8  UNL     1      -7.415   4.086  14.515  1.00  0.00     0.053 C 
BRANCH  29  32
HETATM   32  O1  UNL     1      -8.705   2.926  12.795  1.00  0.00    -0.229 OA
BRANCH  32  33
HETATM   33  O2  UNL     1      -7.874   1.736  12.613  1.00  0.00    -0.249 OA
HETATM   34  H15 UNL     1      -8.099   1.602  11.676  1.00  0.00     0.253 HD
ENDBRANCH  32  33
ENDBRANCH  29  32
ENDBRANCH  28  29
ENDBRANCH  26  27
ENDBRANCH  24  26
ENDBRANCH   1  24
BRANCH   2  35
HETATM   35  O3  UNL     1       0.397   4.216  11.301  1.00  0.00    -0.395 OA
HETATM   36  H18 UNL     1       0.407   5.037  10.783  1.00  0.00     0.210 HD
ENDBRANCH   2  35
TORSDOF 7
ENDMDL
MODEL 4
REMARK minimizedAffinity -9.11004448
REMARK  7 active torsions:
REMARK  status: ('A' for Active; 'I' for Inactive)
REMARK    1  A    between atoms: C2_2  and  C3_3 
REMARK    2  A    between atoms: C2_2  and  C9_11 
REMARK    3  A    between atoms: C3_3  and  C4_4 
REMARK    4  A    between atoms: C5_5  and  C6_6 
REMARK    5  A    between atoms: C6_6  and  O1_9 
REMARK    6  A    between atoms: O1_9  and  O2_10 
REMARK    7  A    between atoms: C10_12  and  O3_13 
ROOT
HETATM    1  C9  UNL     1       1.408   6.959  11.633  1.00  0.00     0.028 C 
HETATM    2  C10 UNL     1       1.043   5.808  10.652  1.00  0.00     0.124 C 
HETATM    3  C11 UNL     1      -0.336   5.257  11.090  1.00  0.00     0.046 C 
HETATM    4  C12 UNL     1      -0.650   5.960  12.433  1.00  0.00    -0.010 C 
HETATM    5  C13 UNL     1       0.009   5.092  13.553  1.00  0.00     0.021 C 
HETATM    6  C14 UNL     1      -2.107   6.116  12.854  1.00  0.00    -0.070 C 
HETATM    7  C15 UNL     1      -3.037   5.182  12.560  1.00  0.00    -0.022 C 
HETATM    8  C16 UNL     1      -4.460   5.209  13.046  1.00  0.00     0.034 C 
HETATM    9  C17 UNL     1      -4.824   6.543  13.718  1.00  0.00     0.013 C 
HETATM   10  C18 UNL     1      -6.280   6.658  14.269  1.00  0.00     0.018 C 
HETATM   11  C19 UNL     1      -7.299   6.342  13.154  1.00  0.00     0.023 C 
HETATM   12  C20 UNL     1      -6.590   5.757  15.470  1.00  0.00     0.023 C 
HETATM   13  C21 UNL     1      -6.513   8.118  14.701  1.00  0.00     0.135 C 
HETATM   14  O4  UNL     1      -7.640   8.553  14.945  1.00  0.00    -0.297 OA
HETATM   15  C22 UNL     1      -5.303   9.022  14.803  1.00  0.00     0.080 C 
HETATM   16  C23 UNL     1      -4.163   8.277  15.482  1.00  0.00     0.017 C 
HETATM   17  C24 UNL     1      -3.676   7.027  14.691  1.00  0.00    -0.031 C 
HETATM   18  C25 UNL     1      -3.247   5.961  15.736  1.00  0.00     0.016 C 
HETATM   19  C26 UNL     1      -2.448   7.340  13.736  1.00  0.00     0.024 C 
HETATM   20  C27 UNL     1      -1.200   7.952  14.425  1.00  0.00     0.010 C 
HETATM   21  C28 UNL     1       0.050   8.137  13.532  1.00  0.00     0.011 C 
HETATM   22  C29 UNL     1       0.004   7.364  12.202  1.00  0.00    -0.026 C 
HETATM   23  C30 UNL     1      -0.742   8.233  11.141  1.00  0.00     0.016 C 
ENDROOT
BRANCH   1  24
HETATM   24  C2  UNL     1       2.296   8.125  11.090  1.00  0.00    -0.008 C 
HETATM   25  C1  UNL     1       3.331   7.741  10.027  1.00  0.00     0.011 C 
BRANCH  24  26
HETATM   26  C3  UNL     1       2.979   8.930  12.230  1.00  0.00     0.031 C 
BRANCH  26  27
HETATM   27  C4  UNL     1       4.248   8.334  12.771  1.00  0.00    -0.027 C 
HETATM   28  C5  UNL     1       4.887   8.800  13.858  1.00  0.00     0.009 C 
BRANCH  28  29
HETATM   29  C6  UNL     1       6.166   8.270  14.490  1.00  0.00     0.106 C 
HETATM   30  C7  UNL     1       7.324   9.283  14.500  1.00  0.00     0.053 C 
HETATM   31  C8  UNL     1       6.639   7.008  13.753  1.00  0.00     0.053 C 
BRANCH  29  32
HETATM   32  O1  UNL     1       5.926   7.966  15.884  1.00  0.00    -0.229 OA
BRANCH  32  33
HETATM   33  O2  UNL     1       7.180   8.136  16.617  1.00  0.00    -0.249 OA
HETATM   34  H15 UNL     1       7.290   7.195  16.843  1.00  0.00     0.253 HD
ENDBRANCH  32  33
ENDBRANCH  29  32
ENDBRANCH  28  29
ENDBRANCH  26  27
ENDBRANCH  24  26
ENDBRANCH   1  24
BRANCH   2  35
HETATM   35  O3  UNL     1       2.023   4.779  10.679  1.00  0.00    -0.395 OA
HETATM   36  H18 UNL     1       2.015   4.366  11.559  1.00  0.00     0.210 HD
ENDBRANCH   2  35
TORSDOF 7
ENDMDL
MODEL 5
REMARK minimizedAffinity -8.71838951
REMARK  7 active torsions:
REMARK  status: ('A' for Active; 'I' for Inactive)
REMARK    1  A    between atoms: C2_2  and  C3_3 
REMARK    2  A    between atoms: C2_2  and  C9_11 
REMARK    3  A    between atoms: C3_3  and  C4_4 
REMARK    4  A    between atoms: C5_5  and  C6_6 
REMARK    5  A    between atoms: C6_6  and  O1_9 
REMARK    6  A    between atoms: O1_9  and  O2_10 
REMARK    7  A    between atoms: C10_12  and  O3_13 
ROOT
HETATM    1  C9  UNL     1       2.293   7.189  10.174  1.00  0.00     0.028 C 
HETATM    2  C10 UNL     1       2.371   5.642  10.024  1.00  0.00     0.124 C 
HETATM    3  C11 UNL     1       1.283   5.041  10.950  1.00  0.00     0.046 C 
HETATM    4  C12 UNL     1       0.735   6.236  11.766  1.00  0.00    -0.010 C 
HETATM    5  C13 UNL     1       1.661   6.383  13.016  1.00  0.00     0.021 C 
HETATM    6  C14 UNL     1      -0.681   6.151  12.326  1.00  0.00    -0.070 C 
HETATM    7  C15 UNL     1      -1.210   4.983  12.749  1.00  0.00    -0.022 C 
HETATM    8  C16 UNL     1      -2.547   4.844  13.423  1.00  0.00     0.034 C 
HETATM    9  C17 UNL     1      -3.370   6.142  13.365  1.00  0.00     0.013 C 
HETATM   10  C18 UNL     1      -4.770   6.098  14.054  1.00  0.00     0.018 C 
HETATM   11  C19 UNL     1      -5.604   4.927  13.492  1.00  0.00     0.023 C 
HETATM   12  C20 UNL     1      -4.735   5.971  15.582  1.00  0.00     0.023 C 
HETATM   13  C21 UNL     1      -5.515   7.399  13.706  1.00  0.00     0.135 C 
HETATM   14  O4  UNL     1      -6.724   7.533  13.908  1.00  0.00    -0.297 OA
HETATM   15  C22 UNL     1      -4.714   8.523  13.082  1.00  0.00     0.080 C 
HETATM   16  C23 UNL     1      -3.382   8.664  13.805  1.00  0.00     0.017 C 
HETATM   17  C24 UNL     1      -2.476   7.403  13.696  1.00  0.00    -0.031 C 
HETATM   18  C25 UNL     1      -1.692   7.285  15.032  1.00  0.00     0.016 C 
HETATM   19  C26 UNL     1      -1.443   7.487  12.495  1.00  0.00     0.024 C 
HETATM   20  C27 UNL     1      -0.501   8.720  12.503  1.00  0.00     0.010 C 
HETATM   21  C28 UNL     1       0.599   8.745  11.415  1.00  0.00     0.011 C 
HETATM   22  C29 UNL     1       0.838   7.394  10.717  1.00  0.00    -0.026 C 
HETATM   23  C30 UNL     1      -0.171   7.256   9.533  1.00  0.00     0.016 C 
ENDROOT
BRANCH   1  24
HETATM   24  C2  UNL     1       2.700   8.061   8.942  1.00  0.00    -0.008 C 
HETATM   25  C1  UNL     1       2.612   7.372   7.574  1.00  0.00     0.011 C 
BRANCH  24  26
HETATM   26  C3  UNL     1       4.097   8.718   9.116  1.00  0.00     0.031 C 
BRANCH  26  27
HETATM   27  C4  UNL     1       4.622   8.756  10.524  1.00  0.00    -0.027 C 
HETATM   28  C5  UNL     1       5.775   8.180  10.906  1.00  0.00     0.009 C 
BRANCH  28  29
HETATM   29  C6  UNL     1       6.398   8.166  12.295  1.00  0.00     0.106 C 
HETATM   30  C7  UNL     1       5.371   8.153  13.440  1.00  0.00     0.053 C 
HETATM   31  C8  UNL     1       7.308   9.389  12.480  1.00  0.00     0.053 C 
BRANCH  29  32
HETATM   32  O1  UNL     1       7.163   6.950  12.468  1.00  0.00    -0.229 OA
BRANCH  32  33
HETATM   33  O2  UNL     1       6.238   5.818  12.476  1.00  0.00    -0.249 OA
HETATM   34  H15 UNL     1       6.391   5.574  13.406  1.00  0.00     0.253 HD
ENDBRANCH  32  33
ENDBRANCH  29  32
ENDBRANCH  28  29
ENDBRANCH  26  27
ENDBRANCH  24  26
ENDBRANCH   1  24
BRANCH   2  35
HETATM   35  O3  UNL     1       3.656   5.154  10.384  1.00  0.00    -0.395 OA
HETATM   36  H18 UNL     1       3.797   5.319  11.332  1.00  0.00     0.210 HD
ENDBRANCH   2  35
TORSDOF 7
ENDMDL
MODEL 6
REMARK minimizedAffinity -8.6624155
REMARK  7 active torsions:
REMARK  status: ('A' for Active; 'I' for Inactive)
REMARK    1  A    between atoms: C2_2  and  C3_3 
REMARK    2  A    between atoms: C2_2  and  C9_11 
REMARK    3  A    between atoms: C3_3  and  C4_4 
REMARK    4  A    between atoms: C5_5  and  C6_6 
REMARK    5  A    between atoms: C6_6  and  O1_9 
REMARK    6  A    between atoms: O1_9  and  O2_10 
REMARK    7  A    between atoms: C10_12  and  O3_13 
ROOT
HETATM    1  C9  UNL     1      -3.129   7.920  15.163  1.00  0.00     0.028 C 
HETATM    2  C10 UNL     1      -2.192   8.350  16.328  1.00  0.00     0.124 C 
HETATM    3  C11 UNL     1      -0.736   8.137  15.842  1.00  0.00     0.046 C 
HETATM    4  C12 UNL     1      -0.861   7.401  14.486  1.00  0.00    -0.010 C 
HETATM    5  C13 UNL     1      -0.933   5.875  14.814  1.00  0.00     0.021 C 
HETATM    6  C14 UNL     1       0.270   7.538  13.472  1.00  0.00    -0.070 C 
HETATM    7  C15 UNL     1       1.560   7.647  13.855  1.00  0.00    -0.022 C 
HETATM    8  C16 UNL     1       2.733   7.663  12.914  1.00  0.00     0.034 C 
HETATM    9  C17 UNL     1       2.302   7.789  11.443  1.00  0.00     0.013 C 
HETATM   10  C18 UNL     1       3.454   7.798  10.390  1.00  0.00     0.018 C 
HETATM   11  C19 UNL     1       4.478   8.902  10.729  1.00  0.00     0.023 C 
HETATM   12  C20 UNL     1       4.210   6.472  10.247  1.00  0.00     0.023 C 
HETATM   13  C21 UNL     1       2.845   8.144   9.019  1.00  0.00     0.135 C 
HETATM   14  O4  UNL     1       3.546   8.460   8.055  1.00  0.00    -0.297 OA
HETATM   15  C22 UNL     1       1.337   8.104   8.889  1.00  0.00     0.080 C 
HETATM   16  C23 UNL     1       0.796   6.866   9.590  1.00  0.00     0.017 C 
HETATM   17  C24 UNL     1       1.078   6.842  11.121  1.00  0.00    -0.031 C 
HETATM   18  C25 UNL     1       1.307   5.359  11.522  1.00  0.00     0.016 C 
HETATM   19  C26 UNL     1      -0.120   7.431  11.979  1.00  0.00     0.024 C 
HETATM   20  C27 UNL     1      -1.498   6.753  11.763  1.00  0.00     0.010 C 
HETATM   21  C28 UNL     1      -2.644   7.227  12.689  1.00  0.00     0.011 C 
HETATM   22  C29 UNL     1      -2.181   8.026  13.920  1.00  0.00    -0.026 C 
HETATM   23  C30 UNL     1      -2.037   9.528  13.518  1.00  0.00     0.016 C 
ENDROOT
BRANCH   1  24
HETATM   24  C2  UNL     1      -4.513   8.636  15.039  1.00  0.00    -0.008 C 
HETATM   25  C1  UNL     1      -4.665   9.942  15.828  1.00  0.00     0.011 C 
BRANCH  24  26
HETATM   26  C3  UNL     1      -5.702   7.687  15.351  1.00  0.00     0.031 C 
BRANCH  26  27
HETATM   27  C4  UNL     1      -6.171   6.839  14.202  1.00  0.00    -0.027 C 
HETATM   28  C5  UNL     1      -6.478   5.535  14.312  1.00  0.00     0.009 C 
BRANCH  28  29
HETATM   29  C6  UNL     1      -6.965   4.593  13.221  1.00  0.00     0.106 C 
HETATM   30  C7  UNL     1      -8.068   5.187  12.329  1.00  0.00     0.053 C 
HETATM   31  C8  UNL     1      -7.500   3.293  13.843  1.00  0.00     0.053 C 
BRANCH  29  32
HETATM   32  O1  UNL     1      -5.876   4.295  12.318  1.00  0.00    -0.229 OA
BRANCH  32  33
HETATM   33  O2  UNL     1      -6.046   2.931  11.820  1.00  0.00    -0.249 OA
HETATM   34  H15 UNL     1      -5.256   2.568  12.257  1.00  0.00     0.253 HD
ENDBRANCH  32  33
ENDBRANCH  29  32
ENDBRANCH  28  29
ENDBRANCH  26  27
ENDBRANCH  24  26
ENDBRANCH   1  24
BRANCH   2  35
HETATM   35  O3  UNL     1      -2.442   7.585  17.499  1.00  0.00    -0.395 OA
HETATM   36  H18 UNL     1      -2.208   6.659  17.322  1.00  0.00     0.210 HD
ENDBRANCH   2  35
TORSDOF 7
ENDMDL
MODEL 7
REMARK minimizedAffinity -8.62722683
REMARK  7 active torsions:
REMARK  status: ('A' for Active; 'I' for Inactive)
REMARK    1  A    between atoms: C2_2  and  C3_3 
REMARK    2  A    between atoms: C2_2  and  C9_11 
REMARK    3  A    between atoms: C3_3  and  C4_4 
REMARK    4  A    between atoms: C5_5  and  C6_6 
REMARK    5  A    between atoms: C6_6  and  O1_9 
REMARK    6  A    between atoms: O1_9  and  O2_10 
REMARK    7  A    between atoms: C10_12  and  O3_13 
ROOT
HETATM    1  C9  UNL     1      -3.365   6.801  14.091  1.00  0.00     0.028 C 
HETATM    2  C10 UNL     1      -3.684   5.596  13.160  1.00  0.00     0.124 C 
HETATM    3  C11 UNL     1      -5.222   5.413  13.166  1.00  0.00     0.046 C 
HETATM    4  C12 UNL     1      -5.746   6.382  14.254  1.00  0.00    -0.010 C 
HETATM    5  C13 UNL     1      -5.688   5.603  15.607  1.00  0.00     0.021 C 
HETATM    6  C14 UNL     1      -7.179   6.893  14.149  1.00  0.00    -0.070 C 
HETATM    7  C15 UNL     1      -8.174   6.127  13.653  1.00  0.00    -0.022 C 
HETATM    8  C16 UNL     1      -9.626   6.519  13.633  1.00  0.00     0.034 C 
HETATM    9  C17 UNL     1      -9.839   7.993  14.014  1.00  0.00     0.013 C 
HETATM   10  C18 UNL     1     -11.321   8.487  14.036  1.00  0.00     0.018 C 
HETATM   11  C19 UNL     1     -12.000   8.196  12.681  1.00  0.00     0.023 C 
HETATM   12  C20 UNL     1     -12.188   7.883  15.146  1.00  0.00     0.023 C 
HETATM   13  C21 UNL     1     -11.311  10.015  14.224  1.00  0.00     0.135 C 
HETATM   14  O4  UNL     1     -12.318  10.701  14.035  1.00  0.00    -0.297 OA
HETATM   15  C22 UNL     1     -10.006  10.665  14.635  1.00  0.00     0.080 C 
HETATM   16  C23 UNL     1      -9.341   9.834  15.722  1.00  0.00     0.017 C 
HETATM   17  C24 UNL     1      -8.958   8.396  15.262  1.00  0.00    -0.031 C 
HETATM   18  C25 UNL     1      -9.137   7.460  16.489  1.00  0.00     0.016 C 
HETATM   19  C26 UNL     1      -7.461   8.293  14.745  1.00  0.00     0.024 C 
HETATM   20  C27 UNL     1      -6.370   8.752  15.747  1.00  0.00     0.010 C 
HETATM   21  C28 UNL     1      -4.903   8.530  15.307  1.00  0.00     0.011 C 
HETATM   22  C29 UNL     1      -4.732   7.567  14.119  1.00  0.00    -0.026 C 
HETATM   23  C30 UNL     1      -4.888   8.375  12.792  1.00  0.00     0.016 C 
ENDROOT
BRANCH   1  24
HETATM   24  C2  UNL     1      -2.099   7.658  13.765  1.00  0.00    -0.008 C 
HETATM   25  C1  UNL     1      -2.200   8.561  12.529  1.00  0.00     0.011 C 
BRANCH  24  26
HETATM   26  C3  UNL     1      -0.806   6.802  13.692  1.00  0.00     0.031 C 
BRANCH  26  27
HETATM   27  C4  UNL     1      -0.174   6.699  12.332  1.00  0.00    -0.027 C 
HETATM   28  C5  UNL     1       1.136   6.470  12.133  1.00  0.00     0.009 C 
BRANCH  28  29
HETATM   29  C6  UNL     1       1.873   6.343  10.807  1.00  0.00     0.106 C 
HETATM   30  C7  UNL     1       3.400   6.232  10.949  1.00  0.00     0.053 C 
HETATM   31  C8  UNL     1       1.560   7.549   9.908  1.00  0.00     0.053 C 
BRANCH  29  32
HETATM   32  O1  UNL     1       1.471   5.119  10.148  1.00  0.00    -0.229 OA
BRANCH  32  33
HETATM   33  O2  UNL     1       2.474   4.093  10.427  1.00  0.00    -0.249 OA
HETATM   34  H15 UNL     1       2.791   4.013   9.510  1.00  0.00     0.253 HD
ENDBRANCH  32  33
ENDBRANCH  29  32
ENDBRANCH  28  29
ENDBRANCH  26  27
ENDBRANCH  24  26
ENDBRANCH   1  24
BRANCH   2  35
HETATM   35  O3  UNL     1      -3.040   4.413  13.611  1.00  0.00    -0.395 OA
HETATM   36  H18 UNL     1      -3.412   4.165  14.473  1.00  0.00     0.210 HD
ENDBRANCH   2  35
TORSDOF 7
ENDMDL
MODEL 8
REMARK minimizedAffinity -8.51191711
REMARK  7 active torsions:
REMARK  status: ('A' for Active; 'I' for Inactive)
REMARK    1  A    between atoms: C2_2  and  C3_3 
REMARK    2  A    between atoms: C2_2  and  C9_11 
REMARK    3  A    between atoms: C3_3  and  C4_4 
REMARK    4  A    between atoms: C5_5  and  C6_6 
REMARK    5  A    between atoms: C6_6  and  O1_9 
REMARK    6  A    between atoms: O1_9  and  O2_10 
REMARK    7  A    between atoms: C10_12  and  O3_13 
ROOT
HETATM    1  C9  UNL     1      -2.188   7.142  14.146  1.00  0.00     0.028 C 
HETATM    2  C10 UNL     1      -2.592   8.436  14.909  1.00  0.00     0.124 C 
HETATM    3  C11 UNL     1      -1.301   9.270  15.105  1.00  0.00     0.046 C 
HETATM    4  C12 UNL     1      -0.147   8.353  14.633  1.00  0.00    -0.010 C 
HETATM    5  C13 UNL     1       0.270   7.492  15.869  1.00  0.00     0.021 C 
HETATM    6  C14 UNL     1       1.146   8.998  14.143  1.00  0.00    -0.070 C 
HETATM    7  C15 UNL     1       1.616  10.146  14.678  1.00  0.00    -0.022 C 
HETATM    8  C16 UNL     1       2.939  10.771  14.331  1.00  0.00     0.034 C 
HETATM    9  C17 UNL     1       3.603  10.100  13.117  1.00  0.00     0.013 C 
HETATM   10  C18 UNL     1       4.992  10.675  12.692  1.00  0.00     0.018 C 
HETATM   11  C19 UNL     1       4.890  12.196  12.454  1.00  0.00     0.023 C 
HETATM   12  C20 UNL     1       6.129  10.420  13.688  1.00  0.00     0.023 C 
HETATM   13  C21 UNL     1       5.386  10.027  11.351  1.00  0.00     0.135 C 
HETATM   14  O4  UNL     1       6.307  10.467  10.661  1.00  0.00    -0.297 OA
HETATM   15  C22 UNL     1       4.585   8.828  10.887  1.00  0.00     0.080 C 
HETATM   16  C23 UNL     1       4.344   7.889  12.060  1.00  0.00     0.017 C 
HETATM   17  C24 UNL     1       3.505   8.525  13.207  1.00  0.00    -0.031 C 
HETATM   18  C25 UNL     1       4.034   7.937  14.544  1.00  0.00     0.016 C 
HETATM   19  C26 UNL     1       1.954   8.215  13.082  1.00  0.00     0.024 C 
HETATM   20  C27 UNL     1       1.572   6.712  13.023  1.00  0.00     0.010 C 
HETATM   21  C28 UNL     1       0.058   6.392  13.037  1.00  0.00     0.011 C 
HETATM   22  C29 UNL     1      -0.839   7.565  13.471  1.00  0.00    -0.026 C 
HETATM   23  C30 UNL     1      -1.152   8.446  12.220  1.00  0.00     0.016 C 
ENDROOT
BRANCH   1  24
HETATM   24  C2  UNL     1      -3.253   6.485  13.210  1.00  0.00    -0.008 C 
HETATM   25  C1  UNL     1      -4.696   6.974  13.389  1.00  0.00     0.011 C 
BRANCH  24  26
HETATM   26  C3  UNL     1      -3.209   4.934  13.257  1.00  0.00     0.031 C 
BRANCH  26  27
HETATM   27  C4  UNL     1      -4.543   4.252  13.375  1.00  0.00    -0.027 C 
HETATM   28  C5  UNL     1      -5.663   4.693  12.775  1.00  0.00     0.009 C 
BRANCH  28  29
HETATM   29  C6  UNL     1      -7.054   4.079  12.823  1.00  0.00     0.106 C 
HETATM   30  C7  UNL     1      -8.136   4.927  12.134  1.00  0.00     0.053 C 
HETATM   31  C8  UNL     1      -7.482   3.847  14.280  1.00  0.00     0.053 C 
BRANCH  29  32
HETATM   32  O1  UNL     1      -7.052   2.823  12.104  1.00  0.00    -0.229 OA
BRANCH  32  33
HETATM   33  O2  UNL     1      -7.983   1.910  12.766  1.00  0.00    -0.249 OA
HETATM   34  H15 UNL     1      -7.305   1.281  13.068  1.00  0.00     0.253 HD
ENDBRANCH  32  33
ENDBRANCH  29  32
ENDBRANCH  28  29
ENDBRANCH  26  27
ENDBRANCH  24  26
ENDBRANCH   1  24
BRANCH   2  35
HETATM   35  O3  UNL     1      -3.183   8.130  16.165  1.00  0.00    -0.395 OA
HETATM   36  H18 UNL     1      -2.513   7.709  16.729  1.00  0.00     0.210 HD
ENDBRANCH   2  35
TORSDOF 7
ENDMDL
MODEL 9
REMARK minimizedAffinity -8.47147179
REMARK  7 active torsions:
REMARK  status: ('A' for Active; 'I' for Inactive)
REMARK    1  A    between atoms: C2_2  and  C3_3 
REMARK    2  A    between atoms: C2_2  and  C9_11 
REMARK    3  A    between atoms: C3_3  and  C4_4 
REMARK    4  A    between atoms: C5_5  and  C6_6 
REMARK    5  A    between atoms: C6_6  and  O1_9 
REMARK    6  A    between atoms: O1_9  and  O2_10 
REMARK    7  A    between atoms: C10_12  and  O3_13 
ROOT
HETATM    1  C9  UNL     1       1.636   7.159  10.545  1.00  0.00     0.028 C 
HETATM    2  C10 UNL     1       2.405   5.900  10.050  1.00  0.00     0.124 C 
HETATM    3  C11 UNL     1       3.877   6.058  10.508  1.00  0.00     0.046 C 
HETATM    4  C12 UNL     1       3.976   7.492  11.081  1.00  0.00    -0.010 C 
HETATM    5  C13 UNL     1       4.293   8.432   9.874  1.00  0.00     0.021 C 
HETATM    6  C14 UNL     1       5.055   7.794  12.115  1.00  0.00    -0.070 C 
HETATM    7  C15 UNL     1       6.265   7.195  12.076  1.00  0.00    -0.022 C 
HETATM    8  C16 UNL     1       7.415   7.532  12.985  1.00  0.00     0.034 C 
HETATM    9  C17 UNL     1       6.999   8.464  14.135  1.00  0.00     0.013 C 
HETATM   10  C18 UNL     1       8.133   8.881  15.124  1.00  0.00     0.018 C 
HETATM   11  C19 UNL     1       8.830   7.629  15.695  1.00  0.00     0.023 C 
HETATM   12  C20 UNL     1       9.208   9.797  14.526  1.00  0.00     0.023 C 
HETATM   13  C21 UNL     1       7.486   9.624  16.307  1.00  0.00     0.135 C 
HETATM   14  O4  UNL     1       8.103   9.853  17.349  1.00  0.00    -0.297 OA
HETATM   15  C22 UNL     1       6.042  10.057  16.160  1.00  0.00     0.080 C 
HETATM   16  C23 UNL     1       5.823  10.647  14.774  1.00  0.00     0.017 C 
HETATM   17  C24 UNL     1       6.068   9.632  13.619  1.00  0.00    -0.031 C 
HETATM   18  C25 UNL     1       6.662  10.430  12.426  1.00  0.00     0.016 C 
HETATM   19  C26 UNL     1       4.740   8.904  13.145  1.00  0.00     0.024 C 
HETATM   20  C27 UNL     1       3.588   9.838  12.689  1.00  0.00     0.010 C 
HETATM   21  C28 UNL     1       2.338   9.141  12.099  1.00  0.00     0.011 C 
HETATM   22  C29 UNL     1       2.553   7.668  11.710  1.00  0.00    -0.026 C 
HETATM   23  C30 UNL     1       2.313   6.777  12.971  1.00  0.00     0.016 C 
ENDROOT
BRANCH   1  24
HETATM   24  C2  UNL     1       0.118   7.000  10.880  1.00  0.00    -0.008 C 
HETATM   25  C1  UNL     1      -0.553   8.208  11.545  1.00  0.00     0.011 C 
BRANCH  24  26
HETATM   26  C3  UNL     1      -0.177   5.713  11.698  1.00  0.00     0.031 C 
BRANCH  26  27
HETATM   27  C4  UNL     1      -1.253   4.824  11.139  1.00  0.00    -0.027 C 
HETATM   28  C5  UNL     1      -2.287   4.358  11.862  1.00  0.00     0.009 C 
BRANCH  28  29
HETATM   29  C6  UNL     1      -3.427   3.465  11.397  1.00  0.00     0.106 C 
HETATM   30  C7  UNL     1      -4.793   3.827  12.003  1.00  0.00     0.053 C 
HETATM   31  C8  UNL     1      -3.124   1.997  11.738  1.00  0.00     0.053 C 
BRANCH  29  32
HETATM   32  O1  UNL     1      -3.603   3.612   9.968  1.00  0.00    -0.229 OA
BRANCH  32  33
HETATM   33  O2  UNL     1      -4.969   3.217   9.628  1.00  0.00    -0.249 OA
HETATM   34  H15 UNL     1      -4.719   2.430   9.114  1.00  0.00     0.253 HD
ENDBRANCH  32  33
ENDBRANCH  29  32
ENDBRANCH  28  29
ENDBRANCH  26  27
ENDBRANCH  24  26
ENDBRANCH   1  24
BRANCH   2  35
HETATM   35  O3  UNL     1       2.334   5.777   8.636  1.00  0.00    -0.395 OA
HETATM   36  H18 UNL     1       2.803   6.528   8.235  1.00  0.00     0.210 HD
ENDBRANCH   2  35
TORSDOF 7
ENDMDL
