MODEL 1
REMARK minimizedAffinity -8.20100594
REMARK CNNscore 0.366164237
REMARK CNNaffinity 7.36116982
REMARK  7 active torsions:
REMARK  status: ('A' for Active; 'I' for Inactive)
REMARK    1  A    between atoms: C2_2  and  C3_3 
REMARK    2  A    between atoms: C5_5  and  N1_6 
REMARK    3  A    between atoms: C5_5  and  C35_45 
REMARK       I    between atoms: N1_6  and  C6_7 
REMARK    4  A    between atoms: C6_7  and  C7_9 
REMARK    5  A    between atoms: C12_16  and  C13_17 
REMARK       I    between atoms: C35_45  and  N5_47 
REMARK    6  A    between atoms: N5_47  and  S1_48 
REMARK    7  A    between atoms: S1_48  and  C36_51 
ROOT
HETATM    1  C7  UNL     1       2.532  53.801 -10.836  1.00  0.00     0.181 C 
HETATM    2  C8  UNL     1       3.561  54.927 -10.955  1.00  0.00     0.069 C 
HETATM    3  C9  UNL     1       4.496  54.730  -9.761  1.00  0.00     0.154 C 
HETATM    4  C10 UNL     1       3.844  53.655  -8.881  1.00  0.00     0.159 C 
HETATM    5  N2  UNL     1       2.473  53.486  -9.406  1.00  0.00    -0.334 N 
HETATM    6  C11 UNL     1       1.422  53.553  -8.515  1.00  0.00     0.244 C 
HETATM    7  O2  UNL     1       1.745  53.665  -7.312  1.00  0.00    -0.271 OA
HETATM    8  C12 UNL     1      -0.129  53.306  -8.819  1.00  0.00     0.186 C 
HETATM    9  N3  UNL     1      -0.809  53.962  -7.682  1.00  0.00    -0.323 N 
HETATM   10  C17 UNL     1      -0.942  53.442  -6.437  1.00  0.00     0.361 C 
HETATM   11  O3  UNL     1      -0.723  52.293  -6.096  1.00  0.00    -0.239 OA
HETATM   12  O4  UNL     1      -1.331  54.468  -5.645  1.00  0.00    -0.303 OA
HETATM   13  C18 UNL     1      -1.056  54.447  -4.235  1.00  0.00     0.189 C 
HETATM   14  C19 UNL     1      -0.111  55.660  -3.931  1.00  0.00    -0.025 C 
HETATM   15  C20 UNL     1      -0.707  56.921  -4.606  1.00  0.00     0.017 C 
HETATM   16  C21 UNL     1       1.246  55.321  -4.572  1.00  0.00     0.017 C 
HETATM   17  C22 UNL     1       0.045  55.874  -2.400  1.00  0.00     0.011 C 
HETATM   18  C23 UNL     1       0.697  57.182  -1.890  1.00  0.00     0.001 C 
HETATM   19  C24 UNL     1       2.203  57.371  -2.157  1.00  0.00     0.005 C 
HETATM   20  C25 UNL     1       2.533  58.429  -3.239  1.00  0.00     0.039 C 
HETATM   21  C26 UNL     1       3.956  58.341  -3.749  1.00  0.00    -0.050 A 
HETATM   22  C27 UNL     1       5.025  58.547  -2.864  1.00  0.00     0.007 A 
HETATM   23  C28 UNL     1       6.361  58.400  -3.270  1.00  0.00     0.001 A 
HETATM   24  C29 UNL     1       6.665  58.031  -4.581  1.00  0.00     0.009 A 
HETATM   25  C30 UNL     1       5.619  57.845  -5.470  1.00  0.00    -0.032 A 
HETATM   26  C31 UNL     1       4.283  58.028  -5.074  1.00  0.00    -0.026 A 
HETATM   27  C32 UNL     1       3.396  57.826  -6.269  1.00  0.00     0.168 C 
HETATM   28  N4  UNL     1       4.290  57.297  -7.289  1.00  0.00    -0.320 N 
HETATM   29  C33 UNL     1       5.686  57.386  -6.895  1.00  0.00     0.167 C 
HETATM   30  C34 UNL     1       3.811  56.553  -8.338  1.00  0.00     0.363 C 
HETATM   31  O5  UNL     1       2.619  56.435  -8.598  1.00  0.00    -0.238 OA
HETATM   32  O6  UNL     1       4.811  55.922  -9.016  1.00  0.00    -0.297 OA
HETATM   33  H24 UNL     1      -0.790  54.969  -7.645  1.00  0.00     0.165 HD
ENDROOT
BRANCH   1  34
HETATM   34  C6  UNL     1       2.935  52.549 -11.646  1.00  0.00     0.241 C 
HETATM   35  N1  UNL     1       2.498  52.594 -12.951  1.00  0.00    -0.341 N 
HETATM   36  H7  UNL     1       1.768  53.279 -13.119  1.00  0.00     0.163 HD
HETATM   37  O1  UNL     1       3.669  51.683 -11.188  1.00  0.00    -0.271 OA
BRANCH  35  38
HETATM   38  C5  UNL     1       2.753  51.645 -14.021  1.00  0.00     0.122 A 
HETATM   39  C3  UNL     1       1.904  51.717 -15.291  1.00  0.00     0.048 A 
HETATM   40  C4  UNL     1       3.363  52.081 -15.341  1.00  0.00     0.053 A 
BRANCH  39  41
HETATM   41  C2  UNL     1       1.437  50.497 -15.958  1.00  0.00    -0.029 C 
HETATM   42  C1  UNL     1       0.314  50.391 -16.675  1.00  0.00     0.007 C 
ENDBRANCH  39  41
BRANCH  38  43
HETATM   43  C35 UNL     1       3.169  50.277 -13.512  1.00  0.00     0.260 C 
HETATM   44  O7  UNL     1       4.296  49.841 -13.709  1.00  0.00    -0.270 OA
HETATM   45  N5  UNL     1       2.181  49.644 -12.758  1.00  0.00    -0.252 N 
HETATM   46  H48 UNL     1       1.224  49.977 -12.834  1.00  0.00     0.181 HD
BRANCH  45  47
HETATM   47  S1  UNL     1       2.280  48.114 -12.134  1.00  0.00     0.237 S 
HETATM   48  O8  UNL     1       1.026  47.791 -11.496  1.00  0.00    -0.205 OA
HETATM   49  O9  UNL     1       3.517  48.120 -11.379  1.00  0.00    -0.205 OA
BRANCH  47  50
HETATM   50  C36 UNL     1       2.562  46.991 -13.529  1.00  0.00     0.130 A 
HETATM   51  C37 UNL     1       1.512  45.926 -13.697  1.00  0.00     0.023 A 
HETATM   52  C38 UNL     1       1.563  47.093 -14.647  1.00  0.00     0.023 A 
ENDBRANCH  47  50
ENDBRANCH  45  47
ENDBRANCH  38  43
ENDBRANCH  35  38
ENDBRANCH   1  34
BRANCH   8  53
HETATM   53  C13 UNL     1      -0.934  53.707 -10.100  1.00  0.00    -0.022 C 
HETATM   54  C14 UNL     1      -2.444  53.823  -9.829  1.00  0.00     0.017 C 
HETATM   55  C15 UNL     1      -0.610  52.820 -11.314  1.00  0.00     0.017 C 
HETATM   56  C16 UNL     1      -0.549  55.170 -10.520  1.00  0.00     0.017 C 
ENDBRANCH   8  53
TORSDOF 7
ENDMDL
MODEL 2
REMARK minimizedAffinity -8.29140186
REMARK CNNscore 0.278957337
REMARK CNNaffinity 7.31582975
REMARK  7 active torsions:
REMARK  status: ('A' for Active; 'I' for Inactive)
REMARK    1  A    between atoms: C2_2  and  C3_3 
REMARK    2  A    between atoms: C5_5  and  N1_6 
REMARK    3  A    between atoms: C5_5  and  C35_45 
REMARK       I    between atoms: N1_6  and  C6_7 
REMARK    4  A    between atoms: C6_7  and  C7_9 
REMARK    5  A    between atoms: C12_16  and  C13_17 
REMARK       I    between atoms: C35_45  and  N5_47 
REMARK    6  A    between atoms: N5_47  and  S1_48 
REMARK    7  A    between atoms: S1_48  and  C36_51 
ROOT
HETATM    1  C7  UNL     1       2.177  53.898 -10.467  1.00  0.00     0.181 C 
HETATM    2  C8  UNL     1       3.211  55.010 -10.658  1.00  0.00     0.069 C 
HETATM    3  C9  UNL     1       4.201  54.822  -9.508  1.00  0.00     0.154 C 
HETATM    4  C10 UNL     1       3.583  53.771  -8.577  1.00  0.00     0.159 C 
HETATM    5  N2  UNL     1       2.185  53.609  -9.031  1.00  0.00    -0.334 N 
HETATM    6  C11 UNL     1       1.181  53.704  -8.091  1.00  0.00     0.244 C 
HETATM    7  O2  UNL     1       1.564  53.833  -6.907  1.00  0.00    -0.271 OA
HETATM    8  C12 UNL     1      -0.386  53.470  -8.313  1.00  0.00     0.186 C 
HETATM    9  N3  UNL     1      -1.001  54.154  -7.155  1.00  0.00    -0.323 N 
HETATM   10  C17 UNL     1      -1.079  53.657  -5.896  1.00  0.00     0.361 C 
HETATM   11  O3  UNL     1      -0.856  52.512  -5.546  1.00  0.00    -0.239 OA
HETATM   12  O4  UNL     1      -1.417  54.701  -5.105  1.00  0.00    -0.303 OA
HETATM   13  C18 UNL     1      -1.072  54.702  -3.710  1.00  0.00     0.189 C 
HETATM   14  C19 UNL     1      -0.100  55.909  -3.476  1.00  0.00    -0.025 C 
HETATM   15  C20 UNL     1      -0.715  57.165  -4.142  1.00  0.00     0.017 C 
HETATM   16  C21 UNL     1       1.219  55.543  -4.176  1.00  0.00     0.017 C 
HETATM   17  C22 UNL     1       0.134  56.148  -1.958  1.00  0.00     0.011 C 
HETATM   18  C23 UNL     1       0.825  57.457  -1.505  1.00  0.00     0.001 C 
HETATM   19  C24 UNL     1       2.318  57.623  -1.849  1.00  0.00     0.005 C 
HETATM   20  C25 UNL     1       2.605  58.658  -2.965  1.00  0.00     0.039 C 
HETATM   21  C26 UNL     1       4.000  58.544  -3.543  1.00  0.00    -0.050 A 
HETATM   22  C27 UNL     1       5.114  58.753  -2.715  1.00  0.00     0.007 A 
HETATM   23  C28 UNL     1       6.427  58.583  -3.184  1.00  0.00     0.001 A 
HETATM   24  C29 UNL     1       6.661  58.188  -4.502  1.00  0.00     0.009 A 
HETATM   25  C30 UNL     1       5.570  57.998  -5.334  1.00  0.00    -0.032 A 
HETATM   26  C31 UNL     1       4.257  58.204  -4.876  1.00  0.00    -0.026 A 
HETATM   27  C32 UNL     1       3.310  57.992  -6.022  1.00  0.00     0.168 C 
HETATM   28  N4  UNL     1       4.146  57.435  -7.076  1.00  0.00    -0.320 N 
HETATM   29  C33 UNL     1       5.562  57.514  -6.753  1.00  0.00     0.167 C 
HETATM   30  C34 UNL     1       3.608  56.678  -8.086  1.00  0.00     0.363 C 
HETATM   31  O5  UNL     1       2.403  56.570  -8.284  1.00  0.00    -0.238 OA
HETATM   32  O6  UNL     1       4.566  56.024  -8.801  1.00  0.00    -0.297 OA
HETATM   33  H24 UNL     1      -0.970  55.160  -7.138  1.00  0.00     0.165 HD
ENDROOT
BRANCH   1  34
HETATM   34  C6  UNL     1       2.525  52.627 -11.273  1.00  0.00     0.241 C 
HETATM   35  N1  UNL     1       2.187  52.729 -12.604  1.00  0.00    -0.341 N 
HETATM   36  H7  UNL     1       1.534  53.478 -12.808  1.00  0.00     0.163 HD
HETATM   37  O1  UNL     1       3.147  51.693 -10.783  1.00  0.00    -0.271 OA
BRANCH  35  38
HETATM   38  C5  UNL     1       2.434  51.777 -13.673  1.00  0.00     0.122 A 
HETATM   39  C3  UNL     1       3.795  51.785 -14.371  1.00  0.00     0.048 A 
HETATM   40  C4  UNL     1       3.403  50.622 -13.501  1.00  0.00     0.053 A 
BRANCH  39  41
HETATM   41  C2  UNL     1       3.901  51.603 -15.823  1.00  0.00    -0.029 C 
HETATM   42  C1  UNL     1       4.544  52.423 -16.659  1.00  0.00     0.007 C 
ENDBRANCH  39  41
BRANCH  38  43
HETATM   43  C35 UNL     1       1.200  51.494 -14.510  1.00  0.00     0.260 C 
HETATM   44  O7  UNL     1       0.659  52.376 -15.164  1.00  0.00    -0.270 OA
HETATM   45  N5  UNL     1       0.827  50.150 -14.506  1.00  0.00    -0.252 N 
HETATM   46  H48 UNL     1       1.193  49.546 -13.775  1.00  0.00     0.181 HD
BRANCH  45  47
HETATM   47  S1  UNL     1      -0.517  49.523 -15.241  1.00  0.00     0.237 S 
HETATM   48  O8  UNL     1      -1.577  50.502 -15.185  1.00  0.00    -0.205 OA
HETATM   49  O9  UNL     1      -0.678  48.218 -14.630  1.00  0.00    -0.205 OA
BRANCH  47  50
HETATM   50  C36 UNL     1      -0.074  49.203 -16.970  1.00  0.00     0.130 A 
HETATM   51  C37 UNL     1      -1.213  49.342 -17.944  1.00  0.00     0.023 A 
HETATM   52  C38 UNL     1      -0.142  50.398 -17.880  1.00  0.00     0.023 A 
ENDBRANCH  47  50
ENDBRANCH  45  47
ENDBRANCH  38  43
ENDBRANCH  35  38
ENDBRANCH   1  34
BRANCH   8  53
HETATM   53  C13 UNL     1      -1.249  53.858  -9.560  1.00  0.00    -0.022 C 
HETATM   54  C14 UNL     1      -0.895  55.252 -10.105  1.00  0.00     0.017 C 
HETATM   55  C15 UNL     1      -2.758  53.673  -9.326  1.00  0.00     0.017 C 
HETATM   56  C16 UNL     1      -0.881  52.917 -10.762  1.00  0.00     0.017 C 
ENDBRANCH   8  53
TORSDOF 7
ENDMDL
MODEL 3
REMARK minimizedAffinity -7.6317544
REMARK CNNscore 0.235946074
REMARK CNNaffinity 7.10532618
REMARK  7 active torsions:
REMARK  status: ('A' for Active; 'I' for Inactive)
REMARK    1  A    between atoms: C2_2  and  C3_3 
REMARK    2  A    between atoms: C5_5  and  N1_6 
REMARK    3  A    between atoms: C5_5  and  C35_45 
REMARK       I    between atoms: N1_6  and  C6_7 
REMARK    4  A    between atoms: C6_7  and  C7_9 
REMARK    5  A    between atoms: C12_16  and  C13_17 
REMARK       I    between atoms: C35_45  and  N5_47 
REMARK    6  A    between atoms: N5_47  and  S1_48 
REMARK    7  A    between atoms: S1_48  and  C36_51 
ROOT
HETATM    1  C7  UNL     1       0.525  55.822  -8.692  1.00  0.00     0.181 C 
HETATM    2  C8  UNL     1      -0.814  55.887  -9.430  1.00  0.00     0.069 C 
HETATM    3  C9  UNL     1      -1.533  54.592  -9.048  1.00  0.00     0.154 C 
HETATM    4  C10 UNL     1      -0.502  53.734  -8.302  1.00  0.00     0.159 C 
HETATM    5  N2  UNL     1       0.802  54.393  -8.526  1.00  0.00    -0.334 N 
HETATM    6  C11 UNL     1       1.849  53.622  -8.987  1.00  0.00     0.244 C 
HETATM    7  O2  UNL     1       1.612  52.399  -9.089  1.00  0.00    -0.271 OA
HETATM    8  C12 UNL     1       3.367  54.077  -9.210  1.00  0.00     0.186 C 
HETATM    9  N3  UNL     1       3.898  53.051 -10.133  1.00  0.00    -0.323 N 
HETATM   10  C17 UNL     1       4.295  51.803  -9.782  1.00  0.00     0.361 C 
HETATM   11  O3  UNL     1       4.482  51.386  -8.652  1.00  0.00    -0.239 OA
HETATM   12  O4  UNL     1       4.406  51.108 -10.937  1.00  0.00    -0.303 OA
HETATM   13  C18 UNL     1       4.272  49.678 -10.944  1.00  0.00     0.189 C 
HETATM   14  C19 UNL     1       3.021  49.336 -11.824  1.00  0.00    -0.025 C 
HETATM   15  C20 UNL     1       3.127  50.130 -13.150  1.00  0.00     0.017 C 
HETATM   16  C21 UNL     1       1.792  49.811 -11.031  1.00  0.00     0.017 C 
HETATM   17  C22 UNL     1       2.936  47.808 -12.101  1.00  0.00     0.011 C 
HETATM   18  C23 UNL     1       1.949  47.297 -13.178  1.00  0.00     0.001 C 
HETATM   19  C24 UNL     1       0.444  47.412 -12.868  1.00  0.00     0.005 C 
HETATM   20  C25 UNL     1      -0.295  48.503 -13.682  1.00  0.00     0.039 C 
HETATM   21  C26 UNL     1      -1.655  48.855 -13.115  1.00  0.00    -0.050 A 
HETATM   22  C27 UNL     1      -2.655  47.873 -13.049  1.00  0.00     0.007 A 
HETATM   23  C28 UNL     1      -3.905  48.127 -12.463  1.00  0.00     0.001 A 
HETATM   24  C29 UNL     1      -4.187  49.379 -11.915  1.00  0.00     0.009 A 
HETATM   25  C30 UNL     1      -3.215  50.363 -11.992  1.00  0.00    -0.032 A 
HETATM   26  C31 UNL     1      -1.977  50.121 -12.612  1.00  0.00    -0.026 A 
HETATM   27  C32 UNL     1      -1.177  51.392 -12.600  1.00  0.00     0.168 C 
HETATM   28  N4  UNL     1      -1.941  52.284 -11.741  1.00  0.00    -0.320 N 
HETATM   29  C33 UNL     1      -3.255  51.750 -11.422  1.00  0.00     0.167 C 
HETATM   30  C34 UNL     1      -1.342  53.340 -11.101  1.00  0.00     0.363 C 
HETATM   31  O5  UNL     1      -0.201  53.719 -11.339  1.00  0.00    -0.238 OA
HETATM   32  O6  UNL     1      -2.145  53.877 -10.139  1.00  0.00    -0.297 OA
HETATM   33  H24 UNL     1       3.565  53.062 -11.084  1.00  0.00     0.165 HD
ENDROOT
BRANCH   1  34
HETATM   34  C6  UNL     1       0.472  56.522  -7.316  1.00  0.00     0.241 C 
HETATM   35  N1  UNL     1       1.609  56.313  -6.566  1.00  0.00    -0.341 N 
HETATM   36  H7  UNL     1       2.179  55.537  -6.888  1.00  0.00     0.163 HD
HETATM   37  O1  UNL     1      -0.439  57.277  -7.002  1.00  0.00    -0.271 OA
BRANCH  35  38
HETATM   38  C5  UNL     1       1.950  56.873  -5.270  1.00  0.00     0.122 A 
HETATM   39  C3  UNL     1       3.417  56.896  -4.838  1.00  0.00     0.048 A 
HETATM   40  C4  UNL     1       2.703  58.184  -5.145  1.00  0.00     0.053 A 
BRANCH  39  41
HETATM   41  C2  UNL     1       3.803  56.591  -3.456  1.00  0.00    -0.029 C 
HETATM   42  C1  UNL     1       5.052  56.368  -3.035  1.00  0.00     0.007 C 
ENDBRANCH  39  41
BRANCH  38  43
HETATM   43  C35 UNL     1       0.895  56.605  -4.213  1.00  0.00     0.260 C 
HETATM   44  O7  UNL     1       0.725  55.484  -3.754  1.00  0.00    -0.270 OA
HETATM   45  N5  UNL     1       0.231  57.758  -3.792  1.00  0.00    -0.252 N 
HETATM   46  H48 UNL     1       0.282  58.589  -4.375  1.00  0.00     0.181 HD
BRANCH  45  47
HETATM   47  S1  UNL     1      -1.029  57.803  -2.720  1.00  0.00     0.237 S 
HETATM   48  O8  UNL     1      -0.555  57.373  -1.427  1.00  0.00    -0.205 OA
HETATM   49  O9  UNL     1      -2.094  57.088  -3.396  1.00  0.00    -0.205 OA
BRANCH  47  50
HETATM   50  C36 UNL     1      -1.581  59.528  -2.624  1.00  0.00     0.130 A 
HETATM   51  C37 UNL     1      -3.064  59.720  -2.790  1.00  0.00     0.023 A 
HETATM   52  C38 UNL     1      -2.432  59.863  -1.431  1.00  0.00     0.023 A 
ENDBRANCH  47  50
ENDBRANCH  45  47
ENDBRANCH  38  43
ENDBRANCH  35  38
ENDBRANCH   1  34
BRANCH   8  53
HETATM   53  C13 UNL     1       3.892  55.454  -9.738  1.00  0.00    -0.022 C 
HETATM   54  C14 UNL     1       5.247  55.327 -10.455  1.00  0.00     0.017 C 
HETATM   55  C15 UNL     1       3.885  56.551  -8.660  1.00  0.00     0.017 C 
HETATM   56  C16 UNL     1       2.947  55.968 -10.882  1.00  0.00     0.017 C 
ENDBRANCH   8  53
TORSDOF 7
ENDMDL
MODEL 4
REMARK minimizedAffinity -7.82363033
REMARK CNNscore 0.208092675
REMARK CNNaffinity 6.86077452
REMARK  7 active torsions:
REMARK  status: ('A' for Active; 'I' for Inactive)
REMARK    1  A    between atoms: C2_2  and  C3_3 
REMARK    2  A    between atoms: C5_5  and  N1_6 
REMARK    3  A    between atoms: C5_5  and  C35_45 
REMARK       I    between atoms: N1_6  and  C6_7 
REMARK    4  A    between atoms: C6_7  and  C7_9 
REMARK    5  A    between atoms: C12_16  and  C13_17 
REMARK       I    between atoms: C35_45  and  N5_47 
REMARK    6  A    between atoms: N5_47  and  S1_48 
REMARK    7  A    between atoms: S1_48  and  C36_51 
ROOT
HETATM    1  C7  UNL     1       0.215  55.571  -9.031  1.00  0.00     0.181 C 
HETATM    2  C8  UNL     1      -1.064  55.561  -9.871  1.00  0.00     0.069 C 
HETATM    3  C9  UNL     1      -1.779  54.268  -9.477  1.00  0.00     0.154 C 
HETATM    4  C10 UNL     1      -0.789  53.479  -8.610  1.00  0.00     0.159 C 
HETATM    5  N2  UNL     1       0.512  54.161  -8.768  1.00  0.00    -0.334 N 
HETATM    6  C11 UNL     1       1.610  53.397  -9.106  1.00  0.00     0.244 C 
HETATM    7  O2  UNL     1       1.410  52.164  -9.160  1.00  0.00    -0.271 OA
HETATM    8  C12 UNL     1       3.130  53.881  -9.237  1.00  0.00     0.186 C 
HETATM    9  N3  UNL     1       3.755  52.824 -10.060  1.00  0.00    -0.323 N 
HETATM   10  C17 UNL     1       4.153  51.608  -9.613  1.00  0.00     0.361 C 
HETATM   11  O3  UNL     1       4.261  51.254  -8.452  1.00  0.00    -0.239 OA
HETATM   12  O4  UNL     1       4.369  50.858 -10.718  1.00  0.00    -0.303 OA
HETATM   13  C18 UNL     1       4.271  49.425 -10.658  1.00  0.00     0.189 C 
HETATM   14  C19 UNL     1       3.100  49.004 -11.612  1.00  0.00    -0.025 C 
HETATM   15  C20 UNL     1       3.290  49.732 -12.967  1.00  0.00     0.017 C 
HETATM   16  C21 UNL     1       1.802  49.486 -10.942  1.00  0.00     0.017 C 
HETATM   17  C22 UNL     1       3.073  47.463 -11.812  1.00  0.00     0.011 C 
HETATM   18  C23 UNL     1       2.185  46.869 -12.933  1.00  0.00     0.001 C 
HETATM   19  C24 UNL     1       0.659  46.958 -12.745  1.00  0.00     0.005 C 
HETATM   20  C25 UNL     1      -0.040  47.985 -13.670  1.00  0.00     0.039 C 
HETATM   21  C26 UNL     1      -1.449  48.327 -13.229  1.00  0.00    -0.050 A 
HETATM   22  C27 UNL     1      -2.427  47.322 -13.187  1.00  0.00     0.007 A 
HETATM   23  C28 UNL     1      -3.725  47.572 -12.712  1.00  0.00     0.001 A 
HETATM   24  C29 UNL     1      -4.078  48.843 -12.255  1.00  0.00     0.009 A 
HETATM   25  C30 UNL     1      -3.126  49.848 -12.310  1.00  0.00    -0.032 A 
HETATM   26  C31 UNL     1      -1.839  49.608 -12.820  1.00  0.00    -0.026 A 
HETATM   27  C32 UNL     1      -1.072  50.900 -12.816  1.00  0.00     0.168 C 
HETATM   28  N4  UNL     1      -1.922  51.814 -12.066  1.00  0.00    -0.320 N 
HETATM   29  C33 UNL     1      -3.243  51.260 -11.821  1.00  0.00     0.167 C 
HETATM   30  C34 UNL     1      -1.400  52.918 -11.439  1.00  0.00     0.363 C 
HETATM   31  O5  UNL     1      -0.253  53.315 -11.609  1.00  0.00    -0.238 OA
HETATM   32  O6  UNL     1      -2.287  53.481 -10.572  1.00  0.00    -0.297 OA
HETATM   33  H24 UNL     1       3.497  52.778 -11.033  1.00  0.00     0.165 HD
ENDROOT
BRANCH   1  34
HETATM   34  C6  UNL     1       0.039  56.339  -7.703  1.00  0.00     0.241 C 
HETATM   35  N1  UNL     1       0.790  55.811  -6.676  1.00  0.00    -0.341 N 
HETATM   36  H7  UNL     1       1.124  54.869  -6.852  1.00  0.00     0.163 HD
HETATM   37  O1  UNL     1      -0.608  57.376  -7.629  1.00  0.00    -0.271 OA
BRANCH  35  38
HETATM   38  C5  UNL     1       0.942  56.310  -5.321  1.00  0.00     0.122 A 
HETATM   39  C3  UNL     1      -0.312  56.648  -4.512  1.00  0.00     0.048 A 
HETATM   40  C4  UNL     1       0.543  55.474  -4.118  1.00  0.00     0.053 A 
BRANCH  39  41
HETATM   41  C2  UNL     1      -0.358  57.834  -3.651  1.00  0.00    -0.029 C 
HETATM   42  C1  UNL     1      -1.459  58.326  -3.074  1.00  0.00     0.007 C 
ENDBRANCH  39  41
BRANCH  38  43
HETATM   43  C35 UNL     1       2.167  57.189  -5.147  1.00  0.00     0.260 C 
HETATM   44  O7  UNL     1       2.263  58.265  -5.721  1.00  0.00    -0.270 OA
HETATM   45  N5  UNL     1       3.087  56.678  -4.231  1.00  0.00    -0.252 N 
HETATM   46  H48 UNL     1       3.028  55.696  -3.979  1.00  0.00     0.181 HD
BRANCH  45  47
HETATM   47  S1  UNL     1       4.561  57.343  -3.878  1.00  0.00     0.237 S 
HETATM   48  O8  UNL     1       5.388  56.336  -3.257  1.00  0.00    -0.205 OA
HETATM   49  O9  UNL     1       4.237  58.571  -3.179  1.00  0.00    -0.205 OA
BRANCH  47  50
HETATM   50  C36 UNL     1       5.302  57.855  -5.451  1.00  0.00     0.130 A 
HETATM   51  C37 UNL     1       6.791  58.070  -5.401  1.00  0.00     0.023 A 
HETATM   52  C38 UNL     1       6.226  56.851  -6.081  1.00  0.00     0.023 A 
ENDBRANCH  47  50
ENDBRANCH  45  47
ENDBRANCH  38  43
ENDBRANCH  35  38
ENDBRANCH   1  34
BRANCH   8  53
HETATM   53  C13 UNL     1       3.661  55.243  -9.796  1.00  0.00    -0.022 C 
HETATM   54  C14 UNL     1       2.766  55.805 -10.913  1.00  0.00     0.017 C 
HETATM   55  C15 UNL     1       5.147  55.192 -10.188  1.00  0.00     0.017 C 
HETATM   56  C16 UNL     1       3.547  56.344  -8.681  1.00  0.00     0.017 C 
ENDBRANCH   8  53
TORSDOF 7
ENDMDL
MODEL 5
REMARK minimizedAffinity -7.86489534
REMARK CNNscore 0.204819858
REMARK CNNaffinity 5.88854218
REMARK  7 active torsions:
REMARK  status: ('A' for Active; 'I' for Inactive)
REMARK    1  A    between atoms: C2_2  and  C3_3 
REMARK    2  A    between atoms: C5_5  and  N1_6 
REMARK    3  A    between atoms: C5_5  and  C35_45 
REMARK       I    between atoms: N1_6  and  C6_7 
REMARK    4  A    between atoms: C6_7  and  C7_9 
REMARK    5  A    between atoms: C12_16  and  C13_17 
REMARK       I    between atoms: C35_45  and  N5_47 
REMARK    6  A    between atoms: N5_47  and  S1_48 
REMARK    7  A    between atoms: S1_48  and  C36_51 
ROOT
HETATM    1  C7  UNL     1     -12.777  43.920 -27.737  1.00  0.00     0.181 C 
HETATM    2  C8  UNL     1     -13.089  42.627 -28.492  1.00  0.00     0.069 C 
HETATM    3  C9  UNL     1     -11.886  41.721 -28.229  1.00  0.00     0.154 C 
HETATM    4  C10 UNL     1     -10.834  42.597 -27.535  1.00  0.00     0.159 C 
HETATM    5  N2  UNL     1     -11.315  43.987 -27.681  1.00  0.00    -0.334 N 
HETATM    6  C11 UNL     1     -10.439  44.928 -28.182  1.00  0.00     0.244 C 
HETATM    7  O2  UNL     1      -9.274  44.523 -28.386  1.00  0.00    -0.271 OA
HETATM    8  C12 UNL     1     -10.687  46.501 -28.340  1.00  0.00     0.186 C 
HETATM    9  N3  UNL     1      -9.670  46.909 -29.332  1.00  0.00    -0.323 N 
HETATM   10  C17 UNL     1      -8.355  47.115 -29.074  1.00  0.00     0.361 C 
HETATM   11  O3  UNL     1      -7.829  47.206 -27.978  1.00  0.00    -0.239 OA
HETATM   12  O4  UNL     1      -7.742  47.161 -30.279  1.00  0.00    -0.303 OA
HETATM   13  C18 UNL     1      -6.350  46.827 -30.404  1.00  0.00     0.189 C 
HETATM   14  C19 UNL     1      -6.259  45.566 -31.332  1.00  0.00    -0.025 C 
HETATM   15  C20 UNL     1      -7.130  45.824 -32.587  1.00  0.00     0.017 C 
HETATM   16  C21 UNL     1      -6.844  44.394 -30.526  1.00  0.00     0.017 C 
HETATM   17  C22 UNL     1      -4.786  45.275 -31.731  1.00  0.00     0.011 C 
HETATM   18  C23 UNL     1      -4.505  44.258 -32.864  1.00  0.00     0.001 C 
HETATM   19  C24 UNL     1      -4.810  42.776 -32.575  1.00  0.00     0.005 C 
HETATM   20  C25 UNL     1      -6.055  42.224 -33.312  1.00  0.00     0.039 C 
HETATM   21  C26 UNL     1      -6.554  40.910 -32.745  1.00  0.00    -0.050 A 
HETATM   22  C27 UNL     1      -5.723  39.780 -32.777  1.00  0.00     0.007 A 
HETATM   23  C28 UNL     1      -6.108  38.561 -32.195  1.00  0.00     0.001 A 
HETATM   24  C29 UNL     1      -7.343  38.444 -31.554  1.00  0.00     0.009 A 
HETATM   25  C30 UNL     1      -8.180  39.547 -31.534  1.00  0.00    -0.032 A 
HETATM   26  C31 UNL     1      -7.811  40.756 -32.148  1.00  0.00    -0.026 A 
HETATM   27  C32 UNL     1      -8.949  41.727 -32.019  1.00  0.00     0.168 C 
HETATM   28  N4  UNL     1      -9.874  41.071 -31.105  1.00  0.00    -0.320 N 
HETATM   29  C33 UNL     1      -9.510  39.686 -30.856  1.00  0.00     0.167 C 
HETATM   30  C34 UNL     1     -10.780  41.794 -30.372  1.00  0.00     0.363 C 
HETATM   31  O5  UNL     1     -11.009  42.984 -30.557  1.00  0.00    -0.238 OA
HETATM   32  O6  UNL     1     -11.351  41.047 -29.385  1.00  0.00    -0.297 OA
HETATM   33  H24 UNL     1      -9.802  46.610 -30.285  1.00  0.00     0.165 HD
ENDROOT
BRANCH   1  34
HETATM   34  C6  UNL     1     -13.370  43.925 -26.311  1.00  0.00     0.241 C 
HETATM   35  N1  UNL     1     -14.027  45.098 -26.010  1.00  0.00    -0.341 N 
HETATM   36  H7  UNL     1     -13.804  45.868 -26.632  1.00  0.00     0.163 HD
HETATM   37  O1  UNL     1     -13.351  42.935 -25.592  1.00  0.00    -0.271 OA
BRANCH  35  38
HETATM   38  C5  UNL     1     -14.771  45.432 -24.808  1.00  0.00     0.122 A 
HETATM   39  C3  UNL     1     -14.113  45.211 -23.445  1.00  0.00     0.048 A 
HETATM   40  C4  UNL     1     -14.380  46.609 -23.933  1.00  0.00     0.053 A 
BRANCH  39  41
HETATM   41  C2  UNL     1     -14.879  44.678 -22.314  1.00  0.00    -0.029 C 
HETATM   42  C1  UNL     1     -14.353  44.216 -21.175  1.00  0.00     0.007 C 
ENDBRANCH  39  41
BRANCH  38  43
HETATM   43  C35 UNL     1     -16.259  45.163 -24.939  1.00  0.00     0.260 C 
HETATM   44  O7  UNL     1     -16.682  44.044 -25.194  1.00  0.00    -0.270 OA
HETATM   45  N5  UNL     1     -17.048  46.279 -24.663  1.00  0.00    -0.252 N 
HETATM   46  H48 UNL     1     -16.614  47.198 -24.677  1.00  0.00     0.181 HD
BRANCH  45  47
HETATM   47  S1  UNL     1     -18.696  46.349 -24.798  1.00  0.00     0.237 S 
HETATM   48  O8  UNL     1     -19.107  45.514 -25.902  1.00  0.00    -0.205 OA
HETATM   49  O9  UNL     1     -18.992  47.768 -24.791  1.00  0.00    -0.205 OA
BRANCH  47  50
HETATM   50  C36 UNL     1     -19.383  45.697 -23.252  1.00  0.00     0.130 A 
HETATM   51  C37 UNL     1     -20.339  44.548 -23.427  1.00  0.00     0.023 A 
HETATM   52  C38 UNL     1     -18.951  44.302 -22.897  1.00  0.00     0.023 A 
ENDBRANCH  47  50
ENDBRANCH  45  47
ENDBRANCH  38  43
ENDBRANCH  35  38
ENDBRANCH   1  34
BRANCH   8  53
HETATM   53  C13 UNL     1     -12.011  47.231 -28.746  1.00  0.00    -0.022 C 
HETATM   54  C14 UNL     1     -12.661  47.965 -27.560  1.00  0.00     0.017 C 
HETATM   55  C15 UNL     1     -12.995  46.316 -29.495  1.00  0.00     0.017 C 
HETATM   56  C16 UNL     1     -11.677  48.405 -29.733  1.00  0.00     0.017 C 
ENDBRANCH   8  53
TORSDOF 7
ENDMDL
MODEL 6
REMARK minimizedAffinity -7.69208622
REMARK CNNscore 0.166403741
REMARK CNNaffinity 6.18172836
REMARK  7 active torsions:
REMARK  status: ('A' for Active; 'I' for Inactive)
REMARK    1  A    between atoms: C2_2  and  C3_3 
REMARK    2  A    between atoms: C5_5  and  N1_6 
REMARK    3  A    between atoms: C5_5  and  C35_45 
REMARK       I    between atoms: N1_6  and  C6_7 
REMARK    4  A    between atoms: C6_7  and  C7_9 
REMARK    5  A    between atoms: C12_16  and  C13_17 
REMARK       I    between atoms: C35_45  and  N5_47 
REMARK    6  A    between atoms: N5_47  and  S1_48 
REMARK    7  A    between atoms: S1_48  and  C36_51 
ROOT
HETATM    1  C7  UNL     1       2.246  56.175  -6.795  1.00  0.00     0.181 C 
HETATM    2  C8  UNL     1       0.905  56.711  -7.299  1.00  0.00     0.069 C 
HETATM    3  C9  UNL     1      -0.072  55.549  -7.120  1.00  0.00     0.154 C 
HETATM    4  C10 UNL     1       0.778  54.329  -6.741  1.00  0.00     0.159 C 
HETATM    5  N2  UNL     1       2.179  54.725  -6.995  1.00  0.00    -0.334 N 
HETATM    6  C11 UNL     1       2.963  53.888  -7.762  1.00  0.00     0.244 C 
HETATM    7  O2  UNL     1       2.425  52.811  -8.101  1.00  0.00    -0.271 OA
HETATM    8  C12 UNL     1       4.520  54.045  -8.092  1.00  0.00     0.186 C 
HETATM    9  N3  UNL     1       4.703  53.195  -9.288  1.00  0.00    -0.323 N 
HETATM   10  C17 UNL     1       4.812  51.844  -9.286  1.00  0.00     0.361 C 
HETATM   11  O3  UNL     1       4.987  51.125  -8.318  1.00  0.00    -0.239 OA
HETATM   12  O4  UNL     1       4.649  51.455 -10.572  1.00  0.00    -0.303 OA
HETATM   13  C18 UNL     1       4.170  50.136 -10.881  1.00  0.00     0.189 C 
HETATM   14  C19 UNL     1       2.801  50.306 -11.628  1.00  0.00    -0.025 C 
HETATM   15  C20 UNL     1       2.984  51.367 -12.742  1.00  0.00     0.017 C 
HETATM   16  C21 UNL     1       1.800  50.821 -10.580  1.00  0.00     0.017 C 
HETATM   17  C22 UNL     1       2.323  48.953 -12.225  1.00  0.00     0.011 C 
HETATM   18  C23 UNL     1       1.151  48.956 -13.237  1.00  0.00     0.001 C 
HETATM   19  C24 UNL     1      -0.247  49.311 -12.698  1.00  0.00     0.005 C 
HETATM   20  C25 UNL     1      -0.764  50.705 -13.131  1.00  0.00     0.039 C 
HETATM   21  C26 UNL     1      -1.943  51.188 -12.312  1.00  0.00    -0.050 A 
HETATM   22  C27 UNL     1      -3.144  50.461 -12.326  1.00  0.00     0.007 A 
HETATM   23  C28 UNL     1      -4.238  50.824 -11.525  1.00  0.00     0.001 A 
HETATM   24  C29 UNL     1      -4.157  51.928 -10.674  1.00  0.00     0.009 A 
HETATM   25  C30 UNL     1      -2.984  52.665 -10.667  1.00  0.00    -0.032 A 
HETATM   26  C31 UNL     1      -1.902  52.325 -11.496  1.00  0.00    -0.026 A 
HETATM   27  C32 UNL     1      -0.817  53.348 -11.314  1.00  0.00     0.168 C 
HETATM   28  N4  UNL     1      -1.263  54.139 -10.175  1.00  0.00    -0.320 N 
HETATM   29  C33 UNL     1      -2.635  53.838  -9.801  1.00  0.00     0.167 C 
HETATM   30  C34 UNL     1      -0.371  54.844  -9.407  1.00  0.00     0.363 C 
HETATM   31  O5  UNL     1       0.803  55.015  -9.714  1.00  0.00    -0.238 OA
HETATM   32  O6  UNL     1      -0.932  55.282  -8.244  1.00  0.00    -0.297 OA
HETATM   33  H24 UNL     1       4.302  53.517 -10.154  1.00  0.00     0.165 HD
ENDROOT
BRANCH   1  34
HETATM   34  C6  UNL     1       2.485  56.500  -5.303  1.00  0.00     0.241 C 
HETATM   35  N1  UNL     1       1.805  57.623  -4.886  1.00  0.00    -0.341 N 
HETATM   36  H7  UNL     1       1.479  58.214  -5.644  1.00  0.00     0.163 HD
HETATM   37  O1  UNL     1       3.115  55.754  -4.565  1.00  0.00    -0.271 OA
BRANCH  35  38
HETATM   38  C5  UNL     1       1.723  58.182  -3.548  1.00  0.00     0.122 A 
HETATM   39  C3  UNL     1       0.363  58.650  -3.024  1.00  0.00     0.048 A 
HETATM   40  C4  UNL     1       1.028  57.443  -2.419  1.00  0.00     0.053 A 
BRANCH  39  41
HETATM   41  C2  UNL     1       0.240  59.882  -2.238  1.00  0.00    -0.029 C 
HETATM   42  C1  UNL     1      -0.872  60.613  -2.120  1.00  0.00     0.007 C 
ENDBRANCH  39  41
BRANCH  38  43
HETATM   43  C35 UNL     1       2.953  58.983  -3.164  1.00  0.00     0.260 C 
HETATM   44  O7  UNL     1       4.068  58.479  -3.176  1.00  0.00    -0.270 OA
HETATM   45  N5  UNL     1       2.677  60.322  -2.890  1.00  0.00    -0.252 N 
HETATM   46  H48 UNL     1       1.717  60.591  -2.694  1.00  0.00     0.181 HD
BRANCH  45  47
HETATM   47  S1  UNL     1       3.776  61.441  -2.359  1.00  0.00     0.237 S 
HETATM   48  O8  UNL     1       4.574  60.848  -1.312  1.00  0.00    -0.205 OA
HETATM   49  O9  UNL     1       2.979  62.625  -2.105  1.00  0.00    -0.205 OA
BRANCH  47  50
HETATM   50  C36 UNL     1       4.834  61.856  -3.772  1.00  0.00     0.130 A 
HETATM   51  C37 UNL     1       4.422  63.095  -4.519  1.00  0.00     0.023 A 
HETATM   52  C38 UNL     1       5.632  63.121  -3.624  1.00  0.00     0.023 A 
ENDBRANCH  47  50
ENDBRANCH  45  47
ENDBRANCH  38  43
ENDBRANCH  35  38
ENDBRANCH   1  34
BRANCH   8  53
HETATM   53  C13 UNL     1       5.318  55.363  -8.367  1.00  0.00    -0.022 C 
HETATM   54  C14 UNL     1       6.530  55.133  -9.285  1.00  0.00     0.017 C 
HETATM   55  C15 UNL     1       5.678  56.125  -7.080  1.00  0.00     0.017 C 
HETATM   56  C16 UNL     1       4.429  56.343  -9.213  1.00  0.00     0.017 C 
ENDBRANCH   8  53
TORSDOF 7
ENDMDL
MODEL 7
REMARK minimizedAffinity -7.61006546
REMARK CNNscore 0.165484488
REMARK CNNaffinity 6.70322466
REMARK  7 active torsions:
REMARK  status: ('A' for Active; 'I' for Inactive)
REMARK    1  A    between atoms: C2_2  and  C3_3 
REMARK    2  A    between atoms: C5_5  and  N1_6 
REMARK    3  A    between atoms: C5_5  and  C35_45 
REMARK       I    between atoms: N1_6  and  C6_7 
REMARK    4  A    between atoms: C6_7  and  C7_9 
REMARK    5  A    between atoms: C12_16  and  C13_17 
REMARK       I    between atoms: C35_45  and  N5_47 
REMARK    6  A    between atoms: N5_47  and  S1_48 
REMARK    7  A    between atoms: S1_48  and  C36_51 
ROOT
HETATM    1  C7  UNL     1       1.532  52.597 -11.239  1.00  0.00     0.181 C 
HETATM    2  C8  UNL     1       2.790  53.361 -11.658  1.00  0.00     0.069 C 
HETATM    3  C9  UNL     1       3.838  52.995 -10.608  1.00  0.00     0.154 C 
HETATM    4  C10 UNL     1       3.092  52.229  -9.507  1.00  0.00     0.159 C 
HETATM    5  N2  UNL     1       1.654  52.426  -9.789  1.00  0.00    -0.334 N 
HETATM    6  C11 UNL     1       0.845  52.866  -8.762  1.00  0.00     0.244 C 
HETATM    7  O2  UNL     1       1.402  52.973  -7.648  1.00  0.00    -0.271 OA
HETATM    8  C12 UNL     1      -0.743  53.058  -8.789  1.00  0.00     0.186 C 
HETATM    9  N3  UNL     1      -0.996  53.971  -7.653  1.00  0.00    -0.323 N 
HETATM   10  C17 UNL     1      -1.035  53.612  -6.347  1.00  0.00     0.361 C 
HETATM   11  O3  UNL     1      -1.079  52.479  -5.900  1.00  0.00    -0.239 OA
HETATM   12  O4  UNL     1      -0.976  54.765  -5.642  1.00  0.00    -0.303 OA
HETATM   13  C18 UNL     1      -0.462  54.775  -4.300  1.00  0.00     0.189 C 
HETATM   14  C19 UNL     1       0.818  55.681  -4.304  1.00  0.00    -0.025 C 
HETATM   15  C20 UNL     1       0.475  57.004  -5.034  1.00  0.00     0.017 C 
HETATM   16  C21 UNL     1       1.888  54.912  -5.097  1.00  0.00     0.017 C 
HETATM   17  C22 UNL     1       1.306  55.959  -2.855  1.00  0.00     0.011 C 
HETATM   18  C23 UNL     1       2.373  57.057  -2.623  1.00  0.00     0.001 C 
HETATM   19  C24 UNL     1       3.797  56.777  -3.141  1.00  0.00     0.005 C 
HETATM   20  C25 UNL     1       4.198  57.605  -4.387  1.00  0.00     0.039 C 
HETATM   21  C26 UNL     1       5.424  57.066  -5.095  1.00  0.00    -0.050 A 
HETATM   22  C27 UNL     1       6.653  57.021  -4.420  1.00  0.00     0.007 A 
HETATM   23  C28 UNL     1       7.799  56.460  -5.005  1.00  0.00     0.001 A 
HETATM   24  C29 UNL     1       7.743  55.917  -6.289  1.00  0.00     0.009 A 
HETATM   25  C30 UNL     1       6.541  55.974  -6.974  1.00  0.00    -0.032 A 
HETATM   26  C31 UNL     1       5.402  56.569  -6.404  1.00  0.00    -0.026 A 
HETATM   27  C32 UNL     1       4.290  56.541  -7.412  1.00  0.00     0.168 C 
HETATM   28  N4  UNL     1       4.801  55.696  -8.482  1.00  0.00    -0.320 N 
HETATM   29  C33 UNL     1       6.216  55.405  -8.323  1.00  0.00     0.167 C 
HETATM   30  C34 UNL     1       3.952  55.044  -9.340  1.00  0.00     0.363 C 
HETATM   31  O5  UNL     1       2.747  55.258  -9.396  1.00  0.00    -0.238 OA
HETATM   32  O6  UNL     1       4.599  54.098 -10.079  1.00  0.00    -0.297 OA
HETATM   33  H24 UNL     1      -0.697  54.928  -7.749  1.00  0.00     0.165 HD
ENDROOT
BRANCH   1  34
HETATM   34  C6  UNL     1       1.421  51.222 -11.934  1.00  0.00     0.241 C 
HETATM   35  N1  UNL     1       0.740  51.282 -13.130  1.00  0.00    -0.341 N 
HETATM   36  H7  UNL     1       0.189  52.126 -13.249  1.00  0.00     0.163 HD
HETATM   37  O1  UNL     1       1.993  50.227 -11.509  1.00  0.00    -0.271 OA
BRANCH  35  38
HETATM   38  C5  UNL     1       0.511  50.218 -14.092  1.00  0.00     0.122 A 
HETATM   39  C3  UNL     1       0.980  48.801 -13.753  1.00  0.00     0.048 A 
HETATM   40  C4  UNL     1      -0.491  49.109 -13.826  1.00  0.00     0.053 A 
BRANCH  39  41
HETATM   41  C2  UNL     1       1.594  47.945 -14.774  1.00  0.00    -0.029 C 
HETATM   42  C1  UNL     1       1.730  46.619 -14.687  1.00  0.00     0.007 C 
ENDBRANCH  39  41
BRANCH  38  43
HETATM   43  C35 UNL     1       0.622  50.686 -15.531  1.00  0.00     0.260 C 
HETATM   44  O7  UNL     1       1.697  51.025 -16.007  1.00  0.00    -0.270 OA
HETATM   45  N5  UNL     1      -0.581  50.607 -16.231  1.00  0.00    -0.252 N 
HETATM   46  H48 UNL     1      -1.446  50.527 -15.705  1.00  0.00     0.181 HD
BRANCH  45  47
HETATM   47  S1  UNL     1      -0.823  51.120 -17.787  1.00  0.00     0.237 S 
HETATM   48  O8  UNL     1      -2.199  51.531 -17.931  1.00  0.00    -0.205 OA
HETATM   49  O9  UNL     1      -0.279  50.050 -18.600  1.00  0.00    -0.205 OA
BRANCH  47  50
HETATM   50  C36 UNL     1       0.270  52.542 -18.052  1.00  0.00     0.130 A 
HETATM   51  C37 UNL     1       1.025  52.516 -19.354  1.00  0.00     0.023 A 
HETATM   52  C38 UNL     1      -0.134  53.460 -19.172  1.00  0.00     0.023 A 
ENDBRANCH  47  50
ENDBRANCH  45  47
ENDBRANCH  38  43
ENDBRANCH  35  38
ENDBRANCH   1  34
BRANCH   8  53
HETATM   53  C13 UNL     1      -1.630  53.575  -9.971  1.00  0.00    -0.022 C 
HETATM   54  C14 UNL     1      -3.052  53.946  -9.516  1.00  0.00     0.017 C 
HETATM   55  C15 UNL     1      -1.617  52.632 -11.186  1.00  0.00     0.017 C 
HETATM   56  C16 UNL     1      -1.066  54.947 -10.484  1.00  0.00     0.017 C 
ENDBRANCH   8  53
TORSDOF 7
ENDMDL
MODEL 8
REMARK minimizedAffinity -9.79637146
REMARK CNNscore 0.10806784
REMARK CNNaffinity 6.93105078
REMARK  7 active torsions:
REMARK  status: ('A' for Active; 'I' for Inactive)
REMARK    1  A    between atoms: C2_2  and  C3_3 
REMARK    2  A    between atoms: C5_5  and  N1_6 
REMARK    3  A    between atoms: C5_5  and  C35_45 
REMARK       I    between atoms: N1_6  and  C6_7 
REMARK    4  A    between atoms: C6_7  and  C7_9 
REMARK    5  A    between atoms: C12_16  and  C13_17 
REMARK       I    between atoms: C35_45  and  N5_47 
REMARK    6  A    between atoms: N5_47  and  S1_48 
REMARK    7  A    between atoms: S1_48  and  C36_51 
ROOT
HETATM    1  C7  UNL     1      -2.739  50.080 -21.233  1.00  0.00     0.181 C 
HETATM    2  C8  UNL     1      -2.052  51.433 -21.037  1.00  0.00     0.069 C 
HETATM    3  C9  UNL     1      -0.609  51.088 -20.669  1.00  0.00     0.154 C 
HETATM    4  C10 UNL     1      -0.576  49.571 -20.443  1.00  0.00     0.159 C 
HETATM    5  N2  UNL     1      -1.990  49.144 -20.392  1.00  0.00    -0.334 N 
HETATM    6  C11 UNL     1      -2.399  48.374 -19.323  1.00  0.00     0.244 C 
HETATM    7  O2  UNL     1      -1.493  48.032 -18.531  1.00  0.00    -0.271 OA
HETATM    8  C12 UNL     1      -3.838  47.713 -19.093  1.00  0.00     0.186 C 
HETATM    9  N3  UNL     1      -3.861  47.442 -17.640  1.00  0.00    -0.323 N 
HETATM   10  C17 UNL     1      -3.253  46.399 -17.022  1.00  0.00     0.361 C 
HETATM   11  O3  UNL     1      -2.773  45.412 -17.553  1.00  0.00    -0.239 OA
HETATM   12  O4  UNL     1      -3.255  46.696 -15.702  1.00  0.00    -0.303 OA
HETATM   13  C18 UNL     1      -2.265  46.133 -14.826  1.00  0.00     0.189 C 
HETATM   14  C19 UNL     1      -1.430  47.327 -14.247  1.00  0.00    -0.025 C 
HETATM   15  C20 UNL     1      -2.416  48.409 -13.740  1.00  0.00     0.017 C 
HETATM   16  C21 UNL     1      -0.604  47.884 -15.418  1.00  0.00     0.017 C 
HETATM   17  C22 UNL     1      -0.498  46.848 -13.099  1.00  0.00     0.011 C 
HETATM   18  C23 UNL     1       0.193  47.907 -12.206  1.00  0.00     0.001 C 
HETATM   19  C24 UNL     1       1.293  48.769 -12.855  1.00  0.00     0.005 C 
HETATM   20  C25 UNL     1       0.884  50.241 -13.111  1.00  0.00     0.039 C 
HETATM   21  C26 UNL     1       1.811  50.963 -14.066  1.00  0.00    -0.050 A 
HETATM   22  C27 UNL     1       3.162  51.135 -13.726  1.00  0.00     0.007 A 
HETATM   23  C28 UNL     1       4.078  51.728 -14.610  1.00  0.00     0.001 A 
HETATM   24  C29 UNL     1       3.664  52.160 -15.871  1.00  0.00     0.009 A 
HETATM   25  C30 UNL     1       2.329  52.015 -16.210  1.00  0.00    -0.032 A 
HETATM   26  C31 UNL     1       1.404  51.456 -15.311  1.00  0.00    -0.026 A 
HETATM   27  C32 UNL     1       0.039  51.502 -15.937  1.00  0.00     0.168 C 
HETATM   28  N4  UNL     1       0.293  51.904 -17.313  1.00  0.00    -0.320 N 
HETATM   29  C33 UNL     1       1.666  52.337 -17.515  1.00  0.00     0.167 C 
HETATM   30  C34 UNL     1      -0.598  51.611 -18.315  1.00  0.00     0.363 C 
HETATM   31  O5  UNL     1      -1.725  51.172 -18.114  1.00  0.00    -0.238 OA
HETATM   32  O6  UNL     1      -0.062  51.814 -19.551  1.00  0.00    -0.297 OA
HETATM   33  H24 UNL     1      -3.925  48.233 -17.019  1.00  0.00     0.165 HD
ENDROOT
BRANCH   1  34
HETATM   34  C6  UNL     1      -2.713  49.617 -22.707  1.00  0.00     0.241 C 
HETATM   35  N1  UNL     1      -2.868  50.657 -23.597  1.00  0.00    -0.341 N 
HETATM   36  H7  UNL     1      -3.240  51.504 -23.180  1.00  0.00     0.163 HD
HETATM   37  O1  UNL     1      -2.456  48.463 -23.024  1.00  0.00    -0.271 OA
BRANCH  35  38
HETATM   38  C5  UNL     1      -2.815  50.618 -25.048  1.00  0.00     0.122 A 
HETATM   39  C3  UNL     1      -3.717  49.633 -25.795  1.00  0.00     0.048 A 
HETATM   40  C4  UNL     1      -3.971  51.112 -25.898  1.00  0.00     0.053 A 
BRANCH  39  41
HETATM   41  C2  UNL     1      -3.226  48.897 -26.964  1.00  0.00    -0.029 C 
HETATM   42  C1  UNL     1      -3.990  48.416 -27.950  1.00  0.00     0.007 C 
ENDBRANCH  39  41
BRANCH  38  43
HETATM   43  C35 UNL     1      -1.424  50.875 -25.597  1.00  0.00     0.260 C 
HETATM   44  O7  UNL     1      -0.621  49.964 -25.746  1.00  0.00    -0.270 OA
HETATM   45  N5  UNL     1      -1.215  52.203 -25.968  1.00  0.00    -0.252 N 
HETATM   46  H48 UNL     1      -1.846  52.914 -25.609  1.00  0.00     0.181 HD
BRANCH  45  47
HETATM   47  S1  UNL     1       0.213  52.834 -26.518  1.00  0.00     0.237 S 
HETATM   48  O8  UNL     1       0.916  53.432 -25.407  1.00  0.00    -0.205 OA
HETATM   49  O9  UNL     1      -0.171  53.630 -27.667  1.00  0.00    -0.205 OA
BRANCH  47  50
HETATM   50  C36 UNL     1       1.183  51.452 -27.180  1.00  0.00     0.130 A 
HETATM   51  C37 UNL     1       2.263  51.853 -28.148  1.00  0.00     0.023 A 
HETATM   52  C38 UNL     1       2.623  51.417 -26.752  1.00  0.00     0.023 A 
ENDBRANCH  47  50
ENDBRANCH  45  47
ENDBRANCH  38  43
ENDBRANCH  35  38
ENDBRANCH   1  34
BRANCH   8  53
HETATM   53  C13 UNL     1      -5.239  48.311 -19.449  1.00  0.00    -0.022 C 
HETATM   54  C14 UNL     1      -5.237  49.849 -19.443  1.00  0.00     0.017 C 
HETATM   55  C15 UNL     1      -6.378  47.710 -18.609  1.00  0.00     0.017 C 
HETATM   56  C16 UNL     1      -5.584  47.976 -20.944  1.00  0.00     0.017 C 
ENDBRANCH   8  53
TORSDOF 7
ENDMDL
MODEL 9
REMARK minimizedAffinity -8.19101143
REMARK CNNscore 0.0922337472
REMARK CNNaffinity 5.5611515
REMARK  7 active torsions:
REMARK  status: ('A' for Active; 'I' for Inactive)
REMARK    1  A    between atoms: C2_2  and  C3_3 
REMARK    2  A    between atoms: C5_5  and  N1_6 
REMARK    3  A    between atoms: C5_5  and  C35_45 
REMARK       I    between atoms: N1_6  and  C6_7 
REMARK    4  A    between atoms: C6_7  and  C7_9 
REMARK    5  A    between atoms: C12_16  and  C13_17 
REMARK       I    between atoms: C35_45  and  N5_47 
REMARK    6  A    between atoms: N5_47  and  S1_48 
REMARK    7  A    between atoms: S1_48  and  C36_51 
ROOT
HETATM    1  C7  UNL     1      -6.175  48.953 -23.219  1.00  0.00     0.181 C 
HETATM    2  C8  UNL     1      -6.594  49.852 -22.054  1.00  0.00     0.069 C 
HETATM    3  C9  UNL     1      -6.269  49.041 -20.799  1.00  0.00     0.154 C 
HETATM    4  C10 UNL     1      -5.897  47.634 -21.283  1.00  0.00     0.159 C 
HETATM    5  N2  UNL     1      -6.289  47.585 -22.708  1.00  0.00    -0.334 N 
HETATM    6  C11 UNL     1      -7.072  46.531 -23.131  1.00  0.00     0.244 C 
HETATM    7  O2  UNL     1      -7.305  45.656 -22.269  1.00  0.00    -0.271 OA
HETATM    8  C12 UNL     1      -7.540  46.206 -24.626  1.00  0.00     0.186 C 
HETATM    9  N3  UNL     1      -8.699  45.308 -24.433  1.00  0.00    -0.323 N 
HETATM   10  C17 UNL     1      -8.632  43.986 -24.137  1.00  0.00     0.361 C 
HETATM   11  O3  UNL     1      -7.643  43.275 -24.185  1.00  0.00    -0.239 OA
HETATM   12  O4  UNL     1      -9.876  43.629 -23.743  1.00  0.00    -0.303 OA
HETATM   13  C18 UNL     1     -10.070  42.506 -22.869  1.00  0.00     0.189 C 
HETATM   14  C19 UNL     1     -10.707  43.057 -21.546  1.00  0.00    -0.025 C 
HETATM   15  C20 UNL     1     -11.890  43.983 -21.925  1.00  0.00     0.017 C 
HETATM   16  C21 UNL     1      -9.609  43.876 -20.847  1.00  0.00     0.017 C 
HETATM   17  C22 UNL     1     -11.187  41.893 -20.634  1.00  0.00     0.011 C 
HETATM   18  C23 UNL     1     -12.096  42.218 -19.423  1.00  0.00     0.001 C 
HETATM   19  C24 UNL     1     -11.461  42.991 -18.251  1.00  0.00     0.005 C 
HETATM   20  C25 UNL     1     -11.925  44.463 -18.129  1.00  0.00     0.039 C 
HETATM   21  C26 UNL     1     -11.038  45.299 -17.231  1.00  0.00    -0.050 A 
HETATM   22  C27 UNL     1     -10.911  44.964 -15.874  1.00  0.00     0.007 A 
HETATM   23  C28 UNL     1     -10.042  45.660 -15.018  1.00  0.00     0.001 A 
HETATM   24  C29 UNL     1      -9.263  46.712 -15.504  1.00  0.00     0.009 A 
HETATM   25  C30 UNL     1      -9.395  47.065 -16.836  1.00  0.00    -0.032 A 
HETATM   26  C31 UNL     1     -10.292  46.393 -17.685  1.00  0.00    -0.026 A 
HETATM   27  C32 UNL     1     -10.258  47.050 -19.035  1.00  0.00     0.168 C 
HETATM   28  N4  UNL     1      -9.132  47.968 -18.956  1.00  0.00    -0.320 N 
HETATM   29  C33 UNL     1      -8.627  48.103 -17.599  1.00  0.00     0.167 C 
HETATM   30  C34 UNL     1      -8.481  48.395 -20.086  1.00  0.00     0.363 C 
HETATM   31  O5  UNL     1      -8.895  48.198 -21.222  1.00  0.00    -0.238 OA
HETATM   32  O6  UNL     1      -7.301  49.013 -19.794  1.00  0.00    -0.297 OA
HETATM   33  H24 UNL     1      -9.545  45.711 -24.063  1.00  0.00     0.165 HD
ENDROOT
BRANCH   1  34
HETATM   34  C6  UNL     1      -4.729  49.233 -23.686  1.00  0.00     0.241 C 
HETATM   35  N1  UNL     1      -4.272  50.472 -23.294  1.00  0.00    -0.341 N 
HETATM   36  H7  UNL     1      -5.006  51.111 -23.008  1.00  0.00     0.163 HD
HETATM   37  O1  UNL     1      -4.044  48.381 -24.236  1.00  0.00    -0.271 OA
BRANCH  35  38
HETATM   38  C5  UNL     1      -2.950  51.045 -23.478  1.00  0.00     0.122 A 
HETATM   39  C3  UNL     1      -2.426  51.255 -24.900  1.00  0.00     0.048 A 
HETATM   40  C4  UNL     1      -2.761  52.442 -24.039  1.00  0.00     0.053 A 
BRANCH  39  41
HETATM   41  C2  UNL     1      -1.027  50.975 -25.239  1.00  0.00    -0.029 C 
HETATM   42  C1  UNL     1      -0.567  50.717 -26.467  1.00  0.00     0.007 C 
ENDBRANCH  39  41
BRANCH  38  43
HETATM   43  C35 UNL     1      -1.965  50.616 -22.406  1.00  0.00     0.260 C 
HETATM   44  O7  UNL     1      -1.607  49.451 -22.301  1.00  0.00    -0.270 OA
HETATM   45  N5  UNL     1      -1.479  51.680 -21.646  1.00  0.00    -0.252 N 
HETATM   46  H48 UNL     1      -1.988  52.559 -21.659  1.00  0.00     0.181 HD
BRANCH  45  47
HETATM   47  S1  UNL     1      -0.462  51.547 -20.347  1.00  0.00     0.237 S 
HETATM   48  O8  UNL     1      -0.127  50.156 -20.159  1.00  0.00    -0.205 OA
HETATM   49  O9  UNL     1      -1.126  52.298 -19.300  1.00  0.00    -0.205 OA
BRANCH  47  50
HETATM   50  C36 UNL     1       1.036  52.486 -20.748  1.00  0.00     0.130 A 
HETATM   51  C37 UNL     1       0.906  53.391 -21.944  1.00  0.00     0.023 A 
HETATM   52  C38 UNL     1       0.930  53.973 -20.556  1.00  0.00     0.023 A 
ENDBRANCH  47  50
ENDBRANCH  45  47
ENDBRANCH  38  43
ENDBRANCH  35  38
ENDBRANCH   1  34
BRANCH   8  53
HETATM   53  C13 UNL     1      -7.953  47.217 -25.747  1.00  0.00    -0.022 C 
HETATM   54  C14 UNL     1      -8.596  48.493 -25.176  1.00  0.00     0.017 C 
HETATM   55  C15 UNL     1      -8.794  46.569 -26.859  1.00  0.00     0.017 C 
HETATM   56  C16 UNL     1      -6.662  47.771 -26.449  1.00  0.00     0.017 C 
ENDBRANCH   8  53
TORSDOF 7
ENDMDL
