MODEL 1
REMARK minimizedAffinity -8.43512249
REMARK CNNscore 0.426091462
REMARK CNNaffinity 6.47193766
REMARK  14 active torsions:
REMARK  status: ('A' for Active; 'I' for Inactive)
REMARK    1  A    between atoms: C19_20  and  O2_21 
REMARK    2  A    between atoms: C19_20  and  C20_22 
REMARK    3  A    between atoms: C20_22  and  C21_24 
REMARK    4  A    between atoms: C21_24  and  O4_25 
REMARK    5  A    between atoms: O4_25  and  C22_26 
REMARK    6  A    between atoms: C22_26  and  C23_28 
REMARK    7  A    between atoms: C23_28  and  C24_29 
REMARK    8  A    between atoms: C24_29  and  C25_30 
REMARK       I    between atoms: C25_30  and  N1_32 
REMARK    9  A    between atoms: N1_32  and  C26_33 
REMARK   10  A    between atoms: C26_33  and  C27_34 
REMARK   11  A    between atoms: C27_34  and  C28_35 
REMARK   12  A    between atoms: C27_34  and  C30_39 
REMARK   13  A    between atoms: C28_35  and  C29_36 
REMARK   14  A    between atoms: C29_36  and  O8_38 
ROOT
HETATM    1  C20 UNL     1      -2.581  50.249 -17.891  1.00  0.00     0.185 C 
HETATM    2  O3  UNL     1      -2.704  51.481 -17.865  1.00  0.00    -0.292 OA
ENDROOT
BRANCH   1   3
HETATM    3  C19 UNL     1      -2.289  49.557 -19.237  1.00  0.00     0.128 C 
HETATM    4  C14 UNL     1      -2.546  50.458 -20.483  1.00  0.00    -0.002 C 
HETATM    5  C13 UNL     1      -1.509  51.559 -20.766  1.00  0.00     0.013 C 
HETATM    6  C15 UNL     1      -3.960  51.095 -20.403  1.00  0.00     0.019 C 
HETATM    7  C16 UNL     1      -2.412  49.398 -21.604  1.00  0.00     0.002 C 
HETATM    8  C12 UNL     1      -1.681  52.175 -22.168  1.00  0.00     0.007 C 
HETATM    9  C11 UNL     1      -1.692  51.120 -23.302  1.00  0.00     0.002 C 
HETATM   10  C2  UNL     1      -1.903  51.709 -24.745  1.00  0.00    -0.016 C 
HETATM   11  C10 UNL     1      -2.706  49.957 -23.001  1.00  0.00    -0.004 C 
HETATM   12  C1  UNL     1      -3.293  52.375 -24.902  1.00  0.00     0.020 C 
HETATM   13  C3  UNL     1      -0.874  52.814 -25.120  1.00  0.00     0.022 C 
HETATM   14  C7  UNL     1      -1.767  50.515 -25.699  1.00  0.00    -0.068 C 
HETATM   15  C4  UNL     1       0.509  52.278 -25.444  1.00  0.00     0.084 C 
HETATM   16  C5  UNL     1       0.406  51.283 -26.572  1.00  0.00     0.149 C 
HETATM   17  O1  UNL     1       1.277  51.163 -27.428  1.00  0.00    -0.293 OA
HETATM   18  C6  UNL     1      -0.751  50.355 -26.566  1.00  0.00     0.053 C 
HETATM   19  C8  UNL     1      -2.770  49.406 -25.500  1.00  0.00     0.035 C 
HETATM   20  C9  UNL     1      -2.636  48.855 -24.079  1.00  0.00     0.010 C 
HETATM   21  C17 UNL     1      -3.246  48.229 -21.093  1.00  0.00     0.009 C 
HETATM   22  C18 UNL     1      -3.080  48.268 -19.559  1.00  0.00     0.047 C 
BRANCH   3  23
HETATM   23  O2  UNL     1      -0.898  49.185 -19.181  1.00  0.00    -0.381 OA
HETATM   24  H27 UNL     1      -0.430  49.931 -18.757  1.00  0.00     0.211 HD
ENDBRANCH   3  23
ENDBRANCH   1   3
BRANCH   1  25
HETATM   25  C21 UNL     1      -2.722  49.398 -16.636  1.00  0.00     0.260 C 
BRANCH  25  26
HETATM   26  O4  UNL     1      -2.805  50.186 -15.448  1.00  0.00    -0.314 OA
BRANCH  26  27
HETATM   27  C22 UNL     1      -1.656  50.221 -14.716  1.00  0.00     0.259 C 
HETATM   28  O5  UNL     1      -0.621  49.631 -15.002  1.00  0.00    -0.265 OA
BRANCH  27  29
HETATM   29  C23 UNL     1      -1.831  51.108 -13.508  1.00  0.00     0.120 C 
BRANCH  29  30
HETATM   30  C24 UNL     1      -0.756  52.189 -13.481  1.00  0.00     0.112 C 
BRANCH  30  31
HETATM   31  C25 UNL     1       0.207  51.981 -12.330  1.00  0.00     0.218 C 
HETATM   32  O6  UNL     1       0.171  51.004 -11.586  1.00  0.00    -0.274 OA
HETATM   33  N1  UNL     1       1.115  53.002 -12.191  1.00  0.00    -0.360 N 
HETATM   34  H34 UNL     1       1.156  53.722 -12.911  1.00  0.00     0.162 HD
BRANCH  33  35
HETATM   35  C26 UNL     1       2.183  52.934 -11.216  1.00  0.00     0.132 C 
BRANCH  35  36
HETATM   36  C27 UNL     1       2.867  54.290 -10.919  1.00  0.00     0.046 C 
BRANCH  36  37
HETATM   37  C28 UNL     1       1.862  55.318 -10.352  1.00  0.00     0.120 C 
BRANCH  37  38
HETATM   38  C29 UNL     1       1.394  55.058  -8.941  1.00  0.00     0.140 C 
HETATM   39  O7  UNL     1       1.953  54.391  -8.086  1.00  0.00    -0.650 OA
BRANCH  38  40
HETATM   40  O8  UNL     1       0.234  55.689  -8.669  1.00  0.00    -0.776 OA
HETATM   41  H40 UNL     1       0.012  55.422  -7.749  1.00  0.00     0.167 HD
ENDBRANCH  38  40
ENDBRANCH  37  38
ENDBRANCH  36  37
BRANCH  36  42
HETATM   42  C30 UNL     1       4.212  54.148 -10.210  1.00  0.00    -0.052 A 
HETATM   43  C31 UNL     1       4.599  52.879  -9.736  1.00  0.00     0.007 A 
HETATM   44  C32 UNL     1       5.822  52.685  -9.090  1.00  0.00     0.001 A 
HETATM   45  C33 UNL     1       6.692  53.757  -8.911  1.00  0.00     0.000 A 
HETATM   46  C34 UNL     1       6.338  55.018  -9.385  1.00  0.00     0.001 A 
HETATM   47  C35 UNL     1       5.112  55.209 -10.033  1.00  0.00     0.007 A 
ENDBRANCH  36  42
ENDBRANCH  35  36
ENDBRANCH  33  35
ENDBRANCH  30  31
ENDBRANCH  29  30
ENDBRANCH  27  29
ENDBRANCH  26  27
ENDBRANCH  25  26
ENDBRANCH   1  25
TORSDOF 14
ENDMDL
MODEL 2
REMARK minimizedAffinity -8.79444218
REMARK CNNscore 0.396141678
REMARK CNNaffinity 6.09532976
REMARK  14 active torsions:
REMARK  status: ('A' for Active; 'I' for Inactive)
REMARK    1  A    between atoms: C19_20  and  O2_21 
REMARK    2  A    between atoms: C19_20  and  C20_22 
REMARK    3  A    between atoms: C20_22  and  C21_24 
REMARK    4  A    between atoms: C21_24  and  O4_25 
REMARK    5  A    between atoms: O4_25  and  C22_26 
REMARK    6  A    between atoms: C22_26  and  C23_28 
REMARK    7  A    between atoms: C23_28  and  C24_29 
REMARK    8  A    between atoms: C24_29  and  C25_30 
REMARK       I    between atoms: C25_30  and  N1_32 
REMARK    9  A    between atoms: N1_32  and  C26_33 
REMARK   10  A    between atoms: C26_33  and  C27_34 
REMARK   11  A    between atoms: C27_34  and  C28_35 
REMARK   12  A    between atoms: C27_34  and  C30_39 
REMARK   13  A    between atoms: C28_35  and  C29_36 
REMARK   14  A    between atoms: C29_36  and  O8_38 
ROOT
HETATM    1  C20 UNL     1      -6.373  48.544 -24.320  1.00  0.00     0.185 C 
HETATM    2  O3  UNL     1      -5.750  48.462 -25.387  1.00  0.00    -0.292 OA
ENDROOT
BRANCH   1   3
HETATM    3  C19 UNL     1      -5.957  49.615 -23.293  1.00  0.00     0.128 C 
HETATM    4  C14 UNL     1      -4.539  49.393 -22.683  1.00  0.00    -0.002 C 
HETATM    5  C13 UNL     1      -3.339  49.722 -23.589  1.00  0.00     0.013 C 
HETATM    6  C15 UNL     1      -4.402  47.938 -22.158  1.00  0.00     0.019 C 
HETATM    7  C16 UNL     1      -4.570  50.454 -21.556  1.00  0.00     0.002 C 
HETATM    8  C12 UNL     1      -2.013  49.770 -22.804  1.00  0.00     0.007 C 
HETATM    9  C11 UNL     1      -2.062  50.721 -21.582  1.00  0.00     0.002 C 
HETATM   10  C2  UNL     1      -0.737  50.769 -20.736  1.00  0.00    -0.016 C 
HETATM   11  C10 UNL     1      -3.314  50.437 -20.677  1.00  0.00    -0.004 C 
HETATM   12  C1  UNL     1      -0.420  49.402 -20.077  1.00  0.00     0.020 C 
HETATM   13  C3  UNL     1       0.524  51.121 -21.576  1.00  0.00     0.022 C 
HETATM   14  C7  UNL     1      -0.975  51.841 -19.664  1.00  0.00    -0.068 C 
HETATM   15  C4  UNL     1       0.612  52.587 -21.961  1.00  0.00     0.084 C 
HETATM   16  C5  UNL     1       0.586  53.433 -20.714  1.00  0.00     0.149 C 
HETATM   17  O1  UNL     1       1.224  54.477 -20.611  1.00  0.00    -0.293 OA
HETATM   18  C6  UNL     1      -0.331  53.022 -19.624  1.00  0.00     0.053 C 
HETATM   19  C8  UNL     1      -2.120  51.574 -18.719  1.00  0.00     0.035 C 
HETATM   20  C9  UNL     1      -3.417  51.455 -19.521  1.00  0.00     0.010 C 
HETATM   21  C17 UNL     1      -5.928  50.237 -20.897  1.00  0.00     0.009 C 
HETATM   22  C18 UNL     1      -6.856  49.793 -22.048  1.00  0.00     0.047 C 
BRANCH   3  23
HETATM   23  O2  UNL     1      -5.992  50.865 -24.009  1.00  0.00    -0.381 OA
HETATM   24  H27 UNL     1      -5.622  50.684 -24.896  1.00  0.00     0.211 HD
ENDBRANCH   3  23
ENDBRANCH   1   3
BRANCH   1  25
HETATM   25  C21 UNL     1      -7.529  47.609 -23.986  1.00  0.00     0.260 C 
BRANCH  25  26
HETATM   26  O4  UNL     1      -8.314  47.281 -25.133  1.00  0.00    -0.314 OA
BRANCH  26  27
HETATM   27  C22 UNL     1      -9.419  48.060 -25.300  1.00  0.00     0.259 C 
HETATM   28  O5  UNL     1      -9.437  49.282 -25.217  1.00  0.00    -0.265 OA
BRANCH  27  29
HETATM   29  C23 UNL     1     -10.620  47.205 -25.623  1.00  0.00     0.120 C 
BRANCH  29  30
HETATM   30  C24 UNL     1     -10.972  46.313 -24.438  1.00  0.00     0.112 C 
BRANCH  30  31
HETATM   31  C25 UNL     1     -12.397  46.545 -23.977  1.00  0.00     0.218 C 
HETATM   32  O6  UNL     1     -12.689  47.233 -23.002  1.00  0.00    -0.274 OA
HETATM   33  N1  UNL     1     -13.330  45.897 -24.750  1.00  0.00    -0.360 N 
HETATM   34  H34 UNL     1     -13.022  45.437 -25.605  1.00  0.00     0.162 HD
BRANCH  33  35
HETATM   35  C26 UNL     1     -14.749  46.082 -24.532  1.00  0.00     0.132 C 
BRANCH  35  36
HETATM   36  C27 UNL     1     -15.618  45.919 -25.803  1.00  0.00     0.046 C 
BRANCH  36  37
HETATM   37  C28 UNL     1     -15.072  44.804 -26.723  1.00  0.00     0.120 C 
BRANCH  37  38
HETATM   38  C29 UNL     1     -14.218  45.273 -27.876  1.00  0.00     0.140 C 
HETATM   39  O7  UNL     1     -14.596  45.792 -28.913  1.00  0.00    -0.650 OA
BRANCH  38  40
HETATM   40  O8  UNL     1     -12.904  45.082 -27.644  1.00  0.00    -0.776 OA
HETATM   41  H40 UNL     1     -12.456  45.387 -28.464  1.00  0.00     0.167 HD
ENDBRANCH  38  40
ENDBRANCH  37  38
ENDBRANCH  36  37
BRANCH  36  42
HETATM   42  C30 UNL     1     -17.118  45.930 -25.517  1.00  0.00    -0.052 A 
HETATM   43  C31 UNL     1     -17.617  46.818 -24.542  1.00  0.00     0.007 A 
HETATM   44  C32 UNL     1     -18.981  46.881 -24.245  1.00  0.00     0.001 A 
HETATM   45  C33 UNL     1     -19.879  46.063 -24.924  1.00  0.00     0.000 A 
HETATM   46  C34 UNL     1     -19.411  45.188 -25.901  1.00  0.00     0.001 A 
HETATM   47  C35 UNL     1     -18.044  45.127 -26.198  1.00  0.00     0.007 A 
ENDBRANCH  36  42
ENDBRANCH  35  36
ENDBRANCH  33  35
ENDBRANCH  30  31
ENDBRANCH  29  30
ENDBRANCH  27  29
ENDBRANCH  26  27
ENDBRANCH  25  26
ENDBRANCH   1  25
TORSDOF 14
ENDMDL
MODEL 3
REMARK minimizedAffinity -9.04266357
REMARK CNNscore 0.349475563
REMARK CNNaffinity 6.61194944
REMARK  14 active torsions:
REMARK  status: ('A' for Active; 'I' for Inactive)
REMARK    1  A    between atoms: C19_20  and  O2_21 
REMARK    2  A    between atoms: C19_20  and  C20_22 
REMARK    3  A    between atoms: C20_22  and  C21_24 
REMARK    4  A    between atoms: C21_24  and  O4_25 
REMARK    5  A    between atoms: O4_25  and  C22_26 
REMARK    6  A    between atoms: C22_26  and  C23_28 
REMARK    7  A    between atoms: C23_28  and  C24_29 
REMARK    8  A    between atoms: C24_29  and  C25_30 
REMARK       I    between atoms: C25_30  and  N1_32 
REMARK    9  A    between atoms: N1_32  and  C26_33 
REMARK   10  A    between atoms: C26_33  and  C27_34 
REMARK   11  A    between atoms: C27_34  and  C28_35 
REMARK   12  A    between atoms: C27_34  and  C30_39 
REMARK   13  A    between atoms: C28_35  and  C29_36 
REMARK   14  A    between atoms: C29_36  and  O8_38 
ROOT
HETATM    1  C20 UNL     1      -7.522  47.386 -29.234  1.00  0.00     0.185 C 
HETATM    2  O3  UNL     1      -8.534  47.301 -28.525  1.00  0.00    -0.292 OA
ENDROOT
BRANCH   1   3
HETATM    3  C19 UNL     1      -7.672  47.851 -30.696  1.00  0.00     0.128 C 
HETATM    4  C14 UNL     1      -8.392  46.820 -31.619  1.00  0.00    -0.002 C 
HETATM    5  C13 UNL     1      -9.915  46.689 -31.451  1.00  0.00     0.013 C 
HETATM    6  C15 UNL     1      -7.736  45.420 -31.474  1.00  0.00     0.019 C 
HETATM    7  C16 UNL     1      -8.135  47.480 -32.996  1.00  0.00     0.002 C 
HETATM    8  C12 UNL     1     -10.561  45.893 -32.603  1.00  0.00     0.007 C 
HETATM    9  C11 UNL     1     -10.205  46.448 -34.004  1.00  0.00     0.002 C 
HETATM   10  C2  UNL     1     -10.818  45.639 -35.205  1.00  0.00    -0.016 C 
HETATM   11  C10 UNL     1      -8.655  46.644 -34.172  1.00  0.00    -0.004 C 
HETATM   12  C1  UNL     1     -10.263  44.194 -35.273  1.00  0.00     0.020 C 
HETATM   13  C3  UNL     1     -12.363  45.483 -35.124  1.00  0.00     0.022 C 
HETATM   14  C7  UNL     1     -10.431  46.424 -36.466  1.00  0.00    -0.068 C 
HETATM   15  C4  UNL     1     -13.125  46.748 -35.471  1.00  0.00     0.084 C 
HETATM   16  C5  UNL     1     -12.738  47.200 -36.857  1.00  0.00     0.149 C 
HETATM   17  O1  UNL     1     -13.535  47.731 -37.625  1.00  0.00    -0.293 OA
HETATM   18  C6  UNL     1     -11.312  47.080 -37.244  1.00  0.00     0.053 C 
HETATM   19  C8  UNL     1      -8.951  46.571 -36.714  1.00  0.00     0.035 C 
HETATM   20  C9  UNL     1      -8.312  47.297 -35.527  1.00  0.00     0.010 C 
HETATM   21  C17 UNL     1      -6.653  47.838 -32.952  1.00  0.00     0.009 C 
HETATM   22  C18 UNL     1      -6.377  48.182 -31.473  1.00  0.00     0.047 C 
BRANCH   3  23
HETATM   23  O2  UNL     1      -8.438  49.069 -30.633  1.00  0.00    -0.381 OA
HETATM   24  H27 UNL     1      -9.131  48.925 -29.957  1.00  0.00     0.211 HD
ENDBRANCH   3  23
ENDBRANCH   1   3
BRANCH   1  25
HETATM   25  C21 UNL     1      -6.137  47.032 -28.709  1.00  0.00     0.260 C 
BRANCH  25  26
HETATM   26  O4  UNL     1      -5.672  47.960 -27.728  1.00  0.00    -0.314 OA
BRANCH  26  27
HETATM   27  C22 UNL     1      -4.481  48.548 -28.031  1.00  0.00     0.259 C 
HETATM   28  O5  UNL     1      -4.224  49.115 -29.085  1.00  0.00    -0.265 OA
BRANCH  27  29
HETATM   29  C23 UNL     1      -3.523  48.420 -26.871  1.00  0.00     0.120 C 
BRANCH  29  30
HETATM   30  C24 UNL     1      -4.230  48.741 -25.559  1.00  0.00     0.112 C 
BRANCH  30  31
HETATM   31  C25 UNL     1      -3.928  50.153 -25.100  1.00  0.00     0.218 C 
HETATM   32  O6  UNL     1      -4.483  50.687 -24.143  1.00  0.00    -0.274 OA
HETATM   33  N1  UNL     1      -2.982  50.783 -25.871  1.00  0.00    -0.360 N 
HETATM   34  H34 UNL     1      -2.485  50.241 -26.577  1.00  0.00     0.162 HD
BRANCH  33  35
HETATM   35  C26 UNL     1      -2.482  52.098 -25.527  1.00  0.00     0.132 C 
BRANCH  35  36
HETATM   36  C27 UNL     1      -1.049  52.106 -24.943  1.00  0.00     0.046 C 
BRANCH  36  37
HETATM   37  C28 UNL     1      -0.944  51.212 -23.687  1.00  0.00     0.120 C 
BRANCH  37  38
HETATM   38  C29 UNL     1      -1.328  51.873 -22.385  1.00  0.00     0.140 C 
HETATM   39  O7  UNL     1      -0.617  52.548 -21.660  1.00  0.00    -0.650 OA
BRANCH  38  40
HETATM   40  O8  UNL     1      -2.623  51.664 -22.074  1.00  0.00    -0.776 OA
HETATM   41  H40 UNL     1      -2.747  52.103 -21.204  1.00  0.00     0.167 HD
ENDBRANCH  38  40
ENDBRANCH  37  38
ENDBRANCH  36  37
BRANCH  36  42
HETATM   42  C30 UNL     1       0.039  51.965 -26.006  1.00  0.00    -0.052 A 
HETATM   43  C31 UNL     1       1.359  51.692 -25.594  1.00  0.00     0.007 A 
HETATM   44  C32 UNL     1       2.394  51.541 -26.521  1.00  0.00     0.001 A 
HETATM   45  C33 UNL     1       2.129  51.651 -27.883  1.00  0.00     0.000 A 
HETATM   46  C34 UNL     1       0.830  51.907 -28.313  1.00  0.00     0.001 A 
HETATM   47  C35 UNL     1      -0.206  52.057 -27.383  1.00  0.00     0.007 A 
ENDBRANCH  36  42
ENDBRANCH  35  36
ENDBRANCH  33  35
ENDBRANCH  30  31
ENDBRANCH  29  30
ENDBRANCH  27  29
ENDBRANCH  26  27
ENDBRANCH  25  26
ENDBRANCH   1  25
TORSDOF 14
ENDMDL
MODEL 4
REMARK minimizedAffinity -9.14911652
REMARK CNNscore 0.343403369
REMARK CNNaffinity 6.86367798
REMARK  14 active torsions:
REMARK  status: ('A' for Active; 'I' for Inactive)
REMARK    1  A    between atoms: C19_20  and  O2_21 
REMARK    2  A    between atoms: C19_20  and  C20_22 
REMARK    3  A    between atoms: C20_22  and  C21_24 
REMARK    4  A    between atoms: C21_24  and  O4_25 
REMARK    5  A    between atoms: O4_25  and  C22_26 
REMARK    6  A    between atoms: C22_26  and  C23_28 
REMARK    7  A    between atoms: C23_28  and  C24_29 
REMARK    8  A    between atoms: C24_29  and  C25_30 
REMARK       I    between atoms: C25_30  and  N1_32 
REMARK    9  A    between atoms: N1_32  and  C26_33 
REMARK   10  A    between atoms: C26_33  and  C27_34 
REMARK   11  A    between atoms: C27_34  and  C28_35 
REMARK   12  A    between atoms: C27_34  and  C30_39 
REMARK   13  A    between atoms: C28_35  and  C29_36 
REMARK   14  A    between atoms: C29_36  and  O8_38 
ROOT
HETATM    1  C20 UNL     1      -2.729  49.210 -20.526  1.00  0.00     0.185 C 
HETATM    2  O3  UNL     1      -3.214  48.304 -19.835  1.00  0.00    -0.292 OA
ENDROOT
BRANCH   1   3
HETATM    3  C19 UNL     1      -1.356  49.792 -20.138  1.00  0.00     0.128 C 
HETATM    4  C14 UNL     1      -1.226  50.160 -18.628  1.00  0.00    -0.002 C 
HETATM    5  C13 UNL     1      -1.066  48.989 -17.643  1.00  0.00     0.013 C 
HETATM    6  C15 UNL     1      -2.425  51.042 -18.186  1.00  0.00     0.019 C 
HETATM    7  C16 UNL     1       0.121  50.923 -18.660  1.00  0.00     0.002 C 
HETATM    8  C12 UNL     1      -0.636  49.463 -16.240  1.00  0.00     0.007 C 
HETATM    9  C11 UNL     1       0.633  50.350 -16.258  1.00  0.00     0.002 C 
HETATM   10  C2  UNL     1       1.080  50.882 -14.847  1.00  0.00    -0.016 C 
HETATM   11  C10 UNL     1       0.509  51.518 -17.302  1.00  0.00    -0.004 C 
HETATM   12  C1  UNL     1       0.025  51.831 -14.224  1.00  0.00     0.020 C 
HETATM   13  C3  UNL     1       1.290  49.754 -13.796  1.00  0.00     0.022 C 
HETATM   14  C7  UNL     1       2.399  51.630 -15.091  1.00  0.00    -0.068 C 
HETATM   15  C4  UNL     1       2.566  48.959 -13.999  1.00  0.00     0.084 C 
HETATM   16  C5  UNL     1       3.747  49.895 -13.974  1.00  0.00     0.149 C 
HETATM   17  O1  UNL     1       4.834  49.574 -13.502  1.00  0.00    -0.293 OA
HETATM   18  C6  UNL     1       3.596  51.210 -14.643  1.00  0.00     0.053 C 
HETATM   19  C8  UNL     1       2.315  52.810 -16.026  1.00  0.00     0.035 C 
HETATM   20  C9  UNL     1       1.816  52.334 -17.393  1.00  0.00     0.010 C 
HETATM   21  C17 UNL     1      -0.027  51.861 -19.854  1.00  0.00     0.009 C 
HETATM   22  C18 UNL     1      -0.900  51.081 -20.860  1.00  0.00     0.047 C 
BRANCH   3  23
HETATM   23  O2  UNL     1      -0.398  48.770 -20.476  1.00  0.00    -0.381 OA
HETATM   24  H27 UNL     1      -0.803  47.917 -20.217  1.00  0.00     0.211 HD
ENDBRANCH   3  23
ENDBRANCH   1   3
BRANCH   1  25
HETATM   25  C21 UNL     1      -3.455  49.775 -21.740  1.00  0.00     0.260 C 
BRANCH  25  26
HETATM   26  O4  UNL     1      -3.148  49.064 -22.940  1.00  0.00    -0.314 OA
BRANCH  26  27
HETATM   27  C22 UNL     1      -2.958  49.859 -24.031  1.00  0.00     0.259 C 
HETATM   28  O5  UNL     1      -2.017  50.626 -24.187  1.00  0.00    -0.265 OA
BRANCH  27  29
HETATM   29  C23 UNL     1      -4.065  49.644 -25.034  1.00  0.00     0.120 C 
BRANCH  29  30
HETATM   30  C24 UNL     1      -3.787  48.406 -25.878  1.00  0.00     0.112 C 
BRANCH  30  31
HETATM   31  C25 UNL     1      -4.154  48.633 -27.330  1.00  0.00     0.218 C 
HETATM   32  O6  UNL     1      -3.459  49.277 -28.111  1.00  0.00    -0.274 OA
HETATM   33  N1  UNL     1      -5.351  48.059 -27.683  1.00  0.00    -0.360 N 
HETATM   34  H34 UNL     1      -5.817  47.448 -27.014  1.00  0.00     0.162 HD
BRANCH  33  35
HETATM   35  C26 UNL     1      -5.821  48.077 -29.052  1.00  0.00     0.132 C 
BRANCH  35  36
HETATM   36  C27 UNL     1      -6.760  46.902 -29.422  1.00  0.00     0.046 C 
BRANCH  36  37
HETATM   37  C28 UNL     1      -8.218  47.380 -29.604  1.00  0.00     0.120 C 
BRANCH  37  38
HETATM   38  C29 UNL     1      -8.731  48.321 -28.542  1.00  0.00     0.140 C 
HETATM   39  O7  UNL     1      -9.090  48.036 -27.411  1.00  0.00    -0.650 OA
BRANCH  38  40
HETATM   40  O8  UNL     1      -8.739  49.602 -28.961  1.00  0.00    -0.776 OA
HETATM   41  H40 UNL     1      -9.120  50.110 -28.211  1.00  0.00     0.167 HD
ENDBRANCH  38  40
ENDBRANCH  37  38
ENDBRANCH  36  37
BRANCH  36  42
HETATM   42  C30 UNL     1      -6.179  45.975 -30.488  1.00  0.00    -0.052 A 
HETATM   43  C31 UNL     1      -5.063  46.410 -31.231  1.00  0.00     0.007 A 
HETATM   44  C32 UNL     1      -4.481  45.602 -32.211  1.00  0.00     0.001 A 
HETATM   45  C33 UNL     1      -4.998  44.334 -32.464  1.00  0.00     0.000 A 
HETATM   46  C34 UNL     1      -6.092  43.878 -31.732  1.00  0.00     0.001 A 
HETATM   47  C35 UNL     1      -6.672  44.689 -30.750  1.00  0.00     0.007 A 
ENDBRANCH  36  42
ENDBRANCH  35  36
ENDBRANCH  33  35
ENDBRANCH  30  31
ENDBRANCH  29  30
ENDBRANCH  27  29
ENDBRANCH  26  27
ENDBRANCH  25  26
ENDBRANCH   1  25
TORSDOF 14
ENDMDL
MODEL 5
REMARK minimizedAffinity -9.13999557
REMARK CNNscore 0.321697861
REMARK CNNaffinity 6.70382118
REMARK  14 active torsions:
REMARK  status: ('A' for Active; 'I' for Inactive)
REMARK    1  A    between atoms: C19_20  and  O2_21 
REMARK    2  A    between atoms: C19_20  and  C20_22 
REMARK    3  A    between atoms: C20_22  and  C21_24 
REMARK    4  A    between atoms: C21_24  and  O4_25 
REMARK    5  A    between atoms: O4_25  and  C22_26 
REMARK    6  A    between atoms: C22_26  and  C23_28 
REMARK    7  A    between atoms: C23_28  and  C24_29 
REMARK    8  A    between atoms: C24_29  and  C25_30 
REMARK       I    between atoms: C25_30  and  N1_32 
REMARK    9  A    between atoms: N1_32  and  C26_33 
REMARK   10  A    between atoms: C26_33  and  C27_34 
REMARK   11  A    between atoms: C27_34  and  C28_35 
REMARK   12  A    between atoms: C27_34  and  C30_39 
REMARK   13  A    between atoms: C28_35  and  C29_36 
REMARK   14  A    between atoms: C29_36  and  O8_38 
ROOT
HETATM    1  C20 UNL     1      -2.042  52.239 -25.708  1.00  0.00     0.185 C 
HETATM    2  O3  UNL     1      -3.108  52.846 -25.874  1.00  0.00    -0.292 OA
ENDROOT
BRANCH   1   3
HETATM    3  C19 UNL     1      -2.044  50.936 -24.886  1.00  0.00     0.128 C 
HETATM    4  C14 UNL     1      -3.340  50.717 -24.046  1.00  0.00    -0.002 C 
HETATM    5  C13 UNL     1      -4.600  50.292 -24.818  1.00  0.00     0.013 C 
HETATM    6  C15 UNL     1      -3.655  51.985 -23.207  1.00  0.00     0.019 C 
HETATM    7  C16 UNL     1      -2.894  49.507 -23.189  1.00  0.00     0.002 C 
HETATM    8  C12 UNL     1      -5.721  49.804 -23.880  1.00  0.00     0.007 C 
HETATM    9  C11 UNL     1      -5.263  48.688 -22.910  1.00  0.00     0.002 C 
HETATM   10  C2  UNL     1      -6.372  48.190 -21.912  1.00  0.00    -0.016 C 
HETATM   11  C10 UNL     1      -3.943  49.082 -22.155  1.00  0.00    -0.004 C 
HETATM   12  C1  UNL     1      -6.819  49.309 -20.937  1.00  0.00     0.020 C 
HETATM   13  C3  UNL     1      -7.675  47.716 -22.618  1.00  0.00     0.022 C 
HETATM   14  C7  UNL     1      -5.736  47.026 -21.140  1.00  0.00    -0.068 C 
HETATM   15  C4  UNL     1      -7.548  46.362 -23.291  1.00  0.00     0.084 C 
HETATM   16  C5  UNL     1      -7.127  45.335 -22.271  1.00  0.00     0.149 C 
HETATM   17  O1  UNL     1      -7.520  44.173 -22.304  1.00  0.00    -0.293 OA
HETATM   18  C6  UNL     1      -6.120  45.742 -21.262  1.00  0.00     0.053 C 
HETATM   19  C8  UNL     1      -4.509  47.373 -20.334  1.00  0.00     0.035 C 
HETATM   20  C9  UNL     1      -3.431  47.925 -21.271  1.00  0.00     0.010 C 
HETATM   21  C17 UNL     1      -1.505  49.906 -22.700  1.00  0.00     0.009 C 
HETATM   22  C18 UNL     1      -0.911  50.746 -23.850  1.00  0.00     0.047 C 
BRANCH   3  23
HETATM   23  O2  UNL     1      -1.902  49.875 -25.851  1.00  0.00    -0.381 OA
HETATM   24  H27 UNL     1      -2.459  50.122 -26.616  1.00  0.00     0.211 HD
ENDBRANCH   3  23
ENDBRANCH   1   3
BRANCH   1  25
HETATM   25  C21 UNL     1      -0.726  52.749 -26.283  1.00  0.00     0.260 C 
BRANCH  25  26
HETATM   26  O4  UNL     1       0.251  52.997 -25.271  1.00  0.00    -0.314 OA
BRANCH  26  27
HETATM   27  C22 UNL     1       0.469  54.316 -25.012  1.00  0.00     0.259 C 
HETATM   28  O5  UNL     1       0.200  55.237 -25.773  1.00  0.00    -0.265 OA
BRANCH  27  29
HETATM   29  C23 UNL     1       1.073  54.488 -23.639  1.00  0.00     0.120 C 
BRANCH  29  30
HETATM   30  C24 UNL     1       0.634  53.356 -22.718  1.00  0.00     0.112 C 
BRANCH  30  31
HETATM   31  C25 UNL     1       0.927  53.679 -21.267  1.00  0.00     0.218 C 
HETATM   32  O6  UNL     1       1.744  54.526 -20.915  1.00  0.00    -0.274 OA
HETATM   33  N1  UNL     1       0.199  52.919 -20.384  1.00  0.00    -0.360 N 
HETATM   34  H34 UNL     1      -0.538  52.317 -20.749  1.00  0.00     0.162 HD
BRANCH  33  35
HETATM   35  C26 UNL     1       0.262  53.155 -18.957  1.00  0.00     0.132 C 
BRANCH  35  36
HETATM   36  C27 UNL     1       0.160  51.875 -18.092  1.00  0.00     0.046 C 
BRANCH  36  37
HETATM   37  C28 UNL     1      -0.027  50.615 -18.966  1.00  0.00     0.120 C 
BRANCH  37  38
HETATM   38  C29 UNL     1      -1.320  49.865 -18.757  1.00  0.00     0.140 C 
HETATM   39  O7  UNL     1      -2.455  50.289 -18.908  1.00  0.00    -0.650 OA
BRANCH  38  40
HETATM   40  O8  UNL     1      -1.110  48.586 -18.389  1.00  0.00    -0.776 OA
HETATM   41  H40 UNL     1      -2.008  48.213 -18.249  1.00  0.00     0.167 HD
ENDBRANCH  38  40
ENDBRANCH  37  38
ENDBRANCH  36  37
BRANCH  36  42
HETATM   42  C30 UNL     1       1.200  51.815 -16.975  1.00  0.00    -0.052 A 
HETATM   43  C31 UNL     1       0.958  50.978 -15.867  1.00  0.00     0.007 A 
HETATM   44  C32 UNL     1       1.877  50.872 -14.820  1.00  0.00     0.001 A 
HETATM   45  C33 UNL     1       3.066  51.596 -14.862  1.00  0.00     0.000 A 
HETATM   46  C34 UNL     1       3.332  52.418 -15.954  1.00  0.00     0.001 A 
HETATM   47  C35 UNL     1       2.410  52.522 -17.002  1.00  0.00     0.007 A 
ENDBRANCH  36  42
ENDBRANCH  35  36
ENDBRANCH  33  35
ENDBRANCH  30  31
ENDBRANCH  29  30
ENDBRANCH  27  29
ENDBRANCH  26  27
ENDBRANCH  25  26
ENDBRANCH   1  25
TORSDOF 14
ENDMDL
MODEL 6
REMARK minimizedAffinity -9.40021801
REMARK CNNscore 0.296769708
REMARK CNNaffinity 6.52206182
REMARK  14 active torsions:
REMARK  status: ('A' for Active; 'I' for Inactive)
REMARK    1  A    between atoms: C19_20  and  O2_21 
REMARK    2  A    between atoms: C19_20  and  C20_22 
REMARK    3  A    between atoms: C20_22  and  C21_24 
REMARK    4  A    between atoms: C21_24  and  O4_25 
REMARK    5  A    between atoms: O4_25  and  C22_26 
REMARK    6  A    between atoms: C22_26  and  C23_28 
REMARK    7  A    between atoms: C23_28  and  C24_29 
REMARK    8  A    between atoms: C24_29  and  C25_30 
REMARK       I    between atoms: C25_30  and  N1_32 
REMARK    9  A    between atoms: N1_32  and  C26_33 
REMARK   10  A    between atoms: C26_33  and  C27_34 
REMARK   11  A    between atoms: C27_34  and  C28_35 
REMARK   12  A    between atoms: C27_34  and  C30_39 
REMARK   13  A    between atoms: C28_35  and  C29_36 
REMARK   14  A    between atoms: C29_36  and  O8_38 
ROOT
HETATM    1  C20 UNL     1      -7.313  47.079 -29.918  1.00  0.00     0.185 C 
HETATM    2  O3  UNL     1      -7.609  45.900 -29.680  1.00  0.00    -0.292 OA
ENDROOT
BRANCH   1   3
HETATM    3  C19 UNL     1      -7.487  47.617 -31.352  1.00  0.00     0.128 C 
HETATM    4  C14 UNL     1      -8.288  46.666 -32.294  1.00  0.00    -0.002 C 
HETATM    5  C13 UNL     1      -9.810  46.602 -32.078  1.00  0.00     0.013 C 
HETATM    6  C15 UNL     1      -7.701  45.230 -32.233  1.00  0.00     0.019 C 
HETATM    7  C16 UNL     1      -8.044  47.374 -33.649  1.00  0.00     0.002 C 
HETATM    8  C12 UNL     1     -10.534  45.893 -33.240  1.00  0.00     0.007 C 
HETATM    9  C11 UNL     1     -10.195  46.493 -34.627  1.00  0.00     0.002 C 
HETATM   10  C2  UNL     1     -10.888  45.771 -35.840  1.00  0.00    -0.016 C 
HETATM   11  C10 UNL     1      -8.644  46.620 -34.841  1.00  0.00    -0.004 C 
HETATM   12  C1  UNL     1     -10.410  44.304 -35.991  1.00  0.00     0.020 C 
HETATM   13  C3  UNL     1     -12.436  45.687 -35.711  1.00  0.00     0.022 C 
HETATM   14  C7  UNL     1     -10.504  46.592 -37.079  1.00  0.00    -0.068 C 
HETATM   15  C4  UNL     1     -13.144  47.003 -35.976  1.00  0.00     0.084 C 
HETATM   16  C5  UNL     1     -12.780  47.497 -37.353  1.00  0.00     0.149 C 
HETATM   17  O1  UNL     1     -13.573  48.101 -38.069  1.00  0.00    -0.293 OA
HETATM   18  C6  UNL     1     -11.375  47.325 -37.796  1.00  0.00     0.053 C 
HETATM   19  C8  UNL     1      -9.027  46.677 -37.371  1.00  0.00     0.035 C 
HETATM   20  C9  UNL     1      -8.313  47.315 -36.177  1.00  0.00     0.010 C 
HETATM   21  C17 UNL     1      -6.545  47.656 -33.641  1.00  0.00     0.009 C 
HETATM   22  C18 UNL     1      -6.203  47.919 -32.159  1.00  0.00     0.047 C 
BRANCH   3  23
HETATM   23  O2  UNL     1      -8.188  48.868 -31.209  1.00  0.00    -0.381 OA
HETATM   24  H27 UNL     1      -8.864  48.727 -30.516  1.00  0.00     0.211 HD
ENDBRANCH   3  23
ENDBRANCH   1   3
BRANCH   1  25
HETATM   25  C21 UNL     1      -6.769  48.008 -28.840  1.00  0.00     0.260 C 
BRANCH  25  26
HETATM   26  O4  UNL     1      -5.620  47.470 -28.185  1.00  0.00    -0.314 OA
BRANCH  26  27
HETATM   27  C22 UNL     1      -4.612  48.367 -27.993  1.00  0.00     0.259 C 
HETATM   28  O5  UNL     1      -4.128  49.078 -28.864  1.00  0.00    -0.265 OA
BRANCH  27  29
HETATM   29  C23 UNL     1      -4.188  48.376 -26.545  1.00  0.00     0.120 C 
BRANCH  29  30
HETATM   30  C24 UNL     1      -2.717  48.758 -26.423  1.00  0.00     0.112 C 
BRANCH  30  31
HETATM   31  C25 UNL     1      -2.492  49.734 -25.287  1.00  0.00     0.218 C 
HETATM   32  O6  UNL     1      -2.780  49.489 -24.118  1.00  0.00    -0.274 OA
HETATM   33  N1  UNL     1      -1.949  50.927 -25.696  1.00  0.00    -0.360 N 
HETATM   34  H34 UNL     1      -1.634  51.016 -26.661  1.00  0.00     0.162 HD
BRANCH  33  35
HETATM   35  C26 UNL     1      -1.563  51.947 -24.742  1.00  0.00     0.132 C 
BRANCH  35  36
HETATM   36  C27 UNL     1      -0.072  51.905 -24.329  1.00  0.00     0.046 C 
BRANCH  36  37
HETATM   37  C28 UNL     1       0.841  52.443 -25.453  1.00  0.00     0.120 C 
BRANCH  37  38
HETATM   38  C29 UNL     1       0.215  53.470 -26.364  1.00  0.00     0.140 C 
HETATM   39  O7  UNL     1      -0.209  53.296 -27.495  1.00  0.00    -0.650 OA
BRANCH  38  40
HETATM   40  O8  UNL     1       0.129  54.681 -25.779  1.00  0.00    -0.776 OA
HETATM   41  H40 UNL     1      -0.256  55.267 -26.468  1.00  0.00     0.167 HD
ENDBRANCH  38  40
ENDBRANCH  37  38
ENDBRANCH  36  37
BRANCH  36  42
HETATM   42  C30 UNL     1       0.178  52.411 -22.909  1.00  0.00    -0.052 A 
HETATM   43  C31 UNL     1       1.004  53.538 -22.726  1.00  0.00     0.007 A 
HETATM   44  C32 UNL     1       1.260  54.054 -21.453  1.00  0.00     0.001 A 
HETATM   45  C33 UNL     1       0.686  53.458 -20.333  1.00  0.00     0.000 A 
HETATM   46  C34 UNL     1      -0.146  52.353 -20.492  1.00  0.00     0.001 A 
HETATM   47  C35 UNL     1      -0.402  51.838 -21.768  1.00  0.00     0.007 A 
ENDBRANCH  36  42
ENDBRANCH  35  36
ENDBRANCH  33  35
ENDBRANCH  30  31
ENDBRANCH  29  30
ENDBRANCH  27  29
ENDBRANCH  26  27
ENDBRANCH  25  26
ENDBRANCH   1  25
TORSDOF 14
ENDMDL
MODEL 7
REMARK minimizedAffinity -8.1421442
REMARK CNNscore 0.284506798
REMARK CNNaffinity 6.19315529
REMARK  14 active torsions:
REMARK  status: ('A' for Active; 'I' for Inactive)
REMARK    1  A    between atoms: C19_20  and  O2_21 
REMARK    2  A    between atoms: C19_20  and  C20_22 
REMARK    3  A    between atoms: C20_22  and  C21_24 
REMARK    4  A    between atoms: C21_24  and  O4_25 
REMARK    5  A    between atoms: O4_25  and  C22_26 
REMARK    6  A    between atoms: C22_26  and  C23_28 
REMARK    7  A    between atoms: C23_28  and  C24_29 
REMARK    8  A    between atoms: C24_29  and  C25_30 
REMARK       I    between atoms: C25_30  and  N1_32 
REMARK    9  A    between atoms: N1_32  and  C26_33 
REMARK   10  A    between atoms: C26_33  and  C27_34 
REMARK   11  A    between atoms: C27_34  and  C28_35 
REMARK   12  A    between atoms: C27_34  and  C30_39 
REMARK   13  A    between atoms: C28_35  and  C29_36 
REMARK   14  A    between atoms: C29_36  and  O8_38 
ROOT
HETATM    1  C20 UNL     1      -6.305  48.834 -24.429  1.00  0.00     0.185 C 
HETATM    2  O3  UNL     1      -5.480  48.483 -25.283  1.00  0.00    -0.292 OA
ENDROOT
BRANCH   1   3
HETATM    3  C19 UNL     1      -5.872  49.833 -23.338  1.00  0.00     0.128 C 
HETATM    4  C14 UNL     1      -4.449  49.562 -22.759  1.00  0.00    -0.002 C 
HETATM    5  C13 UNL     1      -3.256  49.942 -23.653  1.00  0.00     0.013 C 
HETATM    6  C15 UNL     1      -4.317  48.076 -22.332  1.00  0.00     0.019 C 
HETATM    7  C16 UNL     1      -4.462  50.548 -21.565  1.00  0.00     0.002 C 
HETATM    8  C12 UNL     1      -1.923  49.931 -22.881  1.00  0.00     0.007 C 
HETATM    9  C11 UNL     1      -1.953  50.800 -21.599  1.00  0.00     0.002 C 
HETATM   10  C2  UNL     1      -0.619  50.784 -20.765  1.00  0.00    -0.016 C 
HETATM   11  C10 UNL     1      -3.198  50.465 -20.701  1.00  0.00    -0.004 C 
HETATM   12  C1  UNL     1      -0.306  49.375 -20.200  1.00  0.00     0.020 C 
HETATM   13  C3  UNL     1       0.636  51.183 -21.593  1.00  0.00     0.022 C 
HETATM   14  C7  UNL     1      -0.840  51.785 -19.622  1.00  0.00    -0.068 C 
HETATM   15  C4  UNL     1       0.730  52.670 -21.882  1.00  0.00     0.084 C 
HETATM   16  C5  UNL     1       0.722  53.433 -20.582  1.00  0.00     0.149 C 
HETATM   17  O1  UNL     1       1.368  54.464 -20.417  1.00  0.00    -0.293 OA
HETATM   18  C6  UNL     1      -0.187  52.956 -19.511  1.00  0.00     0.053 C 
HETATM   19  C8  UNL     1      -1.977  51.464 -18.685  1.00  0.00     0.035 C 
HETATM   20  C9  UNL     1      -3.283  51.405 -19.481  1.00  0.00     0.010 C 
HETATM   21  C17 UNL     1      -5.815  50.296 -20.907  1.00  0.00     0.009 C 
HETATM   22  C18 UNL     1      -6.758  49.934 -22.075  1.00  0.00     0.047 C 
BRANCH   3  23
HETATM   23  O2  UNL     1      -5.905  51.127 -23.971  1.00  0.00    -0.381 OA
HETATM   24  H27 UNL     1      -5.545  51.002 -24.872  1.00  0.00     0.211 HD
ENDBRANCH   3  23
ENDBRANCH   1   3
BRANCH   1  25
HETATM   25  C21 UNL     1      -7.731  48.297 -24.416  1.00  0.00     0.260 C 
BRANCH  25  26
HETATM   26  O4  UNL     1      -7.817  46.990 -23.845  1.00  0.00    -0.314 OA
BRANCH  26  27
HETATM   27  C22 UNL     1      -8.822  46.222 -24.350  1.00  0.00     0.259 C 
HETATM   28  O5  UNL     1      -9.514  45.451 -23.697  1.00  0.00    -0.265 OA
BRANCH  27  29
HETATM   29  C23 UNL     1      -8.978  46.470 -25.831  1.00  0.00     0.120 C 
BRANCH  29  30
HETATM   30  C24 UNL     1      -9.907  47.653 -26.078  1.00  0.00     0.112 C 
BRANCH  30  31
HETATM   31  C25 UNL     1     -10.948  47.328 -27.129  1.00  0.00     0.218 C 
HETATM   32  O6  UNL     1     -10.678  46.817 -28.213  1.00  0.00    -0.274 OA
HETATM   33  N1  UNL     1     -12.223  47.675 -26.756  1.00  0.00    -0.360 N 
HETATM   34  H34 UNL     1     -12.384  47.991 -25.801  1.00  0.00     0.162 HD
BRANCH  33  35
HETATM   35  C26 UNL     1     -13.366  47.346 -27.582  1.00  0.00     0.132 C 
BRANCH  35  36
HETATM   36  C27 UNL     1     -14.308  46.278 -26.976  1.00  0.00     0.046 C 
BRANCH  36  37
HETATM   37  C28 UNL     1     -13.889  44.851 -27.396  1.00  0.00     0.120 C 
BRANCH  37  38
HETATM   38  C29 UNL     1     -14.967  44.024 -28.051  1.00  0.00     0.140 C 
HETATM   39  O7  UNL     1     -15.172  42.829 -27.912  1.00  0.00    -0.650 OA
BRANCH  38  40
HETATM   40  O8  UNL     1     -15.765  44.767 -28.844  1.00  0.00    -0.776 OA
HETATM   41  H40 UNL     1     -16.396  44.126 -29.239  1.00  0.00     0.167 HD
ENDBRANCH  38  40
ENDBRANCH  37  38
ENDBRANCH  36  37
BRANCH  36  42
HETATM   42  C30 UNL     1     -14.628  46.518 -25.502  1.00  0.00    -0.052 A 
HETATM   43  C31 UNL     1     -15.978  46.584 -25.102  1.00  0.00     0.007 A 
HETATM   44  C32 UNL     1     -16.332  46.790 -23.767  1.00  0.00     0.001 A 
HETATM   45  C33 UNL     1     -15.342  46.926 -22.797  1.00  0.00     0.000 A 
HETATM   46  C34 UNL     1     -14.002  46.850 -23.167  1.00  0.00     0.001 A 
HETATM   47  C35 UNL     1     -13.649  46.643 -24.506  1.00  0.00     0.007 A 
ENDBRANCH  36  42
ENDBRANCH  35  36
ENDBRANCH  33  35
ENDBRANCH  30  31
ENDBRANCH  29  30
ENDBRANCH  27  29
ENDBRANCH  26  27
ENDBRANCH  25  26
ENDBRANCH   1  25
TORSDOF 14
ENDMDL
MODEL 8
REMARK minimizedAffinity -9.88094807
REMARK CNNscore 0.281993687
REMARK CNNaffinity 7.23214531
REMARK  14 active torsions:
REMARK  status: ('A' for Active; 'I' for Inactive)
REMARK    1  A    between atoms: C19_20  and  O2_21 
REMARK    2  A    between atoms: C19_20  and  C20_22 
REMARK    3  A    between atoms: C20_22  and  C21_24 
REMARK    4  A    between atoms: C21_24  and  O4_25 
REMARK    5  A    between atoms: O4_25  and  C22_26 
REMARK    6  A    between atoms: C22_26  and  C23_28 
REMARK    7  A    between atoms: C23_28  and  C24_29 
REMARK    8  A    between atoms: C24_29  and  C25_30 
REMARK       I    between atoms: C25_30  and  N1_32 
REMARK    9  A    between atoms: N1_32  and  C26_33 
REMARK   10  A    between atoms: C26_33  and  C27_34 
REMARK   11  A    between atoms: C27_34  and  C28_35 
REMARK   12  A    between atoms: C27_34  and  C30_39 
REMARK   13  A    between atoms: C28_35  and  C29_36 
REMARK   14  A    between atoms: C29_36  and  O8_38 
ROOT
HETATM    1  C20 UNL     1      -3.113  49.082 -19.867  1.00  0.00     0.185 C 
HETATM    2  O3  UNL     1      -3.504  48.111 -19.206  1.00  0.00    -0.292 OA
ENDROOT
BRANCH   1   3
HETATM    3  C19 UNL     1      -1.683  49.612 -19.641  1.00  0.00     0.128 C 
HETATM    4  C14 UNL     1      -1.413  50.110 -18.188  1.00  0.00    -0.002 C 
HETATM    5  C13 UNL     1      -1.237  49.028 -17.108  1.00  0.00     0.013 C 
HETATM    6  C15 UNL     1      -2.523  51.102 -17.745  1.00  0.00     0.019 C 
HETATM    7  C16 UNL     1      -0.034  50.783 -18.395  1.00  0.00     0.002 C 
HETATM    8  C12 UNL     1      -0.672  49.603 -15.795  1.00  0.00     0.007 C 
HETATM    9  C11 UNL     1       0.638  50.405 -15.993  1.00  0.00     0.002 C 
HETATM   10  C2  UNL     1       1.226  51.037 -14.678  1.00  0.00    -0.016 C 
HETATM   11  C10 UNL     1       0.495  51.476 -17.134  1.00  0.00    -0.004 C 
HETATM   12  C1  UNL     1       0.277  52.103 -14.074  1.00  0.00     0.020 C 
HETATM   13  C3  UNL     1       1.458  50.001 -13.541  1.00  0.00     0.022 C 
HETATM   14  C7  UNL     1       2.559  51.676 -15.092  1.00  0.00    -0.068 C 
HETATM   15  C4  UNL     1       2.669  49.113 -13.761  1.00  0.00     0.084 C 
HETATM   16  C5  UNL     1       3.897  49.973 -13.916  1.00  0.00     0.149 C 
HETATM   17  O1  UNL     1       4.999  49.631 -13.497  1.00  0.00    -0.293 OA
HETATM   18  C6  UNL     1       3.764  51.227 -14.696  1.00  0.00     0.053 C 
HETATM   19  C8  UNL     1       2.464  52.767 -16.129  1.00  0.00     0.035 C 
HETATM   20  C9  UNL     1       1.832  52.198 -17.401  1.00  0.00     0.010 C 
HETATM   21  C17 UNL     1      -0.226  51.613 -19.660  1.00  0.00     0.009 C 
HETATM   22  C18 UNL     1      -1.218  50.798 -20.517  1.00  0.00     0.047 C 
BRANCH   3  23
HETATM   23  O2  UNL     1      -0.812  48.506 -19.948  1.00  0.00    -0.381 OA
HETATM   24  H27 UNL     1      -1.240  47.707 -19.578  1.00  0.00     0.211 HD
ENDBRANCH   3  23
ENDBRANCH   1   3
BRANCH   1  25
HETATM   25  C21 UNL     1      -4.006  49.777 -20.886  1.00  0.00     0.260 C 
BRANCH  25  26
HETATM   26  O4  UNL     1      -5.253  49.104 -21.068  1.00  0.00    -0.314 OA
BRANCH  26  27
HETATM   27  C22 UNL     1      -6.099  49.715 -21.943  1.00  0.00     0.259 C 
HETATM   28  O5  UNL     1      -7.269  49.993 -21.712  1.00  0.00    -0.265 OA
BRANCH  27  29
HETATM   29  C23 UNL     1      -5.384  50.022 -23.236  1.00  0.00     0.120 C 
BRANCH  29  30
HETATM   30  C24 UNL     1      -5.369  51.525 -23.492  1.00  0.00     0.112 C 
BRANCH  30  31
HETATM   31  C25 UNL     1      -3.994  51.998 -23.918  1.00  0.00     0.218 C 
HETATM   32  O6  UNL     1      -3.204  52.553 -23.158  1.00  0.00    -0.274 OA
HETATM   33  N1  UNL     1      -3.723  51.758 -25.243  1.00  0.00    -0.360 N 
HETATM   34  H34 UNL     1      -4.380  51.195 -25.782  1.00  0.00     0.162 HD
BRANCH  33  35
HETATM   35  C26 UNL     1      -2.422  52.042 -25.810  1.00  0.00     0.132 C 
BRANCH  35  36
HETATM   36  C27 UNL     1      -1.525  50.796 -26.011  1.00  0.00     0.046 C 
BRANCH  36  37
HETATM   37  C28 UNL     1      -2.301  49.644 -26.688  1.00  0.00     0.120 C 
BRANCH  37  38
HETATM   38  C29 UNL     1      -3.179  50.045 -27.848  1.00  0.00     0.140 C 
HETATM   39  O7  UNL     1      -3.978  49.346 -28.449  1.00  0.00    -0.650 OA
BRANCH  38  40
HETATM   40  O8  UNL     1      -3.021  51.343 -28.178  1.00  0.00    -0.776 OA
HETATM   41  H40 UNL     1      -3.607  51.479 -28.955  1.00  0.00     0.167 HD
ENDBRANCH  38  40
ENDBRANCH  37  38
ENDBRANCH  36  37
BRANCH  36  42
HETATM   42  C30 UNL     1      -0.136  51.130 -26.553  1.00  0.00    -0.052 A 
HETATM   43  C31 UNL     1      -0.016  51.571 -27.886  1.00  0.00     0.007 A 
HETATM   44  C32 UNL     1       1.226  51.902 -28.434  1.00  0.00     0.001 A 
HETATM   45  C33 UNL     1       2.377  51.808 -27.656  1.00  0.00     0.000 A 
HETATM   46  C34 UNL     1       2.279  51.389 -26.331  1.00  0.00     0.001 A 
HETATM   47  C35 UNL     1       1.034  51.059 -25.784  1.00  0.00     0.007 A 
ENDBRANCH  36  42
ENDBRANCH  35  36
ENDBRANCH  33  35
ENDBRANCH  30  31
ENDBRANCH  29  30
ENDBRANCH  27  29
ENDBRANCH  26  27
ENDBRANCH  25  26
ENDBRANCH   1  25
TORSDOF 14
ENDMDL
MODEL 9
REMARK minimizedAffinity -8.48033142
REMARK CNNscore 0.278043598
REMARK CNNaffinity 6.84791756
REMARK  14 active torsions:
REMARK  status: ('A' for Active; 'I' for Inactive)
REMARK    1  A    between atoms: C19_20  and  O2_21 
REMARK    2  A    between atoms: C19_20  and  C20_22 
REMARK    3  A    between atoms: C20_22  and  C21_24 
REMARK    4  A    between atoms: C21_24  and  O4_25 
REMARK    5  A    between atoms: O4_25  and  C22_26 
REMARK    6  A    between atoms: C22_26  and  C23_28 
REMARK    7  A    between atoms: C23_28  and  C24_29 
REMARK    8  A    between atoms: C24_29  and  C25_30 
REMARK       I    between atoms: C25_30  and  N1_32 
REMARK    9  A    between atoms: N1_32  and  C26_33 
REMARK   10  A    between atoms: C26_33  and  C27_34 
REMARK   11  A    between atoms: C27_34  and  C28_35 
REMARK   12  A    between atoms: C27_34  and  C30_39 
REMARK   13  A    between atoms: C28_35  and  C29_36 
REMARK   14  A    between atoms: C29_36  and  O8_38 
ROOT
HETATM    1  C20 UNL     1      -1.870  48.699 -18.580  1.00  0.00     0.185 C 
HETATM    2  O3  UNL     1      -0.790  48.844 -17.992  1.00  0.00    -0.292 OA
ENDROOT
BRANCH   1   3
HETATM    3  C19 UNL     1      -1.862  48.377 -20.087  1.00  0.00     0.128 C 
HETATM    4  C14 UNL     1      -1.949  49.635 -21.005  1.00  0.00    -0.002 C 
HETATM    5  C13 UNL     1      -0.675  50.489 -21.129  1.00  0.00     0.013 C 
HETATM    6  C15 UNL     1      -3.133  50.539 -20.567  1.00  0.00     0.019 C 
HETATM    7  C16 UNL     1      -2.175  48.944 -22.372  1.00  0.00     0.002 C 
HETATM    8  C12 UNL     1      -0.767  51.507 -22.282  1.00  0.00     0.007 C 
HETATM    9  C11 UNL     1      -1.134  50.860 -23.641  1.00  0.00     0.002 C 
HETATM   10  C2  UNL     1      -1.272  51.874 -24.834  1.00  0.00    -0.016 C 
HETATM   11  C10 UNL     1      -2.399  49.936 -23.519  1.00  0.00    -0.004 C 
HETATM   12  C1  UNL     1      -2.441  52.868 -24.618  1.00  0.00     0.020 C 
HETATM   13  C3  UNL     1      -0.011  52.762 -25.044  1.00  0.00     0.022 C 
HETATM   14  C7  UNL     1      -1.523  51.010 -26.078  1.00  0.00    -0.068 C 
HETATM   15  C4  UNL     1       1.153  52.029 -25.684  1.00  0.00     0.084 C 
HETATM   16  C5  UNL     1       0.715  51.457 -27.009  1.00  0.00     0.149 C 
HETATM   17  O1  UNL     1       1.466  51.387 -27.978  1.00  0.00    -0.293 OA
HETATM   18  C6  UNL     1      -0.645  50.872 -27.088  1.00  0.00     0.053 C 
HETATM   19  C8  UNL     1      -2.771  50.164 -26.042  1.00  0.00     0.035 C 
HETATM   20  C9  UNL     1      -2.697  49.210 -24.848  1.00  0.00     0.010 C 
HETATM   21  C17 UNL     1      -3.258  47.911 -22.077  1.00  0.00     0.009 C 
HETATM   22  C18 UNL     1      -2.988  47.464 -20.625  1.00  0.00     0.047 C 
BRANCH   3  23
HETATM   23  O2  UNL     1      -0.621  47.684 -20.323  1.00  0.00    -0.381 OA
HETATM   24  H27 UNL     1       0.057  48.142 -19.786  1.00  0.00     0.211 HD
ENDBRANCH   3  23
ENDBRANCH   1   3
BRANCH   1  25
HETATM   25  C21 UNL     1      -3.205  48.842 -17.861  1.00  0.00     0.260 C 
BRANCH  25  26
HETATM   26  O4  UNL     1      -3.061  49.373 -16.543  1.00  0.00    -0.314 OA
BRANCH  26  27
HETATM   27  C22 UNL     1      -3.011  50.734 -16.488  1.00  0.00     0.259 C 
HETATM   28  O5  UNL     1      -2.834  51.471 -17.450  1.00  0.00    -0.265 OA
BRANCH  27  29
HETATM   29  C23 UNL     1      -3.227  51.209 -15.072  1.00  0.00     0.120 C 
BRANCH  29  30
HETATM   30  C24 UNL     1      -2.536  50.275 -14.085  1.00  0.00     0.112 C 
BRANCH  30  31
HETATM   31  C25 UNL     1      -3.294  50.196 -12.776  1.00  0.00     0.218 C 
HETATM   32  O6  UNL     1      -3.837  49.172 -12.369  1.00  0.00    -0.274 OA
HETATM   33  N1  UNL     1      -3.328  51.389 -12.096  1.00  0.00    -0.360 N 
HETATM   34  H34 UNL     1      -2.763  52.164 -12.439  1.00  0.00     0.162 HD
BRANCH  33  35
HETATM   35  C26 UNL     1      -3.915  51.487 -10.775  1.00  0.00     0.132 C 
BRANCH  35  36
HETATM   36  C27 UNL     1      -2.906  51.823  -9.650  1.00  0.00     0.046 C 
BRANCH  36  37
HETATM   37  C28 UNL     1      -2.402  50.545  -8.943  1.00  0.00     0.120 C 
BRANCH  37  38
HETATM   38  C29 UNL     1      -1.388  50.765  -7.848  1.00  0.00     0.140 C 
HETATM   39  O7  UNL     1      -0.288  50.246  -7.741  1.00  0.00    -0.650 OA
BRANCH  38  40
HETATM   40  O8  UNL     1      -1.811  51.667  -6.940  1.00  0.00    -0.776 OA
HETATM   41  H40 UNL     1      -1.096  51.702  -6.267  1.00  0.00     0.167 HD
ENDBRANCH  38  40
ENDBRANCH  37  38
ENDBRANCH  36  37
BRANCH  36  42
HETATM   42  C30 UNL     1      -1.866  52.864 -10.060  1.00  0.00    -0.052 A 
HETATM   43  C31 UNL     1      -0.711  52.436 -10.745  1.00  0.00     0.007 A 
HETATM   44  C32 UNL     1       0.270  53.342 -11.155  1.00  0.00     0.001 A 
HETATM   45  C33 UNL     1       0.113  54.701 -10.897  1.00  0.00     0.000 A 
HETATM   46  C34 UNL     1      -1.028  55.148 -10.234  1.00  0.00     0.001 A 
HETATM   47  C35 UNL     1      -2.009  54.238  -9.825  1.00  0.00     0.007 A 
ENDBRANCH  36  42
ENDBRANCH  35  36
ENDBRANCH  33  35
ENDBRANCH  30  31
ENDBRANCH  29  30
ENDBRANCH  27  29
ENDBRANCH  26  27
ENDBRANCH  25  26
ENDBRANCH   1  25
TORSDOF 14
ENDMDL
