MODEL 1
REMARK minimizedAffinity -8.44228268
REMARK CNNscore 0.299342453
REMARK CNNaffinity 7.44486189
REMARK  13 active torsions:
REMARK  status: ('A' for Active; 'I' for Inactive)
REMARK    1  A    between atoms: O1_2  and  C2_3 
REMARK    2  A    between atoms: C12_14  and  C13_15 
REMARK    3  A    between atoms: C13_15  and  C15_17 
REMARK    4  A    between atoms: C15_17  and  C16_18 
REMARK    5  A    between atoms: C17_19  and  C18_20 
REMARK    6  A    between atoms: C18_20  and  O3_23 
REMARK    7  A    between atoms: C29_32  and  O4_33 
REMARK    8  A    between atoms: O4_33  and  C30_34 
REMARK    9  A    between atoms: C31_36  and  C32_37 
REMARK   10  A    between atoms: C32_37  and  O6_38 
REMARK   11  A    between atoms: C33_39  and  O7_40 
REMARK   12  A    between atoms: C34_41  and  O8_42 
REMARK   13  A    between atoms: C35_43  and  O9_44 
ROOT
HETATM    1  C2  UNL     1      -2.793   5.777  13.350  1.00  0.00     0.270 C 
HETATM    2  O2  UNL     1      -1.623   6.256  14.062  1.00  0.00    -0.344 OA
HETATM    3  C3  UNL     1      -2.022   7.396  14.857  1.00  0.00     0.095 C 
HETATM    4  C4  UNL     1      -2.510   6.784  16.165  1.00  0.00     0.008 C 
HETATM    5  C5  UNL     1      -3.731   6.243  16.289  1.00  0.00    -0.021 C 
HETATM    6  C6  UNL     1      -4.673   6.154  15.109  1.00  0.00     0.030 C 
HETATM    7  C7  UNL     1      -4.003   6.682  13.767  1.00  0.00     0.024 C 
HETATM    8  C8  UNL     1      -5.031   6.739  12.601  1.00  0.00     0.016 C 
HETATM    9  C9  UNL     1      -6.447   7.243  12.942  1.00  0.00     0.011 C 
HETATM   10  C10 UNL     1      -7.039   6.528  14.169  1.00  0.00    -0.032 C 
HETATM   11  C11 UNL     1      -7.224   5.016  13.815  1.00  0.00     0.016 C 
HETATM   12  C12 UNL     1      -8.388   7.067  14.752  1.00  0.00    -0.002 C 
HETATM   13  C22 UNL     1      -8.340   6.537  16.228  1.00  0.00     0.006 C 
HETATM   14  C23 UNL     1      -6.878   6.158  16.537  1.00  0.00     0.011 C 
HETATM   15  C24 UNL     1      -6.072   6.790  15.389  1.00  0.00    -0.029 C 
HETATM   16  C25 UNL     1      -5.938   8.303  15.783  1.00  0.00     0.016 C 
HETATM   17  C26 UNL     1      -3.204   7.980  14.049  1.00  0.00     0.039 C 
HETATM   18  C27 UNL     1      -2.767   8.740  12.782  1.00  0.00     0.011 C 
HETATM   19  C28 UNL     1      -1.684   9.768  13.065  1.00  0.00     0.033 C 
HETATM   20  C29 UNL     1      -0.467   9.143  13.750  1.00  0.00     0.136 C 
HETATM   21  C36 UNL     1      -0.847   8.413  15.076  1.00  0.00     0.014 C 
HETATM   22  C37 UNL     1       0.412   7.693  15.628  1.00  0.00     0.021 C 
HETATM   23  C38 UNL     1      -1.253   9.497  16.114  1.00  0.00     0.021 C 
ENDROOT
BRANCH  20  24
HETATM   24  O4  UNL     1       0.108   8.214  12.827  1.00  0.00    -0.352 OA
BRANCH  24  25
HETATM   25  C30 UNL     1       1.335   8.676  12.248  1.00  0.00     0.292 C 
HETATM   26  O5  UNL     1       1.121   8.920  10.861  1.00  0.00    -0.348 OA
HETATM   27  C31 UNL     1       1.512   7.864   9.977  1.00  0.00     0.179 C 
HETATM   28  C33 UNL     1       1.243   6.476  10.581  1.00  0.00     0.180 C 
HETATM   29  C34 UNL     1       2.024   6.285  11.893  1.00  0.00     0.183 C 
HETATM   30  C35 UNL     1       2.407   7.614  12.551  1.00  0.00     0.204 C 
BRANCH  27  31
HETATM   31  C32 UNL     1       0.758   8.048   8.649  1.00  0.00     0.198 C 
BRANCH  31  32
HETATM   32  O6  UNL     1      -0.166   9.127   8.673  1.00  0.00    -0.398 OA
HETATM   33  H50 UNL     1       0.166   9.757   9.350  1.00  0.00     0.209 HD
ENDBRANCH  31  32
ENDBRANCH  27  31
BRANCH  28  34
HETATM   34  O7  UNL     1       1.605   5.432   9.674  1.00  0.00    -0.390 OA
HETATM   35  H52 UNL     1       1.308   4.602  10.098  1.00  0.00     0.210 HD
ENDBRANCH  28  34
BRANCH  29  36
HETATM   36  O8  UNL     1       1.221   5.493  12.793  1.00  0.00    -0.390 OA
HETATM   37  H54 UNL     1       0.448   6.057  13.007  1.00  0.00     0.210 HD
ENDBRANCH  29  36
BRANCH  30  38
HETATM   38  O9  UNL     1       3.688   8.058  12.094  1.00  0.00    -0.388 OA
HETATM   39  H56 UNL     1       4.332   7.357  12.297  1.00  0.00     0.210 HD
ENDBRANCH  30  38
ENDBRANCH  24  25
ENDBRANCH  20  24
BRANCH   1  40
HETATM   40  O1  UNL     1      -3.056   4.397  13.567  1.00  0.00    -0.365 OA
HETATM   41  C1  UNL     1      -3.149   3.672  12.339  1.00  0.00     0.204 C 
ENDBRANCH   1  40
BRANCH  12  42
HETATM   42  C13 UNL     1      -9.746   6.731  14.068  1.00  0.00    -0.010 C 
HETATM   43  C14 UNL     1      -9.564   6.170  12.655  1.00  0.00     0.010 C 
BRANCH  42  44
HETATM   44  C15 UNL     1     -10.638   8.002  14.023  1.00  0.00     0.031 C 
BRANCH  44  45
HETATM   45  C16 UNL     1     -11.004   8.525  15.388  1.00  0.00    -0.027 C 
HETATM   46  C17 UNL     1     -10.963   9.830  15.709  1.00  0.00     0.006 C 
BRANCH  46  47
HETATM   47  C18 UNL     1     -11.288  10.481  17.041  1.00  0.00     0.070 C 
HETATM   48  C19 UNL     1     -11.020   9.484  18.182  1.00  0.00     0.050 C 
HETATM   49  C20 UNL     1     -10.469  11.753  17.313  1.00  0.00     0.050 C 
BRANCH  47  50
HETATM   50  O3  UNL     1     -12.654  10.927  17.029  1.00  0.00    -0.382 OA
HETATM   51  C21 UNL     1     -13.481  10.531  18.108  1.00  0.00     0.202 C 
ENDBRANCH  47  50
ENDBRANCH  46  47
ENDBRANCH  44  45
ENDBRANCH  42  44
ENDBRANCH  12  42
TORSDOF 13
ENDMDL
MODEL 2
REMARK minimizedAffinity -8.78330135
REMARK CNNscore 0.270740271
REMARK CNNaffinity 7.07916832
REMARK  13 active torsions:
REMARK  status: ('A' for Active; 'I' for Inactive)
REMARK    1  A    between atoms: O1_2  and  C2_3 
REMARK    2  A    between atoms: C12_14  and  C13_15 
REMARK    3  A    between atoms: C13_15  and  C15_17 
REMARK    4  A    between atoms: C15_17  and  C16_18 
REMARK    5  A    between atoms: C17_19  and  C18_20 
REMARK    6  A    between atoms: C18_20  and  O3_23 
REMARK    7  A    between atoms: C29_32  and  O4_33 
REMARK    8  A    between atoms: O4_33  and  C30_34 
REMARK    9  A    between atoms: C31_36  and  C32_37 
REMARK   10  A    between atoms: C32_37  and  O6_38 
REMARK   11  A    between atoms: C33_39  and  O7_40 
REMARK   12  A    between atoms: C34_41  and  O8_42 
REMARK   13  A    between atoms: C35_43  and  O9_44 
ROOT
HETATM    1  C2  UNL     1      -2.890   5.830  13.284  1.00  0.00     0.270 C 
HETATM    2  O2  UNL     1      -1.700   6.237  14.007  1.00  0.00    -0.344 OA
HETATM    3  C3  UNL     1      -2.061   7.335  14.875  1.00  0.00     0.095 C 
HETATM    4  C4  UNL     1      -2.549   6.657  16.151  1.00  0.00     0.008 C 
HETATM    5  C5  UNL     1      -3.781   6.139  16.257  1.00  0.00    -0.021 C 
HETATM    6  C6  UNL     1      -4.739   6.144  15.087  1.00  0.00     0.030 C 
HETATM    7  C7  UNL     1      -4.072   6.737  13.771  1.00  0.00     0.024 C 
HETATM    8  C8  UNL     1      -5.112   6.889  12.625  1.00  0.00     0.016 C 
HETATM    9  C9  UNL     1      -6.511   7.405  13.014  1.00  0.00     0.011 C 
HETATM   10  C10 UNL     1      -7.106   6.631  14.204  1.00  0.00    -0.032 C 
HETATM   11  C11 UNL     1      -7.333   5.148  13.761  1.00  0.00     0.016 C 
HETATM   12  C12 UNL     1      -8.434   7.166  14.836  1.00  0.00    -0.002 C 
HETATM   13  C22 UNL     1      -8.382   6.546  16.277  1.00  0.00     0.006 C 
HETATM   14  C23 UNL     1      -6.926   6.114  16.542  1.00  0.00     0.011 C 
HETATM   15  C24 UNL     1      -6.118   6.796  15.424  1.00  0.00    -0.029 C 
HETATM   16  C25 UNL     1      -5.942   8.278  15.907  1.00  0.00     0.016 C 
HETATM   17  C26 UNL     1      -3.238   7.996  14.120  1.00  0.00     0.039 C 
HETATM   18  C27 UNL     1      -2.798   8.821  12.895  1.00  0.00     0.011 C 
HETATM   19  C28 UNL     1      -1.685   9.804  13.226  1.00  0.00     0.033 C 
HETATM   20  C29 UNL     1      -0.477   9.108  13.855  1.00  0.00     0.136 C 
HETATM   21  C36 UNL     1      -0.859   8.309  15.139  1.00  0.00     0.014 C 
HETATM   22  C37 UNL     1       0.389   7.527  15.630  1.00  0.00     0.021 C 
HETATM   23  C38 UNL     1      -1.225   9.337  16.246  1.00  0.00     0.021 C 
ENDROOT
BRANCH  20  24
HETATM   24  O4  UNL     1       0.064   8.224  12.870  1.00  0.00    -0.352 OA
BRANCH  24  25
HETATM   25  C30 UNL     1       1.293   8.693  12.300  1.00  0.00     0.292 C 
HETATM   26  O5  UNL     1       1.084   8.946  10.913  1.00  0.00    -0.348 OA
HETATM   27  C31 UNL     1       1.483   7.897  10.024  1.00  0.00     0.179 C 
HETATM   28  C33 UNL     1       1.215   6.504  10.618  1.00  0.00     0.180 C 
HETATM   29  C34 UNL     1       1.990   6.306  11.933  1.00  0.00     0.183 C 
HETATM   30  C35 UNL     1       2.366   7.632  12.601  1.00  0.00     0.204 C 
BRANCH  27  31
HETATM   31  C32 UNL     1       0.735   8.087   8.694  1.00  0.00     0.198 C 
BRANCH  31  32
HETATM   32  O6  UNL     1      -0.215   9.142   8.731  1.00  0.00    -0.398 OA
HETATM   33  H50 UNL     1       0.096   9.768   9.422  1.00  0.00     0.209 HD
ENDBRANCH  31  32
ENDBRANCH  27  31
BRANCH  28  34
HETATM   34  O7  UNL     1       1.585   5.467   9.707  1.00  0.00    -0.390 OA
HETATM   35  H52 UNL     1       1.288   4.633  10.123  1.00  0.00     0.210 HD
ENDBRANCH  28  34
BRANCH  29  36
HETATM   36  O8  UNL     1       1.185   5.507  12.824  1.00  0.00    -0.390 OA
HETATM   37  H54 UNL     1       0.410   6.067  13.038  1.00  0.00     0.210 HD
ENDBRANCH  29  36
BRANCH  30  38
HETATM   38  O9  UNL     1       3.648   8.082  12.153  1.00  0.00    -0.388 OA
HETATM   39  H56 UNL     1       4.293   7.382  12.355  1.00  0.00     0.210 HD
ENDBRANCH  30  38
ENDBRANCH  24  25
ENDBRANCH  20  24
BRANCH   1  40
HETATM   40  O1  UNL     1      -3.185   4.446  13.420  1.00  0.00    -0.365 OA
HETATM   41  C1  UNL     1      -3.207   3.778  12.157  1.00  0.00     0.204 C 
ENDBRANCH   1  40
BRANCH  12  42
HETATM   42  C13 UNL     1      -9.808   6.905  14.152  1.00  0.00    -0.010 C 
HETATM   43  C14 UNL     1      -9.656   6.329  12.741  1.00  0.00     0.010 C 
BRANCH  42  44
HETATM   44  C15 UNL     1     -10.627   8.224  14.100  1.00  0.00     0.031 C 
BRANCH  44  45
HETATM   45  C16 UNL     1     -12.111   8.002  13.970  1.00  0.00    -0.027 C 
HETATM   46  C17 UNL     1     -12.727   6.885  14.395  1.00  0.00     0.006 C 
BRANCH  46  47
HETATM   47  C18 UNL     1     -14.201   6.533  14.309  1.00  0.00     0.070 C 
HETATM   48  C19 UNL     1     -14.720   6.827  12.890  1.00  0.00     0.050 C 
HETATM   49  C20 UNL     1     -14.494   5.059  14.631  1.00  0.00     0.050 C 
BRANCH  47  50
HETATM   50  O3  UNL     1     -14.923   7.273  15.307  1.00  0.00    -0.382 OA
HETATM   51  C21 UNL     1     -16.018   8.059  14.874  1.00  0.00     0.202 C 
ENDBRANCH  47  50
ENDBRANCH  46  47
ENDBRANCH  44  45
ENDBRANCH  42  44
ENDBRANCH  12  42
TORSDOF 13
ENDMDL
MODEL 3
REMARK minimizedAffinity -7.60040903
REMARK CNNscore 0.241779685
REMARK CNNaffinity 6.68264389
REMARK  13 active torsions:
REMARK  status: ('A' for Active; 'I' for Inactive)
REMARK    1  A    between atoms: O1_2  and  C2_3 
REMARK    2  A    between atoms: C12_14  and  C13_15 
REMARK    3  A    between atoms: C13_15  and  C15_17 
REMARK    4  A    between atoms: C15_17  and  C16_18 
REMARK    5  A    between atoms: C17_19  and  C18_20 
REMARK    6  A    between atoms: C18_20  and  O3_23 
REMARK    7  A    between atoms: C29_32  and  O4_33 
REMARK    8  A    between atoms: O4_33  and  C30_34 
REMARK    9  A    between atoms: C31_36  and  C32_37 
REMARK   10  A    between atoms: C32_37  and  O6_38 
REMARK   11  A    between atoms: C33_39  and  O7_40 
REMARK   12  A    between atoms: C34_41  and  O8_42 
REMARK   13  A    between atoms: C35_43  and  O9_44 
ROOT
HETATM    1  C2  UNL     1      -2.195  12.007  14.962  1.00  0.00     0.270 C 
HETATM    2  O2  UNL     1      -1.851  12.700  16.189  1.00  0.00    -0.344 OA
HETATM    3  C3  UNL     1      -1.218  11.748  17.075  1.00  0.00     0.095 C 
HETATM    4  C4  UNL     1       0.256  11.801  16.685  1.00  0.00     0.008 C 
HETATM    5  C5  UNL     1       0.734  11.154  15.613  1.00  0.00    -0.021 C 
HETATM    6  C6  UNL     1      -0.182  10.383  14.688  1.00  0.00     0.030 C 
HETATM    7  C7  UNL     1      -1.709  10.523  15.105  1.00  0.00     0.024 C 
HETATM    8  C8  UNL     1      -2.621   9.597  14.250  1.00  0.00     0.016 C 
HETATM    9  C9  UNL     1      -2.089   8.183  13.944  1.00  0.00     0.011 C 
HETATM   10  C10 UNL     1      -0.652   8.209  13.393  1.00  0.00    -0.032 C 
HETATM   11  C11 UNL     1      -0.668   8.942  12.011  1.00  0.00     0.016 C 
HETATM   12  C12 UNL     1       0.091   6.844  13.218  1.00  0.00    -0.002 C 
HETATM   13  C22 UNL     1       1.597   7.286  13.240  1.00  0.00     0.006 C 
HETATM   14  C23 UNL     1       1.654   8.701  13.850  1.00  0.00     0.011 C 
HETATM   15  C24 UNL     1       0.264   8.900  14.478  1.00  0.00    -0.029 C 
HETATM   16  C25 UNL     1       0.329   8.129  15.842  1.00  0.00     0.016 C 
HETATM   17  C26 UNL     1      -1.852  10.405  16.644  1.00  0.00     0.039 C 
HETATM   18  C27 UNL     1      -3.303  10.226  17.131  1.00  0.00     0.011 C 
HETATM   19  C28 UNL     1      -3.453  10.496  18.620  1.00  0.00     0.033 C 
HETATM   20  C29 UNL     1      -2.937  11.884  19.004  1.00  0.00     0.136 C 
HETATM   21  C36 UNL     1      -1.448  12.095  18.588  1.00  0.00     0.014 C 
HETATM   22  C37 UNL     1      -1.049  13.565  18.886  1.00  0.00     0.021 C 
HETATM   23  C38 UNL     1      -0.570  11.185  19.493  1.00  0.00     0.021 C 
ENDROOT
BRANCH  20  24
HETATM   24  O4  UNL     1      -3.769  12.843  18.347  1.00  0.00    -0.352 OA
BRANCH  24  25
HETATM   25  C30 UNL     1      -4.047  13.998  19.149  1.00  0.00     0.292 C 
HETATM   26  O5  UNL     1      -5.217  13.745  19.922  1.00  0.00    -0.348 OA
HETATM   27  C31 UNL     1      -6.439  14.262  19.385  1.00  0.00     0.179 C 
HETATM   28  C33 UNL     1      -6.478  14.174  17.851  1.00  0.00     0.180 C 
HETATM   29  C34 UNL     1      -5.328  14.982  17.223  1.00  0.00     0.183 C 
HETATM   30  C35 UNL     1      -4.161  15.197  18.192  1.00  0.00     0.204 C 
BRANCH  27  31
HETATM   31  C32 UNL     1      -7.606  13.482  20.015  1.00  0.00     0.198 C 
BRANCH  31  32
HETATM   32  O6  UNL     1      -8.834  14.195  19.994  1.00  0.00    -0.398 OA
HETATM   33  H50 UNL     1      -8.775  14.822  19.239  1.00  0.00     0.209 HD
ENDBRANCH  31  32
ENDBRANCH  27  31
BRANCH  28  34
HETATM   34  O7  UNL     1      -7.718  14.660  17.330  1.00  0.00    -0.390 OA
HETATM   35  H52 UNL     1      -7.690  14.474  16.370  1.00  0.00     0.210 HD
ENDBRANCH  28  34
BRANCH  29  36
HETATM   36  O8  UNL     1      -4.876  14.291  16.040  1.00  0.00    -0.390 OA
HETATM   37  H54 UNL     1      -4.483  13.455  16.368  1.00  0.00     0.210 HD
ENDBRANCH  29  36
BRANCH  30  38
HETATM   38  O9  UNL     1      -4.333  16.409  18.933  1.00  0.00    -0.388 OA
HETATM   39  H56 UNL     1      -4.408  17.138  18.293  1.00  0.00     0.210 HD
ENDBRANCH  30  38
ENDBRANCH  24  25
ENDBRANCH  20  24
BRANCH   1  40
HETATM   40  O1  UNL     1      -1.672  12.632  13.798  1.00  0.00    -0.365 OA
HETATM   41  C1  UNL     1      -1.326  13.999  14.035  1.00  0.00     0.204 C 
ENDBRANCH   1  40
BRANCH  12  42
HETATM   42  C13 UNL     1      -0.214   5.916  12.005  1.00  0.00    -0.010 C 
HETATM   43  C14 UNL     1      -1.408   4.993  12.263  1.00  0.00     0.010 C 
BRANCH  42  44
HETATM   44  C15 UNL     1       1.044   5.072  11.661  1.00  0.00     0.031 C 
BRANCH  44  45
HETATM   45  C16 UNL     1       1.822   5.609  10.488  1.00  0.00    -0.027 C 
HETATM   46  C17 UNL     1       1.392   6.630   9.727  1.00  0.00     0.006 C 
BRANCH  46  47
HETATM   47  C18 UNL     1       2.067   7.251   8.517  1.00  0.00     0.070 C 
HETATM   48  C19 UNL     1       3.320   8.024   8.964  1.00  0.00     0.050 C 
HETATM   49  C20 UNL     1       2.491   6.219   7.460  1.00  0.00     0.050 C 
BRANCH  47  50
HETATM   50  O3  UNL     1       1.128   8.101   7.837  1.00  0.00    -0.382 OA
HETATM   51  C21 UNL     1      -0.068   8.432   8.518  1.00  0.00     0.202 C 
ENDBRANCH  47  50
ENDBRANCH  46  47
ENDBRANCH  44  45
ENDBRANCH  42  44
ENDBRANCH  12  42
TORSDOF 13
ENDMDL
MODEL 4
REMARK minimizedAffinity -7.88925648
REMARK CNNscore 0.191818818
REMARK CNNaffinity 6.5986886
REMARK  13 active torsions:
REMARK  status: ('A' for Active; 'I' for Inactive)
REMARK    1  A    between atoms: O1_2  and  C2_3 
REMARK    2  A    between atoms: C12_14  and  C13_15 
REMARK    3  A    between atoms: C13_15  and  C15_17 
REMARK    4  A    between atoms: C15_17  and  C16_18 
REMARK    5  A    between atoms: C17_19  and  C18_20 
REMARK    6  A    between atoms: C18_20  and  O3_23 
REMARK    7  A    between atoms: C29_32  and  O4_33 
REMARK    8  A    between atoms: O4_33  and  C30_34 
REMARK    9  A    between atoms: C31_36  and  C32_37 
REMARK   10  A    between atoms: C32_37  and  O6_38 
REMARK   11  A    between atoms: C33_39  and  O7_40 
REMARK   12  A    between atoms: C34_41  and  O8_42 
REMARK   13  A    between atoms: C35_43  and  O9_44 
ROOT
HETATM    1  C2  UNL     1       2.195   9.587  16.770  1.00  0.00     0.270 C 
HETATM    2  O2  UNL     1       3.130  10.647  16.442  1.00  0.00    -0.344 OA
HETATM    3  C3  UNL     1       2.585  11.392  15.330  1.00  0.00     0.095 C 
HETATM    4  C4  UNL     1       1.694  12.442  15.986  1.00  0.00     0.008 C 
HETATM    5  C5  UNL     1       0.461  12.157  16.428  1.00  0.00    -0.021 C 
HETATM    6  C6  UNL     1      -0.093  10.752  16.355  1.00  0.00     0.030 C 
HETATM    7  C7  UNL     1       0.974   9.716  15.795  1.00  0.00     0.024 C 
HETATM    8  C8  UNL     1       0.343   8.312  15.571  1.00  0.00     0.016 C 
HETATM    9  C9  UNL     1      -1.077   8.273  14.972  1.00  0.00     0.011 C 
HETATM   10  C10 UNL     1      -2.048   9.205  15.716  1.00  0.00    -0.032 C 
HETATM   11  C11 UNL     1      -2.213   8.676  17.179  1.00  0.00     0.016 C 
HETATM   12  C12 UNL     1      -3.473   9.419  15.106  1.00  0.00    -0.002 C 
HETATM   13  C22 UNL     1      -3.897  10.791  15.738  1.00  0.00     0.006 C 
HETATM   14  C23 UNL     1      -2.617  11.474  16.261  1.00  0.00     0.011 C 
HETATM   15  C24 UNL     1      -1.471  10.672  15.622  1.00  0.00    -0.029 C 
HETATM   16  C25 UNL     1      -1.366  11.223  14.157  1.00  0.00     0.016 C 
HETATM   17  C26 UNL     1       1.732  10.333  14.592  1.00  0.00     0.039 C 
HETATM   18  C27 UNL     1       2.570   9.322  13.787  1.00  0.00     0.011 C 
HETATM   19  C28 UNL     1       3.583   9.999  12.877  1.00  0.00     0.033 C 
HETATM   20  C29 UNL     1       4.501  10.947  13.650  1.00  0.00     0.136 C 
HETATM   21  C36 UNL     1       3.703  12.034  14.434  1.00  0.00     0.014 C 
HETATM   22  C37 UNL     1       4.695  12.859  15.295  1.00  0.00     0.021 C 
HETATM   23  C38 UNL     1       3.075  13.004  13.394  1.00  0.00     0.021 C 
ENDROOT
BRANCH  20  24
HETATM   24  O4  UNL     1       5.266  10.150  14.559  1.00  0.00    -0.352 OA
BRANCH  24  25
HETATM   25  C30 UNL     1       6.642  10.018  14.180  1.00  0.00     0.292 C 
HETATM   26  O5  UNL     1       6.713   9.873  12.764  1.00  0.00    -0.348 OA
HETATM   27  C31 UNL     1       6.819   8.529  12.283  1.00  0.00     0.179 C 
HETATM   28  C33 UNL     1       5.999   7.545  13.134  1.00  0.00     0.180 C 
HETATM   29  C34 UNL     1       6.481   7.545  14.595  1.00  0.00     0.183 C 
HETATM   30  C35 UNL     1       7.218   8.833  14.973  1.00  0.00     0.204 C 
BRANCH  27  31
HETATM   31  C32 UNL     1       6.361   8.509  10.815  1.00  0.00     0.198 C 
BRANCH  31  32
HETATM   32  O6  UNL     1       6.054   9.799  10.306  1.00  0.00    -0.398 OA
HETATM   33  H50 UNL     1       6.581  10.437  10.836  1.00  0.00     0.209 HD
ENDBRANCH  31  32
ENDBRANCH  27  31
BRANCH  28  34
HETATM   34  O7  UNL     1       6.085   6.213  12.621  1.00  0.00    -0.390 OA
HETATM   35  H52 UNL     1       5.461   5.685  13.157  1.00  0.00     0.210 HD
ENDBRANCH  28  34
BRANCH  29  36
HETATM   36  O8  UNL     1       5.338   7.351  15.454  1.00  0.00    -0.390 OA
HETATM   37  H54 UNL     1       4.794   8.158  15.340  1.00  0.00     0.210 HD
ENDBRANCH  29  36
BRANCH  30  38
HETATM   38  O9  UNL     1       8.622   8.707  14.727  1.00  0.00    -0.388 OA
HETATM   39  H56 UNL     1       8.944   7.944  15.239  1.00  0.00     0.210 HD
ENDBRANCH  30  38
ENDBRANCH  24  25
ENDBRANCH  20  24
BRANCH   1  40
HETATM   40  O1  UNL     1       1.796   9.591  18.134  1.00  0.00    -0.365 OA
HETATM   41  C1  UNL     1       2.614  10.454  18.927  1.00  0.00     0.204 C 
ENDBRANCH   1  40
BRANCH  12  42
HETATM   42  C13 UNL     1      -4.586   8.344  15.276  1.00  0.00    -0.010 C 
HETATM   43  C14 UNL     1      -4.014   6.953  15.569  1.00  0.00     0.010 C 
BRANCH  42  44
HETATM   44  C15 UNL     1      -5.469   8.295  13.999  1.00  0.00     0.031 C 
BRANCH  44  45
HETATM   45  C16 UNL     1      -6.492   7.190  14.020  1.00  0.00    -0.027 C 
HETATM   46  C17 UNL     1      -6.359   6.053  13.316  1.00  0.00     0.006 C 
BRANCH  46  47
HETATM   47  C18 UNL     1      -7.316   4.877  13.238  1.00  0.00     0.070 C 
HETATM   48  C19 UNL     1      -7.505   4.271  14.639  1.00  0.00     0.050 C 
HETATM   49  C20 UNL     1      -8.701   5.255  12.688  1.00  0.00     0.050 C 
BRANCH  47  50
HETATM   50  O3  UNL     1      -6.807   3.914  12.302  1.00  0.00    -0.382 OA
HETATM   51  C21 UNL     1      -7.196   2.563  12.475  1.00  0.00     0.202 C 
ENDBRANCH  47  50
ENDBRANCH  46  47
ENDBRANCH  44  45
ENDBRANCH  42  44
ENDBRANCH  12  42
TORSDOF 13
ENDMDL
MODEL 5
REMARK minimizedAffinity -7.71924257
REMARK CNNscore 0.170109391
REMARK CNNaffinity 6.38194656
REMARK  13 active torsions:
REMARK  status: ('A' for Active; 'I' for Inactive)
REMARK    1  A    between atoms: O1_2  and  C2_3 
REMARK    2  A    between atoms: C12_14  and  C13_15 
REMARK    3  A    between atoms: C13_15  and  C15_17 
REMARK    4  A    between atoms: C15_17  and  C16_18 
REMARK    5  A    between atoms: C17_19  and  C18_20 
REMARK    6  A    between atoms: C18_20  and  O3_23 
REMARK    7  A    between atoms: C29_32  and  O4_33 
REMARK    8  A    between atoms: O4_33  and  C30_34 
REMARK    9  A    between atoms: C31_36  and  C32_37 
REMARK   10  A    between atoms: C32_37  and  O6_38 
REMARK   11  A    between atoms: C33_39  and  O7_40 
REMARK   12  A    between atoms: C34_41  and  O8_42 
REMARK   13  A    between atoms: C35_43  and  O9_44 
ROOT
HETATM    1  C2  UNL     1       0.241  10.097  16.290  1.00  0.00     0.270 C 
HETATM    2  O2  UNL     1      -0.691  10.844  17.113  1.00  0.00    -0.344 OA
HETATM    3  C3  UNL     1      -2.000  10.742  16.508  1.00  0.00     0.095 C 
HETATM    4  C4  UNL     1      -2.582   9.460  17.095  1.00  0.00     0.008 C 
HETATM    5  C5  UNL     1      -2.248   8.247  16.631  1.00  0.00    -0.021 C 
HETATM    6  C6  UNL     1      -1.220   8.082  15.533  1.00  0.00     0.030 C 
HETATM    7  C7  UNL     1      -0.573   9.470  15.106  1.00  0.00     0.024 C 
HETATM    8  C8  UNL     1       0.357   9.308  13.870  1.00  0.00     0.016 C 
HETATM    9  C9  UNL     1      -0.129   8.368  12.749  1.00  0.00     0.011 C 
HETATM   10  C10 UNL     1      -0.574   6.999  13.290  1.00  0.00    -0.032 C 
HETATM   11  C11 UNL     1       0.674   6.283  13.904  1.00  0.00     0.016 C 
HETATM   12  C12 UNL     1      -1.272   6.010  12.298  1.00  0.00    -0.002 C 
HETATM   13  C22 UNL     1      -2.071   5.078  13.276  1.00  0.00     0.006 C 
HETATM   14  C23 UNL     1      -2.168   5.803  14.632  1.00  0.00     0.011 C 
HETATM   15  C24 UNL     1      -1.745   7.249  14.320  1.00  0.00    -0.029 C 
HETATM   16  C25 UNL     1      -3.020   7.909  13.688  1.00  0.00     0.016 C 
HETATM   17  C26 UNL     1      -1.671  10.559  15.008  1.00  0.00     0.039 C 
HETATM   18  C27 UNL     1      -1.212  11.857  14.317  1.00  0.00     0.011 C 
HETATM   19  C28 UNL     1      -2.160  13.019  14.574  1.00  0.00     0.033 C 
HETATM   20  C29 UNL     1      -2.370  13.264  16.069  1.00  0.00     0.136 C 
HETATM   21  C36 UNL     1      -2.897  11.995  16.807  1.00  0.00     0.014 C 
HETATM   22  C37 UNL     1      -2.949  12.287  18.330  1.00  0.00     0.021 C 
HETATM   23  C38 UNL     1      -4.357  11.743  16.334  1.00  0.00     0.021 C 
ENDROOT
BRANCH  20  24
HETATM   24  O4  UNL     1      -1.110  13.661  16.616  1.00  0.00    -0.352 OA
BRANCH  24  25
HETATM   25  C30 UNL     1      -1.080  15.030  17.038  1.00  0.00     0.292 C 
HETATM   26  O5  UNL     1      -1.564  15.846  15.975  1.00  0.00    -0.348 OA
HETATM   27  C31 UNL     1      -0.562  16.448  15.149  1.00  0.00     0.179 C 
HETATM   28  C33 UNL     1       0.646  15.521  14.939  1.00  0.00     0.180 C 
HETATM   29  C34 UNL     1       1.313  15.172  16.282  1.00  0.00     0.183 C 
HETATM   30  C35 UNL     1       0.364  15.338  17.472  1.00  0.00     0.204 C 
BRANCH  27  31
HETATM   31  C32 UNL     1      -1.212  16.825  13.807  1.00  0.00     0.198 C 
BRANCH  31  32
HETATM   32  O6  UNL     1      -1.826  18.106  13.821  1.00  0.00    -0.398 OA
HETATM   33  H50 UNL     1      -1.359  18.627  14.510  1.00  0.00     0.209 HD
ENDBRANCH  31  32
ENDBRANCH  27  31
BRANCH  28  34
HETATM   34  O7  UNL     1       1.623  16.120  14.084  1.00  0.00    -0.390 OA
HETATM   35  H52 UNL     1       2.296  15.428  13.929  1.00  0.00     0.210 HD
ENDBRANCH  28  34
BRANCH  29  36
HETATM   36  O8  UNL     1       1.798  13.815  16.213  1.00  0.00    -0.390 OA
HETATM   37  H54 UNL     1       0.993  13.260  16.148  1.00  0.00     0.210 HD
ENDBRANCH  29  36
BRANCH  30  38
HETATM   38  O9  UNL     1       0.449  16.662  18.010  1.00  0.00    -0.388 OA
HETATM   39  H56 UNL     1       1.375  16.818  18.264  1.00  0.00     0.210 HD
ENDBRANCH  30  38
ENDBRANCH  24  25
ENDBRANCH  20  24
BRANCH   1  40
HETATM   40  O1  UNL     1       0.972   9.118  17.017  1.00  0.00    -0.365 OA
HETATM   41  C1  UNL     1       2.381   9.241  16.811  1.00  0.00     0.204 C 
ENDBRANCH   1  40
BRANCH  12  42
HETATM   42  C13 UNL     1      -0.440   5.184  11.274  1.00  0.00    -0.010 C 
HETATM   43  C14 UNL     1      -0.808   3.698  11.287  1.00  0.00     0.010 C 
BRANCH  42  44
HETATM   44  C15 UNL     1       1.076   5.358  11.568  1.00  0.00     0.031 C 
BRANCH  44  45
HETATM   45  C16 UNL     1       1.747   6.365  10.671  1.00  0.00    -0.027 C 
HETATM   46  C17 UNL     1       1.269   6.705   9.461  1.00  0.00     0.006 C 
BRANCH  46  47
HETATM   47  C18 UNL     1       1.853   7.686   8.461  1.00  0.00     0.070 C 
HETATM   48  C19 UNL     1       3.278   8.076   8.891  1.00  0.00     0.050 C 
HETATM   49  C20 UNL     1       1.921   7.128   7.030  1.00  0.00     0.050 C 
BRANCH  47  50
HETATM   50  O3  UNL     1       0.991   8.831   8.362  1.00  0.00    -0.382 OA
HETATM   51  C21 UNL     1      -0.324   8.705   8.871  1.00  0.00     0.202 C 
ENDBRANCH  47  50
ENDBRANCH  46  47
ENDBRANCH  44  45
ENDBRANCH  42  44
ENDBRANCH  12  42
TORSDOF 13
ENDMDL
MODEL 6
REMARK minimizedAffinity -6.13654947
REMARK CNNscore 0.137378246
REMARK CNNaffinity 5.80683851
REMARK  13 active torsions:
REMARK  status: ('A' for Active; 'I' for Inactive)
REMARK    1  A    between atoms: O1_2  and  C2_3 
REMARK    2  A    between atoms: C12_14  and  C13_15 
REMARK    3  A    between atoms: C13_15  and  C15_17 
REMARK    4  A    between atoms: C15_17  and  C16_18 
REMARK    5  A    between atoms: C17_19  and  C18_20 
REMARK    6  A    between atoms: C18_20  and  O3_23 
REMARK    7  A    between atoms: C29_32  and  O4_33 
REMARK    8  A    between atoms: O4_33  and  C30_34 
REMARK    9  A    between atoms: C31_36  and  C32_37 
REMARK   10  A    between atoms: C32_37  and  O6_38 
REMARK   11  A    between atoms: C33_39  and  O7_40 
REMARK   12  A    between atoms: C34_41  and  O8_42 
REMARK   13  A    between atoms: C35_43  and  O9_44 
ROOT
HETATM    1  C2  UNL     1     -13.973   6.480  22.887  1.00  0.00     0.270 C 
HETATM    2  O2  UNL     1     -15.319   6.286  23.392  1.00  0.00    -0.344 OA
HETATM    3  C3  UNL     1     -15.659   7.433  24.203  1.00  0.00     0.095 C 
HETATM    4  C4  UNL     1     -16.227   8.438  23.207  1.00  0.00     0.008 C 
HETATM    5  C5  UNL     1     -15.440   9.195  22.429  1.00  0.00    -0.021 C 
HETATM    6  C6  UNL     1     -13.935   9.045  22.453  1.00  0.00     0.030 C 
HETATM    7  C7  UNL     1     -13.467   7.867  23.413  1.00  0.00     0.024 C 
HETATM    8  C8  UNL     1     -11.919   7.831  23.556  1.00  0.00     0.016 C 
HETATM    9  C9  UNL     1     -11.196   9.187  23.681  1.00  0.00     0.011 C 
HETATM   10  C10 UNL     1     -11.629  10.178  22.586  1.00  0.00    -0.032 C 
HETATM   11  C11 UNL     1     -11.180   9.608  21.201  1.00  0.00     0.016 C 
HETATM   12  C12 UNL     1     -11.128  11.657  22.697  1.00  0.00    -0.002 C 
HETATM   13  C22 UNL     1     -12.194  12.427  21.840  1.00  0.00     0.006 C 
HETATM   14  C23 UNL     1     -13.418  11.503  21.685  1.00  0.00     0.011 C 
HETATM   15  C24 UNL     1     -13.188  10.390  22.722  1.00  0.00    -0.029 C 
HETATM   16  C25 UNL     1     -13.630  11.022  24.088  1.00  0.00     0.016 C 
HETATM   17  C26 UNL     1     -14.283   7.900  24.731  1.00  0.00     0.039 C 
HETATM   18  C27 UNL     1     -13.715   7.003  25.847  1.00  0.00     0.011 C 
HETATM   19  C28 UNL     1     -14.719   6.758  26.963  1.00  0.00     0.033 C 
HETATM   20  C29 UNL     1     -16.030   6.173  26.433  1.00  0.00     0.136 C 
HETATM   21  C36 UNL     1     -16.681   7.078  25.341  1.00  0.00     0.014 C 
HETATM   22  C37 UNL     1     -17.922   6.349  24.763  1.00  0.00     0.021 C 
HETATM   23  C38 UNL     1     -17.187   8.372  26.039  1.00  0.00     0.021 C 
ENDROOT
BRANCH  20  24
HETATM   24  O4  UNL     1     -15.731   4.886  25.887  1.00  0.00    -0.352 OA
BRANCH  24  25
HETATM   25  C30 UNL     1     -16.151   3.802  26.726  1.00  0.00     0.292 C 
HETATM   26  O5  UNL     1     -15.003   3.244  27.358  1.00  0.00    -0.348 OA
HETATM   27  C31 UNL     1     -14.454   2.079  26.731  1.00  0.00     0.179 C 
HETATM   28  C33 UNL     1     -14.551   2.150  25.198  1.00  0.00     0.180 C 
HETATM   29  C34 UNL     1     -16.016   2.264  24.743  1.00  0.00     0.183 C 
HETATM   30  C35 UNL     1     -16.932   2.819  25.837  1.00  0.00     0.204 C 
BRANCH  27  31
HETATM   31  C32 UNL     1     -12.993   1.933  27.189  1.00  0.00     0.198 C 
BRANCH  31  32
HETATM   32  O6  UNL     1     -12.867   1.439  28.515  1.00  0.00    -0.398 OA
HETATM   33  H50 UNL     1     -13.682   0.919  28.693  1.00  0.00     0.209 HD
ENDBRANCH  31  32
ENDBRANCH  27  31
BRANCH  28  34
HETATM   34  O7  UNL     1     -13.967   0.998  24.584  1.00  0.00    -0.390 OA
HETATM   35  H52 UNL     1     -13.984   1.177  23.622  1.00  0.00     0.210 HD
ENDBRANCH  28  34
BRANCH  29  36
HETATM   36  O8  UNL     1     -16.067   3.106  23.572  1.00  0.00    -0.390 OA
HETATM   37  H54 UNL     1     -15.802   3.996  23.886  1.00  0.00     0.210 HD
ENDBRANCH  29  36
BRANCH  30  38
HETATM   38  O9  UNL     1     -17.477   1.759  26.630  1.00  0.00    -0.388 OA
HETATM   39  H56 UNL     1     -17.954   1.159  26.031  1.00  0.00     0.210 HD
ENDBRANCH  30  38
ENDBRANCH  24  25
ENDBRANCH  20  24
BRANCH   1  40
HETATM   40  O1  UNL     1     -13.883   6.378  21.472  1.00  0.00    -0.365 OA
HETATM   41  C1  UNL     1     -15.085   5.861  20.896  1.00  0.00     0.204 C 
ENDBRANCH   1  40
BRANCH  12  42
HETATM   42  C13 UNL     1      -9.677  12.043  22.286  1.00  0.00    -0.010 C 
HETATM   43  C14 UNL     1      -8.962  12.858  23.367  1.00  0.00     0.010 C 
BRANCH  42  44
HETATM   44  C15 UNL     1      -9.705  12.840  20.952  1.00  0.00     0.031 C 
BRANCH  44  45
HETATM   45  C16 UNL     1      -8.574  13.826  20.822  1.00  0.00    -0.027 C 
HETATM   46  C17 UNL     1      -7.287  13.457  20.701  1.00  0.00     0.006 C 
BRANCH  46  47
HETATM   47  C18 UNL     1      -6.061  14.343  20.578  1.00  0.00     0.070 C 
HETATM   48  C19 UNL     1      -5.836  15.099  21.900  1.00  0.00     0.050 C 
HETATM   49  C20 UNL     1      -4.778  13.566  20.246  1.00  0.00     0.050 C 
BRANCH  47  50
HETATM   50  O3  UNL     1      -6.236  15.242  19.471  1.00  0.00    -0.382 OA
HETATM   51  C21 UNL     1      -5.070  15.724  18.829  1.00  0.00     0.202 C 
ENDBRANCH  47  50
ENDBRANCH  46  47
ENDBRANCH  44  45
ENDBRANCH  42  44
ENDBRANCH  12  42
TORSDOF 13
ENDMDL
MODEL 7
REMARK minimizedAffinity -7.57561588
REMARK CNNscore 0.136699513
REMARK CNNaffinity 6.00788641
REMARK  13 active torsions:
REMARK  status: ('A' for Active; 'I' for Inactive)
REMARK    1  A    between atoms: O1_2  and  C2_3 
REMARK    2  A    between atoms: C12_14  and  C13_15 
REMARK    3  A    between atoms: C13_15  and  C15_17 
REMARK    4  A    between atoms: C15_17  and  C16_18 
REMARK    5  A    between atoms: C17_19  and  C18_20 
REMARK    6  A    between atoms: C18_20  and  O3_23 
REMARK    7  A    between atoms: C29_32  and  O4_33 
REMARK    8  A    between atoms: O4_33  and  C30_34 
REMARK    9  A    between atoms: C31_36  and  C32_37 
REMARK   10  A    between atoms: C32_37  and  O6_38 
REMARK   11  A    between atoms: C33_39  and  O7_40 
REMARK   12  A    between atoms: C34_41  and  O8_42 
REMARK   13  A    between atoms: C35_43  and  O9_44 
ROOT
HETATM    1  C2  UNL     1      -2.138  12.247  14.991  1.00  0.00     0.270 C 
HETATM    2  O2  UNL     1      -1.691  12.917  16.197  1.00  0.00    -0.344 OA
HETATM    3  C3  UNL     1      -1.162  11.914  17.094  1.00  0.00     0.095 C 
HETATM    4  C4  UNL     1       0.300  11.780  16.681  1.00  0.00     0.008 C 
HETATM    5  C5  UNL     1       0.678  11.059  15.616  1.00  0.00    -0.021 C 
HETATM    6  C6  UNL     1      -0.340  10.386  14.722  1.00  0.00     0.030 C 
HETATM    7  C7  UNL     1      -1.832  10.718  15.159  1.00  0.00     0.024 C 
HETATM    8  C8  UNL     1      -2.863   9.893  14.339  1.00  0.00     0.016 C 
HETATM    9  C9  UNL     1      -2.511   8.419  14.055  1.00  0.00     0.011 C 
HETATM   10  C10 UNL     1      -1.092   8.260  13.482  1.00  0.00    -0.032 C 
HETATM   11  C11 UNL     1      -1.044   8.962  12.085  1.00  0.00     0.016 C 
HETATM   12  C12 UNL     1      -0.522   6.811  13.326  1.00  0.00    -0.002 C 
HETATM   13  C22 UNL     1       1.026   7.069  13.316  1.00  0.00     0.006 C 
HETATM   14  C23 UNL     1       1.264   8.478  13.894  1.00  0.00     0.011 C 
HETATM   15  C24 UNL     1      -0.080   8.856  14.538  1.00  0.00    -0.029 C 
HETATM   16  C25 UNL     1      -0.085   8.110  15.918  1.00  0.00     0.016 C 
HETATM   17  C26 UNL     1      -1.961  10.649  16.702  1.00  0.00     0.039 C 
HETATM   18  C27 UNL     1      -3.414  10.656  17.215  1.00  0.00     0.011 C 
HETATM   19  C28 UNL     1      -3.505  10.973  18.700  1.00  0.00     0.033 C 
HETATM   20  C29 UNL     1      -2.818  12.295  19.045  1.00  0.00     0.136 C 
HETATM   21  C36 UNL     1      -1.322  12.316  18.603  1.00  0.00     0.014 C 
HETATM   22  C37 UNL     1      -0.744  13.732  18.862  1.00  0.00     0.021 C 
HETATM   23  C38 UNL     1      -0.544  11.325  19.514  1.00  0.00     0.021 C 
ENDROOT
BRANCH  20  24
HETATM   24  O4  UNL     1      -3.539  13.335  18.380  1.00  0.00    -0.352 OA
BRANCH  24  25
HETATM   25  C30 UNL     1      -4.927  13.381  18.736  1.00  0.00     0.292 C 
HETATM   26  O5  UNL     1      -5.702  13.453  17.542  1.00  0.00    -0.348 OA
HETATM   27  C31 UNL     1      -6.122  14.765  17.154  1.00  0.00     0.179 C 
HETATM   28  C33 UNL     1      -5.056  15.828  17.464  1.00  0.00     0.180 C 
HETATM   29  C34 UNL     1      -4.747  15.877  18.971  1.00  0.00     0.183 C 
HETATM   30  C35 UNL     1      -5.111  14.575  19.689  1.00  0.00     0.204 C 
BRANCH  27  31
HETATM   31  C32 UNL     1      -6.457  14.735  15.653  1.00  0.00     0.198 C 
BRANCH  31  32
HETATM   32  O6  UNL     1      -5.359  15.092  14.826  1.00  0.00    -0.398 OA
HETATM   33  H50 UNL     1      -4.548  14.877  15.338  1.00  0.00     0.209 HD
ENDBRANCH  31  32
ENDBRANCH  27  31
BRANCH  28  34
HETATM   34  O7  UNL     1      -5.474  17.128  17.038  1.00  0.00    -0.390 OA
HETATM   35  H52 UNL     1      -4.702  17.711  17.182  1.00  0.00     0.210 HD
ENDBRANCH  28  34
BRANCH  29  36
HETATM   36  O8  UNL     1      -3.344  16.168  19.141  1.00  0.00    -0.390 OA
HETATM   37  H54 UNL     1      -2.876  15.384  18.785  1.00  0.00     0.210 HD
ENDBRANCH  29  36
BRANCH  30  38
HETATM   38  O9  UNL     1      -6.456  14.620  20.174  1.00  0.00    -0.388 OA
HETATM   39  H56 UNL     1      -6.531  15.390  20.764  1.00  0.00     0.210 HD
ENDBRANCH  30  38
ENDBRANCH  24  25
ENDBRANCH  20  24
BRANCH   1  40
HETATM   40  O1  UNL     1      -1.564  12.781  13.805  1.00  0.00    -0.365 OA
HETATM   41  C1  UNL     1      -1.434  14.203  13.869  1.00  0.00     0.204 C 
ENDBRANCH   1  40
BRANCH  12  42
HETATM   42  C13 UNL     1      -0.958   5.903  12.139  1.00  0.00    -0.010 C 
HETATM   43  C14 UNL     1      -2.197   5.066  12.469  1.00  0.00     0.010 C 
BRANCH  42  44
HETATM   44  C15 UNL     1       0.217   4.973  11.731  1.00  0.00     0.031 C 
BRANCH  44  45
HETATM   45  C16 UNL     1       1.077   5.541  10.633  1.00  0.00    -0.027 C 
HETATM   46  C17 UNL     1       2.412   5.387  10.591  1.00  0.00     0.006 C 
BRANCH  46  47
HETATM   47  C18 UNL     1       3.388   5.919   9.557  1.00  0.00     0.070 C 
HETATM   48  C19 UNL     1       2.650   6.171   8.231  1.00  0.00     0.050 C 
HETATM   49  C20 UNL     1       4.071   7.228   9.982  1.00  0.00     0.050 C 
BRANCH  47  50
HETATM   50  O3  UNL     1       4.467   4.982   9.400  1.00  0.00    -0.382 OA
HETATM   51  C21 UNL     1       4.133   3.656   9.033  1.00  0.00     0.202 C 
ENDBRANCH  47  50
ENDBRANCH  46  47
ENDBRANCH  44  45
ENDBRANCH  42  44
ENDBRANCH  12  42
TORSDOF 13
ENDMDL
MODEL 8
REMARK minimizedAffinity -7.21770144
REMARK CNNscore 0.119848117
REMARK CNNaffinity 6.28547144
REMARK  13 active torsions:
REMARK  status: ('A' for Active; 'I' for Inactive)
REMARK    1  A    between atoms: O1_2  and  C2_3 
REMARK    2  A    between atoms: C12_14  and  C13_15 
REMARK    3  A    between atoms: C13_15  and  C15_17 
REMARK    4  A    between atoms: C15_17  and  C16_18 
REMARK    5  A    between atoms: C17_19  and  C18_20 
REMARK    6  A    between atoms: C18_20  and  O3_23 
REMARK    7  A    between atoms: C29_32  and  O4_33 
REMARK    8  A    between atoms: O4_33  and  C30_34 
REMARK    9  A    between atoms: C31_36  and  C32_37 
REMARK   10  A    between atoms: C32_37  and  O6_38 
REMARK   11  A    between atoms: C33_39  and  O7_40 
REMARK   12  A    between atoms: C34_41  and  O8_42 
REMARK   13  A    between atoms: C35_43  and  O9_44 
ROOT
HETATM    1  C2  UNL     1      -2.279  12.344  15.023  1.00  0.00     0.270 C 
HETATM    2  O2  UNL     1      -1.765  13.139  16.122  1.00  0.00    -0.344 OA
HETATM    3  C3  UNL     1      -1.159  12.239  17.077  1.00  0.00     0.095 C 
HETATM    4  C4  UNL     1       0.275  12.081  16.581  1.00  0.00     0.008 C 
HETATM    5  C5  UNL     1       0.594  11.260  15.571  1.00  0.00    -0.021 C 
HETATM    6  C6  UNL     1      -0.469  10.487  14.821  1.00  0.00     0.030 C 
HETATM    7  C7  UNL     1      -1.934  10.845  15.323  1.00  0.00     0.024 C 
HETATM    8  C8  UNL     1      -3.002   9.927  14.662  1.00  0.00     0.016 C 
HETATM    9  C9  UNL     1      -2.642   8.437  14.506  1.00  0.00     0.011 C 
HETATM   10  C10 UNL     1      -1.262   8.237  13.857  1.00  0.00    -0.032 C 
HETATM   11  C11 UNL     1      -1.320   8.793  12.396  1.00  0.00     0.016 C 
HETATM   12  C12 UNL     1      -0.676   6.786  13.810  1.00  0.00    -0.002 C 
HETATM   13  C22 UNL     1       0.863   7.060  13.667  1.00  0.00     0.006 C 
HETATM   14  C23 UNL     1       1.112   8.523  14.082  1.00  0.00     0.011 C 
HETATM   15  C24 UNL     1      -0.193   8.950  14.775  1.00  0.00    -0.029 C 
HETATM   16  C25 UNL     1      -0.091   8.348  16.221  1.00  0.00     0.016 C 
HETATM   17  C26 UNL     1      -1.959  10.932  16.871  1.00  0.00     0.039 C 
HETATM   18  C27 UNL     1      -3.374  10.974  17.478  1.00  0.00     0.011 C 
HETATM   19  C28 UNL     1      -3.371  11.440  18.926  1.00  0.00     0.033 C 
HETATM   20  C29 UNL     1      -2.688  12.798  19.088  1.00  0.00     0.136 C 
HETATM   21  C36 UNL     1      -1.225  12.792  18.544  1.00  0.00     0.014 C 
HETATM   22  C37 UNL     1      -0.658  14.234  18.619  1.00  0.00     0.021 C 
HETATM   23  C38 UNL     1      -0.370  11.908  19.496  1.00  0.00     0.021 C 
ENDROOT
BRANCH  20  24
HETATM   24  O4  UNL     1      -3.472  13.756  18.372  1.00  0.00    -0.352 OA
BRANCH  24  25
HETATM   25  C30 UNL     1      -4.829  13.831  18.824  1.00  0.00     0.292 C 
HETATM   26  O5  UNL     1      -5.692  13.757  17.693  1.00  0.00    -0.348 OA
HETATM   27  C31 UNL     1      -6.163  15.011  17.188  1.00  0.00     0.179 C 
HETATM   28  C33 UNL     1      -5.095  16.112  17.291  1.00  0.00     0.180 C 
HETATM   29  C34 UNL     1      -4.676  16.339  18.754  1.00  0.00     0.183 C 
HETATM   30  C35 UNL     1      -4.963  15.127  19.644  1.00  0.00     0.204 C 
BRANCH  27  31
HETATM   31  C32 UNL     1      -6.608  14.803  15.731  1.00  0.00     0.198 C 
BRANCH  31  32
HETATM   32  O6  UNL     1      -7.551  13.751  15.576  1.00  0.00    -0.398 OA
HETATM   33  H50 UNL     1      -8.015  13.670  16.439  1.00  0.00     0.209 HD
ENDBRANCH  31  32
ENDBRANCH  27  31
BRANCH  28  34
HETATM   34  O7  UNL     1      -5.566  17.349  16.751  1.00  0.00    -0.390 OA
HETATM   35  H52 UNL     1      -4.796  17.952  16.766  1.00  0.00     0.210 HD
ENDBRANCH  28  34
BRANCH  29  36
HETATM   36  O8  UNL     1      -3.269  16.660  18.782  1.00  0.00    -0.390 OA
HETATM   37  H54 UNL     1      -2.816  15.844  18.485  1.00  0.00     0.210 HD
ENDBRANCH  29  36
BRANCH  30  38
HETATM   38  O9  UNL     1      -6.269  15.217  20.221  1.00  0.00    -0.388 OA
HETATM   39  H56 UNL     1      -6.313  16.050  20.722  1.00  0.00     0.210 HD
ENDBRANCH  30  38
ENDBRANCH  24  25
ENDBRANCH  20  24
BRANCH   1  40
HETATM   40  O1  UNL     1      -1.796  12.761  13.752  1.00  0.00    -0.365 OA
HETATM   41  C1  UNL     1      -1.454  14.149  13.741  1.00  0.00     0.204 C 
ENDBRANCH   1  40
BRANCH  12  42
HETATM   42  C13 UNL     1      -1.173   5.757  12.753  1.00  0.00    -0.010 C 
HETATM   43  C14 UNL     1      -0.663   6.075  11.344  1.00  0.00     0.010 C 
BRANCH  42  44
HETATM   44  C15 UNL     1      -2.726   5.710  12.756  1.00  0.00     0.031 C 
BRANCH  44  45
HETATM   45  C16 UNL     1      -3.292   4.562  11.963  1.00  0.00    -0.027 C 
HETATM   46  C17 UNL     1      -4.474   3.986  12.245  1.00  0.00     0.006 C 
BRANCH  46  47
HETATM   47  C18 UNL     1      -5.145   2.821  11.540  1.00  0.00     0.070 C 
HETATM   48  C19 UNL     1      -6.532   2.572  12.158  1.00  0.00     0.050 C 
HETATM   49  C20 UNL     1      -5.326   3.046  10.030  1.00  0.00     0.050 C 
BRANCH  47  50
HETATM   50  O3  UNL     1      -4.301   1.662  11.634  1.00  0.00    -0.382 OA
HETATM   51  C21 UNL     1      -2.902   1.863  11.547  1.00  0.00     0.202 C 
ENDBRANCH  47  50
ENDBRANCH  46  47
ENDBRANCH  44  45
ENDBRANCH  42  44
ENDBRANCH  12  42
TORSDOF 13
ENDMDL
MODEL 9
REMARK minimizedAffinity -7.07638979
REMARK CNNscore 0.117705196
REMARK CNNaffinity 5.60985994
REMARK  13 active torsions:
REMARK  status: ('A' for Active; 'I' for Inactive)
REMARK    1  A    between atoms: O1_2  and  C2_3 
REMARK    2  A    between atoms: C12_14  and  C13_15 
REMARK    3  A    between atoms: C13_15  and  C15_17 
REMARK    4  A    between atoms: C15_17  and  C16_18 
REMARK    5  A    between atoms: C17_19  and  C18_20 
REMARK    6  A    between atoms: C18_20  and  O3_23 
REMARK    7  A    between atoms: C29_32  and  O4_33 
REMARK    8  A    between atoms: O4_33  and  C30_34 
REMARK    9  A    between atoms: C31_36  and  C32_37 
REMARK   10  A    between atoms: C32_37  and  O6_38 
REMARK   11  A    between atoms: C33_39  and  O7_40 
REMARK   12  A    between atoms: C34_41  and  O8_42 
REMARK   13  A    between atoms: C35_43  and  O9_44 
ROOT
HETATM    1  C2  UNL     1       4.111  11.509  18.073  1.00  0.00     0.270 C 
HETATM    2  O2  UNL     1       5.074  12.403  17.459  1.00  0.00    -0.344 OA
HETATM    3  C3  UNL     1       4.520  12.860  16.204  1.00  0.00     0.095 C 
HETATM    4  C4  UNL     1       3.695  14.085  16.586  1.00  0.00     0.008 C 
HETATM    5  C5  UNL     1       2.468  13.981  17.116  1.00  0.00    -0.021 C 
HETATM    6  C6  UNL     1       1.857  12.632  17.424  1.00  0.00     0.030 C 
HETATM    7  C7  UNL     1       2.863  11.438  17.127  1.00  0.00     0.024 C 
HETATM    8  C8  UNL     1       2.170  10.055  17.291  1.00  0.00     0.016 C 
HETATM    9  C9  UNL     1       0.730   9.928  16.757  1.00  0.00     0.011 C 
HETATM   10  C10 UNL     1      -0.178  11.066  17.256  1.00  0.00    -0.032 C 
HETATM   11  C11 UNL     1      -0.312  10.943  18.809  1.00  0.00     0.016 C 
HETATM   12  C12 UNL     1      -1.614  11.181  16.644  1.00  0.00    -0.002 C 
HETATM   13  C22 UNL     1      -1.961  12.688  16.908  1.00  0.00     0.006 C 
HETATM   14  C23 UNL     1      -0.639  13.423  17.204  1.00  0.00     0.011 C 
HETATM   15  C24 UNL     1       0.453  12.430  16.770  1.00  0.00    -0.029 C 
HETATM   16  C25 UNL     1       0.527  12.578  15.210  1.00  0.00     0.016 C 
HETATM   17  C26 UNL     1       3.602  11.687  15.788  1.00  0.00     0.039 C 
HETATM   18  C27 UNL     1       4.372  10.463  15.255  1.00  0.00     0.011 C 
HETATM   19  C28 UNL     1       5.377  10.834  14.176  1.00  0.00     0.033 C 
HETATM   20  C29 UNL     1       6.359  11.906  14.654  1.00  0.00     0.136 C 
HETATM   21  C36 UNL     1       5.631  13.195  15.147  1.00  0.00     0.014 C 
HETATM   22  C37 UNL     1       6.684  14.168  15.740  1.00  0.00     0.021 C 
HETATM   23  C38 UNL     1       5.006  13.890  13.905  1.00  0.00     0.021 C 
ENDROOT
BRANCH  20  24
HETATM   24  O4  UNL     1       7.123  11.337  15.720  1.00  0.00    -0.352 OA
BRANCH  24  25
HETATM   25  C30 UNL     1       8.533  11.331  15.469  1.00  0.00     0.292 C 
HETATM   26  O5  UNL     1       8.828  10.289  14.543  1.00  0.00    -0.348 OA
HETATM   27  C31 UNL     1       9.284   9.060  15.118  1.00  0.00     0.179 C 
HETATM   28  C33 UNL     1       8.585   8.752  16.453  1.00  0.00     0.180 C 
HETATM   29  C34 UNL     1       8.851   9.863  17.484  1.00  0.00     0.183 C 
HETATM   30  C35 UNL     1       9.236  11.194  16.831  1.00  0.00     0.204 C 
BRANCH  27  31
HETATM   31  C32 UNL     1       9.047   7.936  14.095  1.00  0.00     0.198 C 
BRANCH  31  32
HETATM   32  O6  UNL     1      10.220   7.570  13.382  1.00  0.00    -0.398 OA
HETATM   33  H50 UNL     1      10.978   7.799  13.964  1.00  0.00     0.209 HD
ENDBRANCH  31  32
ENDBRANCH  27  31
BRANCH  28  34
HETATM   34  O7  UNL     1       9.023   7.505  16.998  1.00  0.00    -0.390 OA
HETATM   35  H52 UNL     1       8.459   7.348  17.781  1.00  0.00     0.210 HD
ENDBRANCH  28  34
BRANCH  29  36
HETATM   36  O8  UNL     1       7.669  10.027  18.295  1.00  0.00    -0.390 OA
HETATM   37  H54 UNL     1       6.986  10.371  17.683  1.00  0.00     0.210 HD
ENDBRANCH  29  36
BRANCH  30  38
HETATM   38  O9  UNL     1      10.655  11.289  16.669  1.00  0.00    -0.388 OA
HETATM   39  H56 UNL     1      11.059  11.189  17.549  1.00  0.00     0.210 HD
ENDBRANCH  30  38
ENDBRANCH  24  25
ENDBRANCH  20  24
BRANCH   1  40
HETATM   40  O1  UNL     1       3.760  11.885  19.398  1.00  0.00    -0.365 OA
HETATM   41  C1  UNL     1       4.674  11.360  20.363  1.00  0.00     0.204 C 
ENDBRANCH   1  40
BRANCH  12  42
HETATM   42  C13 UNL     1      -2.761  10.240  17.115  1.00  0.00    -0.010 C 
HETATM   43  C14 UNL     1      -3.257  10.583  18.523  1.00  0.00     0.010 C 
BRANCH  42  44
HETATM   44  C15 UNL     1      -2.281   8.763  17.068  1.00  0.00     0.031 C 
BRANCH  44  45
HETATM   45  C16 UNL     1      -2.625   8.063  15.779  1.00  0.00    -0.027 C 
HETATM   46  C17 UNL     1      -3.889   7.856  15.370  1.00  0.00     0.006 C 
BRANCH  46  47
HETATM   47  C18 UNL     1      -4.367   7.156  14.111  1.00  0.00     0.070 C 
HETATM   48  C19 UNL     1      -4.978   8.188  13.147  1.00  0.00     0.050 C 
HETATM   49  C20 UNL     1      -3.249   6.408  13.368  1.00  0.00     0.050 C 
BRANCH  47  50
HETATM   50  O3  UNL     1      -5.311   6.133  14.469  1.00  0.00    -0.382 OA
HETATM   51  C21 UNL     1      -6.130   6.365  15.601  1.00  0.00     0.202 C 
ENDBRANCH  47  50
ENDBRANCH  46  47
ENDBRANCH  44  45
ENDBRANCH  42  44
ENDBRANCH  12  42
TORSDOF 13
ENDMDL
