MODEL 1
REMARK minimizedAffinity -9.1032486
REMARK CNNscore 0.590419531
REMARK CNNaffinity 7.23937607
REMARK  14 active torsions:
REMARK  status: ('A' for Active; 'I' for Inactive)
REMARK    1  A    between atoms: O1_2  and  C2_3 
REMARK    2  A    between atoms: C2_3  and  C3_4 
REMARK    3  A    between atoms: C3_4  and  C4_5 
REMARK    4  A    between atoms: C4_5  and  O2_6 
REMARK    5  A    between atoms: O2_6  and  C5_7 
REMARK    6  A    between atoms: C18_21  and  C19_22 
REMARK    7  A    between atoms: C25_28  and  C26_29 
REMARK    8  A    between atoms: C26_29  and  O4_31 
REMARK    9  A    between atoms: C26_29  and  C28_32 
REMARK   10  A    between atoms: C28_32  and  O5_33 
REMARK   11  A    between atoms: C28_32  and  C29_34 
REMARK   12  A    between atoms: C33_39  and  C34_40 
REMARK       I    between atoms: C34_40  and  N1_42 
REMARK   13  A    between atoms: C37_46  and  O8_47 
REMARK   14  A    between atoms: C42_52  and  O9_53 
ROOT
HETATM    1  C5  UNL     1     -14.466  44.746 -28.630  1.00  0.00     0.122 C 
HETATM    2  C6  UNL     1     -13.888  46.163 -28.519  1.00  0.00     0.033 C 
HETATM    3  C7  UNL     1     -13.905  46.694 -27.088  1.00  0.00     0.013 C 
HETATM    4  C8  UNL     1     -13.197  45.779 -26.017  1.00  0.00    -0.026 C 
HETATM    5  C9  UNL     1     -14.176  45.716 -24.811  1.00  0.00     0.016 C 
HETATM    6  C10 UNL     1     -12.997  44.344 -26.577  1.00  0.00     0.071 C 
HETATM    7  C11 UNL     1     -14.242  43.900 -27.370  1.00  0.00     0.045 C 
HETATM    8  C12 UNL     1     -11.775  44.181 -27.477  1.00  0.00     0.154 C 
HETATM    9  O3  UNL     1     -11.663  43.250 -28.271  1.00  0.00    -0.293 OA
HETATM   10  C13 UNL     1     -10.642  45.114 -27.353  1.00  0.00     0.057 C 
HETATM   11  C14 UNL     1     -10.633  46.082 -26.429  1.00  0.00    -0.037 C 
HETATM   12  C15 UNL     1     -11.835  46.431 -25.555  1.00  0.00     0.026 C 
HETATM   13  C16 UNL     1     -11.428  46.256 -24.069  1.00  0.00     0.011 C 
HETATM   14  C17 UNL     1     -10.166  47.074 -23.704  1.00  0.00     0.014 C 
HETATM   15  C18 UNL     1      -8.937  46.709 -24.581  1.00  0.00     0.005 C 
HETATM   16  C25 UNL     1      -7.781  47.801 -24.601  1.00  0.00     0.034 C 
HETATM   17  C40 UNL     1      -7.084  47.554 -25.973  1.00  0.00     0.012 C 
HETATM   18  C41 UNL     1      -8.099  46.825 -26.878  1.00  0.00     0.044 C 
HETATM   19  C42 UNL     1      -9.409  46.899 -26.096  1.00  0.00     0.090 C 
ENDROOT
BRANCH  16  20
HETATM   20  C26 UNL     1      -6.851  48.216 -23.420  1.00  0.00     0.087 C 
HETATM   21  C27 UNL     1      -6.224  46.947 -22.786  1.00  0.00     0.049 C 
BRANCH  20  22
HETATM   22  O4  UNL     1      -7.725  48.725 -22.364  1.00  0.00    -0.387 OA
HETATM   23  H42 UNL     1      -8.434  48.074 -22.225  1.00  0.00     0.210 HD
ENDBRANCH  20  22
BRANCH  20  24
HETATM   24  C28 UNL     1      -5.723  49.304 -23.557  1.00  0.00     0.181 C 
BRANCH  24  25
HETATM   25  O5  UNL     1      -6.377  50.457 -24.145  1.00  0.00    -0.390 OA
HETATM   26  H44 UNL     1      -6.896  50.060 -24.880  1.00  0.00     0.210 HD
ENDBRANCH  24  25
BRANCH  24  27
HETATM   27  C29 UNL     1      -4.472  49.017 -24.422  1.00  0.00     0.158 C 
HETATM   28  O6  UNL     1      -4.458  49.865 -25.602  1.00  0.00    -0.373 OA
HETATM   29  C30 UNL     1      -3.129  50.370 -25.773  1.00  0.00     0.185 C 
HETATM   30  C31 UNL     1      -2.629  50.525 -24.359  1.00  0.00     0.028 C 
HETATM   31  C37 UNL     1      -3.067  51.722 -26.503  1.00  0.00     0.384 C 
HETATM   32  C32 UNL     1      -1.147  50.860 -24.378  1.00  0.00     0.053 C 
HETATM   33  C38 UNL     1      -3.078  49.207 -23.756  1.00  0.00     0.020 C 
HETATM   34  C33 UNL     1      -0.820  51.940 -25.443  1.00  0.00     0.309 C 
HETATM   35  N2  UNL     1      -2.003  52.617 -26.044  1.00  0.00     0.128 N 
HETATM   36  H55 UNL     1      -2.411  53.203 -25.311  1.00  0.00     0.320 HD
HETATM   37  C39 UNL     1      -2.980  49.162 -22.240  1.00  0.00     0.013 C 
BRANCH  34  38
HETATM   38  C34 UNL     1       0.211  51.426 -26.478  1.00  0.00     0.233 C 
HETATM   39  O7  UNL     1       0.013  50.399 -27.128  1.00  0.00    -0.277 OA
HETATM   40  N1  UNL     1       1.400  52.155 -26.535  1.00  0.00    -0.249 NA
HETATM   41  C35 UNL     1       2.671  51.502 -26.463  1.00  0.00     0.113 A 
HETATM   42  C36 UNL     1       2.204  52.130 -27.725  1.00  0.00     0.113 A 
ENDBRANCH  34  38
BRANCH  31  43
HETATM   43  O8  UNL     1      -2.876  51.518 -27.890  1.00  0.00    -0.366 OA
HETATM   44  H57 UNL     1      -2.087  52.057 -28.073  1.00  0.00     0.212 HD
ENDBRANCH  31  43
ENDBRANCH  24  27
ENDBRANCH  20  24
ENDBRANCH  16  20
BRANCH  15  45
HETATM   45  C19 UNL     1      -8.322  45.276 -24.181  1.00  0.00    -0.002 C 
HETATM   46  C20 UNL     1      -8.886  44.678 -22.870  1.00  0.00     0.005 C 
HETATM   47  C21 UNL     1      -8.043  43.518 -22.324  1.00  0.00     0.000 C 
HETATM   48  C22 UNL     1      -7.195  42.827 -23.382  1.00  0.00     0.000 C 
HETATM   49  C23 UNL     1      -7.931  42.760 -24.709  1.00  0.00     0.000 C 
HETATM   50  C24 UNL     1      -8.356  44.142 -25.233  1.00  0.00     0.005 C 
ENDBRANCH  15  45
BRANCH  19  51
HETATM   51  O9  UNL     1      -9.865  48.256 -26.307  1.00  0.00    -0.384 OA
HETATM   52  H66 UNL     1     -10.077  48.351 -27.251  1.00  0.00     0.211 HD
ENDBRANCH  19  51
BRANCH   1  53
HETATM   53  O2  UNL     1     -15.880  44.823 -28.851  1.00  0.00    -0.386 OA
BRANCH  53  54
HETATM   54  C4  UNL     1     -16.520  43.553 -28.713  1.00  0.00     0.170 C 
BRANCH  54  55
HETATM   55  C3  UNL     1     -17.963  43.735 -28.263  1.00  0.00     0.052 C 
BRANCH  55  56
HETATM   56  C2  UNL     1     -18.949  42.947 -29.119  1.00  0.00     0.169 C 
BRANCH  56  57
HETATM   57  O1  UNL     1     -19.562  43.811 -30.086  1.00  0.00    -0.396 OA
HETATM   58  C1  UNL     1     -19.241  43.452 -31.426  1.00  0.00     0.201 C 
ENDBRANCH  56  57
ENDBRANCH  55  56
ENDBRANCH  54  55
ENDBRANCH  53  54
ENDBRANCH   1  53
TORSDOF 14
ENDMDL
MODEL 2
REMARK minimizedAffinity -8.40167618
REMARK CNNscore 0.508438289
REMARK CNNaffinity 6.89737844
REMARK  14 active torsions:
REMARK  status: ('A' for Active; 'I' for Inactive)
REMARK    1  A    between atoms: O1_2  and  C2_3 
REMARK    2  A    between atoms: C2_3  and  C3_4 
REMARK    3  A    between atoms: C3_4  and  C4_5 
REMARK    4  A    between atoms: C4_5  and  O2_6 
REMARK    5  A    between atoms: O2_6  and  C5_7 
REMARK    6  A    between atoms: C18_21  and  C19_22 
REMARK    7  A    between atoms: C25_28  and  C26_29 
REMARK    8  A    between atoms: C26_29  and  O4_31 
REMARK    9  A    between atoms: C26_29  and  C28_32 
REMARK   10  A    between atoms: C28_32  and  O5_33 
REMARK   11  A    between atoms: C28_32  and  C29_34 
REMARK   12  A    between atoms: C33_39  and  C34_40 
REMARK       I    between atoms: C34_40  and  N1_42 
REMARK   13  A    between atoms: C37_46  and  O8_47 
REMARK   14  A    between atoms: C42_52  and  O9_53 
ROOT
HETATM    1  C5  UNL     1     -17.266  46.311 -24.287  1.00  0.00     0.122 C 
HETATM    2  C6  UNL     1     -16.228  47.440 -24.246  1.00  0.00     0.033 C 
HETATM    3  C7  UNL     1     -14.904  46.999 -23.629  1.00  0.00     0.013 C 
HETATM    4  C8  UNL     1     -14.238  45.730 -24.287  1.00  0.00    -0.026 C 
HETATM    5  C9  UNL     1     -13.802  44.824 -23.101  1.00  0.00     0.016 C 
HETATM    6  C10 UNL     1     -15.275  44.961 -25.152  1.00  0.00     0.071 C 
HETATM    7  C11 UNL     1     -16.640  44.917 -24.439  1.00  0.00     0.045 C 
HETATM    8  C12 UNL     1     -15.484  45.537 -26.550  1.00  0.00     0.154 C 
HETATM    9  O3  UNL     1     -16.487  45.295 -27.217  1.00  0.00    -0.293 OA
HETATM   10  C13 UNL     1     -14.428  46.353 -27.174  1.00  0.00     0.057 C 
HETATM   11  C14 UNL     1     -13.256  46.564 -26.563  1.00  0.00    -0.037 C 
HETATM   12  C15 UNL     1     -12.965  46.153 -25.122  1.00  0.00     0.026 C 
HETATM   13  C16 UNL     1     -11.759  45.179 -25.124  1.00  0.00     0.011 C 
HETATM   14  C17 UNL     1     -10.521  45.776 -25.836  1.00  0.00     0.014 C 
HETATM   15  C18 UNL     1     -10.811  46.180 -27.308  1.00  0.00     0.005 C 
HETATM   16  C25 UNL     1      -9.774  47.210 -27.935  1.00  0.00     0.034 C 
HETATM   17  C40 UNL     1     -10.611  47.932 -29.033  1.00  0.00     0.012 C 
HETATM   18  C41 UNL     1     -12.099  47.762 -28.660  1.00  0.00     0.044 C 
HETATM   19  C42 UNL     1     -12.060  47.174 -27.251  1.00  0.00     0.090 C 
ENDROOT
BRANCH  16  20
HETATM   20  C26 UNL     1      -8.271  46.955 -28.270  1.00  0.00     0.087 C 
HETATM   21  C27 UNL     1      -7.808  47.956 -29.360  1.00  0.00     0.049 C 
BRANCH  20  22
HETATM   22  O4  UNL     1      -8.214  45.663 -28.951  1.00  0.00    -0.387 OA
HETATM   23  H42 UNL     1      -8.880  45.669 -29.660  1.00  0.00     0.210 HD
ENDBRANCH  20  22
BRANCH  20  24
HETATM   24  C28 UNL     1      -7.149  46.873 -27.171  1.00  0.00     0.181 C 
BRANCH  24  25
HETATM   25  O5  UNL     1      -7.644  45.924 -26.193  1.00  0.00    -0.390 OA
HETATM   26  H44 UNL     1      -8.572  46.219 -26.057  1.00  0.00     0.210 HD
ENDBRANCH  24  25
BRANCH  24  27
HETATM   27  C29 UNL     1      -6.739  48.142 -26.387  1.00  0.00     0.158 C 
HETATM   28  O6  UNL     1      -6.976  47.965 -24.964  1.00  0.00    -0.373 OA
HETATM   29  C30 UNL     1      -5.840  48.472 -24.256  1.00  0.00     0.185 C 
HETATM   30  C31 UNL     1      -4.687  48.164 -25.177  1.00  0.00     0.028 C 
HETATM   31  C37 UNL     1      -5.611  47.807 -22.888  1.00  0.00     0.384 C 
HETATM   32  C32 UNL     1      -3.426  48.832 -24.655  1.00  0.00     0.053 C 
HETATM   33  C38 UNL     1      -5.261  48.616 -26.507  1.00  0.00     0.020 C 
HETATM   34  C33 UNL     1      -3.272  48.639 -23.123  1.00  0.00     0.309 C 
HETATM   35  N2  UNL     1      -4.205  47.653 -22.510  1.00  0.00     0.128 N 
HETATM   36  H55 UNL     1      -3.915  46.729 -22.839  1.00  0.00     0.320 HD
HETATM   37  C39 UNL     1      -4.446  48.170 -27.710  1.00  0.00     0.013 C 
BRANCH  34  38
HETATM   38  C34 UNL     1      -3.208  49.997 -22.381  1.00  0.00     0.233 C 
HETATM   39  O7  UNL     1      -2.604  50.961 -22.854  1.00  0.00    -0.277 OA
HETATM   40  N1  UNL     1      -3.793  50.003 -21.114  1.00  0.00    -0.249 NA
HETATM   41  C35 UNL     1      -3.087  50.505 -19.976  1.00  0.00     0.113 A 
HETATM   42  C36 UNL     1      -4.251  51.237 -20.538  1.00  0.00     0.113 A 
ENDBRANCH  34  38
BRANCH  31  43
HETATM   43  O8  UNL     1      -6.242  48.560 -21.870  1.00  0.00    -0.366 OA
HETATM   44  H57 UNL     1      -5.510  48.720 -21.247  1.00  0.00     0.212 HD
ENDBRANCH  31  43
ENDBRANCH  24  27
ENDBRANCH  20  24
ENDBRANCH  16  20
BRANCH  15  45
HETATM   45  C19 UNL     1     -10.942  44.893 -28.266  1.00  0.00    -0.002 C 
HETATM   46  C20 UNL     1     -10.781  45.195 -29.775  1.00  0.00     0.005 C 
HETATM   47  C21 UNL     1     -11.265  44.050 -30.675  1.00  0.00     0.000 C 
HETATM   48  C22 UNL     1     -11.277  42.693 -29.985  1.00  0.00     0.000 C 
HETATM   49  C23 UNL     1     -10.100  42.557 -29.035  1.00  0.00     0.000 C 
HETATM   50  C24 UNL     1     -10.056  43.660 -27.966  1.00  0.00     0.005 C 
ENDBRANCH  15  45
BRANCH  19  51
HETATM   51  O9  UNL     1     -11.753  48.309 -26.408  1.00  0.00    -0.384 OA
HETATM   52  H66 UNL     1     -12.507  48.921 -26.454  1.00  0.00     0.211 HD
ENDBRANCH  19  51
BRANCH   1  53
HETATM   53  O2  UNL     1     -18.022  46.312 -23.070  1.00  0.00    -0.386 OA
BRANCH  53  54
HETATM   54  C4  UNL     1     -19.145  45.429 -23.128  1.00  0.00     0.170 C 
BRANCH  54  55
HETATM   55  C3  UNL     1     -19.474  44.902 -21.738  1.00  0.00     0.052 C 
BRANCH  55  56
HETATM   56  C2  UNL     1     -19.944  43.450 -21.757  1.00  0.00     0.169 C 
BRANCH  56  57
HETATM   57  O1  UNL     1     -21.151  43.314 -20.995  1.00  0.00    -0.396 OA
HETATM   58  C1  UNL     1     -22.077  42.410 -21.590  1.00  0.00     0.201 C 
ENDBRANCH  56  57
ENDBRANCH  55  56
ENDBRANCH  54  55
ENDBRANCH  53  54
ENDBRANCH   1  53
TORSDOF 14
ENDMDL
MODEL 3
REMARK minimizedAffinity -9.39012241
REMARK CNNscore 0.41347912
REMARK CNNaffinity 7.90669775
REMARK  14 active torsions:
REMARK  status: ('A' for Active; 'I' for Inactive)
REMARK    1  A    between atoms: O1_2  and  C2_3 
REMARK    2  A    between atoms: C2_3  and  C3_4 
REMARK    3  A    between atoms: C3_4  and  C4_5 
REMARK    4  A    between atoms: C4_5  and  O2_6 
REMARK    5  A    between atoms: O2_6  and  C5_7 
REMARK    6  A    between atoms: C18_21  and  C19_22 
REMARK    7  A    between atoms: C25_28  and  C26_29 
REMARK    8  A    between atoms: C26_29  and  O4_31 
REMARK    9  A    between atoms: C26_29  and  C28_32 
REMARK   10  A    between atoms: C28_32  and  O5_33 
REMARK   11  A    between atoms: C28_32  and  C29_34 
REMARK   12  A    between atoms: C33_39  and  C34_40 
REMARK       I    between atoms: C34_40  and  N1_42 
REMARK   13  A    between atoms: C37_46  and  O8_47 
REMARK   14  A    between atoms: C42_52  and  O9_53 
ROOT
HETATM    1  C5  UNL     1      -1.858  50.337 -26.821  1.00  0.00     0.122 C 
HETATM    2  C6  UNL     1      -0.879  50.341 -25.640  1.00  0.00     0.033 C 
HETATM    3  C7  UNL     1      -1.227  51.395 -24.592  1.00  0.00     0.013 C 
HETATM    4  C8  UNL     1      -2.697  51.329 -24.025  1.00  0.00    -0.026 C 
HETATM    5  C9  UNL     1      -3.217  52.794 -24.041  1.00  0.00     0.016 C 
HETATM    6  C10 UNL     1      -3.597  50.467 -24.952  1.00  0.00     0.071 C 
HETATM    7  C11 UNL     1      -3.281  50.761 -26.431  1.00  0.00     0.045 C 
HETATM    8  C12 UNL     1      -3.478  48.962 -24.729  1.00  0.00     0.154 C 
HETATM    9  O3  UNL     1      -3.822  48.142 -25.576  1.00  0.00    -0.293 OA
HETATM   10  C13 UNL     1      -3.008  48.447 -23.430  1.00  0.00     0.057 C 
HETATM   11  C14 UNL     1      -2.727  49.270 -22.413  1.00  0.00    -0.037 C 
HETATM   12  C15 UNL     1      -2.686  50.791 -22.540  1.00  0.00     0.026 C 
HETATM   13  C16 UNL     1      -3.721  51.394 -21.556  1.00  0.00     0.011 C 
HETATM   14  C17 UNL     1      -3.502  50.909 -20.102  1.00  0.00     0.014 C 
HETATM   15  C18 UNL     1      -3.561  49.363 -19.968  1.00  0.00     0.005 C 
HETATM   16  C25 UNL     1      -2.888  48.780 -18.650  1.00  0.00     0.034 C 
HETATM   17  C40 UNL     1      -2.476  47.337 -19.072  1.00  0.00     0.012 C 
HETATM   18  C41 UNL     1      -2.374  47.321 -20.611  1.00  0.00     0.044 C 
HETATM   19  C42 UNL     1      -2.485  48.793 -21.003  1.00  0.00     0.090 C 
ENDROOT
BRANCH  16  20
HETATM   20  C26 UNL     1      -3.379  48.955 -17.180  1.00  0.00     0.087 C 
HETATM   21  C27 UNL     1      -2.870  47.768 -16.321  1.00  0.00     0.049 C 
BRANCH  20  22
HETATM   22  O4  UNL     1      -4.828  48.759 -17.203  1.00  0.00    -0.387 OA
HETATM   23  H42 UNL     1      -5.010  47.935 -17.686  1.00  0.00     0.210 HD
ENDBRANCH  20  22
BRANCH  20  24
HETATM   24  C28 UNL     1      -3.173  50.280 -16.357  1.00  0.00     0.181 C 
BRANCH  24  25
HETATM   25  O5  UNL     1      -3.122  51.338 -17.348  1.00  0.00    -0.390 OA
HETATM   26  H44 UNL     1      -2.510  50.970 -18.025  1.00  0.00     0.210 HD
ENDBRANCH  24  25
BRANCH  24  27
HETATM   27  C29 UNL     1      -1.919  50.449 -15.466  1.00  0.00     0.158 C 
HETATM   28  O6  UNL     1      -1.948  49.511 -14.356  1.00  0.00    -0.373 OA
HETATM   29  C30 UNL     1      -0.641  48.942 -14.218  1.00  0.00     0.185 C 
HETATM   30  C31 UNL     1      -0.135  48.879 -15.637  1.00  0.00     0.028 C 
HETATM   31  C37 UNL     1      -0.636  47.536 -13.596  1.00  0.00     0.384 C 
HETATM   32  C32 UNL     1       1.333  48.487 -15.637  1.00  0.00     0.053 C 
HETATM   33  C38 UNL     1      -0.528  50.257 -16.137  1.00  0.00     0.020 C 
HETATM   34  C33 UNL     1       1.609  47.315 -14.658  1.00  0.00     0.309 C 
HETATM   35  N2  UNL     1       0.396  46.639 -14.118  1.00  0.00     0.128 N 
HETATM   36  H55 UNL     1      -0.028  46.129 -14.897  1.00  0.00     0.320 HD
HETATM   37  C39 UNL     1      -0.415  50.417 -17.644  1.00  0.00     0.013 C 
BRANCH  34  38
HETATM   38  C34 UNL     1       2.650  47.706 -13.580  1.00  0.00     0.233 C 
HETATM   39  O7  UNL     1       3.228  46.853 -12.905  1.00  0.00    -0.277 OA
HETATM   40  N1  UNL     1       2.797  49.079 -13.376  1.00  0.00    -0.249 NA
HETATM   41  C35 UNL     1       2.736  49.642 -12.063  1.00  0.00     0.113 A 
HETATM   42  C36 UNL     1       4.014  49.597 -12.816  1.00  0.00     0.113 A 
ENDBRANCH  34  38
BRANCH  31  43
HETATM   43  O8  UNL     1      -0.450  47.624 -12.196  1.00  0.00    -0.366 OA
HETATM   44  H57 UNL     1       0.317  47.041 -12.052  1.00  0.00     0.212 HD
ENDBRANCH  31  43
ENDBRANCH  24  27
ENDBRANCH  20  24
ENDBRANCH  16  20
BRANCH  15  45
HETATM   45  C19 UNL     1      -5.066  48.808 -20.098  1.00  0.00    -0.002 C 
HETATM   46  C20 UNL     1      -6.148  49.907 -20.232  1.00  0.00     0.005 C 
HETATM   47  C21 UNL     1      -7.571  49.387 -19.989  1.00  0.00     0.000 C 
HETATM   48  C22 UNL     1      -7.721  47.890 -20.216  1.00  0.00     0.000 C 
HETATM   49  C23 UNL     1      -6.860  47.427 -21.378  1.00  0.00     0.000 C 
HETATM   50  C24 UNL     1      -5.370  47.757 -21.192  1.00  0.00     0.005 C 
ENDBRANCH  15  45
BRANCH  19  51
HETATM   51  O9  UNL     1      -1.176  49.333 -20.705  1.00  0.00    -0.384 OA
HETATM   52  H66 UNL     1      -0.541  48.912 -21.308  1.00  0.00     0.211 HD
ENDBRANCH  19  51
BRANCH   1  53
HETATM   53  O2  UNL     1      -1.398  51.249 -27.826  1.00  0.00    -0.386 OA
BRANCH  53  54
HETATM   54  C4  UNL     1      -1.724  52.606 -27.517  1.00  0.00     0.170 C 
BRANCH  54  55
HETATM   55  C3  UNL     1      -0.494  53.491 -27.666  1.00  0.00     0.052 C 
BRANCH  55  56
HETATM   56  C2  UNL     1       0.783  52.687 -27.894  1.00  0.00     0.169 C 
BRANCH  56  57
HETATM   57  O1  UNL     1       1.579  52.681 -26.701  1.00  0.00    -0.396 OA
HETATM   58  C1  UNL     1       2.488  51.585 -26.652  1.00  0.00     0.201 C 
ENDBRANCH  56  57
ENDBRANCH  55  56
ENDBRANCH  54  55
ENDBRANCH  53  54
ENDBRANCH   1  53
TORSDOF 14
ENDMDL
MODEL 4
REMARK minimizedAffinity -8.46905422
REMARK CNNscore 0.387216926
REMARK CNNaffinity 7.06731606
REMARK  14 active torsions:
REMARK  status: ('A' for Active; 'I' for Inactive)
REMARK    1  A    between atoms: O1_2  and  C2_3 
REMARK    2  A    between atoms: C2_3  and  C3_4 
REMARK    3  A    between atoms: C3_4  and  C4_5 
REMARK    4  A    between atoms: C4_5  and  O2_6 
REMARK    5  A    between atoms: O2_6  and  C5_7 
REMARK    6  A    between atoms: C18_21  and  C19_22 
REMARK    7  A    between atoms: C25_28  and  C26_29 
REMARK    8  A    between atoms: C26_29  and  O4_31 
REMARK    9  A    between atoms: C26_29  and  C28_32 
REMARK   10  A    between atoms: C28_32  and  O5_33 
REMARK   11  A    between atoms: C28_32  and  C29_34 
REMARK   12  A    between atoms: C33_39  and  C34_40 
REMARK       I    between atoms: C34_40  and  N1_42 
REMARK   13  A    between atoms: C37_46  and  O8_47 
REMARK   14  A    between atoms: C42_52  and  O9_53 
ROOT
HETATM    1  C5  UNL     1      -0.400  50.759 -17.255  1.00  0.00     0.122 C 
HETATM    2  C6  UNL     1      -0.937  51.578 -18.436  1.00  0.00     0.033 C 
HETATM    3  C7  UNL     1      -0.699  50.897 -19.781  1.00  0.00     0.013 C 
HETATM    4  C8  UNL     1      -1.249  49.424 -19.901  1.00  0.00    -0.026 C 
HETATM    5  C9  UNL     1      -0.101  48.602 -20.552  1.00  0.00     0.016 C 
HETATM    6  C10 UNL     1      -1.549  48.840 -18.493  1.00  0.00     0.071 C 
HETATM    7  C11 UNL     1      -0.444  49.244 -17.499  1.00  0.00     0.045 C 
HETATM    8  C12 UNL     1      -2.895  49.261 -17.908  1.00  0.00     0.154 C 
HETATM    9  O3  UNL     1      -3.136  49.199 -16.705  1.00  0.00    -0.293 OA
HETATM   10  C13 UNL     1      -3.985  49.688 -18.803  1.00  0.00     0.057 C 
HETATM   11  C14 UNL     1      -3.842  49.669 -20.134  1.00  0.00    -0.037 C 
HETATM   12  C15 UNL     1      -2.518  49.391 -20.841  1.00  0.00     0.026 C 
HETATM   13  C16 UNL     1      -2.700  48.148 -21.750  1.00  0.00     0.011 C 
HETATM   14  C17 UNL     1      -3.882  48.307 -22.736  1.00  0.00     0.014 C 
HETATM   15  C18 UNL     1      -5.233  48.574 -22.017  1.00  0.00     0.005 C 
HETATM   16  C25 UNL     1      -6.365  49.210 -22.936  1.00  0.00     0.034 C 
HETATM   17  C40 UNL     1      -7.263  49.971 -21.915  1.00  0.00     0.012 C 
HETATM   18  C41 UNL     1      -6.405  50.241 -20.661  1.00  0.00     0.044 C 
HETATM   19  C42 UNL     1      -4.991  49.854 -21.093  1.00  0.00     0.090 C 
ENDROOT
BRANCH  16  20
HETATM   20  C26 UNL     1      -7.102  48.536 -24.134  1.00  0.00     0.087 C 
HETATM   21  C27 UNL     1      -6.059  48.018 -25.158  1.00  0.00     0.049 C 
BRANCH  20  22
HETATM   22  O4  UNL     1      -7.783  49.609 -24.857  1.00  0.00    -0.387 OA
HETATM   23  H42 UNL     1      -7.136  50.318 -25.016  1.00  0.00     0.210 HD
ENDBRANCH  20  22
BRANCH  20  24
HETATM   24  C28 UNL     1      -8.201  47.425 -23.950  1.00  0.00     0.181 C 
BRANCH  24  25
HETATM   25  O5  UNL     1      -7.467  46.209 -23.655  1.00  0.00    -0.390 OA
HETATM   26  H44 UNL     1      -6.754  46.218 -24.333  1.00  0.00     0.210 HD
ENDBRANCH  24  25
BRANCH  24  27
HETATM   27  C29 UNL     1      -9.163  47.088 -25.114  1.00  0.00     0.158 C 
HETATM   28  O6  UNL     1      -9.089  48.104 -26.152  1.00  0.00    -0.373 OA
HETATM   29  C30 UNL     1      -9.051  47.442 -27.421  1.00  0.00     0.185 C 
HETATM   30  C31 UNL     1      -8.289  46.173 -27.132  1.00  0.00     0.028 C 
HETATM   31  C37 UNL     1      -8.337  48.245 -28.521  1.00  0.00     0.384 C 
HETATM   32  C32 UNL     1      -8.346  45.259 -28.345  1.00  0.00     0.053 C 
HETATM   33  C38 UNL     1      -8.959  45.730 -25.845  1.00  0.00     0.020 C 
HETATM   34  C33 UNL     1      -8.088  46.041 -29.661  1.00  0.00     0.309 C 
HETATM   35  N2  UNL     1      -7.590  47.434 -29.484  1.00  0.00     0.128 N 
HETATM   36  H55 UNL     1      -6.634  47.362 -29.126  1.00  0.00     0.320 HD
HETATM   37  C39 UNL     1      -8.221  44.614 -25.124  1.00  0.00     0.013 C 
BRANCH  34  38
HETATM   38  C34 UNL     1      -9.278  45.913 -30.643  1.00  0.00     0.233 C 
HETATM   39  O7  UNL     1     -10.439  45.827 -30.240  1.00  0.00    -0.277 OA
HETATM   40  N1  UNL     1      -8.921  45.803 -31.988  1.00  0.00    -0.249 NA
HETATM   41  C35 UNL     1      -9.450  44.759 -32.810  1.00  0.00     0.113 A 
HETATM   42  C36 UNL     1      -9.856  46.172 -33.014  1.00  0.00     0.113 A 
ENDBRANCH  34  38
BRANCH  31  43
HETATM   43  O8  UNL     1      -9.275  49.011 -29.252  1.00  0.00    -0.366 OA
HETATM   44  H57 UNL     1      -9.098  48.734 -30.169  1.00  0.00     0.212 HD
ENDBRANCH  31  43
ENDBRANCH  24  27
ENDBRANCH  20  24
ENDBRANCH  16  20
BRANCH  15  45
HETATM   45  C19 UNL     1      -5.799  47.249 -21.299  1.00  0.00    -0.002 C 
HETATM   46  C20 UNL     1      -4.858  46.023 -21.376  1.00  0.00     0.005 C 
HETATM   47  C21 UNL     1      -5.555  44.704 -21.019  1.00  0.00     0.000 C 
HETATM   48  C22 UNL     1      -6.796  44.882 -20.156  1.00  0.00     0.000 C 
HETATM   49  C23 UNL     1      -6.608  46.012 -19.160  1.00  0.00     0.000 C 
HETATM   50  C24 UNL     1      -6.267  47.354 -19.828  1.00  0.00     0.005 C 
ENDBRANCH  15  45
BRANCH  19  51
HETATM   51  O9  UNL     1      -4.555  50.973 -21.900  1.00  0.00    -0.384 OA
HETATM   52  H66 UNL     1      -4.486  51.747 -21.316  1.00  0.00     0.211 HD
ENDBRANCH  19  51
BRANCH   1  53
HETATM   53  O2  UNL     1       0.966  51.115 -17.007  1.00  0.00    -0.386 OA
BRANCH  53  54
HETATM   54  C4  UNL     1       1.081  52.287 -16.196  1.00  0.00     0.170 C 
BRANCH  54  55
HETATM   55  C3  UNL     1       1.019  51.915 -14.721  1.00  0.00     0.052 C 
BRANCH  55  56
HETATM   56  C2  UNL     1       2.176  51.017 -14.293  1.00  0.00     0.169 C 
BRANCH  56  57
HETATM   57  O1  UNL     1       2.619  51.379 -12.978  1.00  0.00    -0.396 OA
HETATM   58  C1  UNL     1       1.868  50.742 -11.949  1.00  0.00     0.201 C 
ENDBRANCH  56  57
ENDBRANCH  55  56
ENDBRANCH  54  55
ENDBRANCH  53  54
ENDBRANCH   1  53
TORSDOF 14
ENDMDL
MODEL 5
REMARK minimizedAffinity -8.24917412
REMARK CNNscore 0.362236649
REMARK CNNaffinity 6.36555862
REMARK  14 active torsions:
REMARK  status: ('A' for Active; 'I' for Inactive)
REMARK    1  A    between atoms: O1_2  and  C2_3 
REMARK    2  A    between atoms: C2_3  and  C3_4 
REMARK    3  A    between atoms: C3_4  and  C4_5 
REMARK    4  A    between atoms: C4_5  and  O2_6 
REMARK    5  A    between atoms: O2_6  and  C5_7 
REMARK    6  A    between atoms: C18_21  and  C19_22 
REMARK    7  A    between atoms: C25_28  and  C26_29 
REMARK    8  A    between atoms: C26_29  and  O4_31 
REMARK    9  A    between atoms: C26_29  and  C28_32 
REMARK   10  A    between atoms: C28_32  and  O5_33 
REMARK   11  A    between atoms: C28_32  and  C29_34 
REMARK   12  A    between atoms: C33_39  and  C34_40 
REMARK       I    between atoms: C34_40  and  N1_42 
REMARK   13  A    between atoms: C37_46  and  O8_47 
REMARK   14  A    between atoms: C42_52  and  O9_53 
ROOT
HETATM    1  C5  UNL     1     -17.689  44.541 -26.382  1.00  0.00     0.122 C 
HETATM    2  C6  UNL     1     -17.014  45.527 -25.420  1.00  0.00     0.033 C 
HETATM    3  C7  UNL     1     -15.934  44.868 -24.565  1.00  0.00     0.013 C 
HETATM    4  C8  UNL     1     -14.812  44.101 -25.365  1.00  0.00    -0.026 C 
HETATM    5  C9  UNL     1     -14.637  42.739 -24.635  1.00  0.00     0.016 C 
HETATM    6  C10 UNL     1     -15.273  43.833 -26.824  1.00  0.00     0.071 C 
HETATM    7  C11 UNL     1     -16.755  43.416 -26.850  1.00  0.00     0.045 C 
HETATM    8  C12 UNL     1     -15.093  45.017 -27.771  1.00  0.00     0.154 C 
HETATM    9  O3  UNL     1     -15.710  45.112 -28.829  1.00  0.00    -0.293 OA
HETATM   10  C13 UNL     1     -14.094  46.056 -27.467  1.00  0.00     0.057 C 
HETATM   11  C14 UNL     1     -13.296  45.965 -26.396  1.00  0.00    -0.037 C 
HETATM   12  C15 UNL     1     -13.454  44.905 -25.308  1.00  0.00     0.026 C 
HETATM   13  C16 UNL     1     -12.141  44.084 -25.230  1.00  0.00     0.011 C 
HETATM   14  C17 UNL     1     -10.898  44.980 -25.014  1.00  0.00     0.014 C 
HETATM   15  C18 UNL     1     -10.726  46.049 -26.129  1.00  0.00     0.005 C 
HETATM   16  C25 UNL     1      -9.792  47.275 -25.741  1.00  0.00     0.034 C 
HETATM   17  C40 UNL     1     -10.321  48.425 -26.650  1.00  0.00     0.012 C 
HETATM   18  C41 UNL     1     -11.766  48.062 -27.053  1.00  0.00     0.044 C 
HETATM   19  C42 UNL     1     -12.102  46.859 -26.173  1.00  0.00     0.090 C 
ENDROOT
BRANCH  16  20
HETATM   20  C26 UNL     1      -8.252  47.250 -25.488  1.00  0.00     0.087 C 
HETATM   21  C27 UNL     1      -7.504  47.414 -26.837  1.00  0.00     0.049 C 
BRANCH  20  22
HETATM   22  O4  UNL     1      -7.923  45.884 -25.082  1.00  0.00    -0.387 OA
HETATM   23  H42 UNL     1      -8.324  45.277 -25.728  1.00  0.00     0.210 HD
ENDBRANCH  20  22
BRANCH  20  24
HETATM   24  C28 UNL     1      -7.543  48.161 -24.420  1.00  0.00     0.181 C 
BRANCH  24  25
HETATM   25  O5  UNL     1      -8.053  49.497 -24.661  1.00  0.00    -0.390 OA
HETATM   26  H44 UNL     1      -7.983  49.582 -25.638  1.00  0.00     0.210 HD
ENDBRANCH  24  25
BRANCH  24  27
HETATM   27  C29 UNL     1      -5.999  48.274 -24.403  1.00  0.00     0.158 C 
HETATM   28  O6  UNL     1      -5.582  49.638 -24.684  1.00  0.00    -0.373 OA
HETATM   29  C30 UNL     1      -4.538  49.984 -23.766  1.00  0.00     0.185 C 
HETATM   30  C31 UNL     1      -4.914  49.235 -22.512  1.00  0.00     0.028 C 
HETATM   31  C37 UNL     1      -4.444  51.490 -23.471  1.00  0.00     0.384 C 
HETATM   32  C32 UNL     1      -3.783  49.337 -21.502  1.00  0.00     0.053 C 
HETATM   33  C38 UNL     1      -5.264  47.876 -23.090  1.00  0.00     0.020 C 
HETATM   34  C33 UNL     1      -3.229  50.784 -21.411  1.00  0.00     0.309 C 
HETATM   35  N2  UNL     1      -4.045  51.821 -22.101  1.00  0.00     0.128 N 
HETATM   36  H55 UNL     1      -4.909  51.923 -21.563  1.00  0.00     0.320 HD
HETATM   37  C39 UNL     1      -5.969  46.957 -22.107  1.00  0.00     0.013 C 
BRANCH  34  38
HETATM   38  C34 UNL     1      -1.718  50.838 -21.746  1.00  0.00     0.233 C 
HETATM   39  O7  UNL     1      -1.070  49.814 -21.964  1.00  0.00    -0.277 OA
HETATM   40  N1  UNL     1      -1.147  52.110 -21.681  1.00  0.00    -0.249 NA
HETATM   41  C35 UNL     1       0.050  52.346 -20.934  1.00  0.00     0.113 A 
HETATM   42  C36 UNL     1       0.051  52.401 -22.418  1.00  0.00     0.113 A 
ENDBRANCH  34  38
BRANCH  31  43
HETATM   43  O8  UNL     1      -3.509  52.099 -24.341  1.00  0.00    -0.366 OA
HETATM   44  H57 UNL     1      -2.907  52.544 -23.719  1.00  0.00     0.212 HD
ENDBRANCH  31  43
ENDBRANCH  24  27
ENDBRANCH  20  24
ENDBRANCH  16  20
BRANCH  15  45
HETATM   45  C19 UNL     1     -10.217  45.395 -27.509  1.00  0.00    -0.002 C 
HETATM   46  C20 UNL     1      -9.274  44.180 -27.337  1.00  0.00     0.005 C 
HETATM   47  C21 UNL     1      -8.524  43.810 -28.623  1.00  0.00     0.000 C 
HETATM   48  C22 UNL     1      -9.213  44.291 -29.892  1.00  0.00     0.000 C 
HETATM   49  C23 UNL     1     -10.722  44.195 -29.760  1.00  0.00     0.000 C 
HETATM   50  C24 UNL     1     -11.274  44.986 -28.563  1.00  0.00     0.005 C 
ENDBRANCH  15  45
BRANCH  19  51
HETATM   51  O9  UNL     1     -12.377  47.441 -24.877  1.00  0.00    -0.384 OA
HETATM   52  H66 UNL     1     -13.181  47.981 -24.963  1.00  0.00     0.211 HD
ENDBRANCH  19  51
BRANCH   1  53
HETATM   53  O2  UNL     1     -18.809  43.929 -25.732  1.00  0.00    -0.386 OA
BRANCH  53  54
HETATM   54  C4  UNL     1     -18.497  43.501 -24.404  1.00  0.00     0.170 C 
BRANCH  54  55
HETATM   55  C3  UNL     1     -19.704  42.819 -23.773  1.00  0.00     0.052 C 
BRANCH  55  56
HETATM   56  C2  UNL     1     -20.693  43.814 -23.173  1.00  0.00     0.169 C 
BRANCH  56  57
HETATM   57  O1  UNL     1     -21.919  43.149 -22.840  1.00  0.00    -0.396 OA
HETATM   58  C1  UNL     1     -21.813  41.730 -22.912  1.00  0.00     0.201 C 
ENDBRANCH  56  57
ENDBRANCH  55  56
ENDBRANCH  54  55
ENDBRANCH  53  54
ENDBRANCH   1  53
TORSDOF 14
ENDMDL
MODEL 6
REMARK minimizedAffinity -8.61147404
REMARK CNNscore 0.355915308
REMARK CNNaffinity 6.94327354
REMARK  14 active torsions:
REMARK  status: ('A' for Active; 'I' for Inactive)
REMARK    1  A    between atoms: O1_2  and  C2_3 
REMARK    2  A    between atoms: C2_3  and  C3_4 
REMARK    3  A    between atoms: C3_4  and  C4_5 
REMARK    4  A    between atoms: C4_5  and  O2_6 
REMARK    5  A    between atoms: O2_6  and  C5_7 
REMARK    6  A    between atoms: C18_21  and  C19_22 
REMARK    7  A    between atoms: C25_28  and  C26_29 
REMARK    8  A    between atoms: C26_29  and  O4_31 
REMARK    9  A    between atoms: C26_29  and  C28_32 
REMARK   10  A    between atoms: C28_32  and  O5_33 
REMARK   11  A    between atoms: C28_32  and  C29_34 
REMARK   12  A    between atoms: C33_39  and  C34_40 
REMARK       I    between atoms: C34_40  and  N1_42 
REMARK   13  A    between atoms: C37_46  and  O8_47 
REMARK   14  A    between atoms: C42_52  and  O9_53 
ROOT
HETATM    1  C5  UNL     1     -13.695  46.674 -20.055  1.00  0.00     0.122 C 
HETATM    2  C6  UNL     1     -12.875  47.874 -20.546  1.00  0.00     0.033 C 
HETATM    3  C7  UNL     1     -11.943  48.428 -19.471  1.00  0.00     0.013 C 
HETATM    4  C8  UNL     1     -10.959  47.380 -18.823  1.00  0.00    -0.026 C 
HETATM    5  C9  UNL     1     -11.039  47.627 -17.289  1.00  0.00     0.016 C 
HETATM    6  C10 UNL     1     -11.433  45.932 -19.123  1.00  0.00     0.071 C 
HETATM    7  C11 UNL     1     -12.965  45.833 -18.998  1.00  0.00     0.045 C 
HETATM    8  C12 UNL     1     -11.031  45.408 -20.499  1.00  0.00     0.154 C 
HETATM    9  O3  UNL     1     -11.603  44.462 -21.035  1.00  0.00    -0.293 OA
HETATM   10  C13 UNL     1      -9.871  45.990 -21.197  1.00  0.00     0.057 C 
HETATM   11  C14 UNL     1      -9.120  46.942 -20.629  1.00  0.00    -0.037 C 
HETATM   12  C15 UNL     1      -9.482  47.637 -19.319  1.00  0.00     0.026 C 
HETATM   13  C16 UNL     1      -8.335  47.396 -18.304  1.00  0.00     0.011 C 
HETATM   14  C17 UNL     1      -6.958  47.838 -18.855  1.00  0.00     0.014 C 
HETATM   15  C18 UNL     1      -6.581  47.119 -20.179  1.00  0.00     0.005 C 
HETATM   16  C25 UNL     1      -5.453  47.842 -21.035  1.00  0.00     0.034 C 
HETATM   17  C40 UNL     1      -5.756  47.371 -22.490  1.00  0.00     0.012 C 
HETATM   18  C41 UNL     1      -7.234  46.931 -22.531  1.00  0.00     0.044 C 
HETATM   19  C42 UNL     1      -7.792  47.391 -21.185  1.00  0.00     0.090 C 
ENDROOT
BRANCH  16  20
HETATM   20  C26 UNL     1      -3.947  48.012 -20.665  1.00  0.00     0.087 C 
HETATM   21  C27 UNL     1      -3.136  46.821 -21.240  1.00  0.00     0.049 C 
BRANCH  20  22
HETATM   22  O4  UNL     1      -3.853  47.819 -19.219  1.00  0.00    -0.387 OA
HETATM   23  H42 UNL     1      -4.322  46.997 -18.997  1.00  0.00     0.210 HD
ENDBRANCH  20  22
BRANCH  20  24
HETATM   24  C28 UNL     1      -3.139  49.333 -20.941  1.00  0.00     0.181 C 
BRANCH  24  25
HETATM   25  O5  UNL     1      -4.143  50.341 -21.221  1.00  0.00    -0.390 OA
HETATM   26  H44 UNL     1      -4.741  49.881 -21.852  1.00  0.00     0.210 HD
ENDBRANCH  24  25
BRANCH  24  27
HETATM   27  C29 UNL     1      -2.121  49.389 -22.105  1.00  0.00     0.158 C 
HETATM   28  O6  UNL     1      -2.749  49.901 -23.312  1.00  0.00    -0.373 OA
HETATM   29  C30 UNL     1      -1.855  50.843 -23.915  1.00  0.00     0.185 C 
HETATM   30  C31 UNL     1      -1.169  51.480 -22.733  1.00  0.00     0.028 C 
HETATM   31  C37 UNL     1      -2.560  51.920 -24.757  1.00  0.00     0.384 C 
HETATM   32  C32 UNL     1      -0.032  52.363 -23.221  1.00  0.00     0.053 C 
HETATM   33  C38 UNL     1      -0.843  50.253 -21.902  1.00  0.00     0.020 C 
HETATM   34  C33 UNL     1      -0.464  53.231 -24.433  1.00  0.00     0.309 C 
HETATM   35  N2  UNL     1      -1.926  53.239 -24.719  1.00  0.00     0.128 N 
HETATM   36  H55 UNL     1      -2.372  53.756 -23.958  1.00  0.00     0.320 HD
HETATM   37  C39 UNL     1      -0.395  50.575 -20.486  1.00  0.00     0.013 C 
BRANCH  34  38
HETATM   38  C34 UNL     1       0.424  52.961 -25.672  1.00  0.00     0.233 C 
HETATM   39  O7  UNL     1       0.549  53.795 -26.569  1.00  0.00    -0.277 OA
HETATM   40  N1  UNL     1       0.976  51.680 -25.732  1.00  0.00    -0.249 NA
HETATM   41  C35 UNL     1       0.856  50.877 -26.911  1.00  0.00     0.113 A 
HETATM   42  C36 UNL     1       2.167  51.443 -26.500  1.00  0.00     0.113 A 
ENDBRANCH  34  38
BRANCH  31  43
HETATM   43  O8  UNL     1      -2.619  51.518 -26.112  1.00  0.00    -0.366 OA
HETATM   44  H57 UNL     1      -2.211  52.274 -26.570  1.00  0.00     0.212 HD
ENDBRANCH  31  43
ENDBRANCH  24  27
ENDBRANCH  20  24
ENDBRANCH  16  20
BRANCH  15  45
HETATM   45  C19 UNL     1      -6.170  45.582 -19.929  1.00  0.00    -0.002 C 
HETATM   46  C20 UNL     1      -5.583  45.294 -18.527  1.00  0.00     0.005 C 
HETATM   47  C21 UNL     1      -4.872  43.937 -18.437  1.00  0.00     0.000 C 
HETATM   48  C22 UNL     1      -5.333  42.935 -19.485  1.00  0.00     0.000 C 
HETATM   49  C23 UNL     1      -6.822  43.071 -19.750  1.00  0.00     0.000 C 
HETATM   50  C24 UNL     1      -7.228  44.485 -20.197  1.00  0.00     0.005 C 
ENDBRANCH  15  45
BRANCH  19  51
HETATM   51  O9  UNL     1      -7.985  48.815 -21.355  1.00  0.00    -0.384 OA
HETATM   52  H66 UNL     1      -8.679  48.940 -22.023  1.00  0.00     0.211 HD
ENDBRANCH  19  51
BRANCH   1  53
HETATM   53  O2  UNL     1     -14.917  47.138 -19.468  1.00  0.00    -0.386 OA
BRANCH  53  54
HETATM   54  C4  UNL     1     -16.067  46.527 -20.058  1.00  0.00     0.170 C 
BRANCH  54  55
HETATM   55  C3  UNL     1     -17.338  47.176 -19.527  1.00  0.00     0.052 C 
BRANCH  55  56
HETATM   56  C2  UNL     1     -18.571  46.807 -20.346  1.00  0.00     0.169 C 
BRANCH  56  57
HETATM   57  O1  UNL     1     -18.921  45.435 -20.117  1.00  0.00    -0.396 OA
HETATM   58  C1  UNL     1     -19.335  44.767 -21.305  1.00  0.00     0.201 C 
ENDBRANCH  56  57
ENDBRANCH  55  56
ENDBRANCH  54  55
ENDBRANCH  53  54
ENDBRANCH   1  53
TORSDOF 14
ENDMDL
MODEL 7
REMARK minimizedAffinity -9.23138809
REMARK CNNscore 0.303686351
REMARK CNNaffinity 7.28344107
REMARK  14 active torsions:
REMARK  status: ('A' for Active; 'I' for Inactive)
REMARK    1  A    between atoms: O1_2  and  C2_3 
REMARK    2  A    between atoms: C2_3  and  C3_4 
REMARK    3  A    between atoms: C3_4  and  C4_5 
REMARK    4  A    between atoms: C4_5  and  O2_6 
REMARK    5  A    between atoms: O2_6  and  C5_7 
REMARK    6  A    between atoms: C18_21  and  C19_22 
REMARK    7  A    between atoms: C25_28  and  C26_29 
REMARK    8  A    between atoms: C26_29  and  O4_31 
REMARK    9  A    between atoms: C26_29  and  C28_32 
REMARK   10  A    between atoms: C28_32  and  O5_33 
REMARK   11  A    between atoms: C28_32  and  C29_34 
REMARK   12  A    between atoms: C33_39  and  C34_40 
REMARK       I    between atoms: C34_40  and  N1_42 
REMARK   13  A    between atoms: C37_46  and  O8_47 
REMARK   14  A    between atoms: C42_52  and  O9_53 
ROOT
HETATM    1  C5  UNL     1      -2.315  51.277 -25.948  1.00  0.00     0.122 C 
HETATM    2  C6  UNL     1      -1.422  51.876 -24.853  1.00  0.00     0.033 C 
HETATM    3  C7  UNL     1      -2.221  52.621 -23.787  1.00  0.00     0.013 C 
HETATM    4  C8  UNL     1      -3.371  51.791 -23.098  1.00  0.00    -0.026 C 
HETATM    5  C9  UNL     1      -4.611  52.731 -23.080  1.00  0.00     0.016 C 
HETATM    6  C10 UNL     1      -3.710  50.531 -23.941  1.00  0.00     0.071 C 
HETATM    7  C11 UNL     1      -3.707  50.873 -25.443  1.00  0.00     0.045 C 
HETATM    8  C12 UNL     1      -2.769  49.350 -23.718  1.00  0.00     0.154 C 
HETATM    9  O3  UNL     1      -2.662  48.433 -24.529  1.00  0.00    -0.293 OA
HETATM   10  C13 UNL     1      -2.008  49.243 -22.461  1.00  0.00     0.057 C 
HETATM   11  C14 UNL     1      -2.159  50.137 -21.476  1.00  0.00    -0.037 C 
HETATM   12  C15 UNL     1      -2.968  51.424 -21.616  1.00  0.00     0.026 C 
HETATM   13  C16 UNL     1      -4.096  51.412 -20.552  1.00  0.00     0.011 C 
HETATM   14  C17 UNL     1      -3.551  51.201 -19.119  1.00  0.00     0.014 C 
HETATM   15  C18 UNL     1      -2.741  49.884 -18.970  1.00  0.00     0.005 C 
HETATM   16  C25 UNL     1      -1.773  49.833 -17.710  1.00  0.00     0.034 C 
HETATM   17  C40 UNL     1      -0.665  48.831 -18.155  1.00  0.00     0.012 C 
HETATM   18  C41 UNL     1      -0.674  48.793 -19.698  1.00  0.00     0.044 C 
HETATM   19  C42 UNL     1      -1.601  49.943 -20.088  1.00  0.00     0.090 C 
ENDROOT
BRANCH  16  20
HETATM   20  C26 UNL     1      -2.180  49.786 -16.205  1.00  0.00     0.087 C 
HETATM   21  C27 UNL     1      -3.033  48.517 -15.940  1.00  0.00     0.049 C 
BRANCH  20  22
HETATM   22  O4  UNL     1      -3.128  50.880 -15.999  1.00  0.00    -0.387 OA
HETATM   23  H42 UNL     1      -3.807  50.821 -16.692  1.00  0.00     0.210 HD
ENDBRANCH  20  22
BRANCH  20  24
HETATM   24  C28 UNL     1      -1.144  49.934 -15.030  1.00  0.00     0.181 C 
BRANCH  24  25
HETATM   25  O5  UNL     1      -1.862  49.528 -13.837  1.00  0.00    -0.390 OA
HETATM   26  H44 UNL     1      -2.717  50.007 -13.925  1.00  0.00     0.210 HD
ENDBRANCH  24  25
BRANCH  24  27
HETATM   27  C29 UNL     1      -0.519  51.315 -14.720  1.00  0.00     0.158 C 
HETATM   28  O6  UNL     1      -1.264  51.992 -13.670  1.00  0.00    -0.373 OA
HETATM   29  C30 UNL     1      -0.324  52.567 -12.756  1.00  0.00     0.185 C 
HETATM   30  C31 UNL     1       0.822  51.586 -12.769  1.00  0.00     0.028 C 
HETATM   31  C37 UNL     1      -0.864  52.723 -11.324  1.00  0.00     0.384 C 
HETATM   32  C32 UNL     1       1.996  52.166 -11.999  1.00  0.00     0.053 C 
HETATM   33  C38 UNL     1       0.968  51.345 -14.261  1.00  0.00     0.020 C 
HETATM   34  C33 UNL     1       1.539  52.812 -10.664  1.00  0.00     0.309 C 
HETATM   35  N2  UNL     1       0.132  52.525 -10.269  1.00  0.00     0.128 N 
HETATM   36  H55 UNL     1       0.093  51.535 -10.014  1.00  0.00     0.320 HD
HETATM   37  C39 UNL     1       1.863  50.166 -14.605  1.00  0.00     0.013 C 
BRANCH  34  38
HETATM   38  C34 UNL     1       1.925  54.310 -10.594  1.00  0.00     0.233 C 
HETATM   39  O7  UNL     1       1.132  55.195 -10.920  1.00  0.00    -0.277 OA
HETATM   40  N1  UNL     1       3.251  54.559 -10.236  1.00  0.00    -0.249 NA
HETATM   41  C35 UNL     1       4.075  55.432 -11.014  1.00  0.00     0.113 A 
HETATM   42  C36 UNL     1       3.615  55.823  -9.657  1.00  0.00     0.113 A 
ENDBRANCH  34  38
BRANCH  31  43
HETATM   43  O8  UNL     1      -1.413  54.015 -11.150  1.00  0.00    -0.366 OA
HETATM   44  H57 UNL     1      -0.933  54.340 -10.367  1.00  0.00     0.212 HD
ENDBRANCH  31  43
ENDBRANCH  24  27
ENDBRANCH  20  24
ENDBRANCH  16  20
BRANCH  15  45
HETATM   45  C19 UNL     1      -3.700  48.591 -18.970  1.00  0.00    -0.002 C 
HETATM   46  C20 UNL     1      -5.188  48.893 -18.674  1.00  0.00     0.005 C 
HETATM   47  C21 UNL     1      -6.000  47.639 -18.321  1.00  0.00     0.000 C 
HETATM   48  C22 UNL     1      -5.391  46.348 -18.849  1.00  0.00     0.000 C 
HETATM   49  C23 UNL     1      -4.756  46.564 -20.211  1.00  0.00     0.000 C 
HETATM   50  C24 UNL     1      -3.677  47.659 -20.206  1.00  0.00     0.005 C 
ENDBRANCH  15  45
BRANCH  19  51
HETATM   51  O9  UNL     1      -0.787  51.125 -19.905  1.00  0.00    -0.384 OA
HETATM   52  H66 UNL     1      -0.067  51.090 -20.556  1.00  0.00     0.211 HD
ENDBRANCH  19  51
BRANCH   1  53
HETATM   53  O2  UNL     1      -2.499  52.239 -26.994  1.00  0.00    -0.386 OA
BRANCH  53  54
HETATM   54  C4  UNL     1      -1.260  52.792 -27.447  1.00  0.00     0.170 C 
BRANCH  54  55
HETATM   55  C3  UNL     1      -0.397  51.706 -28.074  1.00  0.00     0.052 C 
BRANCH  55  56
HETATM   56  C2  UNL     1       1.079  52.089 -28.129  1.00  0.00     0.169 C 
BRANCH  56  57
HETATM   57  O1  UNL     1       1.562  52.379 -26.811  1.00  0.00    -0.396 OA
HETATM   58  C1  UNL     1       2.454  51.382 -26.320  1.00  0.00     0.201 C 
ENDBRANCH  56  57
ENDBRANCH  55  56
ENDBRANCH  54  55
ENDBRANCH  53  54
ENDBRANCH   1  53
TORSDOF 14
ENDMDL
MODEL 8
REMARK minimizedAffinity -8.10997677
REMARK CNNscore 0.276586026
REMARK CNNaffinity 6.83243179
REMARK  14 active torsions:
REMARK  status: ('A' for Active; 'I' for Inactive)
REMARK    1  A    between atoms: O1_2  and  C2_3 
REMARK    2  A    between atoms: C2_3  and  C3_4 
REMARK    3  A    between atoms: C3_4  and  C4_5 
REMARK    4  A    between atoms: C4_5  and  O2_6 
REMARK    5  A    between atoms: O2_6  and  C5_7 
REMARK    6  A    between atoms: C18_21  and  C19_22 
REMARK    7  A    between atoms: C25_28  and  C26_29 
REMARK    8  A    between atoms: C26_29  and  O4_31 
REMARK    9  A    between atoms: C26_29  and  C28_32 
REMARK   10  A    between atoms: C28_32  and  O5_33 
REMARK   11  A    between atoms: C28_32  and  C29_34 
REMARK   12  A    between atoms: C33_39  and  C34_40 
REMARK       I    between atoms: C34_40  and  N1_42 
REMARK   13  A    between atoms: C37_46  and  O8_47 
REMARK   14  A    between atoms: C42_52  and  O9_53 
ROOT
HETATM    1  C5  UNL     1      -2.620  50.388 -22.931  1.00  0.00     0.122 C 
HETATM    2  C6  UNL     1      -3.866  51.062 -23.520  1.00  0.00     0.033 C 
HETATM    3  C7  UNL     1      -4.109  50.677 -24.977  1.00  0.00     0.013 C 
HETATM    4  C8  UNL     1      -4.193  49.129 -25.265  1.00  0.00    -0.026 C 
HETATM    5  C9  UNL     1      -3.310  48.890 -26.522  1.00  0.00     0.016 C 
HETATM    6  C10 UNL     1      -3.602  48.324 -24.075  1.00  0.00     0.071 C 
HETATM    7  C11 UNL     1      -2.330  49.010 -23.543  1.00  0.00     0.045 C 
HETATM    8  C12 UNL     1      -4.562  48.126 -22.906  1.00  0.00     0.154 C 
HETATM    9  O3  UNL     1      -4.173  47.843 -21.776  1.00  0.00    -0.293 OA
HETATM   10  C13 UNL     1      -6.017  48.195 -23.130  1.00  0.00     0.057 C 
HETATM   11  C14 UNL     1      -6.526  48.379 -24.354  1.00  0.00    -0.037 C 
HETATM   12  C15 UNL     1      -5.683  48.712 -25.582  1.00  0.00     0.026 C 
HETATM   13  C16 UNL     1      -5.903  47.604 -26.644  1.00  0.00     0.011 C 
HETATM   14  C17 UNL     1      -7.399  47.402 -26.983  1.00  0.00     0.014 C 
HETATM   15  C18 UNL     1      -8.257  47.047 -25.737  1.00  0.00     0.005 C 
HETATM   16  C25 UNL     1      -9.818  47.294 -25.907  1.00  0.00     0.034 C 
HETATM   17  C40 UNL     1     -10.300  47.532 -24.445  1.00  0.00     0.012 C 
HETATM   18  C41 UNL     1      -9.071  47.972 -23.623  1.00  0.00     0.044 C 
HETATM   19  C42 UNL     1      -7.990  48.211 -24.676  1.00  0.00     0.090 C 
ENDROOT
BRANCH  16  20
HETATM   20  C26 UNL     1     -10.803  46.523 -26.840  1.00  0.00     0.087 C 
HETATM   21  C27 UNL     1     -10.116  46.251 -28.204  1.00  0.00     0.049 C 
BRANCH  20  22
HETATM   22  O4  UNL     1     -11.870  47.462 -27.181  1.00  0.00    -0.387 OA
HETATM   23  H42 UNL     1     -11.455  48.289 -27.482  1.00  0.00     0.210 HD
ENDBRANCH  20  22
BRANCH  20  24
HETATM   24  C28 UNL     1     -11.555  45.213 -26.400  1.00  0.00     0.181 C 
BRANCH  24  25
HETATM   25  O5  UNL     1     -11.417  44.302 -27.520  1.00  0.00    -0.390 OA
HETATM   26  H44 UNL     1     -11.640  44.871 -28.291  1.00  0.00     0.210 HD
ENDBRANCH  24  25
BRANCH  24  27
HETATM   27  C29 UNL     1     -13.063  45.266 -26.057  1.00  0.00     0.158 C 
HETATM   28  O6  UNL     1     -13.866  45.280 -27.269  1.00  0.00    -0.373 OA
HETATM   29  C30 UNL     1     -14.960  44.374 -27.090  1.00  0.00     0.185 C 
HETATM   30  C31 UNL     1     -14.375  43.285 -26.227  1.00  0.00     0.028 C 
HETATM   31  C37 UNL     1     -15.494  43.776 -28.402  1.00  0.00     0.384 C 
HETATM   32  C32 UNL     1     -15.481  42.346 -25.775  1.00  0.00     0.053 C 
HETATM   33  C38 UNL     1     -13.642  44.112 -25.187  1.00  0.00     0.020 C 
HETATM   34  C33 UNL     1     -16.437  41.986 -26.943  1.00  0.00     0.309 C 
HETATM   35  N2  UNL     1     -15.966  42.394 -28.297  1.00  0.00     0.128 N 
HETATM   36  H55 UNL     1     -15.169  41.795 -28.524  1.00  0.00     0.320 HD
HETATM   37  C39 UNL     1     -12.693  43.303 -24.319  1.00  0.00     0.013 C 
BRANCH  34  38
HETATM   38  C34 UNL     1     -17.898  42.393 -26.631  1.00  0.00     0.233 C 
HETATM   39  O7  UNL     1     -18.160  43.273 -25.810  1.00  0.00    -0.277 OA
HETATM   40  N1  UNL     1     -18.871  41.623 -27.270  1.00  0.00    -0.249 NA
HETATM   41  C35 UNL     1     -19.952  41.040 -26.536  1.00  0.00     0.113 A 
HETATM   42  C36 UNL     1     -20.187  42.159 -27.484  1.00  0.00     0.113 A 
ENDBRANCH  34  38
BRANCH  31  43
HETATM   43  O8  UNL     1     -16.570  44.554 -28.889  1.00  0.00    -0.366 OA
HETATM   44  H57 UNL     1     -17.274  43.889 -28.995  1.00  0.00     0.212 HD
ENDBRANCH  31  43
ENDBRANCH  24  27
ENDBRANCH  20  24
ENDBRANCH  16  20
BRANCH  15  45
HETATM   45  C19 UNL     1      -7.998  45.535 -25.246  1.00  0.00    -0.002 C 
HETATM   46  C20 UNL     1      -8.893  45.079 -24.070  1.00  0.00     0.005 C 
HETATM   47  C21 UNL     1      -8.391  43.798 -23.390  1.00  0.00     0.000 C 
HETATM   48  C22 UNL     1      -7.503  42.941 -24.281  1.00  0.00     0.000 C 
HETATM   49  C23 UNL     1      -7.980  42.979 -25.722  1.00  0.00     0.000 C 
HETATM   50  C24 UNL     1      -8.043  44.402 -26.299  1.00  0.00     0.005 C 
ENDBRANCH  15  45
BRANCH  19  51
HETATM   51  O9  UNL     1      -8.339  49.493 -25.249  1.00  0.00    -0.384 OA
HETATM   52  H66 UNL     1      -8.230  50.164 -24.554  1.00  0.00     0.211 HD
ENDBRANCH  19  51
BRANCH   1  53
HETATM   53  O2  UNL     1      -1.473  51.214 -23.168  1.00  0.00    -0.386 OA
BRANCH  53  54
HETATM   54  C4  UNL     1      -1.429  51.708 -24.509  1.00  0.00     0.170 C 
BRANCH  54  55
HETATM   55  C3  UNL     1      -0.334  52.756 -24.649  1.00  0.00     0.052 C 
BRANCH  55  56
HETATM   56  C2  UNL     1       1.040  52.140 -24.894  1.00  0.00     0.169 C 
BRANCH  56  57
HETATM   57  O1  UNL     1       1.622  52.690 -26.084  1.00  0.00    -0.396 OA
HETATM   58  C1  UNL     1       2.072  51.689 -26.990  1.00  0.00     0.201 C 
ENDBRANCH  56  57
ENDBRANCH  55  56
ENDBRANCH  54  55
ENDBRANCH  53  54
ENDBRANCH   1  53
TORSDOF 14
ENDMDL
MODEL 9
REMARK minimizedAffinity -9.84695148
REMARK CNNscore 0.270477772
REMARK CNNaffinity 7.21799803
REMARK  14 active torsions:
REMARK  status: ('A' for Active; 'I' for Inactive)
REMARK    1  A    between atoms: O1_2  and  C2_3 
REMARK    2  A    between atoms: C2_3  and  C3_4 
REMARK    3  A    between atoms: C3_4  and  C4_5 
REMARK    4  A    between atoms: C4_5  and  O2_6 
REMARK    5  A    between atoms: O2_6  and  C5_7 
REMARK    6  A    between atoms: C18_21  and  C19_22 
REMARK    7  A    between atoms: C25_28  and  C26_29 
REMARK    8  A    between atoms: C26_29  and  O4_31 
REMARK    9  A    between atoms: C26_29  and  C28_32 
REMARK   10  A    between atoms: C28_32  and  O5_33 
REMARK   11  A    between atoms: C28_32  and  C29_34 
REMARK   12  A    between atoms: C33_39  and  C34_40 
REMARK       I    between atoms: C34_40  and  N1_42 
REMARK   13  A    between atoms: C37_46  and  O8_47 
REMARK   14  A    between atoms: C42_52  and  O9_53 
ROOT
HETATM    1  C5  UNL     1      -1.486  52.710 -24.612  1.00  0.00     0.122 C 
HETATM    2  C6  UNL     1      -3.013  52.837 -24.692  1.00  0.00     0.033 C 
HETATM    3  C7  UNL     1      -3.671  51.617 -25.332  1.00  0.00     0.013 C 
HETATM    4  C8  UNL     1      -3.318  50.230 -24.670  1.00  0.00    -0.026 C 
HETATM    5  C9  UNL     1      -2.993  49.275 -25.854  1.00  0.00     0.016 C 
HETATM    6  C10 UNL     1      -2.057  50.364 -23.773  1.00  0.00     0.071 C 
HETATM    7  C11 UNL     1      -1.006  51.260 -24.454  1.00  0.00     0.045 C 
HETATM    8  C12 UNL     1      -2.329  50.922 -22.379  1.00  0.00     0.154 C 
HETATM    9  O3  UNL     1      -1.445  51.420 -21.686  1.00  0.00    -0.293 OA
HETATM   10  C13 UNL     1      -3.675  50.803 -21.789  1.00  0.00     0.057 C 
HETATM   11  C14 UNL     1      -4.663  50.166 -22.429  1.00  0.00    -0.037 C 
HETATM   12  C15 UNL     1      -4.561  49.674 -23.871  1.00  0.00     0.026 C 
HETATM   13  C16 UNL     1      -4.787  48.140 -23.882  1.00  0.00     0.011 C 
HETATM   14  C17 UNL     1      -6.119  47.737 -23.205  1.00  0.00     0.014 C 
HETATM   15  C18 UNL     1      -6.219  48.223 -21.733  1.00  0.00     0.005 C 
HETATM   16  C25 UNL     1      -7.695  48.274 -21.144  1.00  0.00     0.034 C 
HETATM   17  C40 UNL     1      -7.596  49.367 -20.037  1.00  0.00     0.012 C 
HETATM   18  C41 UNL     1      -6.379  50.252 -20.375  1.00  0.00     0.044 C 
HETATM   19  C42 UNL     1      -5.972  49.801 -21.777  1.00  0.00     0.090 C 
ENDROOT
BRANCH  16  20
HETATM   20  C26 UNL     1      -8.634  47.067 -20.838  1.00  0.00     0.087 C 
HETATM   21  C27 UNL     1      -9.922  47.578 -20.141  1.00  0.00     0.049 C 
BRANCH  20  22
HETATM   22  O4  UNL     1      -7.973  46.282 -19.796  1.00  0.00    -0.387 OA
HETATM   23  H42 UNL     1      -7.712  46.892 -19.085  1.00  0.00     0.210 HD
ENDBRANCH  20  22
BRANCH  20  24
HETATM   24  C28 UNL     1      -9.052  46.008 -21.924  1.00  0.00     0.181 C 
BRANCH  24  25
HETATM   25  O5  UNL     1      -7.809  45.586 -22.541  1.00  0.00    -0.390 OA
HETATM   26  H44 UNL     1      -7.349  46.440 -22.706  1.00  0.00     0.210 HD
ENDBRANCH  24  25
BRANCH  24  27
HETATM   27  C29 UNL     1     -10.001  46.415 -23.076  1.00  0.00     0.158 C 
HETATM   28  O6  UNL     1      -9.651  47.729 -23.591  1.00  0.00    -0.373 OA
HETATM   29  C30 UNL     1      -9.692  47.673 -25.021  1.00  0.00     0.185 C 
HETATM   30  C31 UNL     1      -9.242  46.268 -25.330  1.00  0.00     0.028 C 
HETATM   31  C37 UNL     1      -8.761  48.686 -25.710  1.00  0.00     0.384 C 
HETATM   32  C32 UNL     1      -9.433  45.987 -26.811  1.00  0.00     0.053 C 
HETATM   33  C38 UNL     1     -10.061  45.483 -24.321  1.00  0.00     0.020 C 
HETATM   34  C33 UNL     1      -8.941  47.172 -27.683  1.00  0.00     0.309 C 
HETATM   35  N2  UNL     1      -8.160  48.213 -26.958  1.00  0.00     0.128 N 
HETATM   36  H55 UNL     1      -7.264  47.788 -26.708  1.00  0.00     0.320 HD
HETATM   37  C39 UNL     1      -9.624  44.035 -24.173  1.00  0.00     0.013 C 
BRANCH  34  38
HETATM   38  C34 UNL     1     -10.077  47.736 -28.572  1.00  0.00     0.233 C 
HETATM   39  O7  UNL     1      -9.853  48.572 -29.448  1.00  0.00    -0.277 OA
HETATM   40  N1  UNL     1     -11.359  47.300 -28.235  1.00  0.00    -0.249 NA
HETATM   41  C35 UNL     1     -12.430  48.229 -28.045  1.00  0.00     0.113 A 
HETATM   42  C36 UNL     1     -12.408  47.316 -29.216  1.00  0.00     0.113 A 
ENDBRANCH  34  38
BRANCH  31  43
HETATM   43  O8  UNL     1      -9.468  49.874 -26.005  1.00  0.00    -0.366 OA
HETATM   44  H57 UNL     1      -9.308  49.978 -26.960  1.00  0.00     0.212 HD
ENDBRANCH  31  43
ENDBRANCH  24  27
ENDBRANCH  20  24
ENDBRANCH  16  20
BRANCH  15  45
HETATM   45  C19 UNL     1      -5.274  47.362 -20.755  1.00  0.00    -0.002 C 
HETATM   46  C20 UNL     1      -4.829  45.995 -21.329  1.00  0.00     0.005 C 
HETATM   47  C21 UNL     1      -4.250  45.053 -20.265  1.00  0.00     0.000 C 
HETATM   48  C22 UNL     1      -3.715  45.774 -19.036  1.00  0.00     0.000 C 
HETATM   49  C23 UNL     1      -3.059  47.088 -19.420  1.00  0.00     0.000 C 
HETATM   50  C24 UNL     1      -4.003  48.033 -20.181  1.00  0.00     0.005 C 
ENDBRANCH  15  45
BRANCH  19  51
HETATM   51  O9  UNL     1      -6.946  50.431 -22.642  1.00  0.00    -0.384 OA
HETATM   52  H66 UNL     1      -6.808  51.392 -22.587  1.00  0.00     0.211 HD
ENDBRANCH  19  51
BRANCH   1  53
HETATM   53  O2  UNL     1      -0.900  53.229 -25.812  1.00  0.00    -0.386 OA
BRANCH  53  54
HETATM   54  C4  UNL     1      -0.830  52.248 -26.850  1.00  0.00     0.170 C 
BRANCH  54  55
HETATM   55  C3  UNL     1       0.097  52.722 -27.961  1.00  0.00     0.052 C 
BRANCH  55  56
HETATM   56  C2  UNL     1       1.308  51.811 -28.142  1.00  0.00     0.169 C 
BRANCH  56  57
HETATM   57  O1  UNL     1       2.330  52.156 -27.197  1.00  0.00    -0.396 OA
HETATM   58  C1  UNL     1       2.530  51.149 -26.210  1.00  0.00     0.201 C 
ENDBRANCH  56  57
ENDBRANCH  55  56
ENDBRANCH  54  55
ENDBRANCH  53  54
ENDBRANCH   1  53
TORSDOF 14
ENDMDL
