MODEL 1
REMARK minimizedAffinity -7.71378374
REMARK CNNscore 0.305893213
REMARK CNNaffinity 5.45894241
REMARK  19 active torsions:
REMARK  status: ('A' for Active; 'I' for Inactive)
REMARK    1  A    between atoms: C19_20  and  O2_21 
REMARK    2  A    between atoms: C19_20  and  C20_22 
REMARK    3  A    between atoms: C20_22  and  C21_24 
REMARK    4  A    between atoms: C21_24  and  O4_25 
REMARK    5  A    between atoms: O4_25  and  C22_26 
REMARK    6  A    between atoms: C22_26  and  C23_28 
REMARK    7  A    between atoms: C23_28  and  C24_29 
REMARK    8  A    between atoms: C24_29  and  C25_30 
REMARK       I    between atoms: C25_30  and  N1_32 
REMARK    9  A    between atoms: N1_32  and  C26_33 
REMARK   10  A    between atoms: C26_33  and  C27_34 
REMARK   11  A    between atoms: C27_34  and  C28_35 
REMARK   12  A    between atoms: C28_35  and  C29_36 
REMARK   13  A    between atoms: C29_36  and  C30_37 
REMARK   14  A    between atoms: C30_37  and  C31_38 
REMARK       I    between atoms: C31_38  and  N2_40 
REMARK   15  A    between atoms: N2_40  and  C32_41 
REMARK   16  A    between atoms: C32_41  and  C33_42 
REMARK   17  A    between atoms: C32_41  and  C40_49 
REMARK   18  A    between atoms: C33_42  and  C34_43 
REMARK   19  A    between atoms: C40_49  and  O9_51 
ROOT
HETATM    1  C22 UNL     1     -11.191  45.325 -27.330  1.00  0.00     0.259 C 
HETATM    2  O5  UNL     1     -11.474  46.404 -27.830  1.00  0.00    -0.265 OA
ENDROOT
BRANCH   1   3
HETATM    3  O4  UNL     1     -11.824  44.782 -26.252  1.00  0.00    -0.314 OA
BRANCH   3   4
HETATM    4  C21 UNL     1     -13.196  44.493 -26.453  1.00  0.00     0.260 C 
BRANCH   4   5
HETATM    5  C20 UNL     1     -14.112  44.160 -25.275  1.00  0.00     0.185 C 
HETATM    6  O3  UNL     1     -14.108  43.008 -24.810  1.00  0.00    -0.292 OA
BRANCH   5   7
HETATM    7  C19 UNL     1     -15.139  45.166 -24.713  1.00  0.00     0.128 C 
HETATM    8  C14 UNL     1     -16.546  45.191 -25.377  1.00  0.00    -0.002 C 
HETATM    9  C13 UNL     1     -17.328  43.882 -25.190  1.00  0.00     0.013 C 
HETATM   10  C15 UNL     1     -16.478  45.468 -26.905  1.00  0.00     0.019 C 
HETATM   11  C16 UNL     1     -17.215  46.436 -24.699  1.00  0.00     0.002 C 
HETATM   12  C12 UNL     1     -18.826  44.116 -25.081  1.00  0.00     0.007 C 
HETATM   13  C11 UNL     1     -19.200  44.900 -23.811  1.00  0.00     0.002 C 
HETATM   14  C2  UNL     1     -19.505  43.997 -22.522  1.00  0.00    -0.016 C 
HETATM   15  C10 UNL     1     -18.339  46.195 -23.636  1.00  0.00    -0.004 C 
HETATM   16  C1  UNL     1     -21.006  43.599 -22.606  1.00  0.00     0.020 C 
HETATM   17  C3  UNL     1     -18.646  42.706 -22.435  1.00  0.00     0.022 C 
HETATM   18  C7  UNL     1     -19.302  44.731 -21.196  1.00  0.00    -0.068 C 
HETATM   19  C4  UNL     1     -18.970  41.828 -21.224  1.00  0.00     0.084 C 
HETATM   20  C5  UNL     1     -19.042  42.621 -19.943  1.00  0.00     0.149 C 
HETATM   21  O1  UNL     1     -19.060  42.077 -18.842  1.00  0.00    -0.293 OA
HETATM   22  C6  UNL     1     -19.107  44.099 -20.024  1.00  0.00     0.053 C 
HETATM   23  C8  UNL     1     -19.187  46.220 -21.263  1.00  0.00     0.035 C 
HETATM   24  C9  UNL     1     -18.012  46.537 -22.178  1.00  0.00     0.010 C 
HETATM   25  C17 UNL     1     -16.038  47.353 -24.268  1.00  0.00     0.009 C 
HETATM   26  C18 UNL     1     -14.748  46.636 -24.675  1.00  0.00     0.047 C 
BRANCH   7  27
HETATM   27  O2  UNL     1     -15.312  44.785 -23.321  1.00  0.00    -0.381 OA
HETATM   28  H27 UNL     1     -14.963  43.871 -23.233  1.00  0.00     0.211 HD
ENDBRANCH   7  27
ENDBRANCH   5   7
ENDBRANCH   4   5
ENDBRANCH   3   4
ENDBRANCH   1   3
BRANCH   1  29
HETATM   29  C23 UNL     1     -10.089  44.412 -27.794  1.00  0.00     0.120 C 
BRANCH  29  30
HETATM   30  C24 UNL     1      -9.548  44.856 -29.146  1.00  0.00     0.112 C 
BRANCH  30  31
HETATM   31  C25 UNL     1      -8.267  45.647 -28.985  1.00  0.00     0.217 C 
HETATM   32  O6  UNL     1      -7.163  45.124 -28.868  1.00  0.00    -0.274 OA
HETATM   33  N1  UNL     1      -8.474  47.008 -28.966  1.00  0.00    -0.361 N 
HETATM   34  H34 UNL     1      -9.407  47.373 -29.111  1.00  0.00     0.162 HD
BRANCH  33  35
HETATM   35  C26 UNL     1      -7.384  47.948 -28.793  1.00  0.00     0.122 C 
BRANCH  35  36
HETATM   36  C27 UNL     1      -6.061  47.243 -28.495  1.00  0.00     0.020 C 
BRANCH  36  37
HETATM   37  C28 UNL     1      -4.881  48.211 -28.341  1.00  0.00     0.002 C 
BRANCH  37  38
HETATM   38  C29 UNL     1      -4.510  48.494 -26.882  1.00  0.00     0.009 C 
BRANCH  38  39
HETATM   39  C30 UNL     1      -3.015  48.762 -26.706  1.00  0.00     0.103 C 
BRANCH  39  40
HETATM   40  C31 UNL     1      -2.608  50.197 -26.990  1.00  0.00     0.218 C 
HETATM   41  O7  UNL     1      -3.204  50.940 -27.761  1.00  0.00    -0.274 OA
HETATM   42  N2  UNL     1      -1.478  50.575 -26.293  1.00  0.00    -0.346 N 
HETATM   43  H45 UNL     1      -0.888  49.822 -25.950  1.00  0.00     0.163 HD
BRANCH  42  44
HETATM   44  C32 UNL     1      -0.776  51.824 -26.626  1.00  0.00     0.186 C 
BRANCH  44  45
HETATM   45  C33 UNL     1      -0.603  52.685 -25.368  1.00  0.00     0.074 C 
BRANCH  45  46
HETATM   46  C34 UNL     1      -1.406  52.205 -24.184  1.00  0.00    -0.056 A 
HETATM   47  C35 UNL     1      -2.744  52.593 -24.028  1.00  0.00     0.007 A 
HETATM   48  C36 UNL     1      -3.482  52.162 -22.926  1.00  0.00     0.001 A 
HETATM   49  C37 UNL     1      -2.891  51.340 -21.968  1.00  0.00     0.000 A 
HETATM   50  C38 UNL     1      -1.563  50.947 -22.112  1.00  0.00     0.001 A 
HETATM   51  C39 UNL     1      -0.823  51.375 -23.215  1.00  0.00     0.007 A 
ENDBRANCH  45  46
ENDBRANCH  44  45
BRANCH  44  52
HETATM   52  C40 UNL     1       0.591  51.418 -27.174  1.00  0.00     0.163 C 
HETATM   53  O8  UNL     1       1.003  51.660 -28.301  1.00  0.00    -0.648 OA
BRANCH  52  54
HETATM   54  O9  UNL     1       1.347  50.733 -26.297  1.00  0.00    -0.775 OA
HETATM   55  H54 UNL     1       2.182  50.550 -26.777  1.00  0.00     0.167 HD
ENDBRANCH  52  54
ENDBRANCH  44  52
ENDBRANCH  42  44
ENDBRANCH  39  40
ENDBRANCH  38  39
ENDBRANCH  37  38
ENDBRANCH  36  37
ENDBRANCH  35  36
ENDBRANCH  33  35
ENDBRANCH  30  31
ENDBRANCH  29  30
ENDBRANCH   1  29
TORSDOF 19
ENDMDL
MODEL 2
REMARK minimizedAffinity -8.0638752
REMARK CNNscore 0.286567301
REMARK CNNaffinity 6.49985504
REMARK  19 active torsions:
REMARK  status: ('A' for Active; 'I' for Inactive)
REMARK    1  A    between atoms: C19_20  and  O2_21 
REMARK    2  A    between atoms: C19_20  and  C20_22 
REMARK    3  A    between atoms: C20_22  and  C21_24 
REMARK    4  A    between atoms: C21_24  and  O4_25 
REMARK    5  A    between atoms: O4_25  and  C22_26 
REMARK    6  A    between atoms: C22_26  and  C23_28 
REMARK    7  A    between atoms: C23_28  and  C24_29 
REMARK    8  A    between atoms: C24_29  and  C25_30 
REMARK       I    between atoms: C25_30  and  N1_32 
REMARK    9  A    between atoms: N1_32  and  C26_33 
REMARK   10  A    between atoms: C26_33  and  C27_34 
REMARK   11  A    between atoms: C27_34  and  C28_35 
REMARK   12  A    between atoms: C28_35  and  C29_36 
REMARK   13  A    between atoms: C29_36  and  C30_37 
REMARK   14  A    between atoms: C30_37  and  C31_38 
REMARK       I    between atoms: C31_38  and  N2_40 
REMARK   15  A    between atoms: N2_40  and  C32_41 
REMARK   16  A    between atoms: C32_41  and  C33_42 
REMARK   17  A    between atoms: C32_41  and  C40_49 
REMARK   18  A    between atoms: C33_42  and  C34_43 
REMARK   19  A    between atoms: C40_49  and  O9_51 
ROOT
HETATM    1  C22 UNL     1      -5.303  48.046 -29.354  1.00  0.00     0.259 C 
HETATM    2  O5  UNL     1      -4.584  47.420 -30.118  1.00  0.00    -0.265 OA
ENDROOT
BRANCH   1   3
HETATM    3  O4  UNL     1      -4.858  48.953 -28.440  1.00  0.00    -0.314 OA
BRANCH   3   4
HETATM    4  C21 UNL     1      -3.932  48.442 -27.499  1.00  0.00     0.260 C 
BRANCH   4   5
HETATM    5  C20 UNL     1      -4.052  48.780 -26.011  1.00  0.00     0.185 C 
HETATM    6  O3  UNL     1      -5.122  48.553 -25.423  1.00  0.00    -0.292 OA
BRANCH   5   7
HETATM    7  C19 UNL     1      -2.935  49.507 -25.234  1.00  0.00     0.128 C 
HETATM    8  C14 UNL     1      -3.310  50.849 -24.541  1.00  0.00    -0.002 C 
HETATM    9  C13 UNL     1      -4.348  50.683 -23.420  1.00  0.00     0.013 C 
HETATM   10  C15 UNL     1      -3.878  51.895 -25.539  1.00  0.00     0.019 C 
HETATM   11  C16 UNL     1      -1.916  51.372 -24.047  1.00  0.00     0.002 C 
HETATM   12  C12 UNL     1      -4.140  51.678 -22.290  1.00  0.00     0.007 C 
HETATM   13  C11 UNL     1      -2.817  51.439 -21.543  1.00  0.00     0.002 C 
HETATM   14  C2  UNL     1      -2.913  50.434 -20.298  1.00  0.00    -0.016 C 
HETATM   15  C10 UNL     1      -1.597  51.318 -22.515  1.00  0.00    -0.004 C 
HETATM   16  C1  UNL     1      -3.344  51.289 -19.072  1.00  0.00     0.020 C 
HETATM   17  C3  UNL     1      -3.935  49.281 -20.492  1.00  0.00     0.022 C 
HETATM   18  C7  UNL     1      -1.584  49.766 -19.943  1.00  0.00    -0.068 C 
HETATM   19  C4  UNL     1      -4.053  48.349 -19.284  1.00  0.00     0.084 C 
HETATM   20  C5  UNL     1      -2.706  47.912 -18.763  1.00  0.00     0.149 C 
HETATM   21  O1  UNL     1      -2.587  46.992 -17.958  1.00  0.00    -0.293 OA
HETATM   22  C6  UNL     1      -1.496  48.628 -19.232  1.00  0.00     0.053 C 
HETATM   23  C8  UNL     1      -0.352  50.362 -20.544  1.00  0.00     0.035 C 
HETATM   24  C9  UNL     1      -0.527  50.321 -22.056  1.00  0.00     0.010 C 
HETATM   25  C17 UNL     1      -0.873  50.724 -24.996  1.00  0.00     0.009 C 
HETATM   26  C18 UNL     1      -1.654  49.849 -25.981  1.00  0.00     0.047 C 
BRANCH   7  27
HETATM   27  O2  UNL     1      -2.529  48.571 -24.199  1.00  0.00    -0.381 OA
HETATM   28  H27 UNL     1      -3.248  47.905 -24.124  1.00  0.00     0.211 HD
ENDBRANCH   7  27
ENDBRANCH   5   7
ENDBRANCH   4   5
ENDBRANCH   3   4
ENDBRANCH   1   3
BRANCH   1  29
HETATM   29  C23 UNL     1      -6.800  47.920 -29.268  1.00  0.00     0.120 C 
BRANCH  29  30
HETATM   30  C24 UNL     1      -7.202  46.972 -28.147  1.00  0.00     0.112 C 
BRANCH  30  31
HETATM   31  C25 UNL     1      -8.546  47.357 -27.566  1.00  0.00     0.217 C 
HETATM   32  O6  UNL     1      -8.839  48.506 -27.250  1.00  0.00    -0.274 OA
HETATM   33  N1  UNL     1      -9.394  46.283 -27.413  1.00  0.00    -0.361 N 
HETATM   34  H34 UNL     1      -9.103  45.368 -27.735  1.00  0.00     0.162 HD
BRANCH  33  35
HETATM   35  C26 UNL     1     -10.721  46.427 -26.848  1.00  0.00     0.122 C 
BRANCH  35  36
HETATM   36  C27 UNL     1     -11.797  46.536 -27.928  1.00  0.00     0.020 C 
BRANCH  36  37
HETATM   37  C28 UNL     1     -12.982  45.591 -27.698  1.00  0.00     0.002 C 
BRANCH  37  38
HETATM   38  C29 UNL     1     -14.220  46.291 -27.126  1.00  0.00     0.009 C 
BRANCH  38  39
HETATM   39  C30 UNL     1     -14.132  46.479 -25.612  1.00  0.00     0.103 C 
BRANCH  39  40
HETATM   40  C31 UNL     1     -15.465  46.784 -24.950  1.00  0.00     0.218 C 
HETATM   41  O7  UNL     1     -15.746  47.860 -24.435  1.00  0.00    -0.274 OA
HETATM   42  N2  UNL     1     -16.329  45.707 -24.980  1.00  0.00    -0.346 N 
HETATM   43  H45 UNL     1     -15.907  44.795 -25.125  1.00  0.00     0.163 HD
BRANCH  42  44
HETATM   44  C32 UNL     1     -17.557  45.712 -24.169  1.00  0.00     0.186 C 
BRANCH  44  45
HETATM   45  C33 UNL     1     -17.337  46.515 -22.880  1.00  0.00     0.074 C 
BRANCH  45  46
HETATM   46  C34 UNL     1     -18.088  45.976 -21.688  1.00  0.00    -0.056 A 
HETATM   47  C35 UNL     1     -18.369  46.804 -20.592  1.00  0.00     0.007 A 
HETATM   48  C36 UNL     1     -19.050  46.302 -19.482  1.00  0.00     0.001 A 
HETATM   49  C37 UNL     1     -19.457  44.969 -19.457  1.00  0.00     0.000 A 
HETATM   50  C38 UNL     1     -19.185  44.138 -20.541  1.00  0.00     0.001 A 
HETATM   51  C39 UNL     1     -18.505  44.638 -21.652  1.00  0.00     0.007 A 
ENDBRANCH  45  46
ENDBRANCH  44  45
BRANCH  44  52
HETATM   52  C40 UNL     1     -18.634  46.379 -25.023  1.00  0.00     0.163 C 
HETATM   53  O8  UNL     1     -19.279  45.829 -25.907  1.00  0.00    -0.648 OA
BRANCH  52  54
HETATM   54  O9  UNL     1     -18.833  47.678 -24.732  1.00  0.00    -0.775 OA
HETATM   55  H54 UNL     1     -19.543  47.964 -25.344  1.00  0.00     0.167 HD
ENDBRANCH  52  54
ENDBRANCH  44  52
ENDBRANCH  42  44
ENDBRANCH  39  40
ENDBRANCH  38  39
ENDBRANCH  37  38
ENDBRANCH  36  37
ENDBRANCH  35  36
ENDBRANCH  33  35
ENDBRANCH  30  31
ENDBRANCH  29  30
ENDBRANCH   1  29
TORSDOF 19
ENDMDL
MODEL 3
REMARK minimizedAffinity -8.01832676
REMARK CNNscore 0.275981337
REMARK CNNaffinity 6.81023979
REMARK  19 active torsions:
REMARK  status: ('A' for Active; 'I' for Inactive)
REMARK    1  A    between atoms: C19_20  and  O2_21 
REMARK    2  A    between atoms: C19_20  and  C20_22 
REMARK    3  A    between atoms: C20_22  and  C21_24 
REMARK    4  A    between atoms: C21_24  and  O4_25 
REMARK    5  A    between atoms: O4_25  and  C22_26 
REMARK    6  A    between atoms: C22_26  and  C23_28 
REMARK    7  A    between atoms: C23_28  and  C24_29 
REMARK    8  A    between atoms: C24_29  and  C25_30 
REMARK       I    between atoms: C25_30  and  N1_32 
REMARK    9  A    between atoms: N1_32  and  C26_33 
REMARK   10  A    between atoms: C26_33  and  C27_34 
REMARK   11  A    between atoms: C27_34  and  C28_35 
REMARK   12  A    between atoms: C28_35  and  C29_36 
REMARK   13  A    between atoms: C29_36  and  C30_37 
REMARK   14  A    between atoms: C30_37  and  C31_38 
REMARK       I    between atoms: C31_38  and  N2_40 
REMARK   15  A    between atoms: N2_40  and  C32_41 
REMARK   16  A    between atoms: C32_41  and  C33_42 
REMARK   17  A    between atoms: C32_41  and  C40_49 
REMARK   18  A    between atoms: C33_42  and  C34_43 
REMARK   19  A    between atoms: C40_49  and  O9_51 
ROOT
HETATM    1  C22 UNL     1      -0.043  51.213 -21.701  1.00  0.00     0.259 C 
HETATM    2  O5  UNL     1      -0.185  50.230 -20.989  1.00  0.00    -0.265 OA
ENDROOT
BRANCH   1   3
HETATM    3  O4  UNL     1      -0.790  51.479 -22.809  1.00  0.00    -0.314 OA
BRANCH   3   4
HETATM    4  C21 UNL     1      -2.023  52.125 -22.553  1.00  0.00     0.260 C 
BRANCH   4   5
HETATM    5  C20 UNL     1      -3.147  51.411 -21.800  1.00  0.00     0.185 C 
HETATM    6  O3  UNL     1      -3.170  51.457 -20.559  1.00  0.00    -0.292 OA
BRANCH   5   7
HETATM    7  C19 UNL     1      -4.190  50.526 -22.514  1.00  0.00     0.128 C 
HETATM    8  C14 UNL     1      -3.928  48.992 -22.532  1.00  0.00    -0.002 C 
HETATM    9  C13 UNL     1      -3.954  48.356 -21.134  1.00  0.00     0.013 C 
HETATM   10  C15 UNL     1      -2.560  48.630 -23.174  1.00  0.00     0.019 C 
HETATM   11  C16 UNL     1      -5.054  48.470 -23.491  1.00  0.00     0.002 C 
HETATM   12  C12 UNL     1      -4.490  46.934 -21.157  1.00  0.00     0.007 C 
HETATM   13  C11 UNL     1      -5.973  46.880 -21.564  1.00  0.00     0.002 C 
HETATM   14  C2  UNL     1      -7.013  46.981 -20.349  1.00  0.00    -0.016 C 
HETATM   15  C10 UNL     1      -6.261  47.690 -22.871  1.00  0.00    -0.004 C 
HETATM   16  C1  UNL     1      -7.204  45.535 -19.809  1.00  0.00     0.020 C 
HETATM   17  C3  UNL     1      -6.542  47.894 -19.185  1.00  0.00     0.022 C 
HETATM   18  C7  UNL     1      -8.392  47.498 -20.762  1.00  0.00    -0.068 C 
HETATM   19  C4  UNL     1      -7.521  47.954 -18.010  1.00  0.00     0.084 C 
HETATM   20  C5  UNL     1      -8.941  48.192 -18.459  1.00  0.00     0.149 C 
HETATM   21  O1  UNL     1      -9.830  48.501 -17.669  1.00  0.00    -0.293 OA
HETATM   22  C6  UNL     1      -9.269  48.035 -19.895  1.00  0.00     0.053 C 
HETATM   23  C8  UNL     1      -8.691  47.516 -22.227  1.00  0.00     0.035 C 
HETATM   24  C9  UNL     1      -7.629  48.382 -22.890  1.00  0.00     0.010 C 
HETATM   25  C17 UNL     1      -5.403  49.673 -24.409  1.00  0.00     0.009 C 
HETATM   26  C18 UNL     1      -4.514  50.839 -23.968  1.00  0.00     0.047 C 
BRANCH   7  27
HETATM   27  O2  UNL     1      -5.431  50.756 -21.793  1.00  0.00    -0.381 OA
HETATM   28  H27 UNL     1      -5.186  51.160 -20.932  1.00  0.00     0.211 HD
ENDBRANCH   7  27
ENDBRANCH   5   7
ENDBRANCH   4   5
ENDBRANCH   3   4
ENDBRANCH   1   3
BRANCH   1  29
HETATM   29  C23 UNL     1       0.985  52.292 -21.500  1.00  0.00     0.120 C 
BRANCH  29  30
HETATM   30  C24 UNL     1       0.422  53.429 -20.658  1.00  0.00     0.112 C 
BRANCH  30  31
HETATM   31  C25 UNL     1       0.114  52.962 -19.252  1.00  0.00     0.217 C 
HETATM   32  O6  UNL     1      -1.020  52.708 -18.860  1.00  0.00    -0.274 OA
HETATM   33  N1  UNL     1       1.235  52.872 -18.457  1.00  0.00    -0.361 N 
HETATM   34  H34 UNL     1       2.147  53.056 -18.858  1.00  0.00     0.162 HD
BRANCH  33  35
HETATM   35  C26 UNL     1       1.159  52.470 -17.066  1.00  0.00     0.122 C 
BRANCH  35  36
HETATM   36  C27 UNL     1       0.794  50.994 -16.914  1.00  0.00     0.020 C 
BRANCH  36  37
HETATM   37  C28 UNL     1       0.737  50.533 -15.453  1.00  0.00     0.002 C 
BRANCH  37  38
HETATM   38  C29 UNL     1       1.289  51.565 -14.464  1.00  0.00     0.009 C 
BRANCH  38  39
HETATM   39  C30 UNL     1       2.606  51.117 -13.831  1.00  0.00     0.103 C 
BRANCH  39  40
HETATM   40  C31 UNL     1       2.785  51.572 -12.393  1.00  0.00     0.218 C 
HETATM   41  O7  UNL     1       3.328  50.901 -11.523  1.00  0.00    -0.274 OA
HETATM   42  N2  UNL     1       2.258  52.828 -12.165  1.00  0.00    -0.346 N 
HETATM   43  H45 UNL     1       1.565  53.152 -12.834  1.00  0.00     0.163 HD
BRANCH  42  44
HETATM   44  C32 UNL     1       2.096  53.333 -10.793  1.00  0.00     0.186 C 
BRANCH  44  45
HETATM   45  C33 UNL     1       2.952  54.590 -10.589  1.00  0.00     0.074 C 
BRANCH  45  46
HETATM   46  C34 UNL     1       4.314  54.315 -10.001  1.00  0.00    -0.056 A 
HETATM   47  C35 UNL     1       4.607  53.062  -9.444  1.00  0.00     0.007 A 
HETATM   48  C36 UNL     1       5.861  52.811  -8.886  1.00  0.00     0.001 A 
HETATM   49  C37 UNL     1       6.834  53.809  -8.879  1.00  0.00     0.000 A 
HETATM   50  C38 UNL     1       6.555  55.057  -9.432  1.00  0.00     0.001 A 
HETATM   51  C39 UNL     1       5.302  55.309  -9.992  1.00  0.00     0.007 A 
ENDBRANCH  45  46
ENDBRANCH  44  45
BRANCH  44  52
HETATM   52  C40 UNL     1       0.616  53.676 -10.632  1.00  0.00     0.163 C 
HETATM   53  O8  UNL     1      -0.303  52.868 -10.636  1.00  0.00    -0.648 OA
BRANCH  52  54
HETATM   54  O9  UNL     1       0.375  54.992 -10.486  1.00  0.00    -0.775 OA
HETATM   55  H54 UNL     1      -0.598  55.057 -10.388  1.00  0.00     0.167 HD
ENDBRANCH  52  54
ENDBRANCH  44  52
ENDBRANCH  42  44
ENDBRANCH  39  40
ENDBRANCH  38  39
ENDBRANCH  37  38
ENDBRANCH  36  37
ENDBRANCH  35  36
ENDBRANCH  33  35
ENDBRANCH  30  31
ENDBRANCH  29  30
ENDBRANCH   1  29
TORSDOF 19
ENDMDL
MODEL 4
REMARK minimizedAffinity -7.74815273
REMARK CNNscore 0.274896294
REMARK CNNaffinity 6.55047226
REMARK  19 active torsions:
REMARK  status: ('A' for Active; 'I' for Inactive)
REMARK    1  A    between atoms: C19_20  and  O2_21 
REMARK    2  A    between atoms: C19_20  and  C20_22 
REMARK    3  A    between atoms: C20_22  and  C21_24 
REMARK    4  A    between atoms: C21_24  and  O4_25 
REMARK    5  A    between atoms: O4_25  and  C22_26 
REMARK    6  A    between atoms: C22_26  and  C23_28 
REMARK    7  A    between atoms: C23_28  and  C24_29 
REMARK    8  A    between atoms: C24_29  and  C25_30 
REMARK       I    between atoms: C25_30  and  N1_32 
REMARK    9  A    between atoms: N1_32  and  C26_33 
REMARK   10  A    between atoms: C26_33  and  C27_34 
REMARK   11  A    between atoms: C27_34  and  C28_35 
REMARK   12  A    between atoms: C28_35  and  C29_36 
REMARK   13  A    between atoms: C29_36  and  C30_37 
REMARK   14  A    between atoms: C30_37  and  C31_38 
REMARK       I    between atoms: C31_38  and  N2_40 
REMARK   15  A    between atoms: N2_40  and  C32_41 
REMARK   16  A    between atoms: C32_41  and  C33_42 
REMARK   17  A    between atoms: C32_41  and  C40_49 
REMARK   18  A    between atoms: C33_42  and  C34_43 
REMARK   19  A    between atoms: C40_49  and  O9_51 
ROOT
HETATM    1  C22 UNL     1      -1.157  51.671 -13.158  1.00  0.00     0.259 C 
HETATM    2  O5  UNL     1      -0.311  52.454 -13.564  1.00  0.00    -0.265 OA
ENDROOT
BRANCH   1   3
HETATM    3  O4  UNL     1      -1.775  50.731 -13.928  1.00  0.00    -0.314 OA
BRANCH   3   4
HETATM    4  C21 UNL     1      -2.692  51.249 -14.874  1.00  0.00     0.260 C 
BRANCH   4   5
HETATM    5  C20 UNL     1      -2.801  50.650 -16.277  1.00  0.00     0.185 C 
HETATM    6  O3  UNL     1      -3.671  49.792 -16.505  1.00  0.00    -0.292 OA
BRANCH   5   7
HETATM    7  C19 UNL     1      -1.793  50.977 -17.399  1.00  0.00     0.128 C 
HETATM    8  C14 UNL     1      -1.206  49.779 -18.199  1.00  0.00    -0.002 C 
HETATM    9  C13 UNL     1      -2.265  49.015 -19.010  1.00  0.00     0.013 C 
HETATM   10  C15 UNL     1      -0.496  48.743 -17.284  1.00  0.00     0.019 C 
HETATM   11  C16 UNL     1      -0.105  50.468 -19.078  1.00  0.00     0.002 C 
HETATM   12  C12 UNL     1      -1.703  48.452 -20.305  1.00  0.00     0.007 C 
HETATM   13  C11 UNL     1      -1.284  49.561 -21.285  1.00  0.00     0.002 C 
HETATM   14  C2  UNL     1      -2.433  50.046 -22.292  1.00  0.00    -0.016 C 
HETATM   15  C10 UNL     1      -0.370  50.637 -20.611  1.00  0.00    -0.004 C 
HETATM   16  C1  UNL     1      -2.390  49.080 -23.511  1.00  0.00     0.020 C 
HETATM   17  C3  UNL     1      -3.861  50.023 -21.683  1.00  0.00     0.022 C 
HETATM   18  C7  UNL     1      -2.223  51.463 -22.827  1.00  0.00    -0.068 C 
HETATM   19  C4  UNL     1      -4.958  50.449 -22.661  1.00  0.00     0.084 C 
HETATM   20  C5  UNL     1      -4.610  51.718 -23.397  1.00  0.00     0.149 C 
HETATM   21  O1  UNL     1      -5.445  52.344 -24.045  1.00  0.00    -0.293 OA
HETATM   22  C6  UNL     1      -3.215  52.213 -23.342  1.00  0.00     0.053 C 
HETATM   23  C8  UNL     1      -0.867  52.061 -22.630  1.00  0.00     0.035 C 
HETATM   24  C9  UNL     1      -0.592  52.062 -21.132  1.00  0.00     0.010 C 
HETATM   25  C17 UNL     1       0.302  51.748 -18.299  1.00  0.00     0.009 C 
HETATM   26  C18 UNL     1      -0.557  51.786 -17.031  1.00  0.00     0.047 C 
BRANCH   7  27
HETATM   27  O2  UNL     1      -2.529  51.816 -18.330  1.00  0.00    -0.381 OA
HETATM   28  H27 UNL     1      -3.482  51.692 -18.128  1.00  0.00     0.211 HD
ENDBRANCH   7  27
ENDBRANCH   5   7
ENDBRANCH   4   5
ENDBRANCH   3   4
ENDBRANCH   1   3
BRANCH   1  29
HETATM   29  C23 UNL     1      -1.682  51.609 -11.750  1.00  0.00     0.120 C 
BRANCH  29  30
HETATM   30  C24 UNL     1      -2.423  52.889 -11.388  1.00  0.00     0.112 C 
BRANCH  30  31
HETATM   31  C25 UNL     1      -1.541  53.817 -10.581  1.00  0.00     0.217 C 
HETATM   32  O6  UNL     1      -1.949  54.850 -10.060  1.00  0.00    -0.274 OA
HETATM   33  N1  UNL     1      -0.234  53.390 -10.509  1.00  0.00    -0.361 N 
HETATM   34  H34 UNL     1       0.025  52.505 -10.927  1.00  0.00     0.162 HD
BRANCH  33  35
HETATM   35  C26 UNL     1       0.783  54.147  -9.807  1.00  0.00     0.122 C 
BRANCH  35  36
HETATM   36  C27 UNL     1       1.535  55.098 -10.737  1.00  0.00     0.020 C 
BRANCH  36  37
HETATM   37  C28 UNL     1       2.830  55.645 -10.125  1.00  0.00     0.002 C 
BRANCH  37  38
HETATM   38  C29 UNL     1       4.098  55.033 -10.728  1.00  0.00     0.009 C 
BRANCH  38  39
HETATM   39  C30 UNL     1       4.668  53.909  -9.864  1.00  0.00     0.103 C 
BRANCH  39  40
HETATM   40  C31 UNL     1       5.896  54.307  -9.064  1.00  0.00     0.218 C 
HETATM   41  O7  UNL     1       7.048  54.143  -9.449  1.00  0.00    -0.274 OA
HETATM   42  N2  UNL     1       5.575  54.866  -7.843  1.00  0.00    -0.346 N 
HETATM   43  H45 UNL     1       4.645  54.664  -7.487  1.00  0.00     0.163 HD
BRANCH  42  44
HETATM   44  C32 UNL     1       6.612  55.073  -6.820  1.00  0.00     0.186 C 
BRANCH  44  45
HETATM   45  C33 UNL     1       6.696  56.559  -6.447  1.00  0.00     0.074 C 
BRANCH  45  46
HETATM   46  C34 UNL     1       5.352  57.224  -6.275  1.00  0.00    -0.056 A 
HETATM   47  C35 UNL     1       4.918  57.632  -5.006  1.00  0.00     0.007 A 
HETATM   48  C36 UNL     1       3.669  58.233  -4.845  1.00  0.00     0.001 A 
HETATM   49  C37 UNL     1       2.842  58.432  -5.949  1.00  0.00     0.000 A 
HETATM   50  C38 UNL     1       3.264  58.033  -7.215  1.00  0.00     0.001 A 
HETATM   51  C39 UNL     1       4.513  57.433  -7.379  1.00  0.00     0.007 A 
ENDBRANCH  45  46
ENDBRANCH  44  45
BRANCH  44  52
HETATM   52  C40 UNL     1       6.187  54.252  -5.604  1.00  0.00     0.163 C 
HETATM   53  O8  UNL     1       6.792  54.194  -4.541  1.00  0.00    -0.648 OA
BRANCH  52  54
HETATM   54  O9  UNL     1       5.053  53.552  -5.789  1.00  0.00    -0.775 OA
HETATM   55  H54 UNL     1       4.904  53.088  -4.938  1.00  0.00     0.167 HD
ENDBRANCH  52  54
ENDBRANCH  44  52
ENDBRANCH  42  44
ENDBRANCH  39  40
ENDBRANCH  38  39
ENDBRANCH  37  38
ENDBRANCH  36  37
ENDBRANCH  35  36
ENDBRANCH  33  35
ENDBRANCH  30  31
ENDBRANCH  29  30
ENDBRANCH   1  29
TORSDOF 19
ENDMDL
MODEL 5
REMARK minimizedAffinity -8.67923164
REMARK CNNscore 0.270555049
REMARK CNNaffinity 6.55946207
REMARK  19 active torsions:
REMARK  status: ('A' for Active; 'I' for Inactive)
REMARK    1  A    between atoms: C19_20  and  O2_21 
REMARK    2  A    between atoms: C19_20  and  C20_22 
REMARK    3  A    between atoms: C20_22  and  C21_24 
REMARK    4  A    between atoms: C21_24  and  O4_25 
REMARK    5  A    between atoms: O4_25  and  C22_26 
REMARK    6  A    between atoms: C22_26  and  C23_28 
REMARK    7  A    between atoms: C23_28  and  C24_29 
REMARK    8  A    between atoms: C24_29  and  C25_30 
REMARK       I    between atoms: C25_30  and  N1_32 
REMARK    9  A    between atoms: N1_32  and  C26_33 
REMARK   10  A    between atoms: C26_33  and  C27_34 
REMARK   11  A    between atoms: C27_34  and  C28_35 
REMARK   12  A    between atoms: C28_35  and  C29_36 
REMARK   13  A    between atoms: C29_36  and  C30_37 
REMARK   14  A    between atoms: C30_37  and  C31_38 
REMARK       I    between atoms: C31_38  and  N2_40 
REMARK   15  A    between atoms: N2_40  and  C32_41 
REMARK   16  A    between atoms: C32_41  and  C33_42 
REMARK   17  A    between atoms: C32_41  and  C40_49 
REMARK   18  A    between atoms: C33_42  and  C34_43 
REMARK   19  A    between atoms: C40_49  and  O9_51 
ROOT
HETATM    1  C22 UNL     1      -0.454  49.974 -16.493  1.00  0.00     0.259 C 
HETATM    2  O5  UNL     1       0.517  49.450 -15.968  1.00  0.00    -0.265 OA
ENDROOT
BRANCH   1   3
HETATM    3  O4  UNL     1      -0.605  50.153 -17.835  1.00  0.00    -0.314 OA
BRANCH   3   4
HETATM    4  C21 UNL     1      -1.815  49.649 -18.370  1.00  0.00     0.260 C 
BRANCH   4   5
HETATM    5  C20 UNL     1      -2.553  50.388 -19.487  1.00  0.00     0.185 C 
HETATM    6  O3  UNL     1      -2.957  51.545 -19.284  1.00  0.00    -0.292 OA
BRANCH   5   7
HETATM    7  C19 UNL     1      -2.929  49.711 -20.822  1.00  0.00     0.128 C 
HETATM    8  C14 UNL     1      -4.009  50.412 -21.695  1.00  0.00    -0.002 C 
HETATM    9  C13 UNL     1      -3.571  51.791 -22.211  1.00  0.00     0.013 C 
HETATM   10  C15 UNL     1      -5.349  50.613 -20.934  1.00  0.00     0.019 C 
HETATM   11  C16 UNL     1      -4.261  49.357 -22.828  1.00  0.00     0.002 C 
HETATM   12  C12 UNL     1      -4.149  52.103 -23.582  1.00  0.00     0.007 C 
HETATM   13  C11 UNL     1      -3.604  51.163 -24.670  1.00  0.00     0.002 C 
HETATM   14  C2  UNL     1      -2.270  51.670 -25.399  1.00  0.00    -0.016 C 
HETATM   15  C10 UNL     1      -3.712  49.656 -24.263  1.00  0.00    -0.004 C 
HETATM   16  C1  UNL     1      -2.727  52.599 -26.560  1.00  0.00     0.020 C 
HETATM   17  C3  UNL     1      -1.304  52.460 -24.475  1.00  0.00     0.022 C 
HETATM   18  C7  UNL     1      -1.440  50.544 -26.016  1.00  0.00    -0.068 C 
HETATM   19  C4  UNL     1      -0.051  52.977 -25.186  1.00  0.00     0.084 C 
HETATM   20  C5  UNL     1       0.612  51.914 -26.025  1.00  0.00     0.149 C 
HETATM   21  O1  UNL     1       1.743  52.058 -26.483  1.00  0.00    -0.293 OA
HETATM   22  C6  UNL     1      -0.133  50.666 -26.312  1.00  0.00     0.053 C 
HETATM   23  C8  UNL     1      -2.112  49.216 -26.159  1.00  0.00     0.035 C 
HETATM   24  C9  UNL     1      -2.555  48.787 -24.767  1.00  0.00     0.010 C 
HETATM   25  C17 UNL     1      -3.874  47.987 -22.208  1.00  0.00     0.009 C 
HETATM   26  C18 UNL     1      -3.402  48.265 -20.778  1.00  0.00     0.047 C 
BRANCH   7  27
HETATM   27  O2  UNL     1      -1.692  49.680 -21.585  1.00  0.00    -0.381 OA
HETATM   28  H27 UNL     1      -1.084  50.326 -21.164  1.00  0.00     0.211 HD
ENDBRANCH   7  27
ENDBRANCH   5   7
ENDBRANCH   4   5
ENDBRANCH   3   4
ENDBRANCH   1   3
BRANCH   1  29
HETATM   29  C23 UNL     1      -1.645  50.529 -15.761  1.00  0.00     0.120 C 
BRANCH  29  30
HETATM   30  C24 UNL     1      -2.107  49.575 -14.669  1.00  0.00     0.112 C 
BRANCH  30  31
HETATM   31  C25 UNL     1      -2.981  50.287 -13.659  1.00  0.00     0.217 C 
HETATM   32  O6  UNL     1      -3.628  49.702 -12.797  1.00  0.00    -0.274 OA
HETATM   33  N1  UNL     1      -2.986  51.655 -13.822  1.00  0.00    -0.361 N 
HETATM   34  H34 UNL     1      -2.394  52.075 -14.529  1.00  0.00     0.162 HD
BRANCH  33  35
HETATM   35  C26 UNL     1      -3.780  52.525 -12.978  1.00  0.00     0.122 C 
BRANCH  35  36
HETATM   36  C27 UNL     1      -3.250  52.574 -11.545  1.00  0.00     0.020 C 
BRANCH  36  37
HETATM   37  C28 UNL     1      -3.437  53.941 -10.877  1.00  0.00     0.002 C 
BRANCH  37  38
HETATM   38  C29 UNL     1      -2.398  54.238  -9.790  1.00  0.00     0.009 C 
BRANCH  38  39
HETATM   39  C30 UNL     1      -1.364  55.269 -10.242  1.00  0.00     0.103 C 
BRANCH  39  40
HETATM   40  C31 UNL     1      -0.047  54.663 -10.696  1.00  0.00     0.218 C 
HETATM   41  O7  UNL     1       0.046  53.770 -11.531  1.00  0.00    -0.274 OA
HETATM   42  N2  UNL     1       1.041  55.220 -10.055  1.00  0.00    -0.346 N 
HETATM   43  H45 UNL     1       0.851  55.697  -9.179  1.00  0.00     0.163 HD
BRANCH  42  44
HETATM   44  C32 UNL     1       2.370  54.597 -10.159  1.00  0.00     0.186 C 
BRANCH  44  45
HETATM   45  C33 UNL     1       3.433  55.665 -10.451  1.00  0.00     0.074 C 
BRANCH  45  46
HETATM   46  C34 UNL     1       4.595  55.651  -9.489  1.00  0.00    -0.056 A 
HETATM   47  C35 UNL     1       4.531  56.371  -8.288  1.00  0.00     0.007 A 
HETATM   48  C36 UNL     1       5.612  56.372  -7.405  1.00  0.00     0.001 A 
HETATM   49  C37 UNL     1       6.765  55.652  -7.712  1.00  0.00     0.000 A 
HETATM   50  C38 UNL     1       6.838  54.930  -8.901  1.00  0.00     0.001 A 
HETATM   51  C39 UNL     1       5.759  54.927  -9.785  1.00  0.00     0.007 A 
ENDBRANCH  45  46
ENDBRANCH  44  45
BRANCH  44  52
HETATM   52  C40 UNL     1       2.645  53.942  -8.806  1.00  0.00     0.163 C 
HETATM   53  O8  UNL     1       3.412  53.006  -8.615  1.00  0.00    -0.648 OA
BRANCH  52  54
HETATM   54  O9  UNL     1       1.948  54.480  -7.789  1.00  0.00    -0.775 OA
HETATM   55  H54 UNL     1       2.228  53.972  -6.999  1.00  0.00     0.167 HD
ENDBRANCH  52  54
ENDBRANCH  44  52
ENDBRANCH  42  44
ENDBRANCH  39  40
ENDBRANCH  38  39
ENDBRANCH  37  38
ENDBRANCH  36  37
ENDBRANCH  35  36
ENDBRANCH  33  35
ENDBRANCH  30  31
ENDBRANCH  29  30
ENDBRANCH   1  29
TORSDOF 19
ENDMDL
MODEL 6
REMARK minimizedAffinity -7.97417927
REMARK CNNscore 0.267357409
REMARK CNNaffinity 6.32746315
REMARK  19 active torsions:
REMARK  status: ('A' for Active; 'I' for Inactive)
REMARK    1  A    between atoms: C19_20  and  O2_21 
REMARK    2  A    between atoms: C19_20  and  C20_22 
REMARK    3  A    between atoms: C20_22  and  C21_24 
REMARK    4  A    between atoms: C21_24  and  O4_25 
REMARK    5  A    between atoms: O4_25  and  C22_26 
REMARK    6  A    between atoms: C22_26  and  C23_28 
REMARK    7  A    between atoms: C23_28  and  C24_29 
REMARK    8  A    between atoms: C24_29  and  C25_30 
REMARK       I    between atoms: C25_30  and  N1_32 
REMARK    9  A    between atoms: N1_32  and  C26_33 
REMARK   10  A    between atoms: C26_33  and  C27_34 
REMARK   11  A    between atoms: C27_34  and  C28_35 
REMARK   12  A    between atoms: C28_35  and  C29_36 
REMARK   13  A    between atoms: C29_36  and  C30_37 
REMARK   14  A    between atoms: C30_37  and  C31_38 
REMARK       I    between atoms: C31_38  and  N2_40 
REMARK   15  A    between atoms: N2_40  and  C32_41 
REMARK   16  A    between atoms: C32_41  and  C33_42 
REMARK   17  A    between atoms: C32_41  and  C40_49 
REMARK   18  A    between atoms: C33_42  and  C34_43 
REMARK   19  A    between atoms: C40_49  and  O9_51 
ROOT
HETATM    1  C22 UNL     1      -2.745  49.997 -16.025  1.00  0.00     0.259 C 
HETATM    2  O5  UNL     1      -2.952  48.814 -15.795  1.00  0.00    -0.265 OA
ENDROOT
BRANCH   1   3
HETATM    3  O4  UNL     1      -2.098  50.469 -17.127  1.00  0.00    -0.314 OA
BRANCH   3   4
HETATM    4  C21 UNL     1      -2.835  50.378 -18.333  1.00  0.00     0.260 C 
BRANCH   4   5
HETATM    5  C20 UNL     1      -2.168  50.629 -19.686  1.00  0.00     0.185 C 
HETATM    6  O3  UNL     1      -1.302  51.516 -19.780  1.00  0.00    -0.292 OA
BRANCH   5   7
HETATM    7  C19 UNL     1      -2.612  49.907 -20.976  1.00  0.00     0.128 C 
HETATM    8  C14 UNL     1      -3.732  50.583 -21.818  1.00  0.00    -0.002 C 
HETATM    9  C13 UNL     1      -3.315  51.941 -22.405  1.00  0.00     0.013 C 
HETATM   10  C15 UNL     1      -5.032  50.819 -20.999  1.00  0.00     0.019 C 
HETATM   11  C16 UNL     1      -4.045  49.491 -22.899  1.00  0.00     0.002 C 
HETATM   12  C12 UNL     1      -3.960  52.208 -23.755  1.00  0.00     0.007 C 
HETATM   13  C11 UNL     1      -3.474  51.227 -24.835  1.00  0.00     0.002 C 
HETATM   14  C2  UNL     1      -2.176  51.701 -25.647  1.00  0.00    -0.016 C 
HETATM   15  C10 UNL     1      -3.568  49.736 -24.370  1.00  0.00    -0.004 C 
HETATM   16  C1  UNL     1      -2.687  52.590 -26.817  1.00  0.00     0.020 C 
HETATM   17  C3  UNL     1      -1.162  52.516 -24.801  1.00  0.00     0.022 C 
HETATM   18  C7  UNL     1      -1.383  50.548 -26.264  1.00  0.00    -0.068 C 
HETATM   19  C4  UNL     1       0.056  53.001 -25.592  1.00  0.00     0.084 C 
HETATM   20  C5  UNL     1       0.672  51.905 -26.425  1.00  0.00     0.149 C 
HETATM   21  O1  UNL     1       1.778  52.027 -26.944  1.00  0.00    -0.293 OA
HETATM   22  C6  UNL     1      -0.092  50.652 -26.630  1.00  0.00     0.053 C 
HETATM   23  C8  UNL     1      -2.067  49.220 -26.326  1.00  0.00     0.035 C 
HETATM   24  C9  UNL     1      -2.440  48.843 -24.900  1.00  0.00     0.010 C 
HETATM   25  C17 UNL     1      -3.633  48.141 -22.251  1.00  0.00     0.009 C 
HETATM   26  C18 UNL     1      -3.089  48.467 -20.857  1.00  0.00     0.047 C 
BRANCH   7  27
HETATM   27  O2  UNL     1      -1.416  49.843 -21.799  1.00  0.00    -0.381 OA
HETATM   28  H27 UNL     1      -0.785  50.500 -21.432  1.00  0.00     0.211 HD
ENDBRANCH   7  27
ENDBRANCH   5   7
ENDBRANCH   4   5
ENDBRANCH   3   4
ENDBRANCH   1   3
BRANCH   1  29
HETATM   29  C23 UNL     1      -3.145  51.140 -15.133  1.00  0.00     0.120 C 
BRANCH  29  30
HETATM   30  C24 UNL     1      -2.027  51.489 -14.161  1.00  0.00     0.112 C 
BRANCH  30  31
HETATM   31  C25 UNL     1      -2.586  52.005 -12.853  1.00  0.00     0.217 C 
HETATM   32  O6  UNL     1      -3.751  51.838 -12.505  1.00  0.00    -0.274 OA
HETATM   33  N1  UNL     1      -1.658  52.695 -12.105  1.00  0.00    -0.361 N 
HETATM   34  H34 UNL     1      -0.702  52.758 -12.433  1.00  0.00     0.162 HD
BRANCH  33  35
HETATM   35  C26 UNL     1      -1.993  53.297 -10.830  1.00  0.00     0.122 C 
BRANCH  35  36
HETATM   36  C27 UNL     1      -0.931  53.019  -9.767  1.00  0.00     0.020 C 
BRANCH  36  37
HETATM   37  C28 UNL     1       0.345  52.388 -10.338  1.00  0.00     0.002 C 
BRANCH  37  38
HETATM   38  C29 UNL     1       1.625  52.859  -9.639  1.00  0.00     0.009 C 
BRANCH  38  39
HETATM   39  C30 UNL     1       1.606  52.571  -8.138  1.00  0.00     0.103 C 
BRANCH  39  40
HETATM   40  C31 UNL     1       2.109  53.722  -7.283  1.00  0.00     0.218 C 
HETATM   41  O7  UNL     1       2.919  53.597  -6.372  1.00  0.00    -0.274 OA
HETATM   42  N2  UNL     1       1.542  54.930  -7.636  1.00  0.00    -0.346 N 
HETATM   43  H45 UNL     1       0.672  54.884  -8.158  1.00  0.00     0.163 HD
BRANCH  42  44
HETATM   44  C32 UNL     1       1.694  56.109  -6.768  1.00  0.00     0.186 C 
BRANCH  44  45
HETATM   45  C33 UNL     1       2.696  57.093  -7.386  1.00  0.00     0.074 C 
BRANCH  45  46
HETATM   46  C34 UNL     1       3.649  56.460  -8.369  1.00  0.00    -0.056 A 
HETATM   47  C35 UNL     1       3.299  56.338  -9.722  1.00  0.00     0.007 A 
HETATM   48  C36 UNL     1       4.174  55.739 -10.628  1.00  0.00     0.001 A 
HETATM   49  C37 UNL     1       5.407  55.256 -10.193  1.00  0.00     0.000 A 
HETATM   50  C38 UNL     1       5.767  55.373  -8.853  1.00  0.00     0.001 A 
HETATM   51  C39 UNL     1       4.894  55.974  -7.944  1.00  0.00     0.007 A 
ENDBRANCH  45  46
ENDBRANCH  44  45
BRANCH  44  52
HETATM   52  C40 UNL     1       0.314  56.757  -6.675  1.00  0.00     0.163 C 
HETATM   53  O8  UNL     1      -0.455  56.926  -7.614  1.00  0.00    -0.648 OA
BRANCH  52  54
HETATM   54  O9  UNL     1      -0.017  57.159  -5.435  1.00  0.00    -0.775 OA
HETATM   55  H54 UNL     1      -0.914  57.541  -5.527  1.00  0.00     0.167 HD
ENDBRANCH  52  54
ENDBRANCH  44  52
ENDBRANCH  42  44
ENDBRANCH  39  40
ENDBRANCH  38  39
ENDBRANCH  37  38
ENDBRANCH  36  37
ENDBRANCH  35  36
ENDBRANCH  33  35
ENDBRANCH  30  31
ENDBRANCH  29  30
ENDBRANCH   1  29
TORSDOF 19
ENDMDL
MODEL 7
REMARK minimizedAffinity -8.63553905
REMARK CNNscore 0.25533402
REMARK CNNaffinity 5.81644773
REMARK  19 active torsions:
REMARK  status: ('A' for Active; 'I' for Inactive)
REMARK    1  A    between atoms: C19_20  and  O2_21 
REMARK    2  A    between atoms: C19_20  and  C20_22 
REMARK    3  A    between atoms: C20_22  and  C21_24 
REMARK    4  A    between atoms: C21_24  and  O4_25 
REMARK    5  A    between atoms: O4_25  and  C22_26 
REMARK    6  A    between atoms: C22_26  and  C23_28 
REMARK    7  A    between atoms: C23_28  and  C24_29 
REMARK    8  A    between atoms: C24_29  and  C25_30 
REMARK       I    between atoms: C25_30  and  N1_32 
REMARK    9  A    between atoms: N1_32  and  C26_33 
REMARK   10  A    between atoms: C26_33  and  C27_34 
REMARK   11  A    between atoms: C27_34  and  C28_35 
REMARK   12  A    between atoms: C28_35  and  C29_36 
REMARK   13  A    between atoms: C29_36  and  C30_37 
REMARK   14  A    between atoms: C30_37  and  C31_38 
REMARK       I    between atoms: C31_38  and  N2_40 
REMARK   15  A    between atoms: N2_40  and  C32_41 
REMARK   16  A    between atoms: C32_41  and  C33_42 
REMARK   17  A    between atoms: C32_41  and  C40_49 
REMARK   18  A    between atoms: C33_42  and  C34_43 
REMARK   19  A    between atoms: C40_49  and  O9_51 
ROOT
HETATM    1  C22 UNL     1     -11.871  47.503 -26.562  1.00  0.00     0.259 C 
HETATM    2  O5  UNL     1     -11.635  48.666 -26.270  1.00  0.00    -0.265 OA
ENDROOT
BRANCH   1   3
HETATM    3  O4  UNL     1     -12.566  46.634 -25.776  1.00  0.00    -0.314 OA
BRANCH   3   4
HETATM    4  C21 UNL     1     -13.969  46.823 -25.777  1.00  0.00     0.260 C 
BRANCH   4   5
HETATM    5  C20 UNL     1     -14.923  45.654 -25.530  1.00  0.00     0.185 C 
HETATM    6  O3  UNL     1     -14.705  44.565 -26.088  1.00  0.00    -0.292 OA
BRANCH   5   7
HETATM    7  C19 UNL     1     -16.221  45.803 -24.709  1.00  0.00     0.128 C 
HETATM    8  C14 UNL     1     -16.711  44.553 -23.921  1.00  0.00    -0.002 C 
HETATM    9  C13 UNL     1     -15.743  44.120 -22.809  1.00  0.00     0.013 C 
HETATM   10  C15 UNL     1     -16.933  43.320 -24.839  1.00  0.00     0.019 C 
HETATM   11  C16 UNL     1     -18.116  45.015 -23.399  1.00  0.00     0.002 C 
HETATM   12  C12 UNL     1     -16.468  43.526 -21.613  1.00  0.00     0.007 C 
HETATM   13  C11 UNL     1     -17.345  44.563 -20.891  1.00  0.00     0.002 C 
HETATM   14  C2  UNL     1     -16.611  45.375 -19.720  1.00  0.00    -0.016 C 
HETATM   15  C10 UNL     1     -18.277  45.343 -21.877  1.00  0.00    -0.004 C 
HETATM   16  C1  UNL     1     -16.740  44.509 -18.434  1.00  0.00     0.020 C 
HETATM   17  C3  UNL     1     -15.108  45.655 -19.989  1.00  0.00     0.022 C 
HETATM   18  C7  UNL     1     -17.248  46.732 -19.420  1.00  0.00    -0.068 C 
HETATM   19  C4  UNL     1     -14.402  46.394 -18.849  1.00  0.00     0.084 C 
HETATM   20  C5  UNL     1     -15.187  47.589 -18.368  1.00  0.00     0.149 C 
HETATM   21  O1  UNL     1     -14.693  48.438 -17.631  1.00  0.00    -0.293 OA
HETATM   22  C6  UNL     1     -16.600  47.730 -18.792  1.00  0.00     0.053 C 
HETATM   23  C8  UNL     1     -18.611  46.973 -19.985  1.00  0.00     0.035 C 
HETATM   24  C9  UNL     1     -18.505  46.810 -21.495  1.00  0.00     0.010 C 
HETATM   25  C17 UNL     1     -18.588  46.106 -24.398  1.00  0.00     0.009 C 
HETATM   26  C18 UNL     1     -17.475  46.266 -25.438  1.00  0.00     0.047 C 
BRANCH   7  27
HETATM   27  O2  UNL     1     -15.936  46.852 -23.745  1.00  0.00    -0.381 OA
HETATM   28  H27 UNL     1     -14.958  46.947 -23.713  1.00  0.00     0.211 HD
ENDBRANCH   7  27
ENDBRANCH   5   7
ENDBRANCH   4   5
ENDBRANCH   3   4
ENDBRANCH   1   3
BRANCH   1  29
HETATM   29  C23 UNL     1     -11.426  46.815 -27.823  1.00  0.00     0.120 C 
BRANCH  29  30
HETATM   30  C24 UNL     1     -10.914  47.823 -28.842  1.00  0.00     0.112 C 
BRANCH  30  31
HETATM   31  C25 UNL     1      -9.527  47.454 -29.322  1.00  0.00     0.217 C 
HETATM   32  O6  UNL     1      -9.314  46.590 -30.166  1.00  0.00    -0.274 OA
HETATM   33  N1  UNL     1      -8.533  48.176 -28.699  1.00  0.00    -0.361 N 
HETATM   34  H34 UNL     1      -8.783  48.905 -28.043  1.00  0.00     0.162 HD
BRANCH  33  35
HETATM   35  C26 UNL     1      -7.130  47.959 -28.992  1.00  0.00     0.122 C 
BRANCH  35  36
HETATM   36  C27 UNL     1      -6.358  47.467 -27.768  1.00  0.00     0.020 C 
BRANCH  36  37
HETATM   37  C28 UNL     1      -4.963  48.091 -27.643  1.00  0.00     0.002 C 
BRANCH  37  38
HETATM   38  C29 UNL     1      -4.632  48.569 -26.225  1.00  0.00     0.009 C 
BRANCH  38  39
HETATM   39  C30 UNL     1      -3.139  48.476 -25.914  1.00  0.00     0.103 C 
BRANCH  39  40
HETATM   40  C31 UNL     1      -2.452  49.824 -25.775  1.00  0.00     0.218 C 
HETATM   41  O7  UNL     1      -1.663  50.280 -26.594  1.00  0.00    -0.274 OA
HETATM   42  N2  UNL     1      -2.805  50.480 -24.613  1.00  0.00    -0.346 N 
HETATM   43  H45 UNL     1      -3.190  49.904 -23.870  1.00  0.00     0.163 HD
BRANCH  42  44
HETATM   44  C32 UNL     1      -2.057  51.666 -24.168  1.00  0.00     0.186 C 
BRANCH  44  45
HETATM   45  C33 UNL     1      -0.616  51.279 -23.810  1.00  0.00     0.074 C 
BRANCH  45  46
HETATM   46  C34 UNL     1      -0.087  51.963 -22.573  1.00  0.00    -0.056 A 
HETATM   47  C35 UNL     1      -0.407  51.474 -21.299  1.00  0.00     0.007 A 
HETATM   48  C36 UNL     1       0.069  52.115 -20.155  1.00  0.00     0.001 A 
HETATM   49  C37 UNL     1       0.868  53.250 -20.272  1.00  0.00     0.000 A 
HETATM   50  C38 UNL     1       1.195  53.744 -21.533  1.00  0.00     0.001 A 
HETATM   51  C39 UNL     1       0.721  53.104 -22.679  1.00  0.00     0.007 A 
ENDBRANCH  45  46
ENDBRANCH  44  45
BRANCH  44  52
HETATM   52  C40 UNL     1      -2.060  52.643 -25.342  1.00  0.00     0.163 C 
HETATM   53  O8  UNL     1      -1.069  53.182 -25.819  1.00  0.00    -0.648 OA
BRANCH  52  54
HETATM   54  O9  UNL     1      -3.285  52.892 -25.840  1.00  0.00    -0.775 OA
HETATM   55  H54 UNL     1      -3.131  53.518 -26.578  1.00  0.00     0.167 HD
ENDBRANCH  52  54
ENDBRANCH  44  52
ENDBRANCH  42  44
ENDBRANCH  39  40
ENDBRANCH  38  39
ENDBRANCH  37  38
ENDBRANCH  36  37
ENDBRANCH  35  36
ENDBRANCH  33  35
ENDBRANCH  30  31
ENDBRANCH  29  30
ENDBRANCH   1  29
TORSDOF 19
ENDMDL
MODEL 8
REMARK minimizedAffinity -8.45635509
REMARK CNNscore 0.235661402
REMARK CNNaffinity 6.17325592
REMARK  19 active torsions:
REMARK  status: ('A' for Active; 'I' for Inactive)
REMARK    1  A    between atoms: C19_20  and  O2_21 
REMARK    2  A    between atoms: C19_20  and  C20_22 
REMARK    3  A    between atoms: C20_22  and  C21_24 
REMARK    4  A    between atoms: C21_24  and  O4_25 
REMARK    5  A    between atoms: O4_25  and  C22_26 
REMARK    6  A    between atoms: C22_26  and  C23_28 
REMARK    7  A    between atoms: C23_28  and  C24_29 
REMARK    8  A    between atoms: C24_29  and  C25_30 
REMARK       I    between atoms: C25_30  and  N1_32 
REMARK    9  A    between atoms: N1_32  and  C26_33 
REMARK   10  A    between atoms: C26_33  and  C27_34 
REMARK   11  A    between atoms: C27_34  and  C28_35 
REMARK   12  A    between atoms: C28_35  and  C29_36 
REMARK   13  A    between atoms: C29_36  and  C30_37 
REMARK   14  A    between atoms: C30_37  and  C31_38 
REMARK       I    between atoms: C31_38  and  N2_40 
REMARK   15  A    between atoms: N2_40  and  C32_41 
REMARK   16  A    between atoms: C32_41  and  C33_42 
REMARK   17  A    between atoms: C32_41  and  C40_49 
REMARK   18  A    between atoms: C33_42  and  C34_43 
REMARK   19  A    between atoms: C40_49  and  O9_51 
ROOT
HETATM    1  C22 UNL     1      -2.991  47.276 -17.417  1.00  0.00     0.259 C 
HETATM    2  O5  UNL     1      -3.727  46.351 -17.726  1.00  0.00    -0.265 OA
ENDROOT
BRANCH   1   3
HETATM    3  O4  UNL     1      -2.028  47.802 -18.226  1.00  0.00    -0.314 OA
BRANCH   3   4
HETATM    4  C21 UNL     1      -2.336  47.779 -19.608  1.00  0.00     0.260 C 
BRANCH   4   5
HETATM    5  C20 UNL     1      -2.781  49.048 -20.338  1.00  0.00     0.185 C 
HETATM    6  O3  UNL     1      -2.893  50.108 -19.699  1.00  0.00    -0.292 OA
BRANCH   5   7
HETATM    7  C19 UNL     1      -3.217  49.042 -21.818  1.00  0.00     0.128 C 
HETATM    8  C14 UNL     1      -3.883  50.337 -22.368  1.00  0.00    -0.002 C 
HETATM    9  C13 UNL     1      -2.937  51.548 -22.375  1.00  0.00     0.013 C 
HETATM   10  C15 UNL     1      -5.144  50.746 -21.559  1.00  0.00     0.019 C 
HETATM   11  C16 UNL     1      -4.358  49.890 -23.794  1.00  0.00     0.002 C 
HETATM   12  C12 UNL     1      -3.215  52.488 -23.537  1.00  0.00     0.007 C 
HETATM   13  C11 UNL     1      -2.913  51.836 -24.896  1.00  0.00     0.002 C 
HETATM   14  C2  UNL     1      -1.414  52.034 -25.427  1.00  0.00    -0.016 C 
HETATM   15  C10 UNL     1      -3.584  50.429 -25.043  1.00  0.00    -0.004 C 
HETATM   16  C1  UNL     1      -1.387  53.395 -26.178  1.00  0.00     0.020 C 
HETATM   17  C3  UNL     1      -0.342  52.059 -24.303  1.00  0.00     0.022 C 
HETATM   18  C7  UNL     1      -0.964  50.958 -26.416  1.00  0.00    -0.068 C 
HETATM   19  C4  UNL     1       1.083  52.289 -24.811  1.00  0.00     0.084 C 
HETATM   20  C5  UNL     1       1.423  51.404 -25.983  1.00  0.00     0.149 C 
HETATM   21  O1  UNL     1       2.577  51.270 -26.384  1.00  0.00    -0.293 OA
HETATM   22  C6  UNL     1       0.328  50.687 -26.676  1.00  0.00     0.053 C 
HETATM   23  C8  UNL     1      -2.036  50.097 -27.004  1.00  0.00     0.035 C 
HETATM   24  C9  UNL     1      -2.752  49.420 -25.843  1.00  0.00     0.010 C 
HETATM   25  C17 UNL     1      -4.543  48.351 -23.703  1.00  0.00     0.009 C 
HETATM   26  C18 UNL     1      -4.166  47.943 -22.276  1.00  0.00     0.047 C 
BRANCH   7  27
HETATM   27  O2  UNL     1      -1.992  48.819 -22.568  1.00  0.00    -0.381 OA
HETATM   28  H27 UNL     1      -1.248  49.019 -21.958  1.00  0.00     0.211 HD
ENDBRANCH   7  27
ENDBRANCH   5   7
ENDBRANCH   4   5
ENDBRANCH   3   4
ENDBRANCH   1   3
BRANCH   1  29
HETATM   29  C23 UNL     1      -2.997  47.988 -16.092  1.00  0.00     0.120 C 
BRANCH  29  30
HETATM   30  C24 UNL     1      -1.968  49.110 -16.073  1.00  0.00     0.112 C 
BRANCH  30  31
HETATM   31  C25 UNL     1      -2.616  50.434 -15.729  1.00  0.00     0.217 C 
HETATM   32  O6  UNL     1      -3.174  51.147 -16.557  1.00  0.00    -0.274 OA
HETATM   33  N1  UNL     1      -2.496  50.762 -14.397  1.00  0.00    -0.361 N 
HETATM   34  H34 UNL     1      -2.060  50.107 -13.759  1.00  0.00     0.162 HD
BRANCH  33  35
HETATM   35  C26 UNL     1      -3.022  52.002 -13.861  1.00  0.00     0.122 C 
BRANCH  35  36
HETATM   36  C27 UNL     1      -3.114  51.974 -12.336  1.00  0.00     0.020 C 
BRANCH  36  37
HETATM   37  C28 UNL     1      -4.192  52.911 -11.779  1.00  0.00     0.002 C 
BRANCH  37  38
HETATM   38  C29 UNL     1      -3.710  53.767 -10.602  1.00  0.00     0.009 C 
BRANCH  38  39
HETATM   39  C30 UNL     1      -2.542  53.122  -9.856  1.00  0.00     0.103 C 
BRANCH  39  40
HETATM   40  C31 UNL     1      -1.539  54.119  -9.302  1.00  0.00     0.218 C 
HETATM   41  O7  UNL     1      -1.095  55.070  -9.935  1.00  0.00    -0.274 OA
HETATM   42  N2  UNL     1      -1.167  53.831  -8.004  1.00  0.00    -0.346 N 
HETATM   43  H45 UNL     1      -1.327  52.878  -7.692  1.00  0.00     0.163 HD
BRANCH  42  44
HETATM   44  C32 UNL     1      -0.021  54.514  -7.385  1.00  0.00     0.186 C 
BRANCH  44  45
HETATM   45  C33 UNL     1       0.111  55.937  -7.944  1.00  0.00     0.074 C 
BRANCH  45  46
HETATM   46  C34 UNL     1       1.515  56.486  -7.897  1.00  0.00    -0.056 A 
HETATM   47  C35 UNL     1       1.881  57.421  -6.918  1.00  0.00     0.007 A 
HETATM   48  C36 UNL     1       3.176  57.940  -6.884  1.00  0.00     0.001 A 
HETATM   49  C37 UNL     1       4.117  57.530  -7.826  1.00  0.00     0.000 A 
HETATM   50  C38 UNL     1       3.766  56.600  -8.802  1.00  0.00     0.001 A 
HETATM   51  C39 UNL     1       2.473  56.078  -8.837  1.00  0.00     0.007 A 
ENDBRANCH  45  46
ENDBRANCH  44  45
BRANCH  44  52
HETATM   52  C40 UNL     1      -0.307  54.565  -5.886  1.00  0.00     0.163 C 
HETATM   53  O8  UNL     1      -0.789  55.519  -5.288  1.00  0.00    -0.648 OA
BRANCH  52  54
HETATM   54  O9  UNL     1       0.029  53.440  -5.229  1.00  0.00    -0.775 OA
HETATM   55  H54 UNL     1      -0.214  53.614  -4.296  1.00  0.00     0.167 HD
ENDBRANCH  52  54
ENDBRANCH  44  52
ENDBRANCH  42  44
ENDBRANCH  39  40
ENDBRANCH  38  39
ENDBRANCH  37  38
ENDBRANCH  36  37
ENDBRANCH  35  36
ENDBRANCH  33  35
ENDBRANCH  30  31
ENDBRANCH  29  30
ENDBRANCH   1  29
TORSDOF 19
ENDMDL
MODEL 9
REMARK minimizedAffinity -7.74018335
REMARK CNNscore 0.219690099
REMARK CNNaffinity 6.04178572
REMARK  19 active torsions:
REMARK  status: ('A' for Active; 'I' for Inactive)
REMARK    1  A    between atoms: C19_20  and  O2_21 
REMARK    2  A    between atoms: C19_20  and  C20_22 
REMARK    3  A    between atoms: C20_22  and  C21_24 
REMARK    4  A    between atoms: C21_24  and  O4_25 
REMARK    5  A    between atoms: O4_25  and  C22_26 
REMARK    6  A    between atoms: C22_26  and  C23_28 
REMARK    7  A    between atoms: C23_28  and  C24_29 
REMARK    8  A    between atoms: C24_29  and  C25_30 
REMARK       I    between atoms: C25_30  and  N1_32 
REMARK    9  A    between atoms: N1_32  and  C26_33 
REMARK   10  A    between atoms: C26_33  and  C27_34 
REMARK   11  A    between atoms: C27_34  and  C28_35 
REMARK   12  A    between atoms: C28_35  and  C29_36 
REMARK   13  A    between atoms: C29_36  and  C30_37 
REMARK   14  A    between atoms: C30_37  and  C31_38 
REMARK       I    between atoms: C31_38  and  N2_40 
REMARK   15  A    between atoms: N2_40  and  C32_41 
REMARK   16  A    between atoms: C32_41  and  C33_42 
REMARK   17  A    between atoms: C32_41  and  C40_49 
REMARK   18  A    between atoms: C33_42  and  C34_43 
REMARK   19  A    between atoms: C40_49  and  O9_51 
ROOT
HETATM    1  C22 UNL     1      -8.972  47.581 -25.410  1.00  0.00     0.259 C 
HETATM    2  O5  UNL     1      -8.490  46.731 -26.144  1.00  0.00    -0.265 OA
ENDROOT
BRANCH   1   3
HETATM    3  O4  UNL     1     -10.306  47.729 -25.171  1.00  0.00    -0.314 OA
BRANCH   3   4
HETATM    4  C21 UNL     1     -11.139  46.816 -25.861  1.00  0.00     0.260 C 
BRANCH   4   5
HETATM    5  C20 UNL     1     -12.365  47.298 -26.637  1.00  0.00     0.185 C 
HETATM    6  O3  UNL     1     -12.437  48.491 -26.978  1.00  0.00    -0.292 OA
BRANCH   5   7
HETATM    7  C19 UNL     1     -13.582  46.389 -26.912  1.00  0.00     0.128 C 
HETATM    8  C14 UNL     1     -13.486  44.910 -26.438  1.00  0.00    -0.002 C 
HETATM    9  C13 UNL     1     -13.389  44.768 -24.911  1.00  0.00     0.013 C 
HETATM   10  C15 UNL     1     -12.262  44.170 -27.045  1.00  0.00     0.019 C 
HETATM   11  C16 UNL     1     -14.779  44.275 -27.057  1.00  0.00     0.002 C 
HETATM   12  C12 UNL     1     -14.069  43.506 -24.406  1.00  0.00     0.007 C 
HETATM   13  C11 UNL     1     -15.590  43.537 -24.631  1.00  0.00     0.002 C 
HETATM   14  C2  UNL     1     -16.441  44.171 -23.430  1.00  0.00    -0.016 C 
HETATM   15  C10 UNL     1     -15.966  43.916 -26.101  1.00  0.00    -0.004 C 
HETATM   16  C1  UNL     1     -16.707  43.018 -22.420  1.00  0.00     0.020 C 
HETATM   17  C3  UNL     1     -15.724  45.332 -22.689  1.00  0.00     0.022 C 
HETATM   18  C7  UNL     1     -17.801  44.719 -23.862  1.00  0.00    -0.068 C 
HETATM   19  C4  UNL     1     -16.524  45.906 -21.517  1.00  0.00     0.084 C 
HETATM   20  C5  UNL     1     -17.959  46.188 -21.886  1.00  0.00     0.149 C 
HETATM   21  O1  UNL     1     -18.696  46.858 -21.167  1.00  0.00    -0.293 OA
HETATM   22  C6  UNL     1     -18.493  45.626 -23.148  1.00  0.00     0.053 C 
HETATM   23  C8  UNL     1     -18.291  44.308 -25.213  1.00  0.00     0.035 C 
HETATM   24  C9  UNL     1     -17.244  44.754 -26.224  1.00  0.00     0.010 C 
HETATM   25  C17 UNL     1     -15.122  45.155 -28.289  1.00  0.00     0.009 C 
HETATM   26  C18 UNL     1     -14.065  46.261 -28.350  1.00  0.00     0.047 C 
BRANCH   7  27
HETATM   27  O2  UNL     1     -14.683  47.013 -26.199  1.00  0.00    -0.381 OA
HETATM   28  H27 UNL     1     -14.284  47.634 -25.550  1.00  0.00     0.211 HD
ENDBRANCH   7  27
ENDBRANCH   5   7
ENDBRANCH   4   5
ENDBRANCH   3   4
ENDBRANCH   1   3
BRANCH   1  29
HETATM   29  C23 UNL     1      -8.194  48.623 -24.655  1.00  0.00     0.120 C 
BRANCH  29  30
HETATM   30  C24 UNL     1      -7.871  48.146 -23.246  1.00  0.00     0.112 C 
BRANCH  30  31
HETATM   31  C25 UNL     1      -6.430  48.444 -22.889  1.00  0.00     0.217 C 
HETATM   32  O6  UNL     1      -6.085  48.900 -21.804  1.00  0.00    -0.274 OA
HETATM   33  N1  UNL     1      -5.554  48.165 -23.915  1.00  0.00    -0.361 N 
HETATM   34  H34 UNL     1      -5.902  47.749 -24.770  1.00  0.00     0.162 HD
BRANCH  33  35
HETATM   35  C26 UNL     1      -4.129  48.404 -23.792  1.00  0.00     0.122 C 
BRANCH  35  36
HETATM   36  C27 UNL     1      -3.671  49.590 -24.640  1.00  0.00     0.020 C 
BRANCH  36  37
HETATM   37  C28 UNL     1      -2.964  49.171 -25.934  1.00  0.00     0.002 C 
BRANCH  37  38
HETATM   38  C29 UNL     1      -3.422  49.960 -27.165  1.00  0.00     0.009 C 
BRANCH  38  39
HETATM   39  C30 UNL     1      -2.298  50.803 -27.766  1.00  0.00     0.103 C 
BRANCH  39  40
HETATM   40  C31 UNL     1      -1.287  51.299 -26.747  1.00  0.00     0.218 C 
HETATM   41  O7  UNL     1      -0.177  50.805 -26.584  1.00  0.00    -0.274 OA
HETATM   42  N2  UNL     1      -1.759  52.365 -26.008  1.00  0.00    -0.346 N 
HETATM   43  H45 UNL     1      -2.767  52.486 -25.986  1.00  0.00     0.163 HD
BRANCH  42  44
HETATM   44  C32 UNL     1      -1.043  52.817 -24.804  1.00  0.00     0.186 C 
BRANCH  44  45
HETATM   45  C33 UNL     1      -0.473  51.611 -24.046  1.00  0.00     0.074 C 
BRANCH  45  46
HETATM   46  C34 UNL     1      -0.614  51.709 -22.547  1.00  0.00    -0.056 A 
HETATM   47  C35 UNL     1      -1.792  51.287 -21.915  1.00  0.00     0.007 A 
HETATM   48  C36 UNL     1      -1.929  51.391 -20.530  1.00  0.00     0.001 A 
HETATM   49  C37 UNL     1      -0.891  51.917 -19.764  1.00  0.00     0.000 A 
HETATM   50  C38 UNL     1       0.285  52.338 -20.380  1.00  0.00     0.001 A 
HETATM   51  C39 UNL     1       0.425  52.233 -21.765  1.00  0.00     0.007 A 
ENDBRANCH  45  46
ENDBRANCH  44  45
BRANCH  44  52
HETATM   52  C40 UNL     1       0.093  53.715 -25.290  1.00  0.00     0.163 C 
HETATM   53  O8  UNL     1       1.224  53.743 -24.822  1.00  0.00    -0.648 OA
BRANCH  52  54
HETATM   54  O9  UNL     1      -0.248  54.520 -26.313  1.00  0.00    -0.775 OA
HETATM   55  H54 UNL     1       0.568  55.022 -26.518  1.00  0.00     0.167 HD
ENDBRANCH  52  54
ENDBRANCH  44  52
ENDBRANCH  42  44
ENDBRANCH  39  40
ENDBRANCH  38  39
ENDBRANCH  37  38
ENDBRANCH  36  37
ENDBRANCH  35  36
ENDBRANCH  33  35
ENDBRANCH  30  31
ENDBRANCH  29  30
ENDBRANCH   1  29
TORSDOF 19
ENDMDL
