MODEL 1
REMARK minimizedAffinity -8.80696964
REMARK CNNscore 0.797287762
REMARK CNNaffinity 6.97680044
REMARK  16 active torsions:
REMARK  status: ('A' for Active; 'I' for Inactive)
REMARK    1  A    between atoms: S1_2  and  C2_3 
REMARK    2  A    between atoms: C2_3  and  C3_4 
REMARK    3  A    between atoms: C3_4  and  C4_5 
REMARK    4  A    between atoms: C4_5  and  N1_6 
REMARK    5  A    between atoms: C4_5  and  C33_44 
REMARK       I    between atoms: N1_6  and  C5_7 
REMARK    6  A    between atoms: C5_7  and  C6_9 
REMARK    7  A    between atoms: C6_9  and  N2_11 
REMARK       I    between atoms: N2_11  and  C8_12 
REMARK    8  A    between atoms: C8_12  and  C9_14 
REMARK    9  A    between atoms: C9_14  and  C10_15 
REMARK   10  A    between atoms: C10_15  and  C11_16 
REMARK   11  A    between atoms: C11_16  and  O4_18 
REMARK   12  A    between atoms: O4_18  and  C12_19 
REMARK   13  A    between atoms: C12_19  and  C13_20 
REMARK   14  A    between atoms: C13_20  and  C14_22 
REMARK   15  A    between atoms: C14_22  and  O6_23 
REMARK   16  A    between atoms: C33_44  and  O10_46 
ROOT
HETATM    1  C12 UNL     1      -7.298  47.004 -24.395  1.00  0.00     0.260 C 
ENDROOT
BRANCH   1   2
HETATM    2  O4  UNL     1      -8.700  46.994 -24.160  1.00  0.00    -0.314 OA
BRANCH   2   3
HETATM    3  C11 UNL     1      -9.445  47.608 -25.121  1.00  0.00     0.259 C 
HETATM    4  O3  UNL     1      -9.566  48.818 -25.245  1.00  0.00    -0.265 OA
BRANCH   3   5
HETATM    5  C10 UNL     1     -10.132  46.569 -25.977  1.00  0.00     0.120 C 
BRANCH   5   6
HETATM    6  C9  UNL     1     -11.286  45.912 -25.232  1.00  0.00     0.112 C 
BRANCH   6   7
HETATM    7  C8  UNL     1     -12.514  46.804 -25.203  1.00  0.00     0.218 C 
HETATM    8  N2  UNL     1     -13.421  46.434 -24.236  1.00  0.00    -0.348 N 
HETATM    9  H14 UNL     1     -13.380  45.472 -23.914  1.00  0.00     0.163 HD
HETATM   10  O2  UNL     1     -12.678  47.748 -25.966  1.00  0.00    -0.274 OA
BRANCH   8  11
HETATM   11  C6  UNL     1     -14.725  47.079 -24.128  1.00  0.00     0.172 C 
HETATM   12  C7  UNL     1     -15.080  47.291 -22.661  1.00  0.00     0.042 C 
BRANCH  11  13
HETATM   13  C5  UNL     1     -15.791  46.200 -24.817  1.00  0.00     0.240 C 
HETATM   14  N1  UNL     1     -16.847  45.852 -24.001  1.00  0.00    -0.345 N 
HETATM   15  H9  UNL     1     -17.043  46.484 -23.230  1.00  0.00     0.163 HD
HETATM   16  O1  UNL     1     -15.671  45.791 -25.970  1.00  0.00    -0.271 OA
BRANCH  14  17
HETATM   17  C4  UNL     1     -18.000  45.097 -24.508  1.00  0.00     0.183 C 
BRANCH  17  18
HETATM   18  C3  UNL     1     -18.679  44.368 -23.342  1.00  0.00     0.046 C 
BRANCH  18  19
HETATM   19  C2  UNL     1     -19.327  45.327 -22.340  1.00  0.00     0.076 C 
BRANCH  19  20
HETATM   20  S1  UNL     1     -18.585  45.173 -20.680  1.00  0.00    -0.173 SA
HETATM   21  C1  UNL     1     -18.679  46.898 -20.136  1.00  0.00     0.089 C 
ENDBRANCH  19  20
ENDBRANCH  18  19
ENDBRANCH  17  18
BRANCH  17  22
HETATM   22  C33 UNL     1     -18.945  46.104 -25.164  1.00  0.00     0.163 C 
HETATM   23  O9  UNL     1     -19.135  47.255 -24.810  1.00  0.00    -0.648 OA
BRANCH  22  24
HETATM   24  O10 UNL     1     -19.634  45.588 -26.203  1.00  0.00    -0.775 OA
HETATM   25  H46 UNL     1     -20.166  46.337 -26.548  1.00  0.00     0.167 HD
ENDBRANCH  22  24
ENDBRANCH  17  22
ENDBRANCH  14  17
ENDBRANCH  11  13
ENDBRANCH   8  11
ENDBRANCH   6   7
ENDBRANCH   5   6
ENDBRANCH   3   5
ENDBRANCH   2   3
ENDBRANCH   1   2
BRANCH   1  26
HETATM   26  C13 UNL     1      -6.398  47.691 -23.371  1.00  0.00     0.185 C 
HETATM   27  O5  UNL     1      -5.976  47.066 -22.387  1.00  0.00    -0.292 OA
BRANCH  26  28
HETATM   28  C14 UNL     1      -6.005  49.168 -23.561  1.00  0.00     0.128 C 
HETATM   29  C15 UNL     1      -6.045  50.067 -22.305  1.00  0.00     0.047 C 
HETATM   30  C16 UNL     1      -4.984  51.166 -22.518  1.00  0.00     0.009 C 
HETATM   31  C17 UNL     1      -4.392  50.886 -23.899  1.00  0.00     0.002 C 
HETATM   32  C18 UNL     1      -3.031  51.491 -24.278  1.00  0.00     0.003 C 
HETATM   33  C31 UNL     1      -4.532  49.359 -24.078  1.00  0.00     0.005 C 
HETATM   34  C19 UNL     1      -2.051  51.761 -23.116  1.00  0.00     0.010 C 
HETATM   35  C28 UNL     1      -2.291  50.689 -25.378  1.00  0.00     0.072 C 
HETATM   36  C20 UNL     1      -0.607  51.991 -23.596  1.00  0.00     0.035 C 
HETATM   37  C21 UNL     1      -0.573  52.506 -25.015  1.00  0.00    -0.067 C 
HETATM   38  C22 UNL     1      -0.085  53.732 -25.284  1.00  0.00     0.053 C 
HETATM   39  C26 UNL     1      -1.211  51.591 -26.083  1.00  0.00    -0.009 C 
HETATM   40  C23 UNL     1      -0.144  54.310 -26.647  1.00  0.00     0.149 C 
HETATM   41  O7  UNL     1       0.352  55.417 -26.849  1.00  0.00    -0.293 OA
HETATM   42  C24 UNL     1      -0.797  53.507 -27.748  1.00  0.00     0.084 C 
HETATM   43  C25 UNL     1      -1.801  52.493 -27.199  1.00  0.00     0.022 C 
HETATM   44  C27 UNL     1      -0.105  50.682 -26.669  1.00  0.00     0.021 C 
HETATM   45  C29 UNL     1      -3.252  49.888 -26.257  1.00  0.00     0.133 C 
HETATM   46  O8  UNL     1      -3.137  49.838 -27.485  1.00  0.00    -0.297 OA
HETATM   47  C30 UNL     1      -4.296  49.014 -25.564  1.00  0.00     0.091 C 
HETATM   48  C32 UNL     1      -3.551  48.547 -23.184  1.00  0.00     0.019 C 
BRANCH  28  49
HETATM   49  O6  UNL     1      -6.949  49.726 -24.486  1.00  0.00    -0.381 OA
HETATM   50  H21 UNL     1      -7.127  49.061 -25.180  1.00  0.00     0.211 HD
ENDBRANCH  28  49
ENDBRANCH  26  28
ENDBRANCH   1  26
TORSDOF 16
ENDMDL
MODEL 2
REMARK minimizedAffinity -7.77107811
REMARK CNNscore 0.639238834
REMARK CNNaffinity 6.77125692
REMARK  16 active torsions:
REMARK  status: ('A' for Active; 'I' for Inactive)
REMARK    1  A    between atoms: S1_2  and  C2_3 
REMARK    2  A    between atoms: C2_3  and  C3_4 
REMARK    3  A    between atoms: C3_4  and  C4_5 
REMARK    4  A    between atoms: C4_5  and  N1_6 
REMARK    5  A    between atoms: C4_5  and  C33_44 
REMARK       I    between atoms: N1_6  and  C5_7 
REMARK    6  A    between atoms: C5_7  and  C6_9 
REMARK    7  A    between atoms: C6_9  and  N2_11 
REMARK       I    between atoms: N2_11  and  C8_12 
REMARK    8  A    between atoms: C8_12  and  C9_14 
REMARK    9  A    between atoms: C9_14  and  C10_15 
REMARK   10  A    between atoms: C10_15  and  C11_16 
REMARK   11  A    between atoms: C11_16  and  O4_18 
REMARK   12  A    between atoms: O4_18  and  C12_19 
REMARK   13  A    between atoms: C12_19  and  C13_20 
REMARK   14  A    between atoms: C13_20  and  C14_22 
REMARK   15  A    between atoms: C14_22  and  O6_23 
REMARK   16  A    between atoms: C33_44  and  O10_46 
ROOT
HETATM    1  C12 UNL     1      -7.481  47.116 -24.041  1.00  0.00     0.260 C 
ENDROOT
BRANCH   1   2
HETATM    2  O4  UNL     1      -8.308  46.148 -23.409  1.00  0.00    -0.314 OA
BRANCH   2   3
HETATM    3  C11 UNL     1      -9.411  46.655 -22.790  1.00  0.00     0.259 C 
HETATM    4  O3  UNL     1      -9.478  46.938 -21.603  1.00  0.00    -0.265 OA
BRANCH   3   5
HETATM    5  C10 UNL     1     -10.546  46.769 -23.782  1.00  0.00     0.120 C 
BRANCH   5   6
HETATM    6  C9  UNL     1     -10.976  45.400 -24.292  1.00  0.00     0.112 C 
BRANCH   6   7
HETATM    7  C8  UNL     1     -11.300  45.431 -25.774  1.00  0.00     0.218 C 
HETATM    8  N2  UNL     1     -12.149  46.461 -26.115  1.00  0.00    -0.348 N 
HETATM    9  H14 UNL     1     -12.730  46.839 -25.374  1.00  0.00     0.163 HD
HETATM   10  O2  UNL     1     -10.856  44.621 -26.578  1.00  0.00    -0.274 OA
BRANCH   8  11
HETATM   11  C6  UNL     1     -12.686  46.589 -27.465  1.00  0.00     0.172 C 
HETATM   12  C7  UNL     1     -12.556  48.031 -27.941  1.00  0.00     0.042 C 
BRANCH  11  13
HETATM   13  C5  UNL     1     -14.168  46.154 -27.470  1.00  0.00     0.240 C 
HETATM   14  N1  UNL     1     -14.736  46.074 -26.216  1.00  0.00    -0.345 N 
HETATM   15  H9  UNL     1     -14.318  46.658 -25.499  1.00  0.00     0.163 HD
HETATM   16  O1  UNL     1     -14.765  45.842 -28.499  1.00  0.00    -0.271 OA
BRANCH  14  17
HETATM   17  C4  UNL     1     -16.159  45.766 -26.031  1.00  0.00     0.183 C 
BRANCH  17  18
HETATM   18  C3  UNL     1     -16.317  44.274 -25.716  1.00  0.00     0.046 C 
BRANCH  18  19
HETATM   19  C2  UNL     1     -17.342  43.582 -26.619  1.00  0.00     0.076 C 
BRANCH  19  20
HETATM   20  S1  UNL     1     -16.535  42.614 -27.939  1.00  0.00    -0.173 SA
HETATM   21  C1  UNL     1     -17.432  43.243 -29.380  1.00  0.00     0.089 C 
ENDBRANCH  19  20
ENDBRANCH  18  19
ENDBRANCH  17  18
BRANCH  17  22
HETATM   22  C33 UNL     1     -16.663  46.636 -24.879  1.00  0.00     0.163 C 
HETATM   23  O9  UNL     1     -16.016  47.463 -24.260  1.00  0.00    -0.648 OA
BRANCH  22  24
HETATM   24  O10 UNL     1     -17.944  46.382 -24.541  1.00  0.00    -0.775 OA
HETATM   25  H46 UNL     1     -18.147  47.023 -23.827  1.00  0.00     0.167 HD
ENDBRANCH  22  24
ENDBRANCH  17  22
ENDBRANCH  14  17
ENDBRANCH  11  13
ENDBRANCH   8  11
ENDBRANCH   6   7
ENDBRANCH   5   6
ENDBRANCH   3   5
ENDBRANCH   2   3
ENDBRANCH   1   2
BRANCH   1  26
HETATM   26  C13 UNL     1      -6.325  47.711 -23.242  1.00  0.00     0.185 C 
HETATM   27  O5  UNL     1      -5.692  47.011 -22.437  1.00  0.00    -0.292 OA
BRANCH  26  28
HETATM   28  C14 UNL     1      -5.934  49.188 -23.437  1.00  0.00     0.128 C 
HETATM   29  C15 UNL     1      -5.940  50.083 -22.177  1.00  0.00     0.047 C 
HETATM   30  C16 UNL     1      -4.883  51.181 -22.414  1.00  0.00     0.009 C 
HETATM   31  C17 UNL     1      -4.328  50.905 -23.812  1.00  0.00     0.002 C 
HETATM   32  C18 UNL     1      -2.977  51.508 -24.224  1.00  0.00     0.003 C 
HETATM   33  C31 UNL     1      -4.475  49.378 -23.992  1.00  0.00     0.005 C 
HETATM   34  C19 UNL     1      -1.966  51.774 -23.087  1.00  0.00     0.010 C 
HETATM   35  C28 UNL     1      -2.266  50.709 -25.345  1.00  0.00     0.072 C 
HETATM   36  C20 UNL     1      -0.534  52.003 -23.604  1.00  0.00     0.035 C 
HETATM   37  C21 UNL     1      -0.537  52.522 -25.021  1.00  0.00    -0.067 C 
HETATM   38  C22 UNL     1      -0.054  53.748 -25.300  1.00  0.00     0.053 C 
HETATM   39  C26 UNL     1      -1.205  51.612 -26.075  1.00  0.00    -0.009 C 
HETATM   40  C23 UNL     1      -0.148  54.332 -26.658  1.00  0.00     0.149 C 
HETATM   41  O7  UNL     1       0.344  55.438 -26.869  1.00  0.00    -0.293 OA
HETATM   42  C24 UNL     1      -0.831  53.533 -27.744  1.00  0.00     0.084 C 
HETATM   43  C25 UNL     1      -1.822  52.519 -27.173  1.00  0.00     0.022 C 
HETATM   44  C27 UNL     1      -0.116  50.703 -26.694  1.00  0.00     0.021 C 
HETATM   45  C29 UNL     1      -3.251  49.913 -26.202  1.00  0.00     0.133 C 
HETATM   46  O8  UNL     1      -3.170  49.867 -27.432  1.00  0.00    -0.297 OA
HETATM   47  C30 UNL     1      -4.279  49.038 -25.484  1.00  0.00     0.091 C 
HETATM   48  C32 UNL     1      -3.472  48.561 -23.126  1.00  0.00     0.019 C 
BRANCH  28  49
HETATM   49  O6  UNL     1      -6.902  49.751 -24.335  1.00  0.00    -0.381 OA
HETATM   50  H21 UNL     1      -7.099  49.089 -25.026  1.00  0.00     0.211 HD
ENDBRANCH  28  49
ENDBRANCH  26  28
ENDBRANCH   1  26
TORSDOF 16
ENDMDL
MODEL 3
REMARK minimizedAffinity -7.53836346
REMARK CNNscore 0.583909452
REMARK CNNaffinity 6.87353849
REMARK  16 active torsions:
REMARK  status: ('A' for Active; 'I' for Inactive)
REMARK    1  A    between atoms: S1_2  and  C2_3 
REMARK    2  A    between atoms: C2_3  and  C3_4 
REMARK    3  A    between atoms: C3_4  and  C4_5 
REMARK    4  A    between atoms: C4_5  and  N1_6 
REMARK    5  A    between atoms: C4_5  and  C33_44 
REMARK       I    between atoms: N1_6  and  C5_7 
REMARK    6  A    between atoms: C5_7  and  C6_9 
REMARK    7  A    between atoms: C6_9  and  N2_11 
REMARK       I    between atoms: N2_11  and  C8_12 
REMARK    8  A    between atoms: C8_12  and  C9_14 
REMARK    9  A    between atoms: C9_14  and  C10_15 
REMARK   10  A    between atoms: C10_15  and  C11_16 
REMARK   11  A    between atoms: C11_16  and  O4_18 
REMARK   12  A    between atoms: O4_18  and  C12_19 
REMARK   13  A    between atoms: C12_19  and  C13_20 
REMARK   14  A    between atoms: C13_20  and  C14_22 
REMARK   15  A    between atoms: C14_22  and  O6_23 
REMARK   16  A    between atoms: C33_44  and  O10_46 
ROOT
HETATM    1  C12 UNL     1      -2.941  50.229 -13.574  1.00  0.00     0.260 C 
ENDROOT
BRANCH   1   2
HETATM    2  O4  UNL     1      -1.580  50.012 -13.923  1.00  0.00    -0.314 OA
BRANCH   2   3
HETATM    3  C11 UNL     1      -1.199  50.565 -15.109  1.00  0.00     0.259 C 
HETATM    4  O3  UNL     1      -0.217  51.276 -15.265  1.00  0.00    -0.265 OA
BRANCH   3   5
HETATM    5  C10 UNL     1      -2.198  50.205 -16.185  1.00  0.00     0.120 C 
BRANCH   5   6
HETATM    6  C9  UNL     1      -1.507  49.939 -17.515  1.00  0.00     0.112 C 
BRANCH   6   7
HETATM    7  C8  UNL     1      -2.031  50.849 -18.611  1.00  0.00     0.218 C 
HETATM    8  N2  UNL     1      -2.360  50.168 -19.761  1.00  0.00    -0.348 N 
HETATM    9  H14 UNL     1      -1.914  49.267 -19.903  1.00  0.00     0.163 HD
HETATM   10  O2  UNL     1      -2.143  52.062 -18.482  1.00  0.00    -0.274 OA
BRANCH   8  11
HETATM   11  C6  UNL     1      -2.758  50.871 -20.975  1.00  0.00     0.172 C 
HETATM   12  C7  UNL     1      -4.212  50.554 -21.306  1.00  0.00     0.042 C 
BRANCH  11  13
HETATM   13  C5  UNL     1      -1.838  50.446 -22.140  1.00  0.00     0.240 C 
HETATM   14  N1  UNL     1      -1.867  51.301 -23.222  1.00  0.00    -0.345 N 
HETATM   15  H9  UNL     1      -2.126  52.263 -23.023  1.00  0.00     0.163 HD
HETATM   16  O1  UNL     1      -1.191  49.400 -22.128  1.00  0.00    -0.271 OA
BRANCH  14  17
HETATM   17  C4  UNL     1      -0.990  51.108 -24.383  1.00  0.00     0.183 C 
BRANCH  17  18
HETATM   18  C3  UNL     1      -1.760  50.363 -25.480  1.00  0.00     0.046 C 
BRANCH  18  19
HETATM   19  C2  UNL     1      -2.732  51.268 -26.241  1.00  0.00     0.076 C 
BRANCH  19  20
HETATM   20  S1  UNL     1      -3.162  50.577 -27.874  1.00  0.00    -0.173 SA
HETATM   21  C1  UNL     1      -3.509  48.863 -27.406  1.00  0.00     0.089 C 
ENDBRANCH  19  20
ENDBRANCH  18  19
ENDBRANCH  17  18
BRANCH  17  22
HETATM   22  C33 UNL     1      -0.551  52.495 -24.852  1.00  0.00     0.163 C 
HETATM   23  O9  UNL     1       0.590  52.851 -25.089  1.00  0.00    -0.648 OA
BRANCH  22  24
HETATM   24  O10 UNL     1      -1.573  53.371 -24.953  1.00  0.00    -0.775 OA
HETATM   25  H46 UNL     1      -1.164  54.196 -25.292  1.00  0.00     0.167 HD
ENDBRANCH  22  24
ENDBRANCH  17  22
ENDBRANCH  14  17
ENDBRANCH  11  13
ENDBRANCH   8  11
ENDBRANCH   6   7
ENDBRANCH   5   6
ENDBRANCH   3   5
ENDBRANCH   2   3
ENDBRANCH   1   2
BRANCH   1  26
HETATM   26  C13 UNL     1      -3.250  50.827 -12.204  1.00  0.00     0.185 C 
HETATM   27  O5  UNL     1      -3.849  50.160 -11.348  1.00  0.00    -0.292 OA
BRANCH  26  28
HETATM   28  C14 UNL     1      -2.809  52.266 -11.876  1.00  0.00     0.128 C 
HETATM   29  C15 UNL     1      -3.795  53.127 -11.055  1.00  0.00     0.047 C 
HETATM   30  C16 UNL     1      -2.940  54.128 -10.252  1.00  0.00     0.009 C 
HETATM   31  C17 UNL     1      -1.496  53.836 -10.661  1.00  0.00     0.002 C 
HETATM   32  C18 UNL     1      -0.342  54.322  -9.770  1.00  0.00     0.003 C 
HETATM   33  C31 UNL     1      -1.491  52.335 -11.020  1.00  0.00     0.005 C 
HETATM   34  C19 UNL     1      -0.649  54.466  -8.263  1.00  0.00     0.010 C 
HETATM   35  C28 UNL     1       0.953  53.488  -9.937  1.00  0.00     0.072 C 
HETATM   36  C20 UNL     1       0.623  54.575  -7.404  1.00  0.00     0.035 C 
HETATM   37  C21 UNL     1       1.780  55.126  -8.200  1.00  0.00    -0.067 C 
HETATM   38  C22 UNL     1       2.334  56.309  -7.870  1.00  0.00     0.053 C 
HETATM   39  C26 UNL     1       2.201  54.307  -9.440  1.00  0.00    -0.009 C 
HETATM   40  C23 UNL     1       3.392  56.931  -8.699  1.00  0.00     0.149 C 
HETATM   41  O7  UNL     1       3.893  57.992  -8.332  1.00  0.00    -0.293 OA
HETATM   42  C24 UNL     1       3.834  56.225  -9.960  1.00  0.00     0.084 C 
HETATM   43  C25 UNL     1       2.751  55.293 -10.504  1.00  0.00     0.022 C 
HETATM   44  C27 UNL     1       3.312  53.317  -9.015  1.00  0.00     0.021 C 
HETATM   45  C29 UNL     1       1.031  52.807 -11.304  1.00  0.00     0.133 C 
HETATM   46  O8  UNL     1       2.068  52.784 -11.971  1.00  0.00    -0.297 OA
HETATM   47  C30 UNL     1      -0.186  52.014 -11.778  1.00  0.00     0.091 C 
HETATM   48  C32 UNL     1      -1.623  51.408  -9.777  1.00  0.00     0.019 C 
BRANCH  28  49
HETATM   49  O6  UNL     1      -2.639  52.938 -13.133  1.00  0.00    -0.381 OA
HETATM   50  H21 UNL     1      -2.223  52.313 -13.760  1.00  0.00     0.211 HD
ENDBRANCH  28  49
ENDBRANCH  26  28
ENDBRANCH   1  26
TORSDOF 16
ENDMDL
MODEL 4
REMARK minimizedAffinity -7.6014781
REMARK CNNscore 0.501422524
REMARK CNNaffinity 6.60592222
REMARK  16 active torsions:
REMARK  status: ('A' for Active; 'I' for Inactive)
REMARK    1  A    between atoms: S1_2  and  C2_3 
REMARK    2  A    between atoms: C2_3  and  C3_4 
REMARK    3  A    between atoms: C3_4  and  C4_5 
REMARK    4  A    between atoms: C4_5  and  N1_6 
REMARK    5  A    between atoms: C4_5  and  C33_44 
REMARK       I    between atoms: N1_6  and  C5_7 
REMARK    6  A    between atoms: C5_7  and  C6_9 
REMARK    7  A    between atoms: C6_9  and  N2_11 
REMARK       I    between atoms: N2_11  and  C8_12 
REMARK    8  A    between atoms: C8_12  and  C9_14 
REMARK    9  A    between atoms: C9_14  and  C10_15 
REMARK   10  A    between atoms: C10_15  and  C11_16 
REMARK   11  A    between atoms: C11_16  and  O4_18 
REMARK   12  A    between atoms: O4_18  and  C12_19 
REMARK   13  A    between atoms: C12_19  and  C13_20 
REMARK   14  A    between atoms: C13_20  and  C14_22 
REMARK   15  A    between atoms: C14_22  and  O6_23 
REMARK   16  A    between atoms: C33_44  and  O10_46 
ROOT
HETATM    1  C12 UNL     1      -7.140  47.580 -23.994  1.00  0.00     0.260 C 
ENDROOT
BRANCH   1   2
HETATM    2  O4  UNL     1      -8.078  46.958 -24.863  1.00  0.00    -0.314 OA
BRANCH   2   3
HETATM    3  C11 UNL     1      -9.112  47.755 -25.253  1.00  0.00     0.259 C 
HETATM    4  O3  UNL     1      -9.245  48.929 -24.940  1.00  0.00    -0.265 OA
BRANCH   3   5
HETATM    5  C10 UNL     1     -10.086  46.957 -26.088  1.00  0.00     0.120 C 
BRANCH   5   6
HETATM    6  C9  UNL     1     -11.055  47.867 -26.831  1.00  0.00     0.112 C 
BRANCH   6   7
HETATM    7  C8  UNL     1     -12.437  47.247 -26.937  1.00  0.00     0.218 C 
HETATM    8  N2  UNL     1     -12.403  45.872 -27.007  1.00  0.00    -0.348 N 
HETATM    9  H14 UNL     1     -11.539  45.452 -27.334  1.00  0.00     0.163 HD
HETATM   10  O2  UNL     1     -13.470  47.905 -26.963  1.00  0.00    -0.274 OA
BRANCH   8  11
HETATM   11  C6  UNL     1     -13.612  45.092 -27.243  1.00  0.00     0.172 C 
HETATM   12  C7  UNL     1     -14.334  45.615 -28.480  1.00  0.00     0.042 C 
BRANCH  11  13
HETATM   13  C5  UNL     1     -14.532  45.183 -26.006  1.00  0.00     0.240 C 
HETATM   14  N1  UNL     1     -15.554  46.101 -26.130  1.00  0.00    -0.345 N 
HETATM   15  H9  UNL     1     -15.853  46.310 -27.078  1.00  0.00     0.163 HD
HETATM   16  O1  UNL     1     -14.327  44.543 -24.977  1.00  0.00    -0.271 OA
BRANCH  14  17
HETATM   17  C4  UNL     1     -16.580  46.260 -25.093  1.00  0.00     0.183 C 
BRANCH  17  18
HETATM   18  C3  UNL     1     -17.217  44.896 -24.798  1.00  0.00     0.046 C 
BRANCH  18  19
HETATM   19  C2  UNL     1     -18.592  44.731 -25.448  1.00  0.00     0.076 C 
BRANCH  19  20
HETATM   20  S1  UNL     1     -19.871  45.700 -24.580  1.00  0.00    -0.173 SA
HETATM   21  C1  UNL     1     -19.481  45.267 -22.866  1.00  0.00     0.089 C 
ENDBRANCH  19  20
ENDBRANCH  18  19
ENDBRANCH  17  18
BRANCH  17  22
HETATM   22  C33 UNL     1     -15.888  46.832 -23.856  1.00  0.00     0.163 C 
HETATM   23  O9  UNL     1     -15.306  47.901 -23.782  1.00  0.00    -0.648 OA
BRANCH  22  24
HETATM   24  O10 UNL     1     -15.928  46.003 -22.793  1.00  0.00    -0.775 OA
HETATM   25  H46 UNL     1     -15.487  46.500 -22.070  1.00  0.00     0.167 HD
ENDBRANCH  22  24
ENDBRANCH  17  22
ENDBRANCH  14  17
ENDBRANCH  11  13
ENDBRANCH   8  11
ENDBRANCH   6   7
ENDBRANCH   5   6
ENDBRANCH   3   5
ENDBRANCH   2   3
ENDBRANCH   1   2
BRANCH   1  26
HETATM   26  C13 UNL     1      -6.066  48.472 -24.610  1.00  0.00     0.185 C 
HETATM   27  O5  UNL     1      -5.646  48.249 -25.755  1.00  0.00    -0.292 OA
BRANCH  26  28
HETATM   28  C14 UNL     1      -5.501  49.661 -23.810  1.00  0.00     0.128 C 
HETATM   29  C15 UNL     1      -5.703  49.629 -22.278  1.00  0.00     0.047 C 
HETATM   30  C16 UNL     1      -4.520  50.404 -21.664  1.00  0.00     0.009 C 
HETATM   31  C17 UNL     1      -3.695  50.885 -22.858  1.00  0.00     0.002 C 
HETATM   32  C18 UNL     1      -2.234  51.312 -22.648  1.00  0.00     0.003 C 
HETATM   33  C31 UNL     1      -3.943  49.824 -23.952  1.00  0.00     0.005 C 
HETATM   34  C19 UNL     1      -1.482  50.642 -21.477  1.00  0.00     0.010 C 
HETATM   35  C28 UNL     1      -1.371  51.188 -23.929  1.00  0.00     0.072 C 
HETATM   36  C20 UNL     1       0.044  50.820 -21.569  1.00  0.00     0.035 C 
HETATM   37  C21 UNL     1       0.408  52.054 -22.358  1.00  0.00    -0.067 C 
HETATM   38  C22 UNL     1       1.057  53.075 -21.766  1.00  0.00     0.053 C 
HETATM   39  C26 UNL     1      -0.091  52.096 -23.819  1.00  0.00    -0.009 C 
HETATM   40  C23 UNL     1       1.326  54.344 -22.480  1.00  0.00     0.149 C 
HETATM   41  O7  UNL     1       1.957  55.231 -21.908  1.00  0.00    -0.293 OA
HETATM   42  C24 UNL     1       0.830  54.496 -23.899  1.00  0.00     0.084 C 
HETATM   43  C25 UNL     1      -0.356  53.579 -24.193  1.00  0.00     0.022 C 
HETATM   44  C27 UNL     1       1.017  51.513 -24.729  1.00  0.00     0.021 C 
HETATM   45  C29 UNL     1      -2.211  51.272 -25.204  1.00  0.00     0.133 C 
HETATM   46  O8  UNL     1      -1.860  51.936 -26.183  1.00  0.00    -0.297 OA
HETATM   47  C30 UNL     1      -3.452  50.386 -25.303  1.00  0.00     0.091 C 
HETATM   48  C32 UNL     1      -3.243  48.466 -23.657  1.00  0.00     0.019 C 
BRANCH  28  49
HETATM   49  O6  UNL     1      -6.184  50.831 -24.282  1.00  0.00    -0.381 OA
HETATM   50  H21 UNL     1      -6.285  50.757 -25.251  1.00  0.00     0.211 HD
ENDBRANCH  28  49
ENDBRANCH  26  28
ENDBRANCH   1  26
TORSDOF 16
ENDMDL
MODEL 5
REMARK minimizedAffinity -8.41680908
REMARK CNNscore 0.446351141
REMARK CNNaffinity 7.25258255
REMARK  16 active torsions:
REMARK  status: ('A' for Active; 'I' for Inactive)
REMARK    1  A    between atoms: S1_2  and  C2_3 
REMARK    2  A    between atoms: C2_3  and  C3_4 
REMARK    3  A    between atoms: C3_4  and  C4_5 
REMARK    4  A    between atoms: C4_5  and  N1_6 
REMARK    5  A    between atoms: C4_5  and  C33_44 
REMARK       I    between atoms: N1_6  and  C5_7 
REMARK    6  A    between atoms: C5_7  and  C6_9 
REMARK    7  A    between atoms: C6_9  and  N2_11 
REMARK       I    between atoms: N2_11  and  C8_12 
REMARK    8  A    between atoms: C8_12  and  C9_14 
REMARK    9  A    between atoms: C9_14  and  C10_15 
REMARK   10  A    between atoms: C10_15  and  C11_16 
REMARK   11  A    between atoms: C11_16  and  O4_18 
REMARK   12  A    between atoms: O4_18  and  C12_19 
REMARK   13  A    between atoms: C12_19  and  C13_20 
REMARK   14  A    between atoms: C13_20  and  C14_22 
REMARK   15  A    between atoms: C14_22  and  O6_23 
REMARK   16  A    between atoms: C33_44  and  O10_46 
ROOT
HETATM    1  C12 UNL     1      -3.599  47.527 -19.274  1.00  0.00     0.260 C 
ENDROOT
BRANCH   1   2
HETATM    2  O4  UNL     1      -2.248  47.760 -18.897  1.00  0.00    -0.314 OA
BRANCH   2   3
HETATM    3  C11 UNL     1      -2.091  48.516 -17.774  1.00  0.00     0.259 C 
HETATM    4  O3  UNL     1      -2.907  48.600 -16.868  1.00  0.00    -0.265 OA
BRANCH   3   5
HETATM    5  C10 UNL     1      -0.780  49.266 -17.842  1.00  0.00     0.120 C 
BRANCH   5   6
HETATM    6  C9  UNL     1      -0.976  50.675 -18.384  1.00  0.00     0.112 C 
BRANCH   6   7
HETATM    7  C8  UNL     1       0.046  51.642 -17.813  1.00  0.00     0.218 C 
HETATM    8  N2  UNL     1       0.505  51.264 -16.571  1.00  0.00    -0.348 N 
HETATM    9  H14 UNL     1      -0.094  50.648 -16.030  1.00  0.00     0.163 HD
HETATM   10  O2  UNL     1       0.417  52.652 -18.398  1.00  0.00    -0.274 OA
BRANCH   8  11
HETATM   11  C6  UNL     1       1.392  52.122 -15.794  1.00  0.00     0.172 C 
HETATM   12  C7  UNL     1       2.701  52.333 -16.546  1.00  0.00     0.042 C 
BRANCH  11  13
HETATM   13  C5  UNL     1       1.662  51.470 -14.420  1.00  0.00     0.240 C 
HETATM   14  N1  UNL     1       2.886  51.795 -13.874  1.00  0.00    -0.345 N 
HETATM   15  H9  UNL     1       3.288  52.678 -14.173  1.00  0.00     0.163 HD
HETATM   16  O1  UNL     1       0.881  50.679 -13.895  1.00  0.00    -0.271 OA
BRANCH  14  17
HETATM   17  C4  UNL     1       3.278  51.344 -12.533  1.00  0.00     0.183 C 
BRANCH  17  18
HETATM   18  C3  UNL     1       2.033  51.270 -11.640  1.00  0.00     0.046 C 
BRANCH  18  19
HETATM   19  C2  UNL     1       1.954  52.423 -10.636  1.00  0.00     0.076 C 
BRANCH  19  20
HETATM   20  S1  UNL     1       0.656  53.624 -11.085  1.00  0.00    -0.173 SA
HETATM   21  C1  UNL     1       1.415  55.148 -10.470  1.00  0.00     0.089 C 
ENDBRANCH  19  20
ENDBRANCH  18  19
ENDBRANCH  17  18
BRANCH  17  22
HETATM   22  C33 UNL     1       3.933  49.972 -12.692  1.00  0.00     0.163 C 
HETATM   23  O9  UNL     1       4.892  49.705 -13.395  1.00  0.00    -0.648 OA
BRANCH  22  24
HETATM   24  O10 UNL     1       3.313  49.001 -11.988  1.00  0.00    -0.775 OA
HETATM   25  H46 UNL     1       3.847  48.195 -12.149  1.00  0.00     0.167 HD
ENDBRANCH  22  24
ENDBRANCH  17  22
ENDBRANCH  14  17
ENDBRANCH  11  13
ENDBRANCH   8  11
ENDBRANCH   6   7
ENDBRANCH   5   6
ENDBRANCH   3   5
ENDBRANCH   2   3
ENDBRANCH   1   2
BRANCH   1  26
HETATM   26  C13 UNL     1      -3.996  47.770 -20.727  1.00  0.00     0.185 C 
HETATM   27  O5  UNL     1      -4.344  46.825 -21.450  1.00  0.00    -0.292 OA
BRANCH  26  28
HETATM   28  C14 UNL     1      -3.972  49.199 -21.302  1.00  0.00     0.128 C 
HETATM   29  C15 UNL     1      -3.832  50.356 -20.287  1.00  0.00     0.047 C 
HETATM   30  C16 UNL     1      -3.114  51.504 -21.026  1.00  0.00     0.009 C 
HETATM   31  C17 UNL     1      -2.894  50.986 -22.448  1.00  0.00     0.002 C 
HETATM   32  C18 UNL     1      -1.843  51.657 -23.346  1.00  0.00     0.003 C 
HETATM   33  C31 UNL     1      -2.773  49.455 -22.288  1.00  0.00     0.005 C 
HETATM   34  C19 UNL     1      -0.648  52.321 -22.628  1.00  0.00     0.010 C 
HETATM   35  C28 UNL     1      -1.300  50.723 -24.456  1.00  0.00     0.072 C 
HETATM   36  C20 UNL     1       0.527  52.619 -23.578  1.00  0.00     0.035 C 
HETATM   37  C21 UNL     1       0.055  52.784 -25.002  1.00  0.00    -0.067 C 
HETATM   38  C22 UNL     1       0.195  53.964 -25.634  1.00  0.00     0.053 C 
HETATM   39  C26 UNL     1      -0.665  51.566 -25.622  1.00  0.00    -0.009 C 
HETATM   40  C23 UNL     1      -0.360  54.192 -26.989  1.00  0.00     0.149 C 
HETATM   41  O7  UNL     1      -0.171  55.275 -27.539  1.00  0.00    -0.293 OA
HETATM   42  C24 UNL     1      -1.126  53.073 -27.656  1.00  0.00     0.084 C 
HETATM   43  C25 UNL     1      -1.713  52.094 -26.638  1.00  0.00     0.022 C 
HETATM   44  C27 UNL     1       0.387  50.699 -26.353  1.00  0.00     0.021 C 
HETATM   45  C29 UNL     1      -2.293  49.618 -24.819  1.00  0.00     0.133 C 
HETATM   46  O8  UNL     1      -2.523  49.295 -25.988  1.00  0.00    -0.297 OA
HETATM   47  C30 UNL     1      -2.904  48.802 -23.681  1.00  0.00     0.091 C 
HETATM   48  C32 UNL     1      -1.440  49.013 -21.619  1.00  0.00     0.019 C 
BRANCH  28  49
HETATM   49  O6  UNL     1      -5.230  49.394 -21.963  1.00  0.00    -0.381 OA
HETATM   50  H21 UNL     1      -5.463  48.567 -22.429  1.00  0.00     0.211 HD
ENDBRANCH  28  49
ENDBRANCH  26  28
ENDBRANCH   1  26
TORSDOF 16
ENDMDL
MODEL 6
REMARK minimizedAffinity -7.92951298
REMARK CNNscore 0.428952664
REMARK CNNaffinity 6.65534258
REMARK  16 active torsions:
REMARK  status: ('A' for Active; 'I' for Inactive)
REMARK    1  A    between atoms: S1_2  and  C2_3 
REMARK    2  A    between atoms: C2_3  and  C3_4 
REMARK    3  A    between atoms: C3_4  and  C4_5 
REMARK    4  A    between atoms: C4_5  and  N1_6 
REMARK    5  A    between atoms: C4_5  and  C33_44 
REMARK       I    between atoms: N1_6  and  C5_7 
REMARK    6  A    between atoms: C5_7  and  C6_9 
REMARK    7  A    between atoms: C6_9  and  N2_11 
REMARK       I    between atoms: N2_11  and  C8_12 
REMARK    8  A    between atoms: C8_12  and  C9_14 
REMARK    9  A    between atoms: C9_14  and  C10_15 
REMARK   10  A    between atoms: C10_15  and  C11_16 
REMARK   11  A    between atoms: C11_16  and  O4_18 
REMARK   12  A    between atoms: O4_18  and  C12_19 
REMARK   13  A    between atoms: C12_19  and  C13_20 
REMARK   14  A    between atoms: C13_20  and  C14_22 
REMARK   15  A    between atoms: C14_22  and  O6_23 
REMARK   16  A    between atoms: C33_44  and  O10_46 
ROOT
HETATM    1  C12 UNL     1      -1.852  50.478 -17.858  1.00  0.00     0.260 C 
ENDROOT
BRANCH   1   2
HETATM    2  O4  UNL     1      -2.292  50.847 -16.558  1.00  0.00    -0.314 OA
BRANCH   2   3
HETATM    3  C11 UNL     1      -2.093  49.902 -15.597  1.00  0.00     0.259 C 
HETATM    4  O3  UNL     1      -2.786  48.908 -15.440  1.00  0.00    -0.265 OA
BRANCH   3   5
HETATM    5  C10 UNL     1      -0.917  50.294 -14.732  1.00  0.00     0.120 C 
BRANCH   5   6
HETATM    6  C9  UNL     1      -1.131  51.659 -14.092  1.00  0.00     0.112 C 
BRANCH   6   7
HETATM    7  C8  UNL     1      -1.762  51.541 -12.716  1.00  0.00     0.218 C 
HETATM    8  N2  UNL     1      -2.077  52.762 -12.165  1.00  0.00    -0.348 N 
HETATM    9  H14 UNL     1      -1.567  53.568 -12.515  1.00  0.00     0.163 HD
HETATM   10  O2  UNL     1      -1.963  50.469 -12.157  1.00  0.00    -0.274 OA
BRANCH   8  11
HETATM   11  C6  UNL     1      -2.571  52.876 -10.797  1.00  0.00     0.172 C 
HETATM   12  C7  UNL     1      -3.480  54.093 -10.673  1.00  0.00     0.042 C 
BRANCH  11  13
HETATM   13  C5  UNL     1      -1.374  52.999  -9.828  1.00  0.00     0.240 C 
HETATM   14  N1  UNL     1      -0.837  54.266  -9.755  1.00  0.00    -0.345 N 
HETATM   15  H9  UNL     1      -1.465  55.031  -9.982  1.00  0.00     0.163 HD
HETATM   16  O1  UNL     1      -0.903  52.034  -9.229  1.00  0.00    -0.271 OA
BRANCH  14  17
HETATM   17  C4  UNL     1       0.245  54.594  -8.819  1.00  0.00     0.183 C 
BRANCH  17  18
HETATM   18  C3  UNL     1       1.423  55.192  -9.597  1.00  0.00     0.046 C 
BRANCH  18  19
HETATM   19  C2  UNL     1       2.421  55.922  -8.694  1.00  0.00     0.076 C 
BRANCH  19  20
HETATM   20  S1  UNL     1       4.070  56.039  -9.466  1.00  0.00    -0.173 SA
HETATM   21  C1  UNL     1       3.975  54.647 -10.619  1.00  0.00     0.089 C 
ENDBRANCH  19  20
ENDBRANCH  18  19
ENDBRANCH  17  18
BRANCH  17  22
HETATM   22  C33 UNL     1      -0.320  55.591  -7.807  1.00  0.00     0.163 C 
HETATM   23  O9  UNL     1      -0.593  56.760  -8.018  1.00  0.00    -0.648 OA
BRANCH  22  24
HETATM   24  O10 UNL     1      -0.467  55.070  -6.571  1.00  0.00    -0.775 OA
HETATM   25  H46 UNL     1      -0.865  55.792  -6.040  1.00  0.00     0.167 HD
ENDBRANCH  22  24
ENDBRANCH  17  22
ENDBRANCH  14  17
ENDBRANCH  11  13
ENDBRANCH   8  11
ENDBRANCH   6   7
ENDBRANCH   5   6
ENDBRANCH   3   5
ENDBRANCH   2   3
ENDBRANCH   1   2
BRANCH   1  26
HETATM   26  C13 UNL     1      -2.867  49.867 -18.819  1.00  0.00     0.185 C 
HETATM   27  O5  UNL     1      -4.059  49.764 -18.491  1.00  0.00    -0.292 OA
BRANCH  26  28
HETATM   28  C14 UNL     1      -2.415  49.380 -20.209  1.00  0.00     0.128 C 
HETATM   29  C15 UNL     1      -3.413  48.501 -20.998  1.00  0.00     0.047 C 
HETATM   30  C16 UNL     1      -3.133  48.754 -22.493  1.00  0.00     0.009 C 
HETATM   31  C17 UNL     1      -1.966  49.742 -22.518  1.00  0.00     0.002 C 
HETATM   32  C18 UNL     1      -1.688  50.554 -23.792  1.00  0.00     0.003 C 
HETATM   33  C31 UNL     1      -2.116  50.553 -21.213  1.00  0.00     0.005 C 
HETATM   34  C19 UNL     1      -2.902  50.852 -24.698  1.00  0.00     0.010 C 
HETATM   35  C28 UNL     1      -0.934  51.880 -23.520  1.00  0.00     0.072 C 
HETATM   36  C20 UNL     1      -2.625  51.971 -25.719  1.00  0.00     0.035 C 
HETATM   37  C21 UNL     1      -1.152  52.080 -26.029  1.00  0.00    -0.067 C 
HETATM   38  C22 UNL     1      -0.696  51.832 -27.271  1.00  0.00     0.053 C 
HETATM   39  C26 UNL     1      -0.229  52.391 -24.830  1.00  0.00    -0.009 C 
HETATM   40  C23 UNL     1       0.753  51.818 -27.580  1.00  0.00     0.149 C 
HETATM   41  O7  UNL     1       1.116  51.625 -28.739  1.00  0.00    -0.293 OA
HETATM   42  C24 UNL     1       1.735  52.062 -26.458  1.00  0.00     0.084 C 
HETATM   43  C25 UNL     1       1.143  51.715 -25.092  1.00  0.00     0.022 C 
HETATM   44  C27 UNL     1      -0.051  53.925 -24.738  1.00  0.00     0.021 C 
HETATM   45  C29 UNL     1      -0.113  51.825 -22.231  1.00  0.00     0.133 C 
HETATM   46  O8  UNL     1       1.036  52.269 -22.160  1.00  0.00    -0.297 OA
HETATM   47  C30 UNL     1      -0.805  51.328 -20.962  1.00  0.00     0.091 C 
HETATM   48  C32 UNL     1      -3.319  51.540 -21.242  1.00  0.00     0.019 C 
BRANCH  28  49
HETATM   49  O6  UNL     1      -1.247  48.574 -19.999  1.00  0.00    -0.381 OA
HETATM   50  H21 UNL     1      -0.702  49.000 -19.309  1.00  0.00     0.211 HD
ENDBRANCH  28  49
ENDBRANCH  26  28
ENDBRANCH   1  26
TORSDOF 16
ENDMDL
MODEL 7
REMARK minimizedAffinity -7.90119267
REMARK CNNscore 0.368111581
REMARK CNNaffinity 6.39127922
REMARK  16 active torsions:
REMARK  status: ('A' for Active; 'I' for Inactive)
REMARK    1  A    between atoms: S1_2  and  C2_3 
REMARK    2  A    between atoms: C2_3  and  C3_4 
REMARK    3  A    between atoms: C3_4  and  C4_5 
REMARK    4  A    between atoms: C4_5  and  N1_6 
REMARK    5  A    between atoms: C4_5  and  C33_44 
REMARK       I    between atoms: N1_6  and  C5_7 
REMARK    6  A    between atoms: C5_7  and  C6_9 
REMARK    7  A    between atoms: C6_9  and  N2_11 
REMARK       I    between atoms: N2_11  and  C8_12 
REMARK    8  A    between atoms: C8_12  and  C9_14 
REMARK    9  A    between atoms: C9_14  and  C10_15 
REMARK   10  A    between atoms: C10_15  and  C11_16 
REMARK   11  A    between atoms: C11_16  and  O4_18 
REMARK   12  A    between atoms: O4_18  and  C12_19 
REMARK   13  A    between atoms: C12_19  and  C13_20 
REMARK   14  A    between atoms: C13_20  and  C14_22 
REMARK   15  A    between atoms: C14_22  and  O6_23 
REMARK   16  A    between atoms: C33_44  and  O10_46 
ROOT
HETATM    1  C12 UNL     1      -8.061  46.363 -27.227  1.00  0.00     0.260 C 
ENDROOT
BRANCH   1   2
HETATM    2  O4  UNL     1      -7.572  47.548 -26.612  1.00  0.00    -0.314 OA
BRANCH   2   3
HETATM    3  C11 UNL     1      -6.241  47.779 -26.793  1.00  0.00     0.259 C 
HETATM    4  O3  UNL     1      -5.642  47.624 -27.847  1.00  0.00    -0.265 OA
BRANCH   3   5
HETATM    5  C10 UNL     1      -5.615  48.208 -25.486  1.00  0.00     0.120 C 
BRANCH   5   6
HETATM    6  C9  UNL     1      -4.095  48.230 -25.581  1.00  0.00     0.112 C 
BRANCH   6   7
HETATM    7  C8  UNL     1      -3.466  48.853 -24.348  1.00  0.00     0.218 C 
HETATM    8  N2  UNL     1      -3.669  50.212 -24.272  1.00  0.00    -0.348 N 
HETATM    9  H14 UNL     1      -3.869  50.695 -25.142  1.00  0.00     0.163 HD
HETATM   10  O2  UNL     1      -2.839  48.210 -23.514  1.00  0.00    -0.274 OA
BRANCH   8  11
HETATM   11  C6  UNL     1      -3.037  51.020 -23.234  1.00  0.00     0.172 C 
HETATM   12  C7  UNL     1      -3.946  52.183 -22.855  1.00  0.00     0.042 C 
BRANCH  11  13
HETATM   13  C5  UNL     1      -1.679  51.546 -23.750  1.00  0.00     0.240 C 
HETATM   14  N1  UNL     1      -1.502  51.408 -25.111  1.00  0.00    -0.345 N 
HETATM   15  H9  UNL     1      -2.349  51.376 -25.670  1.00  0.00     0.163 HD
HETATM   16  O1  UNL     1      -0.810  51.985 -23.001  1.00  0.00    -0.271 OA
BRANCH  14  17
HETATM   17  C4  UNL     1      -0.314  51.934 -25.792  1.00  0.00     0.183 C 
BRANCH  17  18
HETATM   18  C3  UNL     1      -0.050  51.109 -27.058  1.00  0.00     0.046 C 
BRANCH  18  19
HETATM   19  C2  UNL     1       0.757  51.877 -28.108  1.00  0.00     0.076 C 
BRANCH  19  20
HETATM   20  S1  UNL     1       2.553  51.719 -27.829  1.00  0.00    -0.173 SA
HETATM   21  C1  UNL     1       2.552  51.140 -26.113  1.00  0.00     0.089 C 
ENDBRANCH  19  20
ENDBRANCH  18  19
ENDBRANCH  17  18
BRANCH  17  22
HETATM   22  C33 UNL     1      -0.597  53.398 -26.129  1.00  0.00     0.163 C 
HETATM   23  O9  UNL     1      -0.527  54.343 -25.362  1.00  0.00    -0.648 OA
BRANCH  22  24
HETATM   24  O10 UNL     1      -0.998  53.583 -27.404  1.00  0.00    -0.775 OA
HETATM   25  H46 UNL     1      -1.109  54.554 -27.494  1.00  0.00     0.167 HD
ENDBRANCH  22  24
ENDBRANCH  17  22
ENDBRANCH  14  17
ENDBRANCH  11  13
ENDBRANCH   8  11
ENDBRANCH   6   7
ENDBRANCH   5   6
ENDBRANCH   3   5
ENDBRANCH   2   3
ENDBRANCH   1   2
BRANCH   1  26
HETATM   26  C13 UNL     1      -8.870  46.498 -28.514  1.00  0.00     0.185 C 
HETATM   27  O5  UNL     1      -8.406  46.096 -29.591  1.00  0.00    -0.292 OA
BRANCH  26  28
HETATM   28  C14 UNL     1     -10.274  47.129 -28.478  1.00  0.00     0.128 C 
HETATM   29  C15 UNL     1     -10.955  47.391 -29.841  1.00  0.00     0.047 C 
HETATM   30  C16 UNL     1     -12.475  47.293 -29.597  1.00  0.00     0.009 C 
HETATM   31  C17 UNL     1     -12.621  47.013 -28.101  1.00  0.00     0.002 C 
HETATM   32  C18 UNL     1     -13.938  46.431 -27.564  1.00  0.00     0.003 C 
HETATM   33  C31 UNL     1     -11.335  46.248 -27.723  1.00  0.00     0.005 C 
HETATM   34  C19 UNL     1     -14.756  45.561 -28.543  1.00  0.00     0.010 C 
HETATM   35  C28 UNL     1     -13.766  45.655 -26.233  1.00  0.00     0.072 C 
HETATM   36  C20 UNL     1     -15.830  44.715 -27.834  1.00  0.00     0.035 C 
HETATM   37  C21 UNL     1     -16.256  45.346 -26.531  1.00  0.00    -0.067 C 
HETATM   38  C22 UNL     1     -17.522  45.774 -26.362  1.00  0.00     0.053 C 
HETATM   39  C26 UNL     1     -15.142  45.546 -25.479  1.00  0.00    -0.009 C 
HETATM   40  C23 UNL     1     -17.940  46.500 -25.140  1.00  0.00     0.149 C 
HETATM   41  O7  UNL     1     -19.117  46.835 -25.017  1.00  0.00    -0.293 OA
HETATM   42  C24 UNL     1     -16.906  46.786 -24.077  1.00  0.00     0.084 C 
HETATM   43  C25 UNL     1     -15.488  46.810 -24.648  1.00  0.00     0.022 C 
HETATM   44  C27 UNL     1     -15.112  44.302 -24.560  1.00  0.00     0.021 C 
HETATM   45  C29 UNL     1     -12.543  46.123 -25.444  1.00  0.00     0.133 C 
HETATM   46  O8  UNL     1     -12.575  46.307 -24.225  1.00  0.00    -0.297 OA
HETATM   47  C30 UNL     1     -11.210  46.226 -26.184  1.00  0.00     0.091 C 
HETATM   48  C32 UNL     1     -11.302  44.794 -28.278  1.00  0.00     0.019 C 
BRANCH  28  49
HETATM   49  O6  UNL     1     -10.130  48.410 -27.848  1.00  0.00    -0.381 OA
HETATM   50  H21 UNL     1      -9.497  48.318 -27.109  1.00  0.00     0.211 HD
ENDBRANCH  28  49
ENDBRANCH  26  28
ENDBRANCH   1  26
TORSDOF 16
ENDMDL
MODEL 8
REMARK minimizedAffinity -8.64403343
REMARK CNNscore 0.359143972
REMARK CNNaffinity 6.75025511
REMARK  16 active torsions:
REMARK  status: ('A' for Active; 'I' for Inactive)
REMARK    1  A    between atoms: S1_2  and  C2_3 
REMARK    2  A    between atoms: C2_3  and  C3_4 
REMARK    3  A    between atoms: C3_4  and  C4_5 
REMARK    4  A    between atoms: C4_5  and  N1_6 
REMARK    5  A    between atoms: C4_5  and  C33_44 
REMARK       I    between atoms: N1_6  and  C5_7 
REMARK    6  A    between atoms: C5_7  and  C6_9 
REMARK    7  A    between atoms: C6_9  and  N2_11 
REMARK       I    between atoms: N2_11  and  C8_12 
REMARK    8  A    between atoms: C8_12  and  C9_14 
REMARK    9  A    between atoms: C9_14  and  C10_15 
REMARK   10  A    between atoms: C10_15  and  C11_16 
REMARK   11  A    between atoms: C11_16  and  O4_18 
REMARK   12  A    between atoms: O4_18  and  C12_19 
REMARK   13  A    between atoms: C12_19  and  C13_20 
REMARK   14  A    between atoms: C13_20  and  C14_22 
REMARK   15  A    between atoms: C14_22  and  O6_23 
REMARK   16  A    between atoms: C33_44  and  O10_46 
ROOT
HETATM    1  C12 UNL     1      -4.457  50.342 -19.752  1.00  0.00     0.260 C 
ENDROOT
BRANCH   1   2
HETATM    2  O4  UNL     1      -3.420  49.643 -19.076  1.00  0.00    -0.314 OA
BRANCH   2   3
HETATM    3  C11 UNL     1      -2.632  50.419 -18.280  1.00  0.00     0.259 C 
HETATM    4  O3  UNL     1      -3.014  51.404 -17.666  1.00  0.00    -0.265 OA
BRANCH   3   5
HETATM    5  C10 UNL     1      -1.211  49.904 -18.311  1.00  0.00     0.120 C 
BRANCH   5   6
HETATM    6  C9  UNL     1      -0.324  50.778 -19.188  1.00  0.00     0.112 C 
BRANCH   6   7
HETATM    7  C8  UNL     1       0.292  51.920 -18.401  1.00  0.00     0.218 C 
HETATM    8  N2  UNL     1       0.919  51.500 -17.250  1.00  0.00    -0.348 N 
HETATM    9  H14 UNL     1       0.621  50.609 -16.865  1.00  0.00     0.163 HD
HETATM   10  O2  UNL     1       0.230  53.092 -18.754  1.00  0.00    -0.274 OA
BRANCH   8  11
HETATM   11  C6  UNL     1       1.461  52.452 -16.287  1.00  0.00     0.172 C 
HETATM   12  C7  UNL     1       2.903  52.792 -16.648  1.00  0.00     0.042 C 
BRANCH  11  13
HETATM   13  C5  UNL     1       1.393  51.843 -14.869  1.00  0.00     0.240 C 
HETATM   14  N1  UNL     1       2.262  50.792 -14.665  1.00  0.00    -0.345 N 
HETATM   15  H9  UNL     1       3.092  50.779 -15.250  1.00  0.00     0.163 HD
HETATM   16  O1  UNL     1       0.585  52.221 -14.022  1.00  0.00    -0.271 OA
BRANCH  14  17
HETATM   17  C4  UNL     1       2.402  50.149 -13.353  1.00  0.00     0.183 C 
BRANCH  17  18
HETATM   18  C3  UNL     1       1.415  48.980 -13.254  1.00  0.00     0.046 C 
BRANCH  18  19
HETATM   19  C2  UNL     1       1.290  48.196 -14.563  1.00  0.00     0.076 C 
BRANCH  19  20
HETATM   20  S1  UNL     1       2.134  46.581 -14.466  1.00  0.00    -0.173 SA
HETATM   21  C1  UNL     1       1.523  46.006 -12.861  1.00  0.00     0.089 C 
ENDBRANCH  19  20
ENDBRANCH  18  19
ENDBRANCH  17  18
BRANCH  17  22
HETATM   22  C33 UNL     1       3.849  49.669 -13.238  1.00  0.00     0.163 C 
HETATM   23  O9  UNL     1       4.777  49.986 -13.964  1.00  0.00    -0.648 OA
BRANCH  22  24
HETATM   24  O10 UNL     1       4.038  48.780 -12.241  1.00  0.00    -0.775 OA
HETATM   25  H46 UNL     1       4.999  48.585 -12.257  1.00  0.00     0.167 HD
ENDBRANCH  22  24
ENDBRANCH  17  22
ENDBRANCH  14  17
ENDBRANCH  11  13
ENDBRANCH   8  11
ENDBRANCH   6   7
ENDBRANCH   5   6
ENDBRANCH   3   5
ENDBRANCH   2   3
ENDBRANCH   1   2
BRANCH   1  26
HETATM   26  C13 UNL     1      -5.077  49.697 -20.988  1.00  0.00     0.185 C 
HETATM   27  O5  UNL     1      -6.304  49.536 -21.064  1.00  0.00    -0.292 OA
BRANCH  26  28
HETATM   28  C14 UNL     1      -4.177  49.248 -22.155  1.00  0.00     0.128 C 
HETATM   29  C15 UNL     1      -4.864  48.484 -23.310  1.00  0.00     0.047 C 
HETATM   30  C16 UNL     1      -4.049  48.791 -24.583  1.00  0.00     0.009 C 
HETATM   31  C17 UNL     1      -2.904  49.690 -24.117  1.00  0.00     0.002 C 
HETATM   32  C18 UNL     1      -2.143  50.543 -25.144  1.00  0.00     0.003 C 
HETATM   33  C31 UNL     1      -3.477  50.444 -22.897  1.00  0.00     0.005 C 
HETATM   34  C19 UNL     1      -2.931  50.973 -26.401  1.00  0.00     0.010 C 
HETATM   35  C28 UNL     1      -1.474  51.796 -24.524  1.00  0.00     0.072 C 
HETATM   36  C20 UNL     1      -2.247  52.118 -27.170  1.00  0.00     0.035 C 
HETATM   37  C21 UNL     1      -0.758  52.135 -26.923  1.00  0.00    -0.067 C 
HETATM   38  C22 UNL     1       0.104  51.916 -27.934  1.00  0.00     0.053 C 
HETATM   39  C26 UNL     1      -0.318  52.318 -25.454  1.00  0.00    -0.009 C 
HETATM   40  C23 UNL     1       1.564  51.813 -27.703  1.00  0.00     0.149 C 
HETATM   41  O7  UNL     1       2.312  51.652 -28.665  1.00  0.00    -0.293 OA
HETATM   42  C24 UNL     1       2.083  51.929 -26.289  1.00  0.00     0.084 C 
HETATM   43  C25 UNL     1       1.020  51.558 -25.255  1.00  0.00     0.022 C 
HETATM   44  C27 UNL     1      -0.110  53.829 -25.192  1.00  0.00     0.021 C 
HETATM   45  C29 UNL     1      -1.180  51.617 -23.034  1.00  0.00     0.133 C 
HETATM   46  O8  UNL     1      -0.114  51.972 -22.524  1.00  0.00    -0.297 OA
HETATM   47  C30 UNL     1      -2.309  51.109 -22.137  1.00  0.00     0.091 C 
HETATM   48  C32 UNL     1      -4.536  51.517 -23.284  1.00  0.00     0.019 C 
BRANCH  28  49
HETATM   49  O6  UNL     1      -3.206  48.349 -21.600  1.00  0.00    -0.381 OA
HETATM   50  H21 UNL     1      -2.927  48.700 -20.731  1.00  0.00     0.211 HD
ENDBRANCH  28  49
ENDBRANCH  26  28
ENDBRANCH   1  26
TORSDOF 16
ENDMDL
MODEL 9
REMARK minimizedAffinity -8.22298527
REMARK CNNscore 0.346200317
REMARK CNNaffinity 6.02849579
REMARK  16 active torsions:
REMARK  status: ('A' for Active; 'I' for Inactive)
REMARK    1  A    between atoms: S1_2  and  C2_3 
REMARK    2  A    between atoms: C2_3  and  C3_4 
REMARK    3  A    between atoms: C3_4  and  C4_5 
REMARK    4  A    between atoms: C4_5  and  N1_6 
REMARK    5  A    between atoms: C4_5  and  C33_44 
REMARK       I    between atoms: N1_6  and  C5_7 
REMARK    6  A    between atoms: C5_7  and  C6_9 
REMARK    7  A    between atoms: C6_9  and  N2_11 
REMARK       I    between atoms: N2_11  and  C8_12 
REMARK    8  A    between atoms: C8_12  and  C9_14 
REMARK    9  A    between atoms: C9_14  and  C10_15 
REMARK   10  A    between atoms: C10_15  and  C11_16 
REMARK   11  A    between atoms: C11_16  and  O4_18 
REMARK   12  A    between atoms: O4_18  and  C12_19 
REMARK   13  A    between atoms: C12_19  and  C13_20 
REMARK   14  A    between atoms: C13_20  and  C14_22 
REMARK   15  A    between atoms: C14_22  and  O6_23 
REMARK   16  A    between atoms: C33_44  and  O10_46 
ROOT
HETATM    1  C12 UNL     1      -8.881  47.466 -25.252  1.00  0.00     0.260 C 
ENDROOT
BRANCH   1   2
HETATM    2  O4  UNL     1      -7.487  47.267 -25.057  1.00  0.00    -0.314 OA
BRANCH   2   3
HETATM    3  C11 UNL     1      -6.855  48.268 -24.383  1.00  0.00     0.259 C 
HETATM    4  O3  UNL     1      -7.368  48.956 -23.512  1.00  0.00    -0.265 OA
BRANCH   3   5
HETATM    5  C10 UNL     1      -5.447  48.428 -24.907  1.00  0.00     0.120 C 
BRANCH   5   6
HETATM    6  C9  UNL     1      -4.420  48.272 -23.794  1.00  0.00     0.112 C 
BRANCH   6   7
HETATM    7  C8  UNL     1      -3.609  49.540 -23.598  1.00  0.00     0.218 C 
HETATM    8  N2  UNL     1      -3.716  50.053 -22.325  1.00  0.00    -0.348 N 
HETATM    9  H14 UNL     1      -4.540  49.789 -21.793  1.00  0.00     0.163 HD
HETATM   10  O2  UNL     1      -2.935  50.052 -24.484  1.00  0.00    -0.274 OA
BRANCH   8  11
HETATM   11  C6  UNL     1      -3.120  51.335 -21.968  1.00  0.00     0.172 C 
HETATM   12  C7  UNL     1      -3.680  52.435 -22.862  1.00  0.00     0.042 C 
BRANCH  11  13
HETATM   13  C5  UNL     1      -1.585  51.248 -22.121  1.00  0.00     0.240 C 
HETATM   14  N1  UNL     1      -1.028  52.303 -22.812  1.00  0.00    -0.345 N 
HETATM   15  H9  UNL     1      -1.549  53.174 -22.793  1.00  0.00     0.163 HD
HETATM   16  O1  UNL     1      -0.932  50.287 -21.720  1.00  0.00    -0.271 OA
BRANCH  14  17
HETATM   17  C4  UNL     1       0.425  52.437 -22.977  1.00  0.00     0.183 C 
BRANCH  17  18
HETATM   18  C3  UNL     1       0.720  53.159 -24.297  1.00  0.00     0.046 C 
BRANCH  18  19
HETATM   19  C2  UNL     1       0.996  52.194 -25.452  1.00  0.00     0.076 C 
BRANCH  19  20
HETATM   20  S1  UNL     1       0.162  52.721 -26.987  1.00  0.00    -0.173 SA
HETATM   21  C1  UNL     1       1.156  51.823 -28.206  1.00  0.00     0.089 C 
ENDBRANCH  19  20
ENDBRANCH  18  19
ENDBRANCH  17  18
BRANCH  17  22
HETATM   22  C33 UNL     1       0.943  53.232 -21.778  1.00  0.00     0.163 C 
HETATM   23  O9  UNL     1       1.372  54.373 -21.797  1.00  0.00    -0.648 OA
BRANCH  22  24
HETATM   24  O10 UNL     1       0.932  52.527 -20.627  1.00  0.00    -0.775 OA
HETATM   25  H46 UNL     1       1.249  53.157 -19.945  1.00  0.00     0.167 HD
ENDBRANCH  22  24
ENDBRANCH  17  22
ENDBRANCH  14  17
ENDBRANCH  11  13
ENDBRANCH   8  11
ENDBRANCH   6   7
ENDBRANCH   5   6
ENDBRANCH   3   5
ENDBRANCH   2   3
ENDBRANCH   1   2
BRANCH   1  26
HETATM   26  C13 UNL     1      -9.443  47.310 -26.662  1.00  0.00     0.185 C 
HETATM   27  O5  UNL     1      -8.740  46.843 -27.571  1.00  0.00    -0.292 OA
BRANCH  26  28
HETATM   28  C14 UNL     1     -10.895  47.729 -26.963  1.00  0.00     0.128 C 
HETATM   29  C15 UNL     1     -11.308  47.794 -28.451  1.00  0.00     0.047 C 
HETATM   30  C16 UNL     1     -12.818  47.489 -28.501  1.00  0.00     0.009 C 
HETATM   31  C17 UNL     1     -13.234  47.292 -27.042  1.00  0.00     0.002 C 
HETATM   32  C18 UNL     1     -14.545  46.560 -26.719  1.00  0.00     0.003 C 
HETATM   33  C31 UNL     1     -11.964  46.753 -26.348  1.00  0.00     0.005 C 
HETATM   34  C19 UNL     1     -15.022  45.514 -27.751  1.00  0.00     0.010 C 
HETATM   35  C28 UNL     1     -14.552  45.910 -25.313  1.00  0.00     0.072 C 
HETATM   36  C20 UNL     1     -16.099  44.570 -27.188  1.00  0.00     0.035 C 
HETATM   37  C21 UNL     1     -16.864  45.217 -26.060  1.00  0.00    -0.067 C 
HETATM   38  C22 UNL     1     -18.182  45.464 -26.183  1.00  0.00     0.053 C 
HETATM   39  C26 UNL     1     -16.028  45.650 -24.835  1.00  0.00    -0.009 C 
HETATM   40  C23 UNL     1     -18.936  46.201 -25.142  1.00  0.00     0.149 C 
HETATM   41  O7  UNL     1     -20.146  46.366 -25.284  1.00  0.00    -0.293 OA
HETATM   42  C24 UNL     1     -18.191  46.708 -23.930  1.00  0.00     0.084 C 
HETATM   43  C25 UNL     1     -16.701  46.902 -24.212  1.00  0.00     0.022 C 
HETATM   44  C27 UNL     1     -16.027  44.489 -23.812  1.00  0.00     0.021 C 
HETATM   45  C29 UNL     1     -13.591  46.606 -24.348  1.00  0.00     0.133 C 
HETATM   46  O8  UNL     1     -13.899  46.865 -23.182  1.00  0.00    -0.297 OA
HETATM   47  C30 UNL     1     -12.159  46.854 -24.820  1.00  0.00     0.091 C 
HETATM   48  C32 UNL     1     -11.627  45.287 -26.744  1.00  0.00     0.019 C 
BRANCH  28  49
HETATM   49  O6  UNL     1     -11.053  49.057 -26.443  1.00  0.00    -0.381 OA
HETATM   50  H21 UNL     1     -10.581  49.109 -25.588  1.00  0.00     0.211 HD
ENDBRANCH  28  49
ENDBRANCH  26  28
ENDBRANCH   1  26
TORSDOF 16
ENDMDL
