MODEL 1
REMARK minimizedAffinity -10.0815935
REMARK  5 active torsions:
REMARK  status: ('A' for Active; 'I' for Inactive)
REMARK    1  A    between atoms: C2_2  and  C4_4 
REMARK    2  A    between atoms: C7_7  and  C8_8 
REMARK    3  A    between atoms: C8_8  and  O2_10 
REMARK    4  A    between atoms: C22_25  and  C24_27 
REMARK    5  A    between atoms: C24_27  and  O4_28 
ROOT
HETATM    1  C4  UNL     1       0.783  53.247 -23.972  1.00  0.00     0.019 C 
HETATM    2  C5  UNL     1       0.130  54.257 -24.918  1.00  0.00     0.011 C 
HETATM    3  C6  UNL     1       0.081  53.556 -26.272  1.00  0.00     0.021 C 
HETATM    4  C7  UNL     1       0.159  52.032 -26.010  1.00  0.00     0.050 C 
HETATM    5  C9  UNL     1      -1.078  51.294 -26.561  1.00  0.00     0.022 C 
HETATM    6  C10 UNL     1      -2.364  51.609 -25.798  1.00  0.00     0.011 C 
HETATM    7  C11 UNL     1      -2.317  51.292 -24.271  1.00  0.00    -0.032 C 
HETATM    8  C12 UNL     1      -2.862  52.562 -23.558  1.00  0.00     0.016 C 
HETATM    9  C13 UNL     1      -0.838  51.001 -23.833  1.00  0.00     0.000 C 
HETATM   10  C14 UNL     1      -0.730  50.736 -22.326  1.00  0.00     0.006 C 
HETATM   11  C15 UNL     1      -1.619  49.568 -21.882  1.00  0.00     0.006 C 
HETATM   12  C16 UNL     1      -3.098  49.726 -22.313  1.00  0.00     0.003 C 
HETATM   13  C17 UNL     1      -4.078  48.643 -21.678  1.00  0.00    -0.035 C 
HETATM   14  C18 UNL     1      -3.650  47.194 -22.006  1.00  0.00     0.016 C 
HETATM   15  C19 UNL     1      -4.009  48.781 -20.117  1.00  0.00     0.017 C 
HETATM   16  C20 UNL     1      -5.295  48.471 -19.361  1.00  0.00     0.080 C 
HETATM   17  C21 UNL     1      -6.240  47.573 -20.118  1.00  0.00     0.137 C 
HETATM   18  O3  UNL     1      -6.762  46.609 -19.556  1.00  0.00    -0.297 OA
HETATM   19  C22 UNL     1      -6.650  48.004 -21.530  1.00  0.00     0.042 C 
HETATM   20  C23 UNL     1      -6.923  46.755 -22.394  1.00  0.00     0.026 C 
HETATM   21  C25 UNL     1      -5.551  48.961 -22.125  1.00  0.00     0.012 C 
HETATM   22  C26 UNL     1      -5.678  49.143 -23.649  1.00  0.00     0.007 C 
HETATM   23  C27 UNL     1      -4.743  50.232 -24.181  1.00  0.00     0.011 C 
HETATM   24  C28 UNL     1      -3.234  49.992 -23.870  1.00  0.00    -0.032 C 
HETATM   25  C29 UNL     1      -2.776  48.758 -24.706  1.00  0.00     0.016 C 
HETATM   26  C30 UNL     1       0.316  51.850 -24.459  1.00  0.00     0.017 C 
ENDROOT
BRANCH   4  27
HETATM   27  C8  UNL     1       1.407  51.508 -26.735  1.00  0.00     0.149 C 
HETATM   28  O1  UNL     1       2.419  51.048 -26.229  1.00  0.00    -0.649 OA
BRANCH  27  29
HETATM   29  O2  UNL     1       1.338  51.629 -28.075  1.00  0.00    -0.776 OA
HETATM   30  H11 UNL     1       2.201  51.285 -28.383  1.00  0.00     0.167 HD
ENDBRANCH  27  29
ENDBRANCH   4  27
BRANCH   1  31
HETATM   31  C2  UNL     1       0.787  53.564 -22.492  1.00  0.00    -0.088 C 
HETATM   32  C1  UNL     1       1.547  54.498 -21.904  1.00  0.00     0.014 C 
HETATM   33  C3  UNL     1      -0.087  52.666 -21.650  1.00  0.00     0.043 C 
ENDBRANCH   1  31
BRANCH  19  34
HETATM   34  C24 UNL     1      -7.977  48.788 -21.345  1.00  0.00     0.181 C 
BRANCH  34  35
HETATM   35  O4  UNL     1      -8.723  48.343 -20.217  1.00  0.00    -0.400 OA
HETATM   36  H37 UNL     1      -8.137  48.387 -19.431  1.00  0.00     0.209 HD
ENDBRANCH  34  35
ENDBRANCH  19  34
TORSDOF 5
ENDMDL
MODEL 2
REMARK minimizedAffinity -9.18231964
REMARK  5 active torsions:
REMARK  status: ('A' for Active; 'I' for Inactive)
REMARK    1  A    between atoms: C2_2  and  C4_4 
REMARK    2  A    between atoms: C7_7  and  C8_8 
REMARK    3  A    between atoms: C8_8  and  O2_10 
REMARK    4  A    between atoms: C22_25  and  C24_27 
REMARK    5  A    between atoms: C24_27  and  O4_28 
ROOT
HETATM    1  C4  UNL     1      -5.135  47.796 -18.803  1.00  0.00     0.019 C 
HETATM    2  C5  UNL     1      -5.274  46.348 -19.279  1.00  0.00     0.011 C 
HETATM    3  C6  UNL     1      -6.499  46.346 -20.187  1.00  0.00     0.021 C 
HETATM    4  C7  UNL     1      -6.716  47.797 -20.680  1.00  0.00     0.050 C 
HETATM    5  C9  UNL     1      -6.656  47.893 -22.218  1.00  0.00     0.022 C 
HETATM    6  C10 UNL     1      -5.260  47.646 -22.789  1.00  0.00     0.011 C 
HETATM    7  C11 UNL     1      -4.152  48.605 -22.253  1.00  0.00    -0.032 C 
HETATM    8  C12 UNL     1      -2.966  47.689 -21.838  1.00  0.00     0.016 C 
HETATM    9  C13 UNL     1      -4.693  49.407 -21.017  1.00  0.00     0.000 C 
HETATM   10  C14 UNL     1      -3.621  50.327 -20.418  1.00  0.00     0.006 C 
HETATM   11  C15 UNL     1      -3.070  51.317 -21.452  1.00  0.00     0.006 C 
HETATM   12  C16 UNL     1      -2.557  50.633 -22.743  1.00  0.00     0.003 C 
HETATM   13  C17 UNL     1      -1.782  51.612 -23.732  1.00  0.00    -0.035 C 
HETATM   14  C18 UNL     1      -2.643  52.824 -24.158  1.00  0.00     0.016 C 
HETATM   15  C19 UNL     1      -0.545  52.197 -22.966  1.00  0.00     0.017 C 
HETATM   16  C20 UNL     1       0.688  52.488 -23.813  1.00  0.00     0.080 C 
HETATM   17  C21 UNL     1       0.383  52.702 -25.272  1.00  0.00     0.137 C 
HETATM   18  O3  UNL     1       0.876  53.657 -25.875  1.00  0.00    -0.297 OA
HETATM   19  C22 UNL     1      -0.405  51.608 -26.000  1.00  0.00     0.042 C 
HETATM   20  C23 UNL     1      -1.255  52.241 -27.123  1.00  0.00     0.026 C 
HETATM   21  C25 UNL     1      -1.245  50.784 -24.954  1.00  0.00     0.012 C 
HETATM   22  C26 UNL     1      -2.341  49.924 -25.611  1.00  0.00     0.007 C 
HETATM   23  C27 UNL     1      -3.007  48.975 -24.614  1.00  0.00     0.011 C 
HETATM   24  C28 UNL     1      -3.653  49.684 -23.384  1.00  0.00    -0.032 C 
HETATM   25  C29 UNL     1      -4.880  50.493 -23.904  1.00  0.00     0.016 C 
HETATM   26  C30 UNL     1      -5.616  48.676 -19.988  1.00  0.00     0.017 C 
ENDROOT
BRANCH   4  27
HETATM   27  C8  UNL     1      -8.113  48.232 -20.215  1.00  0.00     0.149 C 
HETATM   28  O1  UNL     1      -8.389  48.919 -19.243  1.00  0.00    -0.649 OA
BRANCH  27  29
HETATM   29  O2  UNL     1      -9.109  47.741 -20.978  1.00  0.00    -0.776 OA
HETATM   30  H11 UNL     1      -9.920  48.078 -20.545  1.00  0.00     0.167 HD
ENDBRANCH  27  29
ENDBRANCH   4  27
BRANCH   1  31
HETATM   31  C2  UNL     1      -3.881  48.175 -18.046  1.00  0.00    -0.088 C 
HETATM   32  C1  UNL     1      -3.768  49.221 -17.216  1.00  0.00     0.014 C 
HETATM   33  C3  UNL     1      -2.671  47.329 -18.359  1.00  0.00     0.043 C 
ENDBRANCH   1  31
BRANCH  19  34
HETATM   34  C24 UNL     1       0.672  50.690 -26.641  1.00  0.00     0.181 C 
BRANCH  34  35
HETATM   35  O4  UNL     1       1.995  51.174 -26.435  1.00  0.00    -0.400 OA
HETATM   36  H37 UNL     1       2.123  51.303 -25.471  1.00  0.00     0.209 HD
ENDBRANCH  34  35
ENDBRANCH  19  34
TORSDOF 5
ENDMDL
MODEL 3
REMARK minimizedAffinity -8.95256805
REMARK  5 active torsions:
REMARK  status: ('A' for Active; 'I' for Inactive)
REMARK    1  A    between atoms: C2_2  and  C4_4 
REMARK    2  A    between atoms: C7_7  and  C8_8 
REMARK    3  A    between atoms: C8_8  and  O2_10 
REMARK    4  A    between atoms: C22_25  and  C24_27 
REMARK    5  A    between atoms: C24_27  and  O4_28 
ROOT
HETATM    1  C4  UNL     1       0.065  52.227 -23.715  1.00  0.00     0.019 C 
HETATM    2  C5  UNL     1      -0.555  53.515 -24.262  1.00  0.00     0.011 C 
HETATM    3  C6  UNL     1      -1.051  53.153 -25.658  1.00  0.00     0.021 C 
HETATM    4  C7  UNL     1      -1.240  51.617 -25.702  1.00  0.00     0.050 C 
HETATM    5  C9  UNL     1      -2.695  51.230 -26.033  1.00  0.00     0.022 C 
HETATM    6  C10 UNL     1      -3.683  51.567 -24.916  1.00  0.00     0.011 C 
HETATM    7  C11 UNL     1      -3.365  50.912 -23.536  1.00  0.00    -0.032 C 
HETATM    8  C12 UNL     1      -3.457  52.059 -22.491  1.00  0.00     0.016 C 
HETATM    9  C13 UNL     1      -1.921  50.296 -23.559  1.00  0.00     0.000 C 
HETATM   10  C14 UNL     1      -1.538  49.686 -22.205  1.00  0.00     0.006 C 
HETATM   11  C15 UNL     1      -2.532  48.605 -21.760  1.00  0.00     0.006 C 
HETATM   12  C16 UNL     1      -4.002  49.091 -21.754  1.00  0.00     0.003 C 
HETATM   13  C17 UNL     1      -5.022  48.064 -21.088  1.00  0.00    -0.035 C 
HETATM   14  C18 UNL     1      -4.993  46.677 -21.770  1.00  0.00     0.016 C 
HETATM   15  C19 UNL     1      -4.579  47.835 -19.601  1.00  0.00     0.017 C 
HETATM   16  C20 UNL     1      -5.701  47.573 -18.603  1.00  0.00     0.080 C 
HETATM   17  C21 UNL     1      -6.957  47.032 -19.233  1.00  0.00     0.137 C 
HETATM   18  O3  UNL     1      -7.532  46.062 -18.736  1.00  0.00    -0.297 OA
HETATM   19  C22 UNL     1      -7.571  47.829 -20.389  1.00  0.00     0.042 C 
HETATM   20  C23 UNL     1      -8.287  46.866 -21.360  1.00  0.00     0.026 C 
HETATM   21  C25 UNL     1      -6.456  48.707 -21.071  1.00  0.00     0.012 C 
HETATM   22  C26 UNL     1      -6.878  49.245 -22.451  1.00  0.00     0.007 C 
HETATM   23  C27 UNL     1      -5.878  50.261 -23.006  1.00  0.00     0.011 C 
HETATM   24  C28 UNL     1      -4.423  49.719 -23.148  1.00  0.00    -0.032 C 
HETATM   25  C29 UNL     1      -4.433  48.647 -24.280  1.00  0.00     0.016 C 
HETATM   26  C30 UNL     1      -0.783  51.068 -24.304  1.00  0.00     0.017 C 
ENDROOT
BRANCH   4  27
HETATM   27  C8  UNL     1      -0.324  51.076 -26.809  1.00  0.00     0.149 C 
HETATM   28  O1  UNL     1       0.686  50.403 -26.672  1.00  0.00    -0.649 OA
BRANCH  27  29
HETATM   29  O2  UNL     1      -0.703  51.449 -28.047  1.00  0.00    -0.776 OA
HETATM   30  H11 UNL     1      -0.018  51.058 -28.626  1.00  0.00     0.167 HD
ENDBRANCH  27  29
ENDBRANCH   4  27
BRANCH   1  31
HETATM   31  C2  UNL     1       0.464  52.198 -22.256  1.00  0.00    -0.088 C 
HETATM   32  C1  UNL     1       0.380  51.127 -21.454  1.00  0.00     0.014 C 
HETATM   33  C3  UNL     1       0.899  53.529 -21.690  1.00  0.00     0.043 C 
ENDBRANCH   1  31
BRANCH  19  34
HETATM   34  C24 UNL     1      -8.628  48.754 -19.727  1.00  0.00     0.181 C 
BRANCH  34  35
HETATM   35  O4  UNL     1      -9.218  48.170 -18.570  1.00  0.00    -0.400 OA
HETATM   36  H37 UNL     1      -8.495  47.913 -17.960  1.00  0.00     0.209 HD
ENDBRANCH  34  35
ENDBRANCH  19  34
TORSDOF 5
ENDMDL
MODEL 4
REMARK minimizedAffinity -8.67509556
REMARK  5 active torsions:
REMARK  status: ('A' for Active; 'I' for Inactive)
REMARK    1  A    between atoms: C2_2  and  C4_4 
REMARK    2  A    between atoms: C7_7  and  C8_8 
REMARK    3  A    between atoms: C8_8  and  O2_10 
REMARK    4  A    between atoms: C22_25  and  C24_27 
REMARK    5  A    between atoms: C24_27  and  O4_28 
ROOT
HETATM    1  C4  UNL     1      -0.628  51.447 -23.324  1.00  0.00     0.019 C 
HETATM    2  C5  UNL     1      -1.117  52.873 -23.586  1.00  0.00     0.011 C 
HETATM    3  C6  UNL     1      -1.701  52.837 -24.994  1.00  0.00     0.021 C 
HETATM    4  C7  UNL     1      -2.065  51.366 -25.311  1.00  0.00     0.050 C 
HETATM    5  C9  UNL     1      -3.566  51.204 -25.625  1.00  0.00     0.022 C 
HETATM    6  C10 UNL     1      -4.468  51.424 -24.411  1.00  0.00     0.011 C 
HETATM    7  C11 UNL     1      -4.176  50.488 -23.197  1.00  0.00    -0.032 C 
HETATM    8  C12 UNL     1      -4.100  51.419 -21.953  1.00  0.00     0.016 C 
HETATM    9  C13 UNL     1      -2.813  49.740 -23.416  1.00  0.00     0.000 C 
HETATM   10  C14 UNL     1      -2.453  48.846 -22.223  1.00  0.00     0.006 C 
HETATM   11  C15 UNL     1      -3.547  47.811 -21.929  1.00  0.00     0.006 C 
HETATM   12  C16 UNL     1      -4.951  48.438 -21.750  1.00  0.00     0.003 C 
HETATM   13  C17 UNL     1      -6.056  47.415 -21.228  1.00  0.00    -0.035 C 
HETATM   14  C18 UNL     1      -6.210  46.188 -22.156  1.00  0.00     0.016 C 
HETATM   15  C19 UNL     1      -5.588  46.862 -19.837  1.00  0.00     0.017 C 
HETATM   16  C20 UNL     1      -6.696  46.533 -18.843  1.00  0.00     0.080 C 
HETATM   17  C21 UNL     1      -8.027  46.257 -19.490  1.00  0.00     0.137 C 
HETATM   18  O3  UNL     1      -8.690  45.276 -19.150  1.00  0.00    -0.297 OA
HETATM   19  C22 UNL     1      -8.588  47.319 -20.441  1.00  0.00     0.042 C 
HETATM   20  C23 UNL     1      -9.444  46.639 -21.531  1.00  0.00     0.026 C 
HETATM   21  C25 UNL     1      -7.406  48.189 -21.010  1.00  0.00     0.012 C 
HETATM   22  C26 UNL     1      -7.814  49.021 -22.240  1.00  0.00     0.007 C 
HETATM   23  C27 UNL     1      -6.726  50.014 -22.654  1.00  0.00     0.011 C 
HETATM   24  C28 UNL     1      -5.348  49.360 -22.976  1.00  0.00    -0.032 C 
HETATM   25  C29 UNL     1      -5.521  48.531 -24.285  1.00  0.00     0.016 C 
HETATM   26  C30 UNL     1      -1.623  50.517 -24.068  1.00  0.00     0.017 C 
ENDROOT
BRANCH   4  27
HETATM   27  C8  UNL     1      -1.257  50.954 -26.550  1.00  0.00     0.149 C 
HETATM   28  O1  UNL     1      -1.646  50.913 -27.708  1.00  0.00    -0.649 OA
BRANCH  27  29
HETATM   29  O2  UNL     1       0.002  50.568 -26.265  1.00  0.00    -0.776 OA
HETATM   30  H11 UNL     1       0.369  50.315 -27.136  1.00  0.00     0.167 HD
ENDBRANCH  27  29
ENDBRANCH   4  27
BRANCH   1  31
HETATM   31  C2  UNL     1      -0.182  51.098 -21.920  1.00  0.00    -0.088 C 
HETATM   32  C1  UNL     1      -0.765  50.187 -21.129  1.00  0.00     0.014 C 
HETATM   33  C3  UNL     1       0.955  51.937 -21.390  1.00  0.00     0.043 C 
ENDBRANCH   1  31
BRANCH  19  34
HETATM   34  C24 UNL     1      -9.509  48.206 -19.559  1.00  0.00     0.181 C 
BRANCH  34  35
HETATM   35  O4  UNL     1     -10.429  47.442 -18.788  1.00  0.00    -0.400 OA
HETATM   36  H37 UNL     1      -9.917  46.785 -18.270  1.00  0.00     0.209 HD
ENDBRANCH  34  35
ENDBRANCH  19  34
TORSDOF 5
ENDMDL
MODEL 5
REMARK minimizedAffinity -8.50907516
REMARK  5 active torsions:
REMARK  status: ('A' for Active; 'I' for Inactive)
REMARK    1  A    between atoms: C2_2  and  C4_4 
REMARK    2  A    between atoms: C7_7  and  C8_8 
REMARK    3  A    between atoms: C8_8  and  O2_10 
REMARK    4  A    between atoms: C22_25  and  C24_27 
REMARK    5  A    between atoms: C24_27  and  O4_28 
ROOT
HETATM    1  C4  UNL     1      -0.649  51.377 -23.326  1.00  0.00     0.019 C 
HETATM    2  C5  UNL     1      -1.187  52.726 -23.807  1.00  0.00     0.011 C 
HETATM    3  C6  UNL     1      -1.884  52.423 -25.129  1.00  0.00     0.021 C 
HETATM    4  C7  UNL     1      -2.242  50.917 -25.134  1.00  0.00     0.050 C 
HETATM    5  C9  UNL     1      -3.760  50.691 -25.283  1.00  0.00     0.022 C 
HETATM    6  C10 UNL     1      -4.564  51.130 -24.060  1.00  0.00     0.011 C 
HETATM    7  C11 UNL     1      -4.153  50.440 -22.722  1.00  0.00    -0.032 C 
HETATM    8  C12 UNL     1      -3.994  51.588 -21.685  1.00  0.00     0.016 C 
HETATM    9  C13 UNL     1      -2.797  49.672 -22.912  1.00  0.00     0.000 C 
HETATM   10  C14 UNL     1      -2.321  49.020 -21.608  1.00  0.00     0.006 C 
HETATM   11  C15 UNL     1      -3.365  48.052 -21.034  1.00  0.00     0.006 C 
HETATM   12  C16 UNL     1      -4.763  48.695 -20.857  1.00  0.00     0.003 C 
HETATM   13  C17 UNL     1      -5.799  47.782 -20.062  1.00  0.00    -0.035 C 
HETATM   14  C18 UNL     1      -6.003  46.402 -20.728  1.00  0.00     0.016 C 
HETATM   15  C19 UNL     1      -5.207  47.503 -18.637  1.00  0.00     0.017 C 
HETATM   16  C20 UNL     1      -6.221  47.361 -17.508  1.00  0.00     0.080 C 
HETATM   17  C21 UNL     1      -7.596  46.961 -17.977  1.00  0.00     0.137 C 
HETATM   18  O3  UNL     1      -8.208  46.058 -17.404  1.00  0.00    -0.297 OA
HETATM   19  C22 UNL     1      -8.255  47.823 -19.059  1.00  0.00     0.042 C 
HETATM   20  C23 UNL     1      -9.183  46.946 -19.926  1.00  0.00     0.026 C 
HETATM   21  C25 UNL     1      -7.143  48.576 -19.879  1.00  0.00     0.012 C 
HETATM   22  C26 UNL     1      -7.668  49.161 -21.203  1.00  0.00     0.007 C 
HETATM   23  C27 UNL     1      -6.639  50.064 -21.885  1.00  0.00     0.011 C 
HETATM   24  C28 UNL     1      -5.278  49.368 -22.196  1.00  0.00    -0.032 C 
HETATM   25  C29 UNL     1      -5.541  48.307 -23.308  1.00  0.00     0.016 C 
HETATM   26  C30 UNL     1      -1.681  50.318 -23.796  1.00  0.00     0.017 C 
ENDROOT
BRANCH   4  27
HETATM   27  C8  UNL     1      -1.530  50.284 -26.338  1.00  0.00     0.149 C 
HETATM   28  O1  UNL     1      -0.366  50.439 -26.676  1.00  0.00    -0.649 OA
BRANCH  27  29
HETATM   29  O2  UNL     1      -2.337  49.511 -27.092  1.00  0.00    -0.776 OA
HETATM   30  H11 UNL     1      -1.756  49.210 -27.819  1.00  0.00     0.167 HD
ENDBRANCH  27  29
ENDBRANCH   4  27
BRANCH   1  31
HETATM   31  C2  UNL     1      -0.081  51.301 -21.925  1.00  0.00    -0.088 C 
HETATM   32  C1  UNL     1       0.052  50.177 -21.206  1.00  0.00     0.014 C 
HETATM   33  C3  UNL     1       0.262  52.634 -21.306  1.00  0.00     0.043 C 
ENDBRANCH   1  31
BRANCH  19  34
HETATM   34  C24 UNL     1      -9.118  48.855 -18.283  1.00  0.00     0.181 C 
BRANCH  34  35
HETATM   35  O4  UNL     1      -9.456  48.411 -16.973  1.00  0.00    -0.400 OA
HETATM   36  H37 UNL     1      -8.624  48.180 -16.509  1.00  0.00     0.209 HD
ENDBRANCH  34  35
ENDBRANCH  19  34
TORSDOF 5
ENDMDL
MODEL 6
REMARK minimizedAffinity -8.2397213
REMARK  5 active torsions:
REMARK  status: ('A' for Active; 'I' for Inactive)
REMARK    1  A    between atoms: C2_2  and  C4_4 
REMARK    2  A    between atoms: C7_7  and  C8_8 
REMARK    3  A    between atoms: C8_8  and  O2_10 
REMARK    4  A    between atoms: C22_25  and  C24_27 
REMARK    5  A    between atoms: C24_27  and  O4_28 
ROOT
HETATM    1  C4  UNL     1     -13.292  44.356 -27.360  1.00  0.00     0.019 C 
HETATM    2  C5  UNL     1     -14.441  45.048 -28.096  1.00  0.00     0.011 C 
HETATM    3  C6  UNL     1     -14.530  46.437 -27.472  1.00  0.00     0.021 C 
HETATM    4  C7  UNL     1     -13.157  46.747 -26.827  1.00  0.00     0.050 C 
HETATM    5  C9  UNL     1     -12.516  48.013 -27.430  1.00  0.00     0.022 C 
HETATM    6  C10 UNL     1     -12.071  47.837 -28.882  1.00  0.00     0.011 C 
HETATM    7  C11 UNL     1     -11.051  46.679 -29.121  1.00  0.00    -0.032 C 
HETATM    8  C12 UNL     1     -11.607  45.868 -30.326  1.00  0.00     0.016 C 
HETATM    9  C13 UNL     1     -10.959  45.777 -27.840  1.00  0.00     0.000 C 
HETATM   10  C14 UNL     1     -10.008  44.590 -28.043  1.00  0.00     0.006 C 
HETATM   11  C15 UNL     1      -8.596  45.045 -28.433  1.00  0.00     0.006 C 
HETATM   12  C16 UNL     1      -8.575  45.991 -29.659  1.00  0.00     0.003 C 
HETATM   13  C17 UNL     1      -7.114  46.297 -30.217  1.00  0.00    -0.035 C 
HETATM   14  C18 UNL     1      -6.188  46.910 -29.141  1.00  0.00     0.016 C 
HETATM   15  C19 UNL     1      -6.460  44.936 -30.640  1.00  0.00     0.017 C 
HETATM   16  C20 UNL     1      -5.501  44.995 -31.823  1.00  0.00     0.080 C 
HETATM   17  C21 UNL     1      -4.904  46.359 -32.050  1.00  0.00     0.137 C 
HETATM   18  O3  UNL     1      -3.693  46.482 -32.242  1.00  0.00    -0.297 OA
HETATM   19  C22 UNL     1      -5.869  47.539 -32.203  1.00  0.00     0.042 C 
HETATM   20  C23 UNL     1      -5.202  48.826 -31.672  1.00  0.00     0.026 C 
HETATM   21  C25 UNL     1      -7.235  47.194 -31.501  1.00  0.00     0.012 C 
HETATM   22  C26 UNL     1      -8.121  48.433 -31.274  1.00  0.00     0.007 C 
HETATM   23  C27 UNL     1      -9.523  48.060 -30.787  1.00  0.00     0.011 C 
HETATM   24  C28 UNL     1      -9.545  47.230 -29.467  1.00  0.00    -0.032 C 
HETATM   25  C29 UNL     1      -9.059  48.166 -28.319  1.00  0.00     0.016 C 
HETATM   26  C30 UNL     1     -12.265  45.473 -27.035  1.00  0.00     0.017 C 
ENDROOT
BRANCH   4  27
HETATM   27  C8  UNL     1     -13.401  46.986 -25.330  1.00  0.00     0.149 C 
HETATM   28  O1  UNL     1     -12.579  46.925 -24.427  1.00  0.00    -0.649 OA
BRANCH  27  29
HETATM   29  O2  UNL     1     -14.688  47.249 -25.032  1.00  0.00    -0.776 OA
HETATM   30  H11 UNL     1     -14.685  47.347 -24.058  1.00  0.00     0.167 HD
ENDBRANCH  27  29
ENDBRANCH   4  27
BRANCH   1  31
HETATM   31  C2  UNL     1     -12.810  43.024 -27.894  1.00  0.00    -0.088 C 
HETATM   32  C1  UNL     1     -11.600  42.799 -28.426  1.00  0.00     0.014 C 
HETATM   33  C3  UNL     1     -13.843  41.924 -27.883  1.00  0.00     0.043 C 
ENDBRANCH   1  31
BRANCH  19  34
HETATM   34  C24 UNL     1      -6.093  47.683 -33.733  1.00  0.00     0.181 C 
BRANCH  34  35
HETATM   35  O4  UNL     1      -4.872  47.700 -34.466  1.00  0.00    -0.400 OA
HETATM   36  H37 UNL     1      -4.365  46.896 -34.225  1.00  0.00     0.209 HD
ENDBRANCH  34  35
ENDBRANCH  19  34
TORSDOF 5
ENDMDL
MODEL 7
REMARK minimizedAffinity -8.01849651
REMARK  5 active torsions:
REMARK  status: ('A' for Active; 'I' for Inactive)
REMARK    1  A    between atoms: C2_2  and  C4_4 
REMARK    2  A    between atoms: C7_7  and  C8_8 
REMARK    3  A    between atoms: C8_8  and  O2_10 
REMARK    4  A    between atoms: C22_25  and  C24_27 
REMARK    5  A    between atoms: C24_27  and  O4_28 
ROOT
HETATM    1  C4  UNL     1      -4.443  48.616 -22.820  1.00  0.00     0.019 C 
HETATM    2  C5  UNL     1      -3.258  48.478 -23.779  1.00  0.00     0.011 C 
HETATM    3  C6  UNL     1      -2.824  49.909 -24.079  1.00  0.00     0.021 C 
HETATM    4  C7  UNL     1      -3.335  50.803 -22.922  1.00  0.00     0.050 C 
HETATM    5  C9  UNL     1      -2.177  51.526 -22.206  1.00  0.00     0.022 C 
HETATM    6  C10 UNL     1      -1.272  50.587 -21.409  1.00  0.00     0.011 C 
HETATM    7  C11 UNL     1      -2.000  49.746 -20.314  1.00  0.00    -0.032 C 
HETATM    8  C12 UNL     1      -1.523  48.280 -20.520  1.00  0.00     0.016 C 
HETATM    9  C13 UNL     1      -3.555  49.856 -20.503  1.00  0.00     0.000 C 
HETATM   10  C14 UNL     1      -4.317  49.002 -19.482  1.00  0.00     0.006 C 
HETATM   11  C15 UNL     1      -3.964  49.380 -18.038  1.00  0.00     0.006 C 
HETATM   12  C16 UNL     1      -2.442  49.358 -17.755  1.00  0.00     0.003 C 
HETATM   13  C17 UNL     1      -2.066  49.530 -16.216  1.00  0.00    -0.035 C 
HETATM   14  C18 UNL     1      -2.634  50.834 -15.611  1.00  0.00     0.016 C 
HETATM   15  C19 UNL     1      -2.727  48.350 -15.420  1.00  0.00     0.017 C 
HETATM   16  C20 UNL     1      -1.957  47.853 -14.203  1.00  0.00     0.080 C 
HETATM   17  C21 UNL     1      -1.012  48.874 -13.626  1.00  0.00     0.137 C 
HETATM   18  O3  UNL     1      -0.987  49.080 -12.412  1.00  0.00    -0.297 OA
HETATM   19  C22 UNL     1       0.017  49.502 -14.572  1.00  0.00     0.042 C 
HETATM   20  C23 UNL     1       0.332  50.941 -14.112  1.00  0.00     0.026 C 
HETATM   21  C25 UNL     1      -0.508  49.408 -16.053  1.00  0.00     0.012 C 
HETATM   22  C26 UNL     1       0.259  50.329 -17.020  1.00  0.00     0.007 C 
HETATM   23  C27 UNL     1      -0.116  50.075 -18.481  1.00  0.00     0.011 C 
HETATM   24  C28 UNL     1      -1.634  50.242 -18.793  1.00  0.00    -0.032 C 
HETATM   25  C29 UNL     1      -1.976  51.756 -18.647  1.00  0.00     0.016 C 
HETATM   26  C30 UNL     1      -4.140  49.867 -21.953  1.00  0.00     0.017 C 
ENDROOT
BRANCH   4  27
HETATM   27  C8  UNL     1      -4.266  51.857 -23.538  1.00  0.00     0.149 C 
HETATM   28  O1  UNL     1      -4.419  52.108 -24.724  1.00  0.00    -0.649 OA
BRANCH  27  29
HETATM   29  O2  UNL     1      -4.937  52.581 -22.621  1.00  0.00    -0.776 OA
HETATM   30  H11 UNL     1      -5.455  53.214 -23.159  1.00  0.00     0.167 HD
ENDBRANCH  27  29
ENDBRANCH   4  27
BRANCH   1  31
HETATM   31  C2  UNL     1      -4.973  47.359 -22.165  1.00  0.00    -0.088 C 
HETATM   32  C1  UNL     1      -4.219  46.413 -21.589  1.00  0.00     0.014 C 
HETATM   33  C3  UNL     1      -6.465  47.166 -22.277  1.00  0.00     0.043 C 
ENDBRANCH   1  31
BRANCH  19  34
HETATM   34  C24 UNL     1       1.294  48.633 -14.417  1.00  0.00     0.181 C 
BRANCH  34  35
HETATM   35  O4  UNL     1       1.276  47.481 -15.253  1.00  0.00    -0.400 OA
HETATM   36  H37 UNL     1       1.123  47.778 -16.174  1.00  0.00     0.209 HD
ENDBRANCH  34  35
ENDBRANCH  19  34
TORSDOF 5
ENDMDL
MODEL 8
REMARK minimizedAffinity -8.00109673
REMARK  5 active torsions:
REMARK  status: ('A' for Active; 'I' for Inactive)
REMARK    1  A    between atoms: C2_2  and  C4_4 
REMARK    2  A    between atoms: C7_7  and  C8_8 
REMARK    3  A    between atoms: C8_8  and  O2_10 
REMARK    4  A    between atoms: C22_25  and  C24_27 
REMARK    5  A    between atoms: C24_27  and  O4_28 
ROOT
HETATM    1  C4  UNL     1      -1.493  51.912 -24.924  1.00  0.00     0.019 C 
HETATM    2  C5  UNL     1      -2.856  52.541 -25.222  1.00  0.00     0.011 C 
HETATM    3  C6  UNL     1      -3.794  51.361 -25.450  1.00  0.00     0.021 C 
HETATM    4  C7  UNL     1      -3.168  50.126 -24.758  1.00  0.00     0.050 C 
HETATM    5  C9  UNL     1      -4.103  49.540 -23.681  1.00  0.00     0.022 C 
HETATM    6  C10 UNL     1      -4.270  50.446 -22.461  1.00  0.00     0.011 C 
HETATM    7  C11 UNL     1      -2.943  50.813 -21.728  1.00  0.00    -0.032 C 
HETATM    8  C12 UNL     1      -2.981  52.355 -21.531  1.00  0.00     0.016 C 
HETATM    9  C13 UNL     1      -1.713  50.397 -22.611  1.00  0.00     0.000 C 
HETATM   10  C14 UNL     1      -0.381  50.787 -21.957  1.00  0.00     0.006 C 
HETATM   11  C15 UNL     1      -0.224  50.169 -20.561  1.00  0.00     0.006 C 
HETATM   12  C16 UNL     1      -1.415  50.472 -19.620  1.00  0.00     0.003 C 
HETATM   13  C17 UNL     1      -1.174  50.033 -18.107  1.00  0.00    -0.035 C 
HETATM   14  C18 UNL     1      -0.847  48.527 -17.975  1.00  0.00     0.016 C 
HETATM   15  C19 UNL     1       0.081  50.806 -17.571  1.00  0.00     0.017 C 
HETATM   16  C20 UNL     1       0.061  51.164 -16.090  1.00  0.00     0.080 C 
HETATM   17  C21 UNL     1      -0.839  50.281 -15.266  1.00  0.00     0.137 C 
HETATM   18  O3  UNL     1      -0.437  49.805 -14.203  1.00  0.00    -0.297 OA
HETATM   19  C22 UNL     1      -2.300  50.148 -15.708  1.00  0.00     0.042 C 
HETATM   20  C23 UNL     1      -2.835  48.753 -15.319  1.00  0.00     0.026 C 
HETATM   21  C25 UNL     1      -2.414  50.467 -17.245  1.00  0.00     0.012 C 
HETATM   22  C26 UNL     1      -3.749  50.003 -17.856  1.00  0.00     0.007 C 
HETATM   23  C27 UNL     1      -3.933  50.502 -19.291  1.00  0.00     0.011 C 
HETATM   24  C28 UNL     1      -2.802  50.069 -20.272  1.00  0.00    -0.032 C 
HETATM   25  C29 UNL     1      -2.918  48.527 -20.467  1.00  0.00     0.016 C 
HETATM   26  C30 UNL     1      -1.795  50.595 -24.160  1.00  0.00     0.017 C 
ENDROOT
BRANCH   4  27
HETATM   27  C8  UNL     1      -2.939  49.063 -25.842  1.00  0.00     0.149 C 
HETATM   28  O1  UNL     1      -3.594  48.049 -26.034  1.00  0.00    -0.649 OA
BRANCH  27  29
HETATM   29  O2  UNL     1      -1.861  49.307 -26.612  1.00  0.00    -0.776 OA
HETATM   30  H11 UNL     1      -1.835  48.542 -27.222  1.00  0.00     0.167 HD
ENDBRANCH  27  29
ENDBRANCH   4  27
BRANCH   1  31
HETATM   31  C2  UNL     1      -0.383  52.821 -24.443  1.00  0.00    -0.088 C 
HETATM   32  C1  UNL     1       0.158  52.796 -23.218  1.00  0.00     0.014 C 
HETATM   33  C3  UNL     1       0.045  53.877 -25.434  1.00  0.00     0.043 C 
ENDBRANCH   1  31
BRANCH  19  34
HETATM   34  C24 UNL     1      -3.069  51.226 -14.896  1.00  0.00     0.181 C 
BRANCH  34  35
HETATM   35  O4  UNL     1      -2.324  51.706 -13.781  1.00  0.00    -0.400 OA
HETATM   36  H37 UNL     1      -1.456  52.019 -14.111  1.00  0.00     0.209 HD
ENDBRANCH  34  35
ENDBRANCH  19  34
TORSDOF 5
ENDMDL
MODEL 9
REMARK minimizedAffinity -7.95126486
REMARK  5 active torsions:
REMARK  status: ('A' for Active; 'I' for Inactive)
REMARK    1  A    between atoms: C2_2  and  C4_4 
REMARK    2  A    between atoms: C7_7  and  C8_8 
REMARK    3  A    between atoms: C8_8  and  O2_10 
REMARK    4  A    between atoms: C22_25  and  C24_27 
REMARK    5  A    between atoms: C24_27  and  O4_28 
ROOT
HETATM    1  C4  UNL     1      -9.014  46.518 -20.766  1.00  0.00     0.019 C 
HETATM    2  C5  UNL     1     -10.018  47.615 -20.408  1.00  0.00     0.011 C 
HETATM    3  C6  UNL     1      -9.601  48.095 -19.022  1.00  0.00     0.021 C 
HETATM    4  C7  UNL     1      -8.111  47.722 -18.827  1.00  0.00     0.050 C 
HETATM    5  C9  UNL     1      -7.240  48.966 -18.566  1.00  0.00     0.022 C 
HETATM    6  C10 UNL     1      -7.106  49.882 -19.783  1.00  0.00     0.011 C 
HETATM    7  C11 UNL     1      -6.516  49.201 -21.056  1.00  0.00    -0.032 C 
HETATM    8  C12 UNL     1      -7.469  49.587 -22.223  1.00  0.00     0.016 C 
HETATM    9  C13 UNL     1      -6.480  47.644 -20.860  1.00  0.00     0.000 C 
HETATM   10  C14 UNL     1      -5.958  46.922 -22.109  1.00  0.00     0.006 C 
HETATM   11  C15 UNL     1      -4.557  47.405 -22.509  1.00  0.00     0.006 C 
HETATM   12  C16 UNL     1      -4.465  48.942 -22.675  1.00  0.00     0.003 C 
HETATM   13  C17 UNL     1      -3.088  49.444 -23.302  1.00  0.00    -0.035 C 
HETATM   14  C18 UNL     1      -1.863  48.991 -22.475  1.00  0.00     0.016 C 
HETATM   15  C19 UNL     1      -2.932  48.789 -24.718  1.00  0.00     0.017 C 
HETATM   16  C20 UNL     1      -2.202  49.626 -25.763  1.00  0.00     0.080 C 
HETATM   17  C21 UNL     1      -1.283  50.663 -25.173  1.00  0.00     0.137 C 
HETATM   18  O3  UNL     1      -0.136  50.792 -25.605  1.00  0.00    -0.297 OA
HETATM   19  C22 UNL     1      -1.879  51.644 -24.159  1.00  0.00     0.042 C 
HETATM   20  C23 UNL     1      -0.793  52.066 -23.146  1.00  0.00     0.026 C 
HETATM   21  C25 UNL     1      -3.153  51.002 -23.494  1.00  0.00     0.012 C 
HETATM   22  C26 UNL     1      -3.596  51.736 -22.215  1.00  0.00     0.007 C 
HETATM   23  C27 UNL     1      -4.947  51.236 -21.699  1.00  0.00     0.011 C 
HETATM   24  C28 UNL     1      -4.992  49.709 -21.393  1.00  0.00    -0.032 C 
HETATM   25  C29 UNL     1      -4.078  49.455 -20.155  1.00  0.00     0.016 C 
HETATM   26  C30 UNL     1      -7.670  46.949 -20.120  1.00  0.00     0.017 C 
ENDROOT
BRANCH   4  27
HETATM   27  C8  UNL     1      -8.029  46.799 -17.603  1.00  0.00     0.149 C 
HETATM   28  O1  UNL     1      -8.307  45.610 -17.552  1.00  0.00    -0.649 OA
BRANCH  27  29
HETATM   29  O2  UNL     1      -7.637  47.431 -16.480  1.00  0.00    -0.776 OA
HETATM   30  H11 UNL     1      -7.661  46.730 -15.799  1.00  0.00     0.167 HD
ENDBRANCH  27  29
ENDBRANCH   4  27
BRANCH   1  31
HETATM   31  C2  UNL     1      -9.028  45.978 -22.180  1.00  0.00    -0.088 C 
HETATM   32  C1  UNL     1      -8.575  44.773 -22.550  1.00  0.00     0.014 C 
HETATM   33  C3  UNL     1      -9.518  46.952 -23.224  1.00  0.00     0.043 C 
ENDBRANCH   1  31
BRANCH  19  34
HETATM   34  C24 UNL     1      -2.297  52.885 -24.993  1.00  0.00     0.181 C 
BRANCH  34  35
HETATM   35  O4  UNL     1      -3.471  52.654 -25.765  1.00  0.00    -0.400 OA
HETATM   36  H37 UNL     1      -4.175  52.343 -25.158  1.00  0.00     0.209 HD
ENDBRANCH  34  35
ENDBRANCH  19  34
TORSDOF 5
ENDMDL
