MODEL 1
REMARK minimizedAffinity -9.43779278
REMARK  5 active torsions:
REMARK  status: ('A' for Active; 'I' for Inactive)
REMARK    1  A    between atoms: O1_2  and  C2_3 
REMARK    2  A    between atoms: C6_11  and  N3_12 
REMARK    3  A    between atoms: C9_15  and  O2_16 
REMARK    4  A    between atoms: O2_16  and  C10_17 
REMARK    5  A    between atoms: C23_30  and  O3_31 
ROOT
HETATM    1  C2  UNL     1      -0.254  51.313 -20.654  1.00  0.00     0.103 A 
HETATM    2  C3  UNL     1       0.520  52.472 -20.786  1.00  0.00     0.070 A 
HETATM    3  C4  UNL     1       0.673  53.120 -22.006  1.00  0.00     0.049 A 
HETATM    4  N1  UNL     1       1.429  54.222 -22.055  1.00  0.00    -0.351 N 
ATOM      5  H1  UNL     1       1.892  54.591 -21.225  1.00  0.00     0.166 HD
HETATM    6  C5  UNL     1       1.546  54.816 -23.248  1.00  0.00     0.182 A 
HETATM    7  N2  UNL     1       0.977  54.420 -24.390  1.00  0.00    -0.342 N 
ATOM      8  H2  UNL     1       1.105  54.937 -25.260  1.00  0.00     0.167 HD
HETATM    9  C6  UNL     1       0.226  53.306 -24.332  1.00  0.00     0.096 A 
HETATM   10  C21 UNL     1       0.029  52.597 -23.132  1.00  0.00     0.032 A 
HETATM   11  C22 UNL     1      -0.755  51.423 -23.010  1.00  0.00     0.056 A 
HETATM   12  C23 UNL     1      -0.898  50.779 -21.781  1.00  0.00     0.102 A 
ENDROOT
BRANCH   9  13
HETATM   13  N3  UNL     1      -0.430  52.863 -25.507  1.00  0.00    -0.266 NA
HETATM   14  C7  UNL     1       0.564  52.453 -26.520  1.00  0.00     0.099 C 
HETATM   15  C8  UNL     1       0.352  50.960 -26.723  1.00  0.00     0.048 C 
HETATM   16  C9  UNL     1      -1.142  50.794 -26.477  1.00  0.00     0.143 C 
HETATM   17  C20 UNL     1      -1.340  51.720 -25.268  1.00  0.00     0.129 C 
BRANCH  16  18
HETATM   18  O2  UNL     1      -1.409  49.424 -26.201  1.00  0.00    -0.345 OA
BRANCH  18  19
HETATM   19  C10 UNL     1      -2.705  48.993 -26.237  1.00  0.00     0.070 A 
HETATM   20  C11 UNL     1      -3.299  48.855 -24.982  1.00  0.00     0.037 A 
HETATM   21  C12 UNL     1      -4.623  48.426 -24.862  1.00  0.00     0.015 A 
HETATM   22  C13 UNL     1      -5.377  48.120 -26.003  1.00  0.00    -0.026 A 
HETATM   23  C14 UNL     1      -6.710  47.687 -25.904  1.00  0.00     0.012 A 
HETATM   24  C18 UNL     1      -4.781  48.249 -27.277  1.00  0.00    -0.023 A 
HETATM   25  C15 UNL     1      -7.447  47.386 -27.050  1.00  0.00     0.001 A 
HETATM   26  C16 UNL     1      -6.863  47.512 -28.305  1.00  0.00     0.001 A 
HETATM   27  C17 UNL     1      -5.539  47.940 -28.419  1.00  0.00     0.012 A 
HETATM   28  C19 UNL     1      -3.445  48.683 -27.378  1.00  0.00     0.049 A 
ENDBRANCH  18  19
ENDBRANCH  16  18
ENDBRANCH   9  13
BRANCH  12  29
HETATM   29  O3  UNL     1      -1.638  49.642 -21.579  1.00  0.00    -0.353 OA
HETATM   30  C24 UNL     1      -3.041  49.790 -21.414  1.00  0.00     0.210 C 
ENDBRANCH  12  29
BRANCH   1  31
HETATM   31  O1  UNL     1      -0.438  50.634 -19.475  1.00  0.00    -0.353 OA
HETATM   32  C1  UNL     1      -0.106  51.305 -18.267  1.00  0.00     0.210 C 
ENDBRANCH   1  31
TORSDOF 5
ENDMDL
MODEL 2
REMARK minimizedAffinity -9.37382126
REMARK  5 active torsions:
REMARK  status: ('A' for Active; 'I' for Inactive)
REMARK    1  A    between atoms: O1_2  and  C2_3 
REMARK    2  A    between atoms: C6_11  and  N3_12 
REMARK    3  A    between atoms: C9_15  and  O2_16 
REMARK    4  A    between atoms: O2_16  and  C10_17 
REMARK    5  A    between atoms: C23_30  and  O3_31 
ROOT
HETATM    1  C2  UNL     1       0.134  53.009 -25.441  1.00  0.00     0.103 A 
HETATM    2  C3  UNL     1       0.851  52.887 -24.244  1.00  0.00     0.070 A 
HETATM    3  C4  UNL     1       0.241  52.501 -23.057  1.00  0.00     0.049 A 
HETATM    4  N1  UNL     1       0.990  52.408 -21.953  1.00  0.00    -0.351 N 
ATOM      5  H1  UNL     1       1.988  52.615 -21.965  1.00  0.00     0.166 HD
HETATM    6  C5  UNL     1       0.363  52.030 -20.833  1.00  0.00     0.182 A 
HETATM    7  N2  UNL     1      -0.933  51.731 -20.713  1.00  0.00    -0.342 N 
ATOM      8  H2  UNL     1      -1.335  51.437 -19.823  1.00  0.00     0.167 HD
HETATM    9  C6  UNL     1      -1.680  51.836 -21.827  1.00  0.00     0.096 A 
HETATM   10  C21 UNL     1      -1.130  52.224 -23.063  1.00  0.00     0.032 A 
HETATM   11  C22 UNL     1      -1.865  52.345 -24.268  1.00  0.00     0.056 A 
HETATM   12  C23 UNL     1      -1.243  52.737 -25.453  1.00  0.00     0.102 A 
ENDROOT
BRANCH   9  13
HETATM   13  N3  UNL     1      -3.053  51.495 -21.762  1.00  0.00    -0.266 NA
HETATM   14  C7  UNL     1      -3.764  52.020 -22.946  1.00  0.00     0.099 C 
HETATM   15  C8  UNL     1      -4.252  50.797 -23.708  1.00  0.00     0.048 C 
HETATM   16  C9  UNL     1      -4.504  49.785 -22.597  1.00  0.00     0.143 C 
HETATM   17  C20 UNL     1      -3.285  50.034 -21.697  1.00  0.00     0.129 C 
BRANCH  16  18
HETATM   18  O2  UNL     1      -4.541  48.483 -23.167  1.00  0.00    -0.345 OA
BRANCH  18  19
HETATM   19  C10 UNL     1      -4.743  48.367 -24.514  1.00  0.00     0.070 A 
HETATM   20  C11 UNL     1      -3.598  48.559 -25.286  1.00  0.00     0.037 A 
HETATM   21  C12 UNL     1      -3.651  48.468 -26.678  1.00  0.00     0.015 A 
HETATM   22  C13 UNL     1      -4.861  48.186 -27.326  1.00  0.00    -0.026 A 
HETATM   23  C14 UNL     1      -4.936  48.089 -28.726  1.00  0.00     0.012 A 
HETATM   24  C18 UNL     1      -6.029  47.998 -26.553  1.00  0.00    -0.023 A 
HETATM   25  C15 UNL     1      -6.149  47.808 -29.356  1.00  0.00     0.001 A 
HETATM   26  C16 UNL     1      -7.300  47.623 -28.596  1.00  0.00     0.001 A 
HETATM   27  C17 UNL     1      -7.241  47.717 -27.205  1.00  0.00     0.012 A 
HETATM   28  C19 UNL     1      -5.954  48.094 -25.150  1.00  0.00     0.049 A 
ENDBRANCH  18  19
ENDBRANCH  16  18
ENDBRANCH   9  13
BRANCH  12  29
HETATM   29  O3  UNL     1      -1.882  52.877 -26.659  1.00  0.00    -0.353 OA
HETATM   30  C24 UNL     1      -2.744  51.827 -27.074  1.00  0.00     0.210 C 
ENDBRANCH  12  29
BRANCH   1  31
HETATM   31  O1  UNL     1       0.686  53.385 -26.641  1.00  0.00    -0.353 OA
HETATM   32  C1  UNL     1       1.126  52.356 -27.517  1.00  0.00     0.210 C 
ENDBRANCH   1  31
TORSDOF 5
ENDMDL
MODEL 3
REMARK minimizedAffinity -9.28051281
REMARK  5 active torsions:
REMARK  status: ('A' for Active; 'I' for Inactive)
REMARK    1  A    between atoms: O1_2  and  C2_3 
REMARK    2  A    between atoms: C6_11  and  N3_12 
REMARK    3  A    between atoms: C9_15  and  O2_16 
REMARK    4  A    between atoms: O2_16  and  C10_17 
REMARK    5  A    between atoms: C23_30  and  O3_31 
ROOT
HETATM    1  C2  UNL     1      -4.323  48.474 -24.026  1.00  0.00     0.103 A 
HETATM    2  C3  UNL     1      -4.644  48.847 -25.337  1.00  0.00     0.070 A 
HETATM    3  C4  UNL     1      -3.738  49.507 -26.158  1.00  0.00     0.049 A 
HETATM    4  N1  UNL     1      -4.118  49.832 -27.398  1.00  0.00    -0.351 N 
ATOM      5  H1  UNL     1      -5.049  49.611 -27.749  1.00  0.00     0.166 HD
HETATM    6  C5  UNL     1      -3.213  50.463 -28.156  1.00  0.00     0.182 A 
HETATM    7  N2  UNL     1      -1.970  50.791 -27.797  1.00  0.00    -0.342 N 
ATOM      8  H2  UNL     1      -1.333  51.263 -28.440  1.00  0.00     0.167 HD
HETATM    9  C6  UNL     1      -1.600  50.468 -26.545  1.00  0.00     0.096 A 
HETATM   10  C21 UNL     1      -2.466  49.802 -25.657  1.00  0.00     0.032 A 
HETATM   11  C22 UNL     1      -2.131  49.430 -24.332  1.00  0.00     0.056 A 
HETATM   12  C23 UNL     1      -3.049  48.772 -23.515  1.00  0.00     0.102 A 
ENDROOT
BRANCH   9  13
HETATM   13  N3  UNL     1      -0.279  50.761 -26.126  1.00  0.00    -0.266 NA
HETATM   14  C7  UNL     1       0.349  51.721 -27.057  1.00  0.00     0.099 C 
HETATM   15  C8  UNL     1       0.596  52.982 -26.243  1.00  0.00     0.048 C 
HETATM   16  C9  UNL     1       0.851  52.437 -24.843  1.00  0.00     0.143 C 
HETATM   17  C20 UNL     1      -0.218  51.337 -24.763  1.00  0.00     0.129 C 
BRANCH  16  18
HETATM   18  O2  UNL     1       0.666  53.488 -23.904  1.00  0.00    -0.345 OA
BRANCH  18  19
HETATM   19  C10 UNL     1       0.629  53.174 -22.574  1.00  0.00     0.070 A 
HETATM   20  C11 UNL     1       1.197  54.137 -21.741  1.00  0.00     0.037 A 
HETATM   21  C12 UNL     1       1.228  53.955 -20.356  1.00  0.00     0.015 A 
HETATM   22  C13 UNL     1       0.692  52.796 -19.780  1.00  0.00    -0.026 A 
HETATM   23  C14 UNL     1       0.712  52.593 -18.390  1.00  0.00     0.012 A 
HETATM   24  C18 UNL     1       0.121  51.811 -20.617  1.00  0.00    -0.023 A 
HETATM   25  C15 UNL     1       0.174  51.433 -17.832  1.00  0.00     0.001 A 
HETATM   26  C16 UNL     1      -0.388  50.462 -18.654  1.00  0.00     0.001 A 
HETATM   27  C17 UNL     1      -0.414  50.649 -20.037  1.00  0.00     0.012 A 
HETATM   28  C19 UNL     1       0.100  52.013 -22.011  1.00  0.00     0.049 A 
ENDBRANCH  18  19
ENDBRANCH  16  18
ENDBRANCH   9  13
BRANCH  12  29
HETATM   29  O3  UNL     1      -2.803  48.379 -22.225  1.00  0.00    -0.353 OA
HETATM   30  C24 UNL     1      -1.906  47.295 -22.026  1.00  0.00     0.210 C 
ENDBRANCH  12  29
BRANCH   1  31
HETATM   31  O1  UNL     1      -5.178  47.822 -23.173  1.00  0.00    -0.353 OA
HETATM   32  C1  UNL     1      -6.255  48.566 -22.621  1.00  0.00     0.210 C 
ENDBRANCH   1  31
TORSDOF 5
ENDMDL
MODEL 4
REMARK minimizedAffinity -9.16981411
REMARK  5 active torsions:
REMARK  status: ('A' for Active; 'I' for Inactive)
REMARK    1  A    between atoms: O1_2  and  C2_3 
REMARK    2  A    between atoms: C6_11  and  N3_12 
REMARK    3  A    between atoms: C9_15  and  O2_16 
REMARK    4  A    between atoms: O2_16  and  C10_17 
REMARK    5  A    between atoms: C23_30  and  O3_31 
ROOT
HETATM    1  C2  UNL     1       1.112  54.126 -23.317  1.00  0.00     0.103 A 
HETATM    2  C3  UNL     1       1.104  54.337 -21.932  1.00  0.00     0.070 A 
HETATM    3  C4  UNL     1       0.699  53.351 -21.040  1.00  0.00     0.049 A 
HETATM    4  N1  UNL     1       0.716  53.626 -19.732  1.00  0.00    -0.351 N 
ATOM      5  H1  UNL     1       1.015  54.535 -19.379  1.00  0.00     0.166 HD
HETATM    6  C5  UNL     1       0.322  52.647 -18.908  1.00  0.00     0.182 A 
HETATM    7  N2  UNL     1      -0.079  51.425 -19.265  1.00  0.00    -0.342 N 
ATOM      8  H2  UNL     1      -0.354  50.727 -18.574  1.00  0.00     0.167 HD
HETATM    9  C6  UNL     1      -0.102  51.161 -20.585  1.00  0.00     0.096 A 
HETATM   10  C21 UNL     1       0.292  52.112 -21.545  1.00  0.00     0.032 A 
HETATM   11  C22 UNL     1       0.295  51.889 -22.944  1.00  0.00     0.056 A 
HETATM   12  C23 UNL     1       0.700  52.886 -23.830  1.00  0.00     0.102 A 
ENDROOT
BRANCH   9  13
HETATM   13  N3  UNL     1      -0.485  49.867 -21.015  1.00  0.00    -0.266 NA
HETATM   14  C7  UNL     1      -1.021  49.090 -19.878  1.00  0.00     0.099 C 
HETATM   15  C8  UNL     1      -2.483  48.832 -20.209  1.00  0.00     0.048 C 
HETATM   16  C9  UNL     1      -2.475  48.745 -21.731  1.00  0.00     0.143 C 
HETATM   17  C20 UNL     1      -1.514  49.891 -22.080  1.00  0.00     0.129 C 
BRANCH  16  18
HETATM   18  O2  UNL     1      -3.801  48.942 -22.205  1.00  0.00    -0.345 OA
BRANCH  18  19
HETATM   19  C10 UNL     1      -4.056  48.731 -23.531  1.00  0.00     0.070 A 
HETATM   20  C11 UNL     1      -2.967  48.962 -24.370  1.00  0.00     0.037 A 
HETATM   21  C12 UNL     1      -3.078  48.784 -25.751  1.00  0.00     0.015 A 
HETATM   22  C13 UNL     1      -4.291  48.374 -26.319  1.00  0.00    -0.026 A 
HETATM   23  C14 UNL     1      -4.425  48.188 -27.705  1.00  0.00     0.012 A 
HETATM   24  C18 UNL     1      -5.403  48.145 -25.477  1.00  0.00    -0.023 A 
HETATM   25  C15 UNL     1      -5.640  47.779 -28.255  1.00  0.00     0.001 A 
HETATM   26  C16 UNL     1      -6.736  47.553 -27.429  1.00  0.00     0.001 A 
HETATM   27  C17 UNL     1      -6.619  47.735 -26.049  1.00  0.00     0.012 A 
HETATM   28  C19 UNL     1      -5.271  48.330 -24.087  1.00  0.00     0.049 A 
ENDBRANCH  18  19
ENDBRANCH  16  18
ENDBRANCH   9  13
BRANCH  12  29
HETATM   29  O3  UNL     1       0.733  52.750 -25.194  1.00  0.00    -0.353 OA
HETATM   30  C24 UNL     1       1.683  51.848 -25.744  1.00  0.00     0.210 C 
ENDBRANCH  12  29
BRANCH   1  31
HETATM   31  O1  UNL     1       1.502  55.063 -24.241  1.00  0.00    -0.353 OA
HETATM   32  C1  UNL     1       0.484  55.780 -24.925  1.00  0.00     0.210 C 
ENDBRANCH   1  31
TORSDOF 5
ENDMDL
MODEL 5
REMARK minimizedAffinity -9.14032936
REMARK  5 active torsions:
REMARK  status: ('A' for Active; 'I' for Inactive)
REMARK    1  A    between atoms: O1_2  and  C2_3 
REMARK    2  A    between atoms: C6_11  and  N3_12 
REMARK    3  A    between atoms: C9_15  and  O2_16 
REMARK    4  A    between atoms: O2_16  and  C10_17 
REMARK    5  A    between atoms: C23_30  and  O3_31 
ROOT
HETATM    1  C2  UNL     1      -0.256  53.673 -25.695  1.00  0.00     0.103 A 
HETATM    2  C3  UNL     1       0.514  54.367 -24.753  1.00  0.00     0.070 A 
HETATM    3  C4  UNL     1       0.769  53.853 -23.488  1.00  0.00     0.049 A 
HETATM    4  N1  UNL     1       1.511  54.575 -22.641  1.00  0.00    -0.351 N 
ATOM      5  H1  UNL     1       1.887  55.486 -22.903  1.00  0.00     0.166 HD
HETATM    6  C5  UNL     1       1.736  54.040 -21.435  1.00  0.00     0.182 A 
HETATM    7  N2  UNL     1       1.297  52.857 -20.999  1.00  0.00    -0.342 N 
ATOM      8  H2  UNL     1       1.522  52.513 -20.066  1.00  0.00     0.167 HD
HETATM    9  C6  UNL     1       0.544  52.143 -21.854  1.00  0.00     0.096 A 
HETATM   10  C21 UNL     1       0.243  52.602 -23.150  1.00  0.00     0.032 A 
HETATM   11  C22 UNL     1      -0.539  51.891 -24.095  1.00  0.00     0.056 A 
HETATM   12  C23 UNL     1      -0.792  52.419 -25.361  1.00  0.00     0.102 A 
ENDROOT
BRANCH   9  13
HETATM   13  N3  UNL     1       0.084  50.864 -21.454  1.00  0.00    -0.266 NA
HETATM   14  C7  UNL     1      -0.210  50.859 -20.006  1.00  0.00     0.099 C 
HETATM   15  C8  UNL     1      -1.709  50.623 -19.891  1.00  0.00     0.048 C 
HETATM   16  C9  UNL     1      -2.008  49.752 -21.106  1.00  0.00     0.143 C 
HETATM   17  C20 UNL     1      -1.139  50.437 -22.172  1.00  0.00     0.129 C 
BRANCH  16  18
HETATM   18  O2  UNL     1      -3.402  49.812 -21.376  1.00  0.00    -0.345 OA
BRANCH  18  19
HETATM   19  C10 UNL     1      -3.844  49.418 -22.608  1.00  0.00     0.070 A 
HETATM   20  C11 UNL     1      -5.217  49.182 -22.678  1.00  0.00     0.037 A 
HETATM   21  C12 UNL     1      -5.812  48.776 -23.874  1.00  0.00     0.015 A 
HETATM   22  C13 UNL     1      -5.038  48.594 -25.027  1.00  0.00    -0.026 A 
HETATM   23  C14 UNL     1      -5.617  48.187 -26.241  1.00  0.00     0.012 A 
HETATM   24  C18 UNL     1      -3.645  48.823 -24.965  1.00  0.00    -0.023 A 
HETATM   25  C15 UNL     1      -4.831  48.009 -27.380  1.00  0.00     0.001 A 
HETATM   26  C16 UNL     1      -3.460  48.234 -27.321  1.00  0.00     0.001 A 
HETATM   27  C17 UNL     1      -2.870  48.638 -26.122  1.00  0.00     0.012 A 
HETATM   28  C19 UNL     1      -3.063  49.231 -23.749  1.00  0.00     0.049 A 
ENDBRANCH  18  19
ENDBRANCH  16  18
ENDBRANCH   9  13
BRANCH  12  29
HETATM   29  O3  UNL     1      -1.535  51.796 -26.330  1.00  0.00    -0.353 OA
HETATM   30  C24 UNL     1      -2.929  52.069 -26.369  1.00  0.00     0.210 C 
ENDBRANCH  12  29
BRANCH   1  31
HETATM   31  O1  UNL     1      -0.538  54.132 -26.957  1.00  0.00    -0.353 OA
HETATM   32  C1  UNL     1       0.171  53.555 -28.045  1.00  0.00     0.210 C 
ENDBRANCH   1  31
TORSDOF 5
ENDMDL
MODEL 6
REMARK minimizedAffinity -9.0804348
REMARK  5 active torsions:
REMARK  status: ('A' for Active; 'I' for Inactive)
REMARK    1  A    between atoms: O1_2  and  C2_3 
REMARK    2  A    between atoms: C6_11  and  N3_12 
REMARK    3  A    between atoms: C9_15  and  O2_16 
REMARK    4  A    between atoms: O2_16  and  C10_17 
REMARK    5  A    between atoms: C23_30  and  O3_31 
ROOT
HETATM    1  C2  UNL     1      -0.337  51.480 -20.509  1.00  0.00     0.103 A 
HETATM    2  C3  UNL     1       0.511  52.584 -20.665  1.00  0.00     0.070 A 
HETATM    3  C4  UNL     1       0.694  53.203 -21.896  1.00  0.00     0.049 A 
HETATM    4  N1  UNL     1       1.521  54.252 -21.968  1.00  0.00    -0.351 N 
ATOM      5  H1  UNL     1       2.016  54.600 -21.148  1.00  0.00     0.166 HD
HETATM    6  C5  UNL     1       1.664  54.820 -23.171  1.00  0.00     0.182 A 
HETATM    7  N2  UNL     1       1.058  54.447 -24.301  1.00  0.00    -0.342 N 
ATOM      8  H2  UNL     1       1.212  54.942 -25.180  1.00  0.00     0.167 HD
HETATM    9  C6  UNL     1       0.236  53.386 -24.220  1.00  0.00     0.096 A 
HETATM   10  C21 UNL     1       0.005  52.708 -23.008  1.00  0.00     0.032 A 
HETATM   11  C22 UNL     1      -0.854  51.591 -22.861  1.00  0.00     0.056 A 
HETATM   12  C23 UNL     1      -1.027  50.975 -21.622  1.00  0.00     0.102 A 
ENDROOT
BRANCH   9  13
HETATM   13  N3  UNL     1      -0.460  52.972 -25.382  1.00  0.00    -0.266 NA
HETATM   14  C7  UNL     1       0.498  52.641 -26.457  1.00  0.00     0.099 C 
HETATM   15  C8  UNL     1       0.326  51.151 -26.716  1.00  0.00     0.048 C 
HETATM   16  C9  UNL     1      -1.149  50.923 -26.409  1.00  0.00     0.143 C 
HETATM   17  C20 UNL     1      -1.320  51.788 -25.152  1.00  0.00     0.129 C 
BRANCH  16  18
HETATM   18  O2  UNL     1      -1.357  49.534 -26.183  1.00  0.00    -0.345 OA
BRANCH  18  19
HETATM   19  C10 UNL     1      -2.639  49.083 -26.036  1.00  0.00     0.070 A 
HETATM   20  C11 UNL     1      -3.305  48.842 -27.237  1.00  0.00     0.037 A 
HETATM   21  C12 UNL     1      -4.621  48.375 -27.242  1.00  0.00     0.015 A 
HETATM   22  C13 UNL     1      -5.299  48.144 -26.038  1.00  0.00    -0.026 A 
HETATM   23  C14 UNL     1      -6.622  47.673 -26.021  1.00  0.00     0.012 A 
HETATM   24  C18 UNL     1      -4.634  48.393 -24.815  1.00  0.00    -0.023 A 
HETATM   25  C15 UNL     1      -7.282  47.449 -24.812  1.00  0.00     0.001 A 
HETATM   26  C16 UNL     1      -6.631  47.694 -23.608  1.00  0.00     0.001 A 
HETATM   27  C17 UNL     1      -5.316  48.163 -23.609  1.00  0.00     0.012 A 
HETATM   28  C19 UNL     1      -3.307  48.864 -24.831  1.00  0.00     0.049 A 
ENDBRANCH  18  19
ENDBRANCH  16  18
ENDBRANCH   9  13
BRANCH  12  29
HETATM   29  O3  UNL     1      -1.838  49.893 -21.397  1.00  0.00    -0.353 OA
HETATM   30  C24 UNL     1      -1.239  48.605 -21.411  1.00  0.00     0.210 C 
ENDBRANCH  12  29
BRANCH   1  31
HETATM   31  O1  UNL     1      -0.554  50.832 -19.319  1.00  0.00    -0.353 OA
HETATM   32  C1  UNL     1      -0.074  51.450 -18.132  1.00  0.00     0.210 C 
ENDBRANCH   1  31
TORSDOF 5
ENDMDL
MODEL 7
REMARK minimizedAffinity -9.01901245
REMARK  5 active torsions:
REMARK  status: ('A' for Active; 'I' for Inactive)
REMARK    1  A    between atoms: O1_2  and  C2_3 
REMARK    2  A    between atoms: C6_11  and  N3_12 
REMARK    3  A    between atoms: C9_15  and  O2_16 
REMARK    4  A    between atoms: O2_16  and  C10_17 
REMARK    5  A    between atoms: C23_30  and  O3_31 
ROOT
HETATM    1  C2  UNL     1      -5.180  47.955 -28.490  1.00  0.00     0.103 A 
HETATM    2  C3  UNL     1      -6.367  47.346 -28.063  1.00  0.00     0.070 A 
HETATM    3  C4  UNL     1      -6.774  47.378 -26.735  1.00  0.00     0.049 A 
HETATM    4  N1  UNL     1      -7.919  46.773 -26.401  1.00  0.00    -0.351 N 
ATOM      5  H1  UNL     1      -8.492  46.292 -27.095  1.00  0.00     0.166 HD
HETATM    6  C5  UNL     1      -8.275  46.832 -25.113  1.00  0.00     0.182 A 
HETATM    7  N2  UNL     1      -7.604  47.440 -24.132  1.00  0.00    -0.342 N 
ATOM      8  H2  UNL     1      -7.949  47.450 -23.173  1.00  0.00     0.167 HD
HETATM    9  C6  UNL     1      -6.448  48.038 -24.476  1.00  0.00     0.096 A 
HETATM   10  C21 UNL     1      -5.973  48.043 -25.801  1.00  0.00     0.032 A 
HETATM   11  C22 UNL     1      -4.770  48.661 -26.222  1.00  0.00     0.056 A 
HETATM   12  C23 UNL     1      -4.369  48.619 -27.557  1.00  0.00     0.102 A 
ENDROOT
BRANCH   9  13
HETATM   13  N3  UNL     1      -5.715  48.728 -23.480  1.00  0.00    -0.266 NA
HETATM   14  C7  UNL     1      -4.960  47.770 -22.647  1.00  0.00     0.099 C 
HETATM   15  C8  UNL     1      -3.491  48.075 -22.899  1.00  0.00     0.048 C 
HETATM   16  C9  UNL     1      -3.498  49.575 -23.166  1.00  0.00     0.143 C 
HETATM   17  C20 UNL     1      -4.754  49.706 -24.040  1.00  0.00     0.129 C 
BRANCH  16  18
HETATM   18  O2  UNL     1      -2.294  49.924 -23.836  1.00  0.00    -0.345 OA
BRANCH  18  19
HETATM   19  C10 UNL     1      -1.455  50.825 -23.242  1.00  0.00     0.070 A 
HETATM   20  C11 UNL     1      -0.632  51.517 -24.130  1.00  0.00     0.037 A 
HETATM   21  C12 UNL     1       0.275  52.473 -23.667  1.00  0.00     0.015 A 
HETATM   22  C13 UNL     1       0.378  52.750 -22.297  1.00  0.00    -0.026 A 
HETATM   23  C14 UNL     1       1.283  53.708 -21.810  1.00  0.00     0.012 A 
HETATM   24  C18 UNL     1      -0.446  52.048 -21.389  1.00  0.00    -0.023 A 
HETATM   25  C15 UNL     1       1.373  53.972 -20.443  1.00  0.00     0.001 A 
HETATM   26  C16 UNL     1       0.563  53.282 -19.547  1.00  0.00     0.001 A 
HETATM   27  C17 UNL     1      -0.340  52.326 -20.016  1.00  0.00     0.012 A 
HETATM   28  C19 UNL     1      -1.354  51.088 -21.876  1.00  0.00     0.049 A 
ENDBRANCH  18  19
ENDBRANCH  16  18
ENDBRANCH   9  13
BRANCH  12  29
HETATM   29  O3  UNL     1      -3.222  49.191 -28.044  1.00  0.00    -0.353 OA
HETATM   30  C24 UNL     1      -2.935  50.528 -27.655  1.00  0.00     0.210 C 
ENDBRANCH  12  29
BRANCH   1  31
HETATM   31  O1  UNL     1      -4.731  47.955 -29.788  1.00  0.00    -0.353 OA
HETATM   32  C1  UNL     1      -5.679  48.217 -30.814  1.00  0.00     0.210 C 
ENDBRANCH   1  31
TORSDOF 5
ENDMDL
MODEL 8
REMARK minimizedAffinity -8.99780464
REMARK  5 active torsions:
REMARK  status: ('A' for Active; 'I' for Inactive)
REMARK    1  A    between atoms: O1_2  and  C2_3 
REMARK    2  A    between atoms: C6_11  and  N3_12 
REMARK    3  A    between atoms: C9_15  and  O2_16 
REMARK    4  A    between atoms: O2_16  and  C10_17 
REMARK    5  A    between atoms: C23_30  and  O3_31 
ROOT
HETATM    1  C2  UNL     1      -6.642  47.310 -27.858  1.00  0.00     0.103 A 
HETATM    2  C3  UNL     1      -6.584  47.516 -26.474  1.00  0.00     0.070 A 
HETATM    3  C4  UNL     1      -5.488  48.114 -25.864  1.00  0.00     0.049 A 
HETATM    4  N1  UNL     1      -5.504  48.276 -24.536  1.00  0.00    -0.351 N 
ATOM      5  H1  UNL     1      -6.295  47.970 -23.969  1.00  0.00     0.166 HD
HETATM    6  C5  UNL     1      -4.431  48.859 -23.990  1.00  0.00     0.182 A 
HETATM    7  N2  UNL     1      -3.352  49.300 -24.642  1.00  0.00    -0.342 N 
ATOM      8  H2  UNL     1      -2.576  49.747 -24.153  1.00  0.00     0.167 HD
HETATM    9  C6  UNL     1      -3.341  49.124 -25.975  1.00  0.00     0.096 A 
HETATM   10  C21 UNL     1      -4.415  48.524 -26.660  1.00  0.00     0.032 A 
HETATM   11  C22 UNL     1      -4.462  48.319 -28.061  1.00  0.00     0.056 A 
HETATM   12  C23 UNL     1      -5.565  47.714 -28.662  1.00  0.00     0.102 A 
ENDROOT
BRANCH   9  13
HETATM   13  N3  UNL     1      -2.236  49.607 -26.718  1.00  0.00    -0.266 NA
HETATM   14  C7  UNL     1      -2.704  50.455 -27.834  1.00  0.00     0.099 C 
HETATM   15  C8  UNL     1      -2.176  51.851 -27.538  1.00  0.00     0.048 C 
HETATM   16  C9  UNL     1      -0.870  51.570 -26.806  1.00  0.00     0.143 C 
HETATM   17  C20 UNL     1      -1.291  50.402 -25.901  1.00  0.00     0.129 C 
BRANCH  16  18
HETATM   18  O2  UNL     1      -0.487  52.740 -26.092  1.00  0.00    -0.345 OA
BRANCH  18  19
HETATM   19  C10 UNL     1      -0.402  52.673 -24.730  1.00  0.00     0.070 A 
HETATM   20  C11 UNL     1      -1.363  51.858 -24.133  1.00  0.00     0.037 A 
HETATM   21  C12 UNL     1      -1.397  51.691 -22.747  1.00  0.00     0.015 A 
HETATM   22  C13 UNL     1      -0.466  52.345 -21.929  1.00  0.00    -0.026 A 
HETATM   23  C14 UNL     1      -0.481  52.189 -20.533  1.00  0.00     0.012 A 
HETATM   24  C18 UNL     1       0.508  53.179 -22.524  1.00  0.00    -0.023 A 
HETATM   25  C15 UNL     1       0.453  52.848 -19.733  1.00  0.00     0.001 A 
HETATM   26  C16 UNL     1       1.412  53.669 -20.317  1.00  0.00     0.001 A 
HETATM   27  C17 UNL     1       1.439  53.834 -21.703  1.00  0.00     0.012 A 
HETATM   28  C19 UNL     1       0.525  53.334 -23.924  1.00  0.00     0.049 A 
ENDBRANCH  18  19
ENDBRANCH  16  18
ENDBRANCH   9  13
BRANCH  12  29
HETATM   29  O3  UNL     1      -5.688  47.481 -30.008  1.00  0.00    -0.353 OA
HETATM   30  C24 UNL     1      -6.524  48.355 -30.754  1.00  0.00     0.210 C 
ENDBRANCH  12  29
BRANCH   1  31
HETATM   31  O1  UNL     1      -7.698  46.725 -28.512  1.00  0.00    -0.353 OA
HETATM   32  C1  UNL     1      -8.339  45.625 -27.880  1.00  0.00     0.210 C 
ENDBRANCH   1  31
TORSDOF 5
ENDMDL
MODEL 9
REMARK minimizedAffinity -8.93551445
REMARK  5 active torsions:
REMARK  status: ('A' for Active; 'I' for Inactive)
REMARK    1  A    between atoms: O1_2  and  C2_3 
REMARK    2  A    between atoms: C6_11  and  N3_12 
REMARK    3  A    between atoms: C9_15  and  O2_16 
REMARK    4  A    between atoms: O2_16  and  C10_17 
REMARK    5  A    between atoms: C23_30  and  O3_31 
ROOT
HETATM    1  C2  UNL     1      -3.707  51.611 -23.517  1.00  0.00     0.103 A 
HETATM    2  C3  UNL     1      -3.090  52.203 -24.627  1.00  0.00     0.070 A 
HETATM    3  C4  UNL     1      -1.772  52.641 -24.589  1.00  0.00     0.049 A 
HETATM    4  N1  UNL     1      -1.251  53.197 -25.688  1.00  0.00    -0.351 N 
ATOM      5  H1  UNL     1      -1.797  53.307 -26.543  1.00  0.00     0.166 HD
HETATM    6  C5  UNL     1       0.022  53.601 -25.610  1.00  0.00     0.182 A 
HETATM    7  N2  UNL     1       0.822  53.497 -24.546  1.00  0.00    -0.342 N 
ATOM      8  H2  UNL     1       1.790  53.820 -24.570  1.00  0.00     0.167 HD
HETATM    9  C6  UNL     1       0.286  52.945 -23.443  1.00  0.00     0.096 A 
HETATM   10  C21 UNL     1      -1.042  52.481 -23.407  1.00  0.00     0.032 A 
HETATM   11  C22 UNL     1      -1.657  51.885 -22.278  1.00  0.00     0.056 A 
HETATM   12  C23 UNL     1      -2.982  51.453 -22.326  1.00  0.00     0.102 A 
ENDROOT
BRANCH   9  13
HETATM   13  N3  UNL     1       1.104  52.777 -22.298  1.00  0.00    -0.266 NA
HETATM   14  C7  UNL     1       1.381  54.088 -21.675  1.00  0.00     0.099 C 
HETATM   15  C8  UNL     1       0.722  54.039 -20.305  1.00  0.00     0.048 C 
HETATM   16  C9  UNL     1       0.830  52.566 -19.930  1.00  0.00     0.143 C 
HETATM   17  C20 UNL     1       0.493  51.901 -21.272  1.00  0.00     0.129 C 
BRANCH  16  18
HETATM   18  O2  UNL     1      -0.111  52.289 -18.900  1.00  0.00    -0.345 OA
BRANCH  18  19
HETATM   19  C10 UNL     1       0.326  51.647 -17.775  1.00  0.00     0.070 A 
HETATM   20  C11 UNL     1      -0.305  50.428 -17.528  1.00  0.00     0.037 A 
HETATM   21  C12 UNL     1       0.040  49.657 -16.415  1.00  0.00     0.015 A 
HETATM   22  C13 UNL     1       1.025  50.100 -15.522  1.00  0.00    -0.026 A 
HETATM   23  C14 UNL     1       1.388  49.341 -14.397  1.00  0.00     0.012 A 
HETATM   24  C18 UNL     1       1.664  51.338 -15.760  1.00  0.00    -0.023 A 
HETATM   25  C15 UNL     1       2.371  49.796 -13.518  1.00  0.00     0.001 A 
HETATM   26  C16 UNL     1       3.001  51.014 -13.750  1.00  0.00     0.001 A 
HETATM   27  C17 UNL     1       2.650  51.781 -14.862  1.00  0.00     0.012 A 
HETATM   28  C19 UNL     1       1.302  52.100 -16.887  1.00  0.00     0.049 A 
ENDBRANCH  18  19
ENDBRANCH  16  18
ENDBRANCH   9  13
BRANCH  12  29
HETATM   29  O3  UNL     1      -3.648  50.867 -21.280  1.00  0.00    -0.353 OA
HETATM   30  C24 UNL     1      -3.286  51.262 -19.964  1.00  0.00     0.210 C 
ENDBRANCH  12  29
BRANCH   1  31
HETATM   31  O1  UNL     1      -5.004  51.161 -23.499  1.00  0.00    -0.353 OA
HETATM   32  C1  UNL     1      -5.267  49.884 -24.065  1.00  0.00     0.210 C 
ENDBRANCH   1  31
TORSDOF 5
ENDMDL
