MODEL 1
REMARK minimizedAffinity -8.26177406
REMARK CNNscore 0.540379703
REMARK CNNaffinity 7.4968667
REMARK  12 active torsions:
REMARK  status: ('A' for Active; 'I' for Inactive)
REMARK    1  A    between atoms: O1_2  and  C2_3 
REMARK    2  A    between atoms: C2_3  and  C5_6 
REMARK    3  A    between atoms: C6_7  and  C7_8 
REMARK    4  A    between atoms: C7_8  and  C8_9 
REMARK    5  A    between atoms: C8_9  and  C10_11 
REMARK    6  A    between atoms: C28_30  and  O3_31 
REMARK    7  A    between atoms: O3_31  and  C29_32 
REMARK    8  A    between atoms: C30_34  and  C31_35 
REMARK    9  A    between atoms: C31_35  and  O5_36 
REMARK   10  A    between atoms: C32_37  and  O6_38 
REMARK   11  A    between atoms: C33_39  and  O7_40 
REMARK   12  A    between atoms: C34_41  and  O8_42 
ROOT
HETATM    1  C10 UNL     1      -2.280  49.449 -23.275  1.00  0.00    -0.002 C 
HETATM    2  C11 UNL     1      -1.153  50.336 -22.654  1.00  0.00     0.006 C 
HETATM    3  C12 UNL     1      -1.240  50.206 -21.121  1.00  0.00     0.011 C 
HETATM    4  C13 UNL     1      -2.155  48.989 -20.885  1.00  0.00    -0.029 C 
HETATM    5  C14 UNL     1      -1.244  47.727 -21.055  1.00  0.00     0.016 C 
HETATM    6  C15 UNL     1      -2.885  48.967 -19.504  1.00  0.00     0.028 C 
HETATM    7  C16 UNL     1      -1.929  48.869 -18.324  1.00  0.00    -0.021 C 
HETATM    8  C17 UNL     1      -2.112  47.973 -17.334  1.00  0.00     0.008 C 
HETATM    9  C18 UNL     1      -3.305  47.022 -17.345  1.00  0.00     0.092 C 
HETATM   10  O2  UNL     1      -4.427  47.894 -17.072  1.00  0.00    -0.374 OA
HETATM   11  C19 UNL     1      -5.029  48.264 -18.317  1.00  0.00     0.179 C 
HETATM   12  C20 UNL     1      -4.045  47.871 -19.444  1.00  0.00    -0.004 C 
HETATM   13  C21 UNL     1      -4.847  47.728 -20.765  1.00  0.00     0.014 C 
HETATM   14  C22 UNL     1      -4.088  47.925 -22.084  1.00  0.00     0.011 C 
HETATM   15  C23 UNL     1      -3.207  49.186 -22.043  1.00  0.00    -0.032 C 
HETATM   16  C24 UNL     1      -4.135  50.432 -21.845  1.00  0.00     0.016 C 
HETATM   17  C25 UNL     1      -3.472  46.571 -18.826  1.00  0.00     0.036 C 
HETATM   18  C26 UNL     1      -4.295  45.296 -18.971  1.00  0.00     0.011 C 
HETATM   19  C27 UNL     1      -3.668  44.131 -18.196  1.00  0.00     0.033 C 
HETATM   20  C28 UNL     1      -2.775  44.561 -17.021  1.00  0.00     0.136 C 
HETATM   21  C35 UNL     1      -3.311  45.833 -16.309  1.00  0.00     0.014 C 
HETATM   22  C36 UNL     1      -4.733  45.573 -15.734  1.00  0.00     0.021 C 
HETATM   23  C37 UNL     1      -2.428  46.117 -15.070  1.00  0.00     0.021 C 
ENDROOT
BRANCH  20  24
HETATM   24  O3  UNL     1      -2.701  43.486 -16.085  1.00  0.00    -0.352 OA
BRANCH  24  25
HETATM   25  C29 UNL     1      -1.379  43.044 -15.771  1.00  0.00     0.292 C 
HETATM   26  O4  UNL     1      -0.734  42.677 -16.988  1.00  0.00    -0.348 OA
HETATM   27  C30 UNL     1       0.629  42.253 -16.804  1.00  0.00     0.179 C 
HETATM   28  C32 UNL     1       0.791  41.270 -15.624  1.00  0.00     0.180 C 
HETATM   29  C33 UNL     1      -0.570  40.688 -15.235  1.00  0.00     0.183 C 
HETATM   30  C34 UNL     1      -1.530  41.823 -14.829  1.00  0.00     0.204 C 
BRANCH  27  31
HETATM   31  C31 UNL     1       1.057  41.605 -18.125  1.00  0.00     0.198 C 
BRANCH  31  32
HETATM   32  O5  UNL     1       0.014  40.812 -18.670  1.00  0.00    -0.398 OA
HETATM   33  H48 UNL     1       0.353  40.416 -19.492  1.00  0.00     0.209 HD
ENDBRANCH  31  32
ENDBRANCH  27  31
BRANCH  28  34
HETATM   34  O6  UNL     1       1.302  41.974 -14.467  1.00  0.00    -0.390 OA
HETATM   35  H50 UNL     1       1.594  41.257 -13.869  1.00  0.00     0.210 HD
ENDBRANCH  28  34
BRANCH  29  36
HETATM   36  O7  UNL     1      -0.384  39.771 -14.136  1.00  0.00    -0.390 OA
HETATM   37  H52 UNL     1      -1.003  40.053 -13.433  1.00  0.00     0.210 HD
ENDBRANCH  29  36
BRANCH  30  38
HETATM   38  O8  UNL     1      -1.257  42.208 -13.457  1.00  0.00    -0.388 OA
HETATM   39  H54 UNL     1      -0.299  42.417 -13.430  1.00  0.00     0.210 HD
ENDBRANCH  30  38
ENDBRANCH  24  25
ENDBRANCH  20  24
BRANCH   1  40
HETATM   40  C8  UNL     1      -2.884  50.102 -24.556  1.00  0.00    -0.010 C 
HETATM   41  C9  UNL     1      -4.395  49.856 -24.686  1.00  0.00     0.010 C 
BRANCH  40  42
HETATM   42  C7  UNL     1      -2.183  49.584 -25.843  1.00  0.00     0.031 C 
BRANCH  42  43
HETATM   43  C6  UNL     1      -1.241  50.520 -26.572  1.00  0.00    -0.027 C 
HETATM   44  C5  UNL     1      -0.562  51.552 -26.045  1.00  0.00     0.006 C 
BRANCH  44  45
HETATM   45  C2  UNL     1       0.417  52.482 -26.739  1.00  0.00     0.070 C 
HETATM   46  C3  UNL     1      -0.050  53.938 -26.914  1.00  0.00     0.050 C 
HETATM   47  C4  UNL     1       0.700  51.888 -28.133  1.00  0.00     0.050 C 
BRANCH  45  48
HETATM   48  O1  UNL     1       1.676  52.414 -26.046  1.00  0.00    -0.382 OA
HETATM   49  C1  UNL     1       2.551  51.367 -26.448  1.00  0.00     0.202 C 
ENDBRANCH  45  48
ENDBRANCH  44  45
ENDBRANCH  42  43
ENDBRANCH  40  42
ENDBRANCH   1  40
TORSDOF 12
ENDMDL
MODEL 2
REMARK minimizedAffinity -10.3873558
REMARK CNNscore 0.430790782
REMARK CNNaffinity 7.32854319
REMARK  12 active torsions:
REMARK  status: ('A' for Active; 'I' for Inactive)
REMARK    1  A    between atoms: O1_2  and  C2_3 
REMARK    2  A    between atoms: C2_3  and  C5_6 
REMARK    3  A    between atoms: C6_7  and  C7_8 
REMARK    4  A    between atoms: C7_8  and  C8_9 
REMARK    5  A    between atoms: C8_9  and  C10_11 
REMARK    6  A    between atoms: C28_30  and  O3_31 
REMARK    7  A    between atoms: O3_31  and  C29_32 
REMARK    8  A    between atoms: C30_34  and  C31_35 
REMARK    9  A    between atoms: C31_35  and  O5_36 
REMARK   10  A    between atoms: C32_37  and  O6_38 
REMARK   11  A    between atoms: C33_39  and  O7_40 
REMARK   12  A    between atoms: C34_41  and  O8_42 
ROOT
HETATM    1  C10 UNL     1      -0.665  50.567 -21.422  1.00  0.00    -0.002 C 
HETATM    2  C11 UNL     1      -0.018  49.326 -20.726  1.00  0.00     0.006 C 
HETATM    3  C12 UNL     1      -1.156  48.420 -20.220  1.00  0.00     0.011 C 
HETATM    4  C13 UNL     1      -2.417  48.944 -20.935  1.00  0.00    -0.029 C 
HETATM    5  C14 UNL     1      -2.393  48.311 -22.367  1.00  0.00     0.016 C 
HETATM    6  C15 UNL     1      -3.766  48.634 -20.211  1.00  0.00     0.028 C 
HETATM    7  C16 UNL     1      -4.063  47.145 -20.112  1.00  0.00    -0.021 C 
HETATM    8  C17 UNL     1      -5.260  46.634 -20.461  1.00  0.00     0.008 C 
HETATM    9  C18 UNL     1      -6.384  47.538 -20.959  1.00  0.00     0.092 C 
HETATM   10  O2  UNL     1      -6.784  48.257 -19.768  1.00  0.00    -0.374 OA
HETATM   11  C19 UNL     1      -6.112  49.522 -19.755  1.00  0.00     0.179 C 
HETATM   12  C20 UNL     1      -4.989  49.463 -20.817  1.00  0.00    -0.004 C 
HETATM   13  C21 UNL     1      -4.626  50.916 -21.226  1.00  0.00     0.014 C 
HETATM   14  C22 UNL     1      -3.218  51.168 -21.781  1.00  0.00     0.011 C 
HETATM   15  C23 UNL     1      -2.142  50.497 -20.911  1.00  0.00    -0.032 C 
HETATM   16  C24 UNL     1      -2.200  51.124 -19.477  1.00  0.00     0.016 C 
HETATM   17  C25 UNL     1      -5.704  48.591 -21.881  1.00  0.00     0.036 C 
HETATM   18  C26 UNL     1      -6.685  49.284 -22.820  1.00  0.00     0.011 C 
HETATM   19  C27 UNL     1      -7.409  48.276 -23.719  1.00  0.00     0.033 C 
HETATM   20  C28 UNL     1      -7.484  46.853 -23.142  1.00  0.00     0.136 C 
HETATM   21  C35 UNL     1      -7.654  46.853 -21.598  1.00  0.00     0.014 C 
HETATM   22  C36 UNL     1      -8.969  47.582 -21.197  1.00  0.00     0.021 C 
HETATM   23  C37 UNL     1      -7.848  45.394 -21.120  1.00  0.00     0.021 C 
ENDROOT
BRANCH  20  24
HETATM   24  O3  UNL     1      -8.586  46.173 -23.743  1.00  0.00    -0.352 OA
BRANCH  24  25
HETATM   25  C29 UNL     1      -8.888  46.569 -25.081  1.00  0.00     0.292 C 
HETATM   26  O4  UNL     1      -7.658  46.802 -25.762  1.00  0.00    -0.348 OA
HETATM   27  C30 UNL     1      -7.833  47.168 -27.143  1.00  0.00     0.179 C 
HETATM   28  C32 UNL     1      -8.933  48.233 -27.341  1.00  0.00     0.180 C 
HETATM   29  C33 UNL     1      -9.250  48.915 -26.007  1.00  0.00     0.183 C 
HETATM   30  C34 UNL     1      -9.727  47.868 -24.982  1.00  0.00     0.204 C 
BRANCH  27  31
HETATM   31  C31 UNL     1      -6.472  47.685 -27.624  1.00  0.00     0.198 C 
BRANCH  31  32
HETATM   32  O5  UNL     1      -6.611  48.495 -28.781  1.00  0.00    -0.398 OA
HETATM   33  H48 UNL     1      -5.717  48.775 -29.045  1.00  0.00     0.209 HD
ENDBRANCH  31  32
ENDBRANCH  27  31
BRANCH  28  34
HETATM   34  O6  UNL     1     -10.151  47.599 -27.797  1.00  0.00    -0.390 OA
HETATM   35  H50 UNL     1     -10.696  48.346 -28.118  1.00  0.00     0.210 HD
ENDBRANCH  28  34
BRANCH  29  36
HETATM   36  O7  UNL     1     -10.275  49.907 -26.227  1.00  0.00    -0.390 OA
HETATM   37  H52 UNL     1     -10.986  49.715 -25.583  1.00  0.00     0.210 HD
ENDBRANCH  29  36
BRANCH  30  38
HETATM   38  O8  UNL     1     -11.129  47.581 -25.215  1.00  0.00    -0.388 OA
HETATM   39  H54 UNL     1     -11.191  47.326 -26.160  1.00  0.00     0.210 HD
ENDBRANCH  30  38
ENDBRANCH  24  25
ENDBRANCH  20  24
BRANCH   1  40
HETATM   40  C8  UNL     1       0.165  51.863 -21.174  1.00  0.00    -0.010 C 
HETATM   41  C9  UNL     1      -0.222  52.570 -19.866  1.00  0.00     0.010 C 
BRANCH  40  42
HETATM   42  C7  UNL     1       0.012  52.870 -22.348  1.00  0.00     0.031 C 
BRANCH  42  43
HETATM   43  C6  UNL     1      -0.015  52.326 -23.761  1.00  0.00    -0.027 C 
HETATM   44  C5  UNL     1       0.898  52.538 -24.724  1.00  0.00     0.006 C 
BRANCH  44  45
HETATM   45  C2  UNL     1       0.920  51.977 -26.135  1.00  0.00     0.070 C 
HETATM   46  C3  UNL     1      -0.124  50.888 -26.439  1.00  0.00     0.050 C 
HETATM   47  C4  UNL     1       2.325  51.389 -26.370  1.00  0.00     0.050 C 
BRANCH  45  48
HETATM   48  O1  UNL     1       0.818  53.074 -27.060  1.00  0.00    -0.382 OA
HETATM   49  C1  UNL     1      -0.500  53.425 -27.466  1.00  0.00     0.202 C 
ENDBRANCH  45  48
ENDBRANCH  44  45
ENDBRANCH  42  43
ENDBRANCH  40  42
ENDBRANCH   1  40
TORSDOF 12
ENDMDL
MODEL 3
REMARK minimizedAffinity -7.68550873
REMARK CNNscore 0.38532424
REMARK CNNaffinity 6.57230568
REMARK  12 active torsions:
REMARK  status: ('A' for Active; 'I' for Inactive)
REMARK    1  A    between atoms: O1_2  and  C2_3 
REMARK    2  A    between atoms: C2_3  and  C5_6 
REMARK    3  A    between atoms: C6_7  and  C7_8 
REMARK    4  A    between atoms: C7_8  and  C8_9 
REMARK    5  A    between atoms: C8_9  and  C10_11 
REMARK    6  A    between atoms: C28_30  and  O3_31 
REMARK    7  A    between atoms: O3_31  and  C29_32 
REMARK    8  A    between atoms: C30_34  and  C31_35 
REMARK    9  A    between atoms: C31_35  and  O5_36 
REMARK   10  A    between atoms: C32_37  and  O6_38 
REMARK   11  A    between atoms: C33_39  and  O7_40 
REMARK   12  A    between atoms: C34_41  and  O8_42 
ROOT
HETATM    1  C10 UNL     1      -8.819  45.383 -33.158  1.00  0.00    -0.002 C 
HETATM    2  C11 UNL     1      -7.699  44.505 -32.510  1.00  0.00     0.006 C 
HETATM    3  C12 UNL     1      -7.894  44.544 -30.982  1.00  0.00     0.011 C 
HETATM    4  C13 UNL     1      -9.307  45.125 -30.784  1.00  0.00    -0.029 C 
HETATM    5  C14 UNL     1     -10.297  43.929 -30.996  1.00  0.00     0.016 C 
HETATM    6  C15 UNL     1      -9.553  45.813 -29.403  1.00  0.00     0.028 C 
HETATM    7  C16 UNL     1      -9.446  44.852 -28.228  1.00  0.00    -0.021 C 
HETATM    8  C17 UNL     1     -10.390  44.797 -27.268  1.00  0.00     0.008 C 
HETATM    9  C18 UNL     1     -11.607  45.716 -27.308  1.00  0.00     0.092 C 
HETATM   10  O2  UNL     1     -11.050  47.017 -27.005  1.00  0.00    -0.374 OA
HETATM   11  C19 UNL     1     -10.804  47.704 -28.237  1.00  0.00     0.179 C 
HETATM   12  C20 UNL     1     -10.904  46.663 -29.378  1.00  0.00    -0.004 C 
HETATM   13  C21 UNL     1     -11.202  47.417 -30.702  1.00  0.00     0.014 C 
HETATM   14  C22 UNL     1     -10.781  46.743 -32.014  1.00  0.00     0.011 C 
HETATM   15  C23 UNL     1      -9.343  46.203 -31.934  1.00  0.00    -0.032 C 
HETATM   16  C24 UNL     1      -8.373  47.410 -31.695  1.00  0.00     0.016 C 
HETATM   17  C25 UNL     1     -12.039  45.779 -28.802  1.00  0.00     0.036 C 
HETATM   18  C26 UNL     1     -13.474  46.261 -28.987  1.00  0.00     0.011 C 
HETATM   19  C27 UNL     1     -14.470  45.357 -28.251  1.00  0.00     0.033 C 
HETATM   20  C28 UNL     1     -13.867  44.588 -27.064  1.00  0.00     0.136 C 
HETATM   21  C35 UNL     1     -12.792  45.416 -26.310  1.00  0.00     0.014 C 
HETATM   22  C36 UNL     1     -13.415  46.725 -25.742  1.00  0.00     0.021 C 
HETATM   23  C37 UNL     1     -12.334  44.621 -25.064  1.00  0.00     0.021 C 
ENDROOT
BRANCH  20  24
HETATM   24  O3  UNL     1     -14.918  44.240 -26.163  1.00  0.00    -0.352 OA
BRANCH  24  25
HETATM   25  C29 UNL     1     -16.238  44.514 -26.634  1.00  0.00     0.292 C 
HETATM   26  O4  UNL     1     -16.889  45.342 -25.674  1.00  0.00    -0.348 OA
HETATM   27  C30 UNL     1     -18.221  45.724 -26.062  1.00  0.00     0.179 C 
HETATM   28  C32 UNL     1     -19.045  44.537 -26.606  1.00  0.00     0.180 C 
HETATM   29  C33 UNL     1     -18.388  43.214 -26.206  1.00  0.00     0.183 C 
HETATM   30  C34 UNL     1     -16.955  43.147 -26.770  1.00  0.00     0.204 C 
BRANCH  27  31
HETATM   31  C31 UNL     1     -18.876  46.322 -24.812  1.00  0.00     0.198 C 
BRANCH  31  32
HETATM   32  O5  UNL     1     -20.273  46.492 -24.996  1.00  0.00    -0.398 OA
HETATM   33  H48 UNL     1     -20.624  46.889 -24.180  1.00  0.00     0.209 HD
ENDBRANCH  31  32
ENDBRANCH  27  31
BRANCH  28  34
HETATM   34  O6  UNL     1     -19.069  44.581 -28.053  1.00  0.00    -0.390 OA
HETATM   35  H50 UNL     1     -19.787  43.960 -28.293  1.00  0.00     0.210 HD
ENDBRANCH  28  34
BRANCH  29  36
HETATM   36  O7  UNL     1     -19.183  42.126 -26.724  1.00  0.00    -0.390 OA
HETATM   37  H52 UNL     1     -18.572  41.555 -27.232  1.00  0.00     0.210 HD
ENDBRANCH  29  36
BRANCH  30  38
HETATM   38  O8  UNL     1     -17.012  42.743 -28.162  1.00  0.00    -0.388 OA
HETATM   39  H54 UNL     1     -17.621  43.379 -28.594  1.00  0.00     0.210 HD
ENDBRANCH  30  38
ENDBRANCH  24  25
ENDBRANCH  20  24
BRANCH   1  40
HETATM   40  C8  UNL     1      -8.298  46.141 -34.417  1.00  0.00    -0.010 C 
HETATM   41  C9  UNL     1      -7.449  47.369 -34.054  1.00  0.00     0.010 C 
BRANCH  40  42
HETATM   42  C7  UNL     1      -9.468  46.599 -35.330  1.00  0.00     0.031 C 
BRANCH  42  43
HETATM   43  C6  UNL     1      -9.165  46.913 -36.781  1.00  0.00    -0.027 C 
HETATM   44  C5  UNL     1      -9.151  48.127 -37.357  1.00  0.00     0.006 C 
BRANCH  44  45
HETATM   45  C2  UNL     1      -8.815  48.478 -38.796  1.00  0.00     0.070 C 
HETATM   46  C3  UNL     1      -9.966  48.335 -39.807  1.00  0.00     0.050 C 
HETATM   47  C4  UNL     1      -7.661  47.553 -39.232  1.00  0.00     0.050 C 
BRANCH  45  48
HETATM   48  O1  UNL     1      -8.256  49.803 -38.820  1.00  0.00    -0.382 OA
HETATM   49  C1  UNL     1      -6.847  49.887 -38.638  1.00  0.00     0.202 C 
ENDBRANCH  45  48
ENDBRANCH  44  45
ENDBRANCH  42  43
ENDBRANCH  40  42
ENDBRANCH   1  40
TORSDOF 12
ENDMDL
MODEL 4
REMARK minimizedAffinity -9.03833294
REMARK CNNscore 0.369737238
REMARK CNNaffinity 6.96136093
REMARK  12 active torsions:
REMARK  status: ('A' for Active; 'I' for Inactive)
REMARK    1  A    between atoms: O1_2  and  C2_3 
REMARK    2  A    between atoms: C2_3  and  C5_6 
REMARK    3  A    between atoms: C6_7  and  C7_8 
REMARK    4  A    between atoms: C7_8  and  C8_9 
REMARK    5  A    between atoms: C8_9  and  C10_11 
REMARK    6  A    between atoms: C28_30  and  O3_31 
REMARK    7  A    between atoms: O3_31  and  C29_32 
REMARK    8  A    between atoms: C30_34  and  C31_35 
REMARK    9  A    between atoms: C31_35  and  O5_36 
REMARK   10  A    between atoms: C32_37  and  O6_38 
REMARK   11  A    between atoms: C33_39  and  O7_40 
REMARK   12  A    between atoms: C34_41  and  O8_42 
ROOT
HETATM    1  C10 UNL     1      -0.833  51.220 -21.449  1.00  0.00    -0.002 C 
HETATM    2  C11 UNL     1      -0.129  49.966 -20.835  1.00  0.00     0.006 C 
HETATM    3  C12 UNL     1      -1.213  48.910 -20.547  1.00  0.00     0.011 C 
HETATM    4  C13 UNL     1      -2.452  49.403 -21.318  1.00  0.00    -0.029 C 
HETATM    5  C14 UNL     1      -2.242  48.951 -22.803  1.00  0.00     0.016 C 
HETATM    6  C15 UNL     1      -3.822  48.891 -20.768  1.00  0.00     0.028 C 
HETATM    7  C16 UNL     1      -3.978  47.381 -20.865  1.00  0.00    -0.021 C 
HETATM    8  C17 UNL     1      -5.085  46.813 -21.384  1.00  0.00     0.008 C 
HETATM    9  C18 UNL     1      -6.245  47.668 -21.885  1.00  0.00     0.092 C 
HETATM   10  O2  UNL     1      -6.815  48.201 -20.666  1.00  0.00    -0.374 OA
HETATM   11  C19 UNL     1      -6.274  49.509 -20.447  1.00  0.00     0.179 C 
HETATM   12  C20 UNL     1      -5.063  49.677 -21.394  1.00  0.00    -0.004 C 
HETATM   13  C21 UNL     1      -4.811  51.194 -21.602  1.00  0.00     0.014 C 
HETATM   14  C22 UNL     1      -3.392  51.634 -21.985  1.00  0.00     0.011 C 
HETATM   15  C23 UNL     1      -2.334  50.960 -21.095  1.00  0.00    -0.032 C 
HETATM   16  C24 UNL     1      -2.577  51.403 -19.613  1.00  0.00     0.016 C 
HETATM   17  C25 UNL     1      -5.594  48.880 -22.613  1.00  0.00     0.036 C 
HETATM   18  C26 UNL     1      -6.554  49.592 -23.560  1.00  0.00     0.011 C 
HETATM   19  C27 UNL     1      -7.094  48.639 -24.632  1.00  0.00     0.033 C 
HETATM   20  C28 UNL     1      -7.079  47.156 -24.227  1.00  0.00     0.136 C 
HETATM   21  C35 UNL     1      -7.381  46.956 -22.717  1.00  0.00     0.014 C 
HETATM   22  C36 UNL     1      -8.791  47.514 -22.367  1.00  0.00     0.021 C 
HETATM   23  C37 UNL     1      -7.471  45.439 -22.425  1.00  0.00     0.021 C 
ENDROOT
BRANCH  20  24
HETATM   24  O3  UNL     1      -8.053  46.459 -25.004  1.00  0.00    -0.352 OA
BRANCH  24  25
HETATM   25  C29 UNL     1      -9.193  47.230 -25.384  1.00  0.00     0.292 C 
HETATM   26  O4  UNL     1     -10.359  46.558 -24.915  1.00  0.00    -0.348 OA
HETATM   27  C30 UNL     1     -11.578  47.267 -25.202  1.00  0.00     0.179 C 
HETATM   28  C32 UNL     1     -11.633  47.793 -26.652  1.00  0.00     0.180 C 
HETATM   29  C33 UNL     1     -10.587  47.076 -27.511  1.00  0.00     0.183 C 
HETATM   30  C34 UNL     1      -9.180  47.313 -26.931  1.00  0.00     0.204 C 
BRANCH  27  31
HETATM   31  C31 UNL     1     -12.721  46.281 -24.930  1.00  0.00     0.198 C 
BRANCH  31  32
HETATM   32  O5  UNL     1     -13.750  46.888 -24.165  1.00  0.00    -0.398 OA
HETATM   33  H48 UNL     1     -14.432  46.210 -24.012  1.00  0.00     0.209 HD
ENDBRANCH  31  32
ENDBRANCH  27  31
BRANCH  28  34
HETATM   34  O6  UNL     1     -11.308  49.204 -26.673  1.00  0.00    -0.390 OA
HETATM   35  H50 UNL     1     -11.596  49.496 -27.562  1.00  0.00     0.210 HD
ENDBRANCH  28  34
BRANCH  29  36
HETATM   36  O7  UNL     1     -10.667  47.586 -28.859  1.00  0.00    -0.390 OA
HETATM   37  H52 UNL     1      -9.762  47.867 -29.102  1.00  0.00     0.210 HD
ENDBRANCH  29  36
BRANCH  30  38
HETATM   38  O8  UNL     1      -8.701  48.612 -27.362  1.00  0.00    -0.388 OA
HETATM   39  H54 UNL     1      -9.396  49.250 -27.092  1.00  0.00     0.210 HD
ENDBRANCH  30  38
ENDBRANCH  24  25
ENDBRANCH  20  24
BRANCH   1  40
HETATM   40  C8  UNL     1      -0.158  52.545 -20.978  1.00  0.00    -0.010 C 
HETATM   41  C9  UNL     1       1.368  52.521 -21.149  1.00  0.00     0.010 C 
BRANCH  40  42
HETATM   42  C7  UNL     1      -0.488  52.855 -19.492  1.00  0.00     0.031 C 
BRANCH  42  43
HETATM   43  C6  UNL     1       0.139  51.985 -18.422  1.00  0.00    -0.027 C 
HETATM   44  C5  UNL     1       0.456  52.351 -17.168  1.00  0.00     0.006 C 
BRANCH  44  45
HETATM   45  C2  UNL     1       1.048  51.494 -16.063  1.00  0.00     0.070 C 
HETATM   46  C3  UNL     1       2.536  51.735 -15.753  1.00  0.00     0.050 C 
HETATM   47  C4  UNL     1       0.866  50.022 -16.481  1.00  0.00     0.050 C 
BRANCH  45  48
HETATM   48  O1  UNL     1       0.234  51.648 -14.887  1.00  0.00    -0.382 OA
HETATM   49  C1  UNL     1       0.893  52.173 -13.740  1.00  0.00     0.202 C 
ENDBRANCH  45  48
ENDBRANCH  44  45
ENDBRANCH  42  43
ENDBRANCH  40  42
ENDBRANCH   1  40
TORSDOF 12
ENDMDL
MODEL 5
REMARK minimizedAffinity -8.68709087
REMARK CNNscore 0.35749349
REMARK CNNaffinity 6.97482824
REMARK  12 active torsions:
REMARK  status: ('A' for Active; 'I' for Inactive)
REMARK    1  A    between atoms: O1_2  and  C2_3 
REMARK    2  A    between atoms: C2_3  and  C5_6 
REMARK    3  A    between atoms: C6_7  and  C7_8 
REMARK    4  A    between atoms: C7_8  and  C8_9 
REMARK    5  A    between atoms: C8_9  and  C10_11 
REMARK    6  A    between atoms: C28_30  and  O3_31 
REMARK    7  A    between atoms: O3_31  and  C29_32 
REMARK    8  A    between atoms: C30_34  and  C31_35 
REMARK    9  A    between atoms: C31_35  and  O5_36 
REMARK   10  A    between atoms: C32_37  and  O6_38 
REMARK   11  A    between atoms: C33_39  and  O7_40 
REMARK   12  A    between atoms: C34_41  and  O8_42 
ROOT
HETATM    1  C10 UNL     1      -1.233  50.829 -21.112  1.00  0.00    -0.002 C 
HETATM    2  C11 UNL     1      -0.340  49.564 -20.897  1.00  0.00     0.006 C 
HETATM    3  C12 UNL     1      -1.269  48.381 -20.563  1.00  0.00     0.011 C 
HETATM    4  C13 UNL     1      -2.678  48.874 -20.943  1.00  0.00    -0.029 C 
HETATM    5  C14 UNL     1      -2.797  48.682 -22.493  1.00  0.00     0.016 C 
HETATM    6  C15 UNL     1      -3.853  48.160 -20.202  1.00  0.00     0.028 C 
HETATM    7  C16 UNL     1      -3.947  46.675 -20.522  1.00  0.00    -0.021 C 
HETATM    8  C17 UNL     1      -5.113  46.097 -20.874  1.00  0.00     0.008 C 
HETATM    9  C18 UNL     1      -6.401  46.910 -20.950  1.00  0.00     0.092 C 
HETATM   10  O2  UNL     1      -6.698  47.192 -19.561  1.00  0.00    -0.374 OA
HETATM   11  C19 UNL     1      -6.191  48.493 -19.244  1.00  0.00     0.179 C 
HETATM   12  C20 UNL     1      -5.245  48.917 -20.392  1.00  0.00    -0.004 C 
HETATM   13  C21 UNL     1      -5.129  50.465 -20.384  1.00  0.00     0.014 C 
HETATM   14  C22 UNL     1      -3.865  51.087 -20.989  1.00  0.00     0.011 C 
HETATM   15  C23 UNL     1      -2.594  50.381 -20.486  1.00  0.00    -0.032 C 
HETATM   16  C24 UNL     1      -2.508  50.562 -18.932  1.00  0.00     0.016 C 
HETATM   17  C25 UNL     1      -6.003  48.276 -21.582  1.00  0.00     0.036 C 
HETATM   18  C26 UNL     1      -7.194  49.037 -22.155  1.00  0.00     0.011 C 
HETATM   19  C27 UNL     1      -7.919  48.219 -23.230  1.00  0.00     0.033 C 
HETATM   20  C28 UNL     1      -7.731  46.699 -23.101  1.00  0.00     0.136 C 
HETATM   21  C35 UNL     1      -7.661  46.237 -21.620  1.00  0.00     0.014 C 
HETATM   22  C36 UNL     1      -8.978  46.602 -20.876  1.00  0.00     0.021 C 
HETATM   23  C37 UNL     1      -7.600  44.691 -21.584  1.00  0.00     0.021 C 
ENDROOT
BRANCH  20  24
HETATM   24  O3  UNL     1      -8.821  46.045 -23.753  1.00  0.00    -0.352 OA
BRANCH  24  25
HETATM   25  C29 UNL     1      -9.052  46.450 -25.103  1.00  0.00     0.292 C 
HETATM   26  O4  UNL     1      -7.789  46.720 -25.707  1.00  0.00    -0.348 OA
HETATM   27  C30 UNL     1      -7.890  47.098 -27.092  1.00  0.00     0.179 C 
HETATM   28  C32 UNL     1      -9.002  48.139 -27.344  1.00  0.00     0.180 C 
HETATM   29  C33 UNL     1      -9.414  48.798 -26.025  1.00  0.00     0.183 C 
HETATM   30  C34 UNL     1      -9.926  47.728 -25.041  1.00  0.00     0.204 C 
BRANCH  27  31
HETATM   31  C31 UNL     1      -6.516  47.651 -27.485  1.00  0.00     0.198 C 
BRANCH  31  32
HETATM   32  O5  UNL     1      -6.608  48.487 -28.629  1.00  0.00    -0.398 OA
HETATM   33  H48 UNL     1      -5.707  48.790 -28.837  1.00  0.00     0.209 HD
ENDBRANCH  31  32
ENDBRANCH  27  31
BRANCH  28  34
HETATM   34  O6  UNL     1     -10.176  47.482 -27.879  1.00  0.00    -0.390 OA
HETATM   35  H50 UNL     1     -10.718  48.220 -28.224  1.00  0.00     0.210 HD
ENDBRANCH  28  34
BRANCH  29  36
HETATM   36  O7  UNL     1     -10.448  49.768 -26.295  1.00  0.00    -0.390 OA
HETATM   37  H52 UNL     1     -11.191  49.552 -25.697  1.00  0.00     0.210 HD
ENDBRANCH  29  36
BRANCH  30  38
HETATM   38  O8  UNL     1     -11.305  47.411 -25.360  1.00  0.00    -0.388 OA
HETATM   39  H54 UNL     1     -11.304  47.165 -26.310  1.00  0.00     0.210 HD
ENDBRANCH  30  38
ENDBRANCH  24  25
ENDBRANCH  20  24
BRANCH   1  40
HETATM   40  C8  UNL     1      -0.538  52.120 -20.580  1.00  0.00    -0.010 C 
HETATM   41  C9  UNL     1       0.023  52.995 -21.711  1.00  0.00     0.010 C 
BRANCH  40  42
HETATM   42  C7  UNL     1       0.615  51.781 -19.595  1.00  0.00     0.031 C 
BRANCH  42  43
HETATM   43  C6  UNL     1       0.352  51.914 -18.110  1.00  0.00    -0.027 C 
HETATM   44  C5  UNL     1       0.659  51.021 -17.153  1.00  0.00     0.006 C 
BRANCH  44  45
HETATM   45  C2  UNL     1       0.444  51.141 -15.655  1.00  0.00     0.070 C 
HETATM   46  C3  UNL     1       1.151  52.323 -14.969  1.00  0.00     0.050 C 
HETATM   47  C4  UNL     1       0.947  49.832 -15.017  1.00  0.00     0.050 C 
BRANCH  45  48
HETATM   48  O1  UNL     1      -0.972  51.156 -15.401  1.00  0.00    -0.382 OA
HETATM   49  C1  UNL     1      -1.548  49.912 -15.018  1.00  0.00     0.202 C 
ENDBRANCH  45  48
ENDBRANCH  44  45
ENDBRANCH  42  43
ENDBRANCH  40  42
ENDBRANCH   1  40
TORSDOF 12
ENDMDL
MODEL 6
REMARK minimizedAffinity -9.92082691
REMARK CNNscore 0.328500986
REMARK CNNaffinity 7.25450373
REMARK  12 active torsions:
REMARK  status: ('A' for Active; 'I' for Inactive)
REMARK    1  A    between atoms: O1_2  and  C2_3 
REMARK    2  A    between atoms: C2_3  and  C5_6 
REMARK    3  A    between atoms: C6_7  and  C7_8 
REMARK    4  A    between atoms: C7_8  and  C8_9 
REMARK    5  A    between atoms: C8_9  and  C10_11 
REMARK    6  A    between atoms: C28_30  and  O3_31 
REMARK    7  A    between atoms: O3_31  and  C29_32 
REMARK    8  A    between atoms: C30_34  and  C31_35 
REMARK    9  A    between atoms: C31_35  and  O5_36 
REMARK   10  A    between atoms: C32_37  and  O6_38 
REMARK   11  A    between atoms: C33_39  and  O7_40 
REMARK   12  A    between atoms: C34_41  and  O8_42 
ROOT
HETATM    1  C10 UNL     1      -0.734  50.622 -21.216  1.00  0.00    -0.002 C 
HETATM    2  C11 UNL     1      -0.060  49.230 -20.991  1.00  0.00     0.006 C 
HETATM    3  C12 UNL     1      -1.179  48.182 -20.836  1.00  0.00     0.011 C 
HETATM    4  C13 UNL     1      -2.452  48.897 -21.330  1.00  0.00    -0.029 C 
HETATM    5  C14 UNL     1      -2.419  48.801 -22.893  1.00  0.00     0.016 C 
HETATM    6  C15 UNL     1      -3.793  48.328 -20.765  1.00  0.00     0.028 C 
HETATM    7  C16 UNL     1      -4.059  46.892 -21.190  1.00  0.00    -0.021 C 
HETATM    8  C17 UNL     1      -5.247  46.511 -21.700  1.00  0.00     0.008 C 
HETATM    9  C18 UNL     1      -6.391  47.509 -21.858  1.00  0.00     0.092 C 
HETATM   10  O2  UNL     1      -6.801  47.762 -20.493  1.00  0.00    -0.374 OA
HETATM   11  C19 UNL     1      -6.154  48.956 -20.039  1.00  0.00     0.179 C 
HETATM   12  C20 UNL     1      -5.033  49.292 -21.051  1.00  0.00    -0.004 C 
HETATM   13  C21 UNL     1      -4.700  50.803 -20.928  1.00  0.00     0.014 C 
HETATM   14  C22 UNL     1      -3.299  51.260 -21.355  1.00  0.00     0.011 C 
HETATM   15  C23 UNL     1      -2.207  50.350 -20.767  1.00  0.00    -0.032 C 
HETATM   16  C24 UNL     1      -2.274  50.439 -19.205  1.00  0.00     0.016 C 
HETATM   17  C25 UNL     1      -5.733  48.830 -22.354  1.00  0.00     0.036 C 
HETATM   18  C26 UNL     1      -6.731  49.787 -22.998  1.00  0.00     0.011 C 
HETATM   19  C27 UNL     1      -7.437  49.140 -24.195  1.00  0.00     0.033 C 
HETATM   20  C28 UNL     1      -7.482  47.604 -24.147  1.00  0.00     0.136 C 
HETATM   21  C35 UNL     1      -7.648  47.064 -22.701  1.00  0.00     0.014 C 
HETATM   22  C36 UNL     1      -8.976  47.583 -22.077  1.00  0.00     0.021 C 
HETATM   23  C37 UNL     1      -7.812  45.527 -22.760  1.00  0.00     0.021 C 
ENDROOT
BRANCH  20  24
HETATM   24  O3  UNL     1      -8.573  47.153 -24.952  1.00  0.00    -0.352 OA
BRANCH  24  25
HETATM   25  C29 UNL     1      -8.255  46.906 -26.322  1.00  0.00     0.292 C 
HETATM   26  O4  UNL     1      -6.946  47.413 -26.572  1.00  0.00    -0.348 OA
HETATM   27  C30 UNL     1      -6.494  47.183 -27.918  1.00  0.00     0.179 C 
HETATM   28  C32 UNL     1      -7.569  47.525 -28.973  1.00  0.00     0.180 C 
HETATM   29  C33 UNL     1      -8.659  48.399 -28.347  1.00  0.00     0.183 C 
HETATM   30  C34 UNL     1      -9.315  47.657 -27.167  1.00  0.00     0.204 C 
BRANCH  27  31
HETATM   31  C31 UNL     1      -5.244  48.050 -28.104  1.00  0.00     0.198 C 
BRANCH  31  32
HETATM   32  O5  UNL     1      -5.315  48.802 -29.305  1.00  0.00    -0.398 OA
HETATM   33  H48 UNL     1      -4.490  49.314 -29.374  1.00  0.00     0.209 HD
ENDBRANCH  31  32
ENDBRANCH  27  31
BRANCH  28  34
HETATM   34  O6  UNL     1      -8.207  46.310 -29.433  1.00  0.00    -0.390 OA
HETATM   35  H50 UNL     1      -8.681  46.588 -30.242  1.00  0.00     0.210 HD
ENDBRANCH  28  34
BRANCH  29  36
HETATM   36  O7  UNL     1      -9.643  48.705 -29.357  1.00  0.00    -0.390 OA
HETATM   37  H52 UNL     1     -10.510  48.448 -28.985  1.00  0.00     0.210 HD
ENDBRANCH  29  36
BRANCH  30  38
HETATM   38  O8  UNL     1     -10.301  46.726 -27.681  1.00  0.00    -0.388 OA
HETATM   39  H54 UNL     1      -9.821  46.171 -28.333  1.00  0.00     0.210 HD
ENDBRANCH  30  38
ENDBRANCH  24  25
ENDBRANCH  20  24
BRANCH   1  40
HETATM   40  C8  UNL     1       0.072  51.767 -20.530  1.00  0.00    -0.010 C 
HETATM   41  C9  UNL     1      -0.546  52.202 -19.192  1.00  0.00     0.010 C 
BRANCH  40  42
HETATM   42  C7  UNL     1       0.187  53.013 -21.451  1.00  0.00     0.031 C 
BRANCH  42  43
HETATM   43  C6  UNL     1       0.679  52.813 -22.870  1.00  0.00    -0.027 C 
HETATM   44  C5  UNL     1      -0.070  52.561 -23.956  1.00  0.00     0.006 C 
BRANCH  44  45
HETATM   45  C2  UNL     1       0.389  52.394 -25.394  1.00  0.00     0.070 C 
HETATM   46  C3  UNL     1      -0.061  53.494 -26.372  1.00  0.00     0.050 C 
HETATM   47  C4  UNL     1      -0.156  51.042 -25.892  1.00  0.00     0.050 C 
BRANCH  45  48
HETATM   48  O1  UNL     1       1.819  52.241 -25.397  1.00  0.00    -0.382 OA
HETATM   49  C1  UNL     1       2.360  51.480 -26.471  1.00  0.00     0.202 C 
ENDBRANCH  45  48
ENDBRANCH  44  45
ENDBRANCH  42  43
ENDBRANCH  40  42
ENDBRANCH   1  40
TORSDOF 12
ENDMDL
MODEL 7
REMARK minimizedAffinity -10.4008112
REMARK CNNscore 0.32107988
REMARK CNNaffinity 7.09521532
REMARK  12 active torsions:
REMARK  status: ('A' for Active; 'I' for Inactive)
REMARK    1  A    between atoms: O1_2  and  C2_3 
REMARK    2  A    between atoms: C2_3  and  C5_6 
REMARK    3  A    between atoms: C6_7  and  C7_8 
REMARK    4  A    between atoms: C7_8  and  C8_9 
REMARK    5  A    between atoms: C8_9  and  C10_11 
REMARK    6  A    between atoms: C28_30  and  O3_31 
REMARK    7  A    between atoms: O3_31  and  C29_32 
REMARK    8  A    between atoms: C30_34  and  C31_35 
REMARK    9  A    between atoms: C31_35  and  O5_36 
REMARK   10  A    between atoms: C32_37  and  O6_38 
REMARK   11  A    between atoms: C33_39  and  O7_40 
REMARK   12  A    between atoms: C34_41  and  O8_42 
ROOT
HETATM    1  C10 UNL     1      -0.943  50.178 -21.392  1.00  0.00    -0.002 C 
HETATM    2  C11 UNL     1      -0.407  48.838 -20.793  1.00  0.00     0.006 C 
HETATM    3  C12 UNL     1      -1.608  47.889 -20.610  1.00  0.00     0.011 C 
HETATM    4  C13 UNL     1      -2.742  48.535 -21.429  1.00  0.00    -0.029 C 
HETATM    5  C14 UNL     1      -2.489  48.117 -22.918  1.00  0.00     0.016 C 
HETATM    6  C15 UNL     1      -4.187  48.148 -20.980  1.00  0.00     0.028 C 
HETATM    7  C16 UNL     1      -4.489  46.666 -21.148  1.00  0.00    -0.021 C 
HETATM    8  C17 UNL     1      -5.614  46.235 -21.753  1.00  0.00     0.008 C 
HETATM    9  C18 UNL     1      -6.649  47.222 -22.282  1.00  0.00     0.092 C 
HETATM   10  O2  UNL     1      -7.235  47.768 -21.076  1.00  0.00    -0.374 OA
HETATM   11  C19 UNL     1      -6.579  49.004 -20.773  1.00  0.00     0.179 C 
HETATM   12  C20 UNL     1      -5.302  49.079 -21.642  1.00  0.00    -0.004 C 
HETATM   13  C21 UNL     1      -4.886  50.569 -21.772  1.00  0.00     0.014 C 
HETATM   14  C22 UNL     1      -3.409  50.874 -22.055  1.00  0.00     0.011 C 
HETATM   15  C23 UNL     1      -2.481  50.063 -21.135  1.00  0.00    -0.032 C 
HETATM   16  C24 UNL     1      -2.768  50.476 -19.652  1.00  0.00     0.016 C 
HETATM   17  C25 UNL     1      -5.836  48.386 -22.921  1.00  0.00     0.036 C 
HETATM   18  C26 UNL     1      -6.660  49.226 -23.891  1.00  0.00     0.011 C 
HETATM   19  C27 UNL     1      -7.228  48.373 -25.031  1.00  0.00     0.033 C 
HETATM   20  C28 UNL     1      -7.387  46.884 -24.687  1.00  0.00     0.136 C 
HETATM   21  C35 UNL     1      -7.799  46.661 -23.207  1.00  0.00     0.014 C 
HETATM   22  C36 UNL     1      -9.164  47.349 -22.914  1.00  0.00     0.021 C 
HETATM   23  C37 UNL     1      -8.059  45.153 -22.984  1.00  0.00     0.021 C 
ENDROOT
BRANCH  20  24
HETATM   24  O3  UNL     1      -8.378  46.319 -25.547  1.00  0.00    -0.352 OA
BRANCH  24  25
HETATM   25  C29 UNL     1      -9.520  47.143 -25.780  1.00  0.00     0.292 C 
HETATM   26  O4  UNL     1     -10.686  46.381 -25.474  1.00  0.00    -0.348 OA
HETATM   27  C30 UNL     1     -11.908  47.124 -25.630  1.00  0.00     0.179 C 
HETATM   28  C32 UNL     1     -11.949  47.931 -26.945  1.00  0.00     0.180 C 
HETATM   29  C33 UNL     1     -10.886  47.409 -27.915  1.00  0.00     0.183 C 
HETATM   30  C34 UNL     1      -9.488  47.535 -27.279  1.00  0.00     0.204 C 
BRANCH  27  31
HETATM   31  C31 UNL     1     -13.044  46.096 -25.578  1.00  0.00     0.198 C 
BRANCH  31  32
HETATM   32  O5  UNL     1     -14.274  46.668 -25.993  1.00  0.00    -0.398 OA
HETATM   33  H48 UNL     1     -14.953  45.975 -25.921  1.00  0.00     0.209 HD
ENDBRANCH  31  32
ENDBRANCH  27  31
BRANCH  28  34
HETATM   34  O6  UNL     1     -11.639  49.320 -26.678  1.00  0.00    -0.390 OA
HETATM   35  H50 UNL     1     -11.918  49.782 -27.494  1.00  0.00     0.210 HD
ENDBRANCH  28  34
BRANCH  29  36
HETATM   36  O7  UNL     1     -10.954  48.178 -29.134  1.00  0.00    -0.390 OA
HETATM   37  H52 UNL     1     -10.048  48.509 -29.303  1.00  0.00     0.210 HD
ENDBRANCH  29  36
BRANCH  30  38
HETATM   38  O8  UNL     1      -9.017  48.898 -27.433  1.00  0.00    -0.388 OA
HETATM   39  H54 UNL     1      -9.722  49.463 -27.051  1.00  0.00     0.210 HD
ENDBRANCH  30  38
ENDBRANCH  24  25
ENDBRANCH  20  24
BRANCH   1  40
HETATM   40  C8  UNL     1      -0.167  51.409 -20.829  1.00  0.00    -0.010 C 
HETATM   41  C9  UNL     1      -0.809  51.976 -19.554  1.00  0.00     0.010 C 
BRANCH  40  42
HETATM   42  C7  UNL     1      -0.065  52.547 -21.882  1.00  0.00     0.031 C 
BRANCH  42  43
HETATM   43  C6  UNL     1      -0.139  52.176 -23.349  1.00  0.00    -0.027 C 
HETATM   44  C5  UNL     1       0.659  52.622 -24.335  1.00  0.00     0.006 C 
BRANCH  44  45
HETATM   45  C2  UNL     1       0.635  52.241 -25.804  1.00  0.00     0.070 C 
HETATM   46  C3  UNL     1      -0.482  51.270 -26.227  1.00  0.00     0.050 C 
HETATM   47  C4  UNL     1       1.996  51.593 -26.129  1.00  0.00     0.050 C 
BRANCH  45  48
HETATM   48  O1  UNL     1       0.604  53.448 -26.585  1.00  0.00    -0.382 OA
HETATM   49  C1  UNL     1      -0.234  53.424 -27.734  1.00  0.00     0.202 C 
ENDBRANCH  45  48
ENDBRANCH  44  45
ENDBRANCH  42  43
ENDBRANCH  40  42
ENDBRANCH   1  40
TORSDOF 12
ENDMDL
MODEL 8
REMARK minimizedAffinity -8.17176533
REMARK CNNscore 0.317404121
REMARK CNNaffinity 6.9380393
REMARK  12 active torsions:
REMARK  status: ('A' for Active; 'I' for Inactive)
REMARK    1  A    between atoms: O1_2  and  C2_3 
REMARK    2  A    between atoms: C2_3  and  C5_6 
REMARK    3  A    between atoms: C6_7  and  C7_8 
REMARK    4  A    between atoms: C7_8  and  C8_9 
REMARK    5  A    between atoms: C8_9  and  C10_11 
REMARK    6  A    between atoms: C28_30  and  O3_31 
REMARK    7  A    between atoms: O3_31  and  C29_32 
REMARK    8  A    between atoms: C30_34  and  C31_35 
REMARK    9  A    between atoms: C31_35  and  O5_36 
REMARK   10  A    between atoms: C32_37  and  O6_38 
REMARK   11  A    between atoms: C33_39  and  O7_40 
REMARK   12  A    between atoms: C34_41  and  O8_42 
ROOT
HETATM    1  C10 UNL     1      -2.968  50.155 -23.612  1.00  0.00    -0.002 C 
HETATM    2  C11 UNL     1      -1.489  50.258 -23.117  1.00  0.00     0.006 C 
HETATM    3  C12 UNL     1      -1.433  49.708 -21.678  1.00  0.00     0.011 C 
HETATM    4  C13 UNL     1      -2.772  48.969 -21.493  1.00  0.00    -0.029 C 
HETATM    5  C14 UNL     1      -2.584  47.564 -22.161  1.00  0.00     0.016 C 
HETATM    6  C15 UNL     1      -3.248  48.822 -20.012  1.00  0.00     0.028 C 
HETATM    7  C16 UNL     1      -2.308  47.979 -19.163  1.00  0.00    -0.021 C 
HETATM    8  C17 UNL     1      -2.762  46.979 -18.381  1.00  0.00     0.008 C 
HETATM    9  C18 UNL     1      -4.252  46.659 -18.300  1.00  0.00     0.092 C 
HETATM   10  O2  UNL     1      -4.793  47.784 -17.567  1.00  0.00    -0.374 OA
HETATM   11  C19 UNL     1      -5.304  48.734 -18.508  1.00  0.00     0.179 C 
HETATM   12  C20 UNL     1      -4.767  48.342 -19.904  1.00  0.00    -0.004 C 
HETATM   13  C21 UNL     1      -5.703  48.959 -20.979  1.00  0.00     0.014 C 
HETATM   14  C22 UNL     1      -5.111  49.224 -22.369  1.00  0.00     0.011 C 
HETATM   15  C23 UNL     1      -3.748  49.929 -22.276  1.00  0.00    -0.032 C 
HETATM   16  C24 UNL     1      -3.954  51.318 -21.582  1.00  0.00     0.016 C 
HETATM   17  C25 UNL     1      -4.794  46.800 -19.752  1.00  0.00     0.036 C 
HETATM   18  C26 UNL     1      -6.128  46.091 -19.961  1.00  0.00     0.011 C 
HETATM   19  C27 UNL     1      -6.024  44.595 -19.645  1.00  0.00     0.033 C 
HETATM   20  C28 UNL     1      -4.894  44.232 -18.669  1.00  0.00     0.136 C 
HETATM   21  C35 UNL     1      -4.681  45.321 -17.583  1.00  0.00     0.014 C 
HETATM   22  C36 UNL     1      -5.976  45.506 -16.739  1.00  0.00     0.021 C 
HETATM   23  C37 UNL     1      -3.620  44.817 -16.575  1.00  0.00     0.021 C 
ENDROOT
BRANCH  20  24
HETATM   24  O3  UNL     1      -5.213  42.989 -18.041  1.00  0.00    -0.352 OA
BRANCH  24  25
HETATM   25  C29 UNL     1      -5.047  41.833 -18.863  1.00  0.00     0.292 C 
HETATM   26  O4  UNL     1      -6.164  40.974 -18.651  1.00  0.00    -0.348 OA
HETATM   27  C30 UNL     1      -6.132  39.787 -19.463  1.00  0.00     0.179 C 
HETATM   28  C32 UNL     1      -4.744  39.110 -19.470  1.00  0.00     0.180 C 
HETATM   29  C33 UNL     1      -3.901  39.627 -18.302  1.00  0.00     0.183 C 
HETATM   30  C34 UNL     1      -3.728  41.154 -18.416  1.00  0.00     0.204 C 
BRANCH  27  31
HETATM   31  C31 UNL     1      -7.201  38.848 -18.893  1.00  0.00     0.198 C 
BRANCH  31  32
HETATM   32  O5  UNL     1      -6.695  38.101 -17.797  1.00  0.00    -0.398 OA
HETATM   33  H48 UNL     1      -7.411  37.515 -17.494  1.00  0.00     0.209 HD
ENDBRANCH  31  32
ENDBRANCH  27  31
BRANCH  28  34
HETATM   34  O6  UNL     1      -4.040  39.449 -20.689  1.00  0.00    -0.390 OA
HETATM   35  H50 UNL     1      -3.303  38.805 -20.719  1.00  0.00     0.210 HD
ENDBRANCH  28  34
BRANCH  29  36
HETATM   36  O7  UNL     1      -2.615  38.972 -18.333  1.00  0.00    -0.390 OA
HETATM   37  H52 UNL     1      -1.943  39.683 -18.318  1.00  0.00     0.210 HD
ENDBRANCH  29  36
BRANCH  30  38
HETATM   38  O8  UNL     1      -2.667  41.442 -19.362  1.00  0.00    -0.388 OA
HETATM   39  H54 UNL     1      -2.915  40.969 -20.185  1.00  0.00     0.210 HD
ENDBRANCH  30  38
ENDBRANCH  24  25
ENDBRANCH  20  24
BRANCH   1  40
HETATM   40  C8  UNL     1      -3.353  51.360 -24.524  1.00  0.00    -0.010 C 
HETATM   41  C9  UNL     1      -4.783  51.859 -24.268  1.00  0.00     0.010 C 
BRANCH  40  42
HETATM   42  C7  UNL     1      -3.214  51.002 -26.030  1.00  0.00     0.031 C 
BRANCH  42  43
HETATM   43  C6  UNL     1      -2.054  51.594 -26.804  1.00  0.00    -0.027 C 
HETATM   44  C5  UNL     1      -1.005  52.265 -26.297  1.00  0.00     0.006 C 
BRANCH  44  45
HETATM   45  C2  UNL     1       0.190  52.835 -27.040  1.00  0.00     0.070 C 
HETATM   46  C3  UNL     1       0.038  54.280 -27.546  1.00  0.00     0.050 C 
HETATM   47  C4  UNL     1       0.454  51.917 -28.250  1.00  0.00     0.050 C 
BRANCH  45  48
HETATM   48  O1  UNL     1       1.353  52.690 -26.206  1.00  0.00    -0.382 OA
HETATM   49  C1  UNL     1       2.238  51.631 -26.551  1.00  0.00     0.202 C 
ENDBRANCH  45  48
ENDBRANCH  44  45
ENDBRANCH  42  43
ENDBRANCH  40  42
ENDBRANCH   1  40
TORSDOF 12
ENDMDL
MODEL 9
REMARK minimizedAffinity -7.61947632
REMARK CNNscore 0.291572034
REMARK CNNaffinity 6.1787734
REMARK  12 active torsions:
REMARK  status: ('A' for Active; 'I' for Inactive)
REMARK    1  A    between atoms: O1_2  and  C2_3 
REMARK    2  A    between atoms: C2_3  and  C5_6 
REMARK    3  A    between atoms: C6_7  and  C7_8 
REMARK    4  A    between atoms: C7_8  and  C8_9 
REMARK    5  A    between atoms: C8_9  and  C10_11 
REMARK    6  A    between atoms: C28_30  and  O3_31 
REMARK    7  A    between atoms: O3_31  and  C29_32 
REMARK    8  A    between atoms: C30_34  and  C31_35 
REMARK    9  A    between atoms: C31_35  and  O5_36 
REMARK   10  A    between atoms: C32_37  and  O6_38 
REMARK   11  A    between atoms: C33_39  and  O7_40 
REMARK   12  A    between atoms: C34_41  and  O8_42 
ROOT
HETATM    1  C10 UNL     1      -8.294  47.276 -24.793  1.00  0.00    -0.002 C 
HETATM    2  C11 UNL     1      -8.619  48.586 -25.581  1.00  0.00     0.006 C 
HETATM    3  C12 UNL     1      -9.730  48.262 -26.598  1.00  0.00     0.011 C 
HETATM    4  C13 UNL     1     -10.284  46.896 -26.147  1.00  0.00    -0.029 C 
HETATM    5  C14 UNL     1     -11.282  47.201 -24.979  1.00  0.00     0.016 C 
HETATM    6  C15 UNL     1     -10.979  46.060 -27.269  1.00  0.00     0.028 C 
HETATM    7  C16 UNL     1     -12.225  46.730 -27.829  1.00  0.00    -0.021 C 
HETATM    8  C17 UNL     1     -13.388  46.063 -27.968  1.00  0.00     0.008 C 
HETATM    9  C18 UNL     1     -13.501  44.591 -27.582  1.00  0.00     0.092 C 
HETATM   10  O2  UNL     1     -12.731  43.920 -28.607  1.00  0.00    -0.374 OA
HETATM   11  C19 UNL     1     -11.410  43.691 -28.106  1.00  0.00     0.179 C 
HETATM   12  C20 UNL     1     -11.241  44.548 -26.829  1.00  0.00    -0.004 C 
HETATM   13  C21 UNL     1     -10.102  43.932 -25.974  1.00  0.00     0.014 C 
HETATM   14  C22 UNL     1      -9.356  44.861 -25.007  1.00  0.00     0.011 C 
HETATM   15  C23 UNL     1      -8.955  46.179 -25.690  1.00  0.00    -0.032 C 
HETATM   16  C24 UNL     1      -7.980  45.851 -26.871  1.00  0.00     0.016 C 
HETATM   17  C25 UNL     1     -12.681  44.435 -26.268  1.00  0.00     0.036 C 
HETATM   18  C26 UNL     1     -13.040  43.174 -25.489  1.00  0.00     0.011 C 
HETATM   19  C27 UNL     1     -14.527  43.147 -25.117  1.00  0.00     0.033 C 
HETATM   20  C28 UNL     1     -15.425  43.984 -26.042  1.00  0.00     0.136 C 
HETATM   21  C35 UNL     1     -14.942  43.953 -27.518  1.00  0.00     0.014 C 
HETATM   22  C36 UNL     1     -14.955  42.495 -28.062  1.00  0.00     0.021 C 
HETATM   23  C37 UNL     1     -15.969  44.712 -28.392  1.00  0.00     0.021 C 
ENDROOT
BRANCH  20  24
HETATM   24  O3  UNL     1     -16.758  43.479 -25.966  1.00  0.00    -0.352 OA
BRANCH  24  25
HETATM   25  C29 UNL     1     -17.557  44.028 -24.917  1.00  0.00     0.292 C 
HETATM   26  O4  UNL     1     -18.631  43.127 -24.660  1.00  0.00    -0.348 OA
HETATM   27  C30 UNL     1     -19.487  43.554 -23.585  1.00  0.00     0.179 C 
HETATM   28  C32 UNL     1     -19.860  45.049 -23.679  1.00  0.00     0.180 C 
HETATM   29  C33 UNL     1     -19.575  45.573 -25.089  1.00  0.00     0.183 C 
HETATM   30  C34 UNL     1     -18.082  45.394 -25.425  1.00  0.00     0.204 C 
BRANCH  27  31
HETATM   31  C31 UNL     1     -20.736  42.668 -23.654  1.00  0.00     0.198 C 
BRANCH  31  32
HETATM   32  O5  UNL     1     -21.800  43.222 -22.896  1.00  0.00    -0.398 OA
HETATM   33  H48 UNL     1     -22.553  42.608 -22.966  1.00  0.00     0.209 HD
ENDBRANCH  31  32
ENDBRANCH  27  31
BRANCH  28  34
HETATM   34  O6  UNL     1     -19.041  45.816 -22.764  1.00  0.00    -0.390 OA
HETATM   35  H50 UNL     1     -19.496  46.681 -22.714  1.00  0.00     0.210 HD
ENDBRANCH  28  34
BRANCH  29  36
HETATM   36  O7  UNL     1     -19.939  46.968 -25.146  1.00  0.00    -0.390 OA
HETATM   37  H52 UNL     1     -19.155  47.444 -25.487  1.00  0.00     0.210 HD
ENDBRANCH  29  36
BRANCH  30  38
HETATM   38  O8  UNL     1     -17.328  46.478 -24.826  1.00  0.00    -0.388 OA
HETATM   39  H54 UNL     1     -17.565  46.467 -23.874  1.00  0.00     0.210 HD
ENDBRANCH  30  38
ENDBRANCH  24  25
ENDBRANCH  20  24
BRANCH   1  40
HETATM   40  C8  UNL     1      -6.775  47.170 -24.457  1.00  0.00    -0.010 C 
HETATM   41  C9  UNL     1      -6.499  47.243 -22.947  1.00  0.00     0.010 C 
BRANCH  40  42
HETATM   42  C7  UNL     1      -5.956  48.284 -25.166  1.00  0.00     0.031 C 
BRANCH  42  43
HETATM   43  C6  UNL     1      -4.747  48.851 -24.451  1.00  0.00    -0.027 C 
HETATM   44  C5  UNL     1      -4.371  50.140 -24.401  1.00  0.00     0.006 C 
BRANCH  44  45
HETATM   45  C2  UNL     1      -3.189  50.744 -23.663  1.00  0.00     0.070 C 
HETATM   46  C3  UNL     1      -2.256  49.743 -22.960  1.00  0.00     0.050 C 
HETATM   47  C4  UNL     1      -3.758  51.710 -22.606  1.00  0.00     0.050 C 
BRANCH  45  48
HETATM   48  O1  UNL     1      -2.464  51.584 -24.580  1.00  0.00    -0.382 OA
HETATM   49  C1  UNL     1      -3.125  51.884 -25.803  1.00  0.00     0.202 C 
ENDBRANCH  45  48
ENDBRANCH  44  45
ENDBRANCH  42  43
ENDBRANCH  40  42
ENDBRANCH   1  40
TORSDOF 12
ENDMDL
