MODEL 1
REMARK minimizedAffinity -8.64205265
REMARK CNNscore 0.770808041
REMARK CNNaffinity 6.74549532
REMARK  9 active torsions:
REMARK  status: ('A' for Active; 'I' for Inactive)
REMARK    1  A    between atoms: C2_2  and  C32_37 
REMARK    2  A    between atoms: C3_3  and  C4_4 
REMARK    3  A    between atoms: C4_4  and  O1_5 
REMARK    4  A    between atoms: C4_4  and  C5_6 
REMARK    5  A    between atoms: C5_6  and  C6_7 
REMARK    6  A    between atoms: C6_7  and  C8_9 
REMARK    7  A    between atoms: C29_32  and  O4_33 
REMARK    8  A    between atoms: C30_34  and  O5_35 
REMARK    9  A    between atoms: C32_37  and  O7_39 
ROOT
HETATM    1  C8  UNL     1       4.133  55.233  -8.795  1.00  0.00    -0.026 C 
HETATM    2  C9  UNL     1       3.998  56.605  -9.563  1.00  0.00     0.011 C 
HETATM    3  C10 UNL     1       3.312  56.529 -10.914  1.00  0.00     0.002 C 
HETATM    4  C11 UNL     1       2.089  55.635 -10.884  1.00  0.00     0.017 C 
HETATM    5  C12 UNL     1       2.270  54.331 -10.046  1.00  0.00     0.021 C 
HETATM    6  C13 UNL     1       0.906  53.639 -10.078  1.00  0.00    -0.029 C 
HETATM    7  C14 UNL     1      -0.064  53.908  -9.166  1.00  0.00     0.002 C 
HETATM    8  C15 UNL     1       0.220  54.966  -8.109  1.00  0.00     0.157 C 
HETATM    9  O2  UNL     1      -0.689  55.456  -7.438  1.00  0.00    -0.293 OA
HETATM   10  C16 UNL     1       1.637  55.492  -7.900  1.00  0.00     0.094 C 
HETATM   11  C17 UNL     1       2.693  54.604  -8.557  1.00  0.00    -0.015 C 
HETATM   12  C18 UNL     1       2.743  53.255  -7.745  1.00  0.00     0.018 C 
HETATM   13  C19 UNL     1      -1.493  53.304  -9.281  1.00  0.00    -0.008 C 
HETATM   14  C20 UNL     1      -2.099  53.032  -7.874  1.00  0.00     0.021 C 
HETATM   15  C21 UNL     1      -2.316  54.404  -9.996  1.00  0.00     0.022 C 
HETATM   16  C22 UNL     1      -3.693  53.971 -10.427  1.00  0.00     0.080 C 
HETATM   17  C23 UNL     1      -3.548  52.862 -11.427  1.00  0.00     0.135 C 
HETATM   18  O3  UNL     1      -4.132  52.934 -12.508  1.00  0.00    -0.297 OA
HETATM   19  C24 UNL     1      -2.805  51.601 -10.973  1.00  0.00     0.018 C 
HETATM   20  C25 UNL     1      -2.492  50.762 -12.233  1.00  0.00     0.023 C 
HETATM   21  C26 UNL     1      -3.852  50.780 -10.175  1.00  0.00     0.023 C 
HETATM   22  C27 UNL     1      -1.535  51.896 -10.055  1.00  0.00     0.016 C 
HETATM   23  C28 UNL     1      -0.158  51.501 -10.645  1.00  0.00     0.043 C 
HETATM   24  C29 UNL     1       0.641  52.667 -11.193  1.00  0.00     0.149 C 
HETATM   25  C30 UNL     1       3.525  53.535 -10.525  1.00  0.00     0.132 C 
HETATM   26  C31 UNL     1       4.731  54.185  -9.794  1.00  0.00     0.043 C 
ENDROOT
BRANCH   1  27
HETATM   27  C6  UNL     1       5.089  55.562  -7.565  1.00  0.00    -0.006 C 
HETATM   28  C7  UNL     1       4.970  57.043  -7.141  1.00  0.00     0.011 C 
BRANCH  27  29
HETATM   29  C5  UNL     1       6.573  55.141  -7.668  1.00  0.00     0.040 C 
BRANCH  29  30
HETATM   30  C4  UNL     1       7.282  54.897  -6.319  1.00  0.00     0.142 C 
BRANCH  30  31
HETATM   31  C3  UNL     1       8.283  55.986  -6.026  1.00  0.00     0.018 C 
HETATM   32  C2  UNL     1       9.412  55.937  -5.284  1.00  0.00     0.010 C 
HETATM   33  C1  UNL     1       9.892  54.750  -4.499  1.00  0.00     0.055 C 
BRANCH  32  34
HETATM   34  C32 UNL     1      10.288  57.134  -5.164  1.00  0.00     0.171 C 
HETATM   35  O6  UNL     1       9.922  58.290  -5.272  1.00  0.00    -0.646 OA
BRANCH  34  36
HETATM   36  O7  UNL     1      11.585  56.844  -4.948  1.00  0.00    -0.773 OA
HETATM   37  H46 UNL     1      12.013  57.726  -4.919  1.00  0.00     0.167 HD
ENDBRANCH  34  36
ENDBRANCH  32  34
ENDBRANCH  30  31
BRANCH  30  38
HETATM   38  O1  UNL     1       6.337  54.811  -5.265  1.00  0.00    -0.392 OA
HETATM   39  H6  UNL     1       6.819  54.449  -4.498  1.00  0.00     0.210 HD
ENDBRANCH  30  38
ENDBRANCH  29  30
ENDBRANCH  27  29
ENDBRANCH   1  27
BRANCH  25  40
HETATM   40  O5  UNL     1       3.696  53.570 -11.933  1.00  0.00    -0.394 OA
HETATM   41  H43 UNL     1       4.499  53.056 -12.140  1.00  0.00     0.210 HD
ENDBRANCH  25  40
BRANCH  24  42
HETATM   42  O4  UNL     1      -0.092  53.311 -12.217  1.00  0.00    -0.391 OA
HETATM   43  H41 UNL     1       0.543  53.845 -12.728  1.00  0.00     0.210 HD
ENDBRANCH  24  42
TORSDOF 9
ENDMDL
MODEL 2
REMARK minimizedAffinity -7.74729872
REMARK CNNscore 0.769063532
REMARK CNNaffinity 6.48599482
REMARK  9 active torsions:
REMARK  status: ('A' for Active; 'I' for Inactive)
REMARK    1  A    between atoms: C2_2  and  C32_37 
REMARK    2  A    between atoms: C3_3  and  C4_4 
REMARK    3  A    between atoms: C4_4  and  O1_5 
REMARK    4  A    between atoms: C4_4  and  C5_6 
REMARK    5  A    between atoms: C5_6  and  C6_7 
REMARK    6  A    between atoms: C6_7  and  C8_9 
REMARK    7  A    between atoms: C29_32  and  O4_33 
REMARK    8  A    between atoms: C30_34  and  O5_35 
REMARK    9  A    between atoms: C32_37  and  O7_39 
ROOT
HETATM    1  C8  UNL     1       4.031  56.189  -7.176  1.00  0.00    -0.026 C 
HETATM    2  C9  UNL     1       4.066  55.308  -5.868  1.00  0.00     0.011 C 
HETATM    3  C10 UNL     1       2.710  54.888  -5.330  1.00  0.00     0.002 C 
HETATM    4  C11 UNL     1       1.770  54.445  -6.433  1.00  0.00     0.017 C 
HETATM    5  C12 UNL     1       1.842  55.320  -7.724  1.00  0.00     0.021 C 
HETATM    6  C13 UNL     1       0.894  54.649  -8.718  1.00  0.00    -0.029 C 
HETATM    7  C14 UNL     1       1.303  53.657  -9.552  1.00  0.00     0.002 C 
HETATM    8  C15 UNL     1       2.746  53.184  -9.449  1.00  0.00     0.157 C 
HETATM    9  O2  UNL     1       3.107  52.125  -9.961  1.00  0.00    -0.293 OA
HETATM   10  C16 UNL     1       3.770  53.987  -8.651  1.00  0.00     0.094 C 
HETATM   11  C17 UNL     1       3.287  55.403  -8.338  1.00  0.00    -0.015 C 
HETATM   12  C18 UNL     1       3.260  56.201  -9.695  1.00  0.00     0.018 C 
HETATM   13  C19 UNL     1       0.308  52.885 -10.466  1.00  0.00    -0.008 C 
HETATM   14  C20 UNL     1       0.981  52.478 -11.807  1.00  0.00     0.021 C 
HETATM   15  C21 UNL     1      -0.046  51.613  -9.655  1.00  0.00     0.022 C 
HETATM   16  C22 UNL     1      -1.174  50.800 -10.234  1.00  0.00     0.080 C 
HETATM   17  C23 UNL     1      -2.417  51.642 -10.224  1.00  0.00     0.135 C 
HETATM   18  O3  UNL     1      -3.450  51.199  -9.725  1.00  0.00    -0.297 OA
HETATM   19  C24 UNL     1      -2.375  52.962 -11.000  1.00  0.00     0.018 C 
HETATM   20  C25 UNL     1      -3.609  53.792 -10.579  1.00  0.00     0.023 C 
HETATM   21  C26 UNL     1      -2.621  52.570 -12.480  1.00  0.00     0.023 C 
HETATM   22  C27 UNL     1      -0.990  53.742 -10.870  1.00  0.00     0.016 C 
HETATM   23  C28 UNL     1      -1.042  55.115 -10.153  1.00  0.00     0.043 C 
HETATM   24  C29 UNL     1      -0.543  55.088  -8.721  1.00  0.00     0.149 C 
HETATM   25  C30 UNL     1       1.624  56.828  -7.383  1.00  0.00     0.132 C 
HETATM   26  C31 UNL     1       3.013  57.357  -6.936  1.00  0.00     0.043 C 
ENDROOT
BRANCH   1  27
HETATM   27  C6  UNL     1       5.535  56.680  -7.360  1.00  0.00    -0.006 C 
HETATM   28  C7  UNL     1       6.488  55.490  -7.608  1.00  0.00     0.011 C 
BRANCH  27  29
HETATM   29  C5  UNL     1       6.120  57.637  -6.296  1.00  0.00     0.040 C 
BRANCH  29  30
HETATM   30  C4  UNL     1       6.926  56.955  -5.170  1.00  0.00     0.142 C 
BRANCH  30  31
HETATM   31  C3  UNL     1       8.361  57.418  -5.170  1.00  0.00     0.018 C 
HETATM   32  C2  UNL     1       8.865  58.649  -4.931  1.00  0.00     0.010 C 
HETATM   33  C1  UNL     1       8.059  59.889  -4.671  1.00  0.00     0.055 C 
BRANCH  32  34
HETATM   34  C32 UNL     1      10.336  58.876  -4.937  1.00  0.00     0.171 C 
HETATM   35  O6  UNL     1      10.888  59.934  -4.693  1.00  0.00    -0.646 OA
BRANCH  34  36
HETATM   36  O7  UNL     1      11.056  57.792  -5.278  1.00  0.00    -0.773 OA
HETATM   37  H46 UNL     1      11.981  58.116  -5.255  1.00  0.00     0.167 HD
ENDBRANCH  34  36
ENDBRANCH  32  34
ENDBRANCH  30  31
BRANCH  30  38
HETATM   38  O1  UNL     1       6.335  57.209  -3.907  1.00  0.00    -0.392 OA
HETATM   39  H6  UNL     1       6.754  56.589  -3.281  1.00  0.00     0.210 HD
ENDBRANCH  30  38
ENDBRANCH  29  30
ENDBRANCH  27  29
ENDBRANCH   1  27
BRANCH  25  40
HETATM   40  O5  UNL     1       0.646  57.030  -6.375  1.00  0.00    -0.394 OA
HETATM   41  H43 UNL     1       0.580  57.992  -6.224  1.00  0.00     0.210 HD
ENDBRANCH  25  40
BRANCH  24  42
HETATM   42  O4  UNL     1      -1.317  54.179  -7.961  1.00  0.00    -0.391 OA
HETATM   43  H41 UNL     1      -1.170  54.398  -7.023  1.00  0.00     0.210 HD
ENDBRANCH  24  42
TORSDOF 9
ENDMDL
MODEL 3
REMARK minimizedAffinity -9.0868988
REMARK CNNscore 0.756589234
REMARK CNNaffinity 6.5660553
REMARK  9 active torsions:
REMARK  status: ('A' for Active; 'I' for Inactive)
REMARK    1  A    between atoms: C2_2  and  C32_37 
REMARK    2  A    between atoms: C3_3  and  C4_4 
REMARK    3  A    between atoms: C4_4  and  O1_5 
REMARK    4  A    between atoms: C4_4  and  C5_6 
REMARK    5  A    between atoms: C5_6  and  C6_7 
REMARK    6  A    between atoms: C6_7  and  C8_9 
REMARK    7  A    between atoms: C29_32  and  O4_33 
REMARK    8  A    between atoms: C30_34  and  O5_35 
REMARK    9  A    between atoms: C32_37  and  O7_39 
ROOT
HETATM    1  C8  UNL     1      -3.220  49.335 -22.808  1.00  0.00    -0.026 C 
HETATM    2  C9  UNL     1      -4.082  50.657 -22.824  1.00  0.00     0.011 C 
HETATM    3  C10 UNL     1      -5.070  50.802 -21.682  1.00  0.00     0.002 C 
HETATM    4  C11 UNL     1      -4.473  50.388 -20.353  1.00  0.00     0.017 C 
HETATM    5  C12 UNL     1      -3.573  49.114 -20.425  1.00  0.00     0.021 C 
HETATM    6  C13 UNL     1      -3.012  48.937 -19.014  1.00  0.00    -0.029 C 
HETATM    7  C14 UNL     1      -1.863  49.539 -18.610  1.00  0.00     0.002 C 
HETATM    8  C15 UNL     1      -1.146  50.449 -19.597  1.00  0.00     0.157 C 
HETATM    9  O2  UNL     1      -0.274  51.233 -19.222  1.00  0.00    -0.293 OA
HETATM   10  C16 UNL     1      -1.539  50.456 -21.072  1.00  0.00     0.094 C 
HETATM   11  C17 UNL     1      -2.392  49.247 -21.455  1.00  0.00    -0.015 C 
HETATM   12  C18 UNL     1      -1.463  47.977 -21.389  1.00  0.00     0.018 C 
HETATM   13  C19 UNL     1      -1.368  49.465 -17.137  1.00  0.00    -0.008 C 
HETATM   14  C20 UNL     1       0.186  49.441 -17.071  1.00  0.00     0.021 C 
HETATM   15  C21 UNL     1      -1.895  50.771 -16.492  1.00  0.00     0.022 C 
HETATM   16  C22 UNL     1      -1.734  50.835 -14.996  1.00  0.00     0.080 C 
HETATM   17  C23 UNL     1      -2.545  49.729 -14.386  1.00  0.00     0.135 C 
HETATM   18  O3  UNL     1      -3.342  49.982 -13.484  1.00  0.00    -0.297 OA
HETATM   19  C24 UNL     1      -2.207  48.296 -14.810  1.00  0.00     0.018 C 
HETATM   20  C25 UNL     1      -3.358  47.382 -14.331  1.00  0.00     0.023 C 
HETATM   21  C26 UNL     1      -0.976  47.900 -13.954  1.00  0.00     0.023 C 
HETATM   22  C27 UNL     1      -1.860  48.148 -16.359  1.00  0.00     0.016 C 
HETATM   23  C28 UNL     1      -2.838  47.292 -17.201  1.00  0.00     0.043 C 
HETATM   24  C29 UNL     1      -3.802  48.100 -18.047  1.00  0.00     0.149 C 
HETATM   25  C30 UNL     1      -4.347  47.927 -21.079  1.00  0.00     0.132 C 
HETATM   26  C31 UNL     1      -4.201  48.130 -22.611  1.00  0.00     0.043 C 
ENDROOT
BRANCH   1  27
HETATM   27  C6  UNL     1      -2.477  49.332 -24.217  1.00  0.00    -0.006 C 
HETATM   28  C7  UNL     1      -2.230  50.769 -24.726  1.00  0.00     0.011 C 
BRANCH  27  29
HETATM   29  C5  UNL     1      -3.062  48.447 -25.341  1.00  0.00     0.040 C 
BRANCH  29  30
HETATM   30  C4  UNL     1      -4.302  49.024 -26.056  1.00  0.00     0.142 C 
BRANCH  30  31
HETATM   31  C3  UNL     1      -4.198  48.854 -27.550  1.00  0.00     0.018 C 
HETATM   32  C2  UNL     1      -5.091  48.330 -28.419  1.00  0.00     0.010 C 
HETATM   33  C1  UNL     1      -6.409  47.711 -28.051  1.00  0.00     0.055 C 
BRANCH  32  34
HETATM   34  C32 UNL     1      -4.798  48.302 -29.877  1.00  0.00     0.171 C 
HETATM   35  O6  UNL     1      -4.713  47.298 -30.561  1.00  0.00    -0.646 OA
BRANCH  34  36
HETATM   36  O7  UNL     1      -4.591  49.517 -30.418  1.00  0.00    -0.773 OA
HETATM   37  H46 UNL     1      -4.393  49.318 -31.357  1.00  0.00     0.167 HD
ENDBRANCH  34  36
ENDBRANCH  32  34
ENDBRANCH  30  31
BRANCH  30  38
HETATM   38  O1  UNL     1      -5.486  48.406 -25.579  1.00  0.00    -0.392 OA
HETATM   39  H6  UNL     1      -6.227  48.953 -25.902  1.00  0.00     0.210 HD
ENDBRANCH  30  38
ENDBRANCH  29  30
ENDBRANCH  27  29
ENDBRANCH   1  27
BRANCH  25  40
HETATM   40  O5  UNL     1      -5.712  47.879 -20.692  1.00  0.00    -0.394 OA
HETATM   41  H43 UNL     1      -6.115  47.116 -21.148  1.00  0.00     0.210 HD
ENDBRANCH  25  40
BRANCH  24  42
HETATM   42  O4  UNL     1      -4.578  48.943 -17.217  1.00  0.00    -0.391 OA
HETATM   43  H41 UNL     1      -5.355  49.216 -17.738  1.00  0.00     0.210 HD
ENDBRANCH  24  42
TORSDOF 9
ENDMDL
MODEL 4
REMARK minimizedAffinity -7.99402618
REMARK CNNscore 0.668382287
REMARK CNNaffinity 6.58467531
REMARK  9 active torsions:
REMARK  status: ('A' for Active; 'I' for Inactive)
REMARK    1  A    between atoms: C2_2  and  C32_37 
REMARK    2  A    between atoms: C3_3  and  C4_4 
REMARK    3  A    between atoms: C4_4  and  O1_5 
REMARK    4  A    between atoms: C4_4  and  C5_6 
REMARK    5  A    between atoms: C5_6  and  C6_7 
REMARK    6  A    between atoms: C6_7  and  C8_9 
REMARK    7  A    between atoms: C29_32  and  O4_33 
REMARK    8  A    between atoms: C30_34  and  O5_35 
REMARK    9  A    between atoms: C32_37  and  O7_39 
ROOT
HETATM    1  C8  UNL     1      -3.640  49.665 -24.140  1.00  0.00    -0.026 C 
HETATM    2  C9  UNL     1      -4.563  50.945 -24.102  1.00  0.00     0.011 C 
HETATM    3  C10 UNL     1      -5.526  51.018 -22.932  1.00  0.00     0.002 C 
HETATM    4  C11 UNL     1      -4.875  50.603 -21.629  1.00  0.00     0.017 C 
HETATM    5  C12 UNL     1      -3.919  49.375 -21.754  1.00  0.00     0.021 C 
HETATM    6  C13 UNL     1      -3.314  49.192 -20.363  1.00  0.00    -0.029 C 
HETATM    7  C14 UNL     1      -2.183  49.838 -19.974  1.00  0.00     0.002 C 
HETATM    8  C15 UNL     1      -1.536  50.803 -20.957  1.00  0.00     0.157 C 
HETATM    9  O2  UNL     1      -0.691  51.618 -20.586  1.00  0.00    -0.293 OA
HETATM   10  C16 UNL     1      -1.967  50.824 -22.420  1.00  0.00     0.094 C 
HETATM   11  C17 UNL     1      -2.773  49.586 -22.810  1.00  0.00    -0.015 C 
HETATM   12  C18 UNL     1      -1.786  48.359 -22.799  1.00  0.00     0.018 C 
HETATM   13  C19 UNL     1      -1.646  49.754 -18.516  1.00  0.00    -0.008 C 
HETATM   14  C20 UNL     1      -0.091  49.801 -18.490  1.00  0.00     0.021 C 
HETATM   15  C21 UNL     1      -2.215  51.019 -17.827  1.00  0.00     0.022 C 
HETATM   16  C22 UNL     1      -2.018  51.057 -16.334  1.00  0.00     0.080 C 
HETATM   17  C23 UNL     1      -2.760  49.900 -15.730  1.00  0.00     0.135 C 
HETATM   18  O3  UNL     1      -3.544  50.096 -14.802  1.00  0.00    -0.297 OA
HETATM   19  C24 UNL     1      -2.368  48.494 -16.197  1.00  0.00     0.018 C 
HETATM   20  C25 UNL     1      -3.461  47.517 -15.710  1.00  0.00     0.023 C 
HETATM   21  C26 UNL     1      -1.097  48.138 -15.383  1.00  0.00     0.023 C 
HETATM   22  C27 UNL     1      -2.055  48.398 -17.757  1.00  0.00     0.016 C 
HETATM   23  C28 UNL     1      -3.015  47.516 -18.594  1.00  0.00     0.043 C 
HETATM   24  C29 UNL     1      -4.038  48.297 -19.396  1.00  0.00     0.149 C 
HETATM   25  C30 UNL     1      -4.655  48.167 -22.416  1.00  0.00     0.132 C 
HETATM   26  C31 UNL     1      -4.559  48.411 -23.946  1.00  0.00     0.043 C 
ENDROOT
BRANCH   1  27
HETATM   27  C6  UNL     1      -2.937  49.729 -25.566  1.00  0.00    -0.006 C 
HETATM   28  C7  UNL     1      -3.442  50.934 -26.390  1.00  0.00     0.011 C 
BRANCH  27  29
HETATM   29  C5  UNL     1      -2.926  48.444 -26.426  1.00  0.00     0.040 C 
BRANCH  29  30
HETATM   30  C4  UNL     1      -3.902  48.445 -27.622  1.00  0.00     0.142 C 
BRANCH  30  31
HETATM   31  C3  UNL     1      -5.318  48.190 -27.170  1.00  0.00     0.018 C 
HETATM   32  C2  UNL     1      -6.365  47.696 -27.866  1.00  0.00     0.010 C 
HETATM   33  C1  UNL     1      -6.358  47.346 -29.327  1.00  0.00     0.055 C 
BRANCH  32  34
HETATM   34  C32 UNL     1      -7.679  47.481 -27.201  1.00  0.00     0.171 C 
HETATM   35  O6  UNL     1      -7.872  46.767 -26.233  1.00  0.00    -0.646 OA
BRANCH  34  36
HETATM   36  O7  UNL     1      -8.702  48.134 -27.783  1.00  0.00    -0.773 OA
HETATM   37  H46 UNL     1      -9.477  47.870 -27.246  1.00  0.00     0.167 HD
ENDBRANCH  34  36
ENDBRANCH  32  34
ENDBRANCH  30  31
BRANCH  30  38
HETATM   38  O1  UNL     1      -3.832  49.676 -28.324  1.00  0.00    -0.392 OA
HETATM   39  H6  UNL     1      -4.298  49.533 -29.169  1.00  0.00     0.210 HD
ENDBRANCH  30  38
ENDBRANCH  29  30
ENDBRANCH  27  29
ENDBRANCH   1  27
BRANCH  25  40
HETATM   40  O5  UNL     1      -6.005  48.046 -21.996  1.00  0.00    -0.394 OA
HETATM   41  H43 UNL     1      -6.384  47.275 -22.459  1.00  0.00     0.210 HD
ENDBRANCH  25  40
BRANCH  24  42
HETATM   42  O4  UNL     1      -4.829  49.084 -18.527  1.00  0.00    -0.391 OA
HETATM   43  H41 UNL     1      -5.632  49.331 -19.020  1.00  0.00     0.210 HD
ENDBRANCH  24  42
TORSDOF 9
ENDMDL
MODEL 5
REMARK minimizedAffinity -7.9141717
REMARK CNNscore 0.62700963
REMARK CNNaffinity 6.95330429
REMARK  9 active torsions:
REMARK  status: ('A' for Active; 'I' for Inactive)
REMARK    1  A    between atoms: C2_2  and  C32_37 
REMARK    2  A    between atoms: C3_3  and  C4_4 
REMARK    3  A    between atoms: C4_4  and  O1_5 
REMARK    4  A    between atoms: C4_4  and  C5_6 
REMARK    5  A    between atoms: C5_6  and  C6_7 
REMARK    6  A    between atoms: C6_7  and  C8_9 
REMARK    7  A    between atoms: C29_32  and  O4_33 
REMARK    8  A    between atoms: C30_34  and  O5_35 
REMARK    9  A    between atoms: C32_37  and  O7_39 
ROOT
HETATM    1  C8  UNL     1      -3.603  48.335 -20.315  1.00  0.00    -0.026 C 
HETATM    2  C9  UNL     1      -4.980  48.880 -19.772  1.00  0.00     0.011 C 
HETATM    3  C10 UNL     1      -5.227  48.664 -18.290  1.00  0.00     0.002 C 
HETATM    4  C11 UNL     1      -3.995  48.957 -17.458  1.00  0.00     0.017 C 
HETATM    5  C12 UNL     1      -2.660  48.453 -18.091  1.00  0.00     0.021 C 
HETATM    6  C13 UNL     1      -1.560  48.929 -17.142  1.00  0.00    -0.029 C 
HETATM    7  C14 UNL     1      -0.977  50.151 -17.263  1.00  0.00     0.002 C 
HETATM    8  C15 UNL     1      -1.479  51.077 -18.361  1.00  0.00     0.157 C 
HETATM    9  O2  UNL     1      -1.203  52.277 -18.357  1.00  0.00    -0.293 OA
HETATM   10  C16 UNL     1      -2.392  50.550 -19.464  1.00  0.00     0.094 C 
HETATM   11  C17 UNL     1      -2.403  49.023 -19.533  1.00  0.00    -0.015 C 
HETATM   12  C18 UNL     1      -0.990  48.566 -20.059  1.00  0.00     0.018 C 
HETATM   13  C19 UNL     1       0.045  50.684 -16.218  1.00  0.00    -0.008 C 
HETATM   14  C20 UNL     1       1.126  51.572 -16.897  1.00  0.00     0.021 C 
HETATM   15  C21 UNL     1      -0.809  51.548 -15.257  1.00  0.00     0.022 C 
HETATM   16  C22 UNL     1      -0.084  52.002 -14.017  1.00  0.00     0.080 C 
HETATM   17  C23 UNL     1       0.308  50.788 -13.227  1.00  0.00     0.135 C 
HETATM   18  O3  UNL     1       0.019  50.717 -12.033  1.00  0.00    -0.297 OA
HETATM   19  C24 UNL     1       1.209  49.760 -13.920  1.00  0.00     0.018 C 
HETATM   20  C25 UNL     1       1.201  48.475 -13.062  1.00  0.00     0.023 C 
HETATM   21  C26 UNL     1       2.645  50.334 -13.799  1.00  0.00     0.023 C 
HETATM   22  C27 UNL     1       0.850  49.521 -15.455  1.00  0.00     0.016 C 
HETATM   23  C28 UNL     1       0.342  48.105 -15.826  1.00  0.00     0.043 C 
HETATM   24  C29 UNL     1      -1.159  48.014 -16.019  1.00  0.00     0.149 C 
HETATM   25  C30 UNL     1      -2.750  46.932 -18.431  1.00  0.00     0.132 C 
HETATM   26  C31 UNL     1      -3.447  46.857 -19.816  1.00  0.00     0.043 C 
ENDROOT
BRANCH   1  27
HETATM   27  C6  UNL     1      -3.723  48.466 -21.897  1.00  0.00    -0.006 C 
HETATM   28  C7  UNL     1      -2.336  48.413 -22.573  1.00  0.00     0.011 C 
BRANCH  27  29
HETATM   29  C5  UNL     1      -4.565  49.631 -22.466  1.00  0.00     0.040 C 
BRANCH  29  30
HETATM   30  C4  UNL     1      -3.955  51.037 -22.276  1.00  0.00     0.142 C 
BRANCH  30  31
HETATM   31  C3  UNL     1      -3.487  51.609 -23.590  1.00  0.00     0.018 C 
HETATM   32  C2  UNL     1      -2.240  51.960 -23.978  1.00  0.00     0.010 C 
HETATM   33  C1  UNL     1      -1.012  51.919 -23.115  1.00  0.00     0.055 C 
BRANCH  32  34
HETATM   34  C32 UNL     1      -1.994  52.468 -25.354  1.00  0.00     0.171 C 
HETATM   35  O6  UNL     1      -0.901  52.586 -25.878  1.00  0.00    -0.646 OA
BRANCH  34  36
HETATM   36  O7  UNL     1      -3.110  52.838 -26.010  1.00  0.00    -0.773 OA
HETATM   37  H46 UNL     1      -2.771  53.162 -26.871  1.00  0.00     0.167 HD
ENDBRANCH  34  36
ENDBRANCH  32  34
ENDBRANCH  30  31
BRANCH  30  38
HETATM   38  O1  UNL     1      -4.894  51.912 -21.673  1.00  0.00    -0.392 OA
HETATM   39  H6  UNL     1      -4.389  52.697 -21.390  1.00  0.00     0.210 HD
ENDBRANCH  30  38
ENDBRANCH  29  30
ENDBRANCH  27  29
ENDBRANCH   1  27
BRANCH  25  40
HETATM   40  O5  UNL     1      -3.462  46.189 -17.454  1.00  0.00    -0.394 OA
HETATM   41  H43 UNL     1      -3.473  45.259 -17.748  1.00  0.00     0.210 HD
ENDBRANCH  25  40
BRANCH  24  42
HETATM   42  O4  UNL     1      -1.820  48.407 -14.831  1.00  0.00    -0.391 OA
HETATM   43  H41 UNL     1      -2.731  48.067 -14.888  1.00  0.00     0.210 HD
ENDBRANCH  24  42
TORSDOF 9
ENDMDL
MODEL 6
REMARK minimizedAffinity -8.86958408
REMARK CNNscore 0.609099448
REMARK CNNaffinity 6.58663511
REMARK  9 active torsions:
REMARK  status: ('A' for Active; 'I' for Inactive)
REMARK    1  A    between atoms: C2_2  and  C32_37 
REMARK    2  A    between atoms: C3_3  and  C4_4 
REMARK    3  A    between atoms: C4_4  and  O1_5 
REMARK    4  A    between atoms: C4_4  and  C5_6 
REMARK    5  A    between atoms: C5_6  and  C6_7 
REMARK    6  A    between atoms: C6_7  and  C8_9 
REMARK    7  A    between atoms: C29_32  and  O4_33 
REMARK    8  A    between atoms: C30_34  and  O5_35 
REMARK    9  A    between atoms: C32_37  and  O7_39 
ROOT
HETATM    1  C8  UNL     1      -4.300  49.494 -22.317  1.00  0.00    -0.026 C 
HETATM    2  C9  UNL     1      -5.650  50.281 -22.100  1.00  0.00     0.011 C 
HETATM    3  C10 UNL     1      -6.457  49.866 -20.883  1.00  0.00     0.002 C 
HETATM    4  C11 UNL     1      -5.583  49.651 -19.664  1.00  0.00     0.017 C 
HETATM    5  C12 UNL     1      -4.230  48.931 -19.965  1.00  0.00     0.021 C 
HETATM    6  C13 UNL     1      -3.484  48.904 -18.631  1.00  0.00    -0.029 C 
HETATM    7  C14 UNL     1      -2.677  49.922 -18.232  1.00  0.00     0.002 C 
HETATM    8  C15 UNL     1      -2.558  51.139 -19.137  1.00  0.00     0.157 C 
HETATM    9  O2  UNL     1      -2.081  52.196 -18.724  1.00  0.00    -0.293 OA
HETATM   10  C16 UNL     1      -3.087  51.096 -20.568  1.00  0.00     0.094 C 
HETATM   11  C17 UNL     1      -3.362  49.671 -21.047  1.00  0.00    -0.015 C 
HETATM   12  C18 UNL     1      -1.969  48.955 -21.213  1.00  0.00     0.018 C 
HETATM   13  C19 UNL     1      -2.026  49.951 -16.819  1.00  0.00    -0.008 C 
HETATM   14  C20 UNL     1      -0.625  50.624 -16.863  1.00  0.00     0.021 C 
HETATM   15  C21 UNL     1      -2.992  50.818 -15.973  1.00  0.00     0.022 C 
HETATM   16  C22 UNL     1      -2.697  50.817 -14.496  1.00  0.00     0.080 C 
HETATM   17  C23 UNL     1      -2.859  49.416 -13.982  1.00  0.00     0.135 C 
HETATM   18  O3  UNL     1      -3.571  49.204 -13.002  1.00  0.00    -0.297 OA
HETATM   19  C24 UNL     1      -1.979  48.332 -14.614  1.00  0.00     0.018 C 
HETATM   20  C25 UNL     1      -2.544  46.960 -14.181  1.00  0.00     0.023 C 
HETATM   21  C26 UNL     1      -0.606  48.461 -13.904  1.00  0.00     0.023 C 
HETATM   22  C27 UNL     1      -1.791  48.491 -16.189  1.00  0.00     0.016 C 
HETATM   23  C28 UNL     1      -2.387  47.363 -17.067  1.00  0.00     0.043 C 
HETATM   24  C29 UNL     1      -3.702  47.720 -17.731  1.00  0.00     0.149 C 
HETATM   25  C30 UNL     1      -4.477  47.584 -20.714  1.00  0.00     0.132 C 
HETATM   26  C31 UNL     1      -4.620  47.963 -22.213  1.00  0.00     0.043 C 
ENDROOT
BRANCH   1  27
HETATM   27  C6  UNL     1      -3.808  49.947 -23.761  1.00  0.00    -0.006 C 
HETATM   28  C7  UNL     1      -3.028  48.818 -24.470  1.00  0.00     0.011 C 
BRANCH  27  29
HETATM   29  C5  UNL     1      -3.052  51.291 -23.880  1.00  0.00     0.040 C 
BRANCH  29  30
HETATM   30  C4  UNL     1      -1.594  51.184 -24.375  1.00  0.00     0.142 C 
BRANCH  30  31
HETATM   31  C3  UNL     1      -1.260  52.301 -25.330  1.00  0.00     0.018 C 
HETATM   32  C2  UNL     1      -0.159  52.477 -26.095  1.00  0.00     0.010 C 
HETATM   33  C1  UNL     1       1.052  51.588 -26.101  1.00  0.00     0.055 C 
BRANCH  32  34
HETATM   34  C32 UNL     1      -0.056  53.644 -27.013  1.00  0.00     0.171 C 
HETATM   35  O6  UNL     1      -0.142  53.597 -28.227  1.00  0.00    -0.646 OA
BRANCH  34  36
HETATM   36  O7  UNL     1       0.181  54.812 -26.388  1.00  0.00    -0.773 OA
HETATM   37  H46 UNL     1       0.242  55.456 -27.125  1.00  0.00     0.167 HD
ENDBRANCH  34  36
ENDBRANCH  32  34
ENDBRANCH  30  31
BRANCH  30  38
HETATM   38  O1  UNL     1      -0.693  51.197 -23.280  1.00  0.00    -0.392 OA
HETATM   39  H6  UNL     1       0.171  50.914 -23.637  1.00  0.00     0.210 HD
ENDBRANCH  30  38
ENDBRANCH  29  30
ENDBRANCH  27  29
ENDBRANCH   1  27
BRANCH  25  40
HETATM   40  O5  UNL     1      -5.624  46.893 -20.245  1.00  0.00    -0.394 OA
HETATM   41  H43 UNL     1      -5.702  46.073 -20.768  1.00  0.00     0.210 HD
ENDBRANCH  25  40
BRANCH  24  42
HETATM   42  O4  UNL     1      -4.664  48.048 -16.746  1.00  0.00    -0.391 OA
HETATM   43  H41 UNL     1      -5.538  47.985 -17.171  1.00  0.00     0.210 HD
ENDBRANCH  24  42
TORSDOF 9
ENDMDL
MODEL 7
REMARK minimizedAffinity -8.47110462
REMARK CNNscore 0.603503406
REMARK CNNaffinity 6.86889601
REMARK  9 active torsions:
REMARK  status: ('A' for Active; 'I' for Inactive)
REMARK    1  A    between atoms: C2_2  and  C32_37 
REMARK    2  A    between atoms: C3_3  and  C4_4 
REMARK    3  A    between atoms: C4_4  and  O1_5 
REMARK    4  A    between atoms: C4_4  and  C5_6 
REMARK    5  A    between atoms: C5_6  and  C6_7 
REMARK    6  A    between atoms: C6_7  and  C8_9 
REMARK    7  A    between atoms: C29_32  and  O4_33 
REMARK    8  A    between atoms: C30_34  and  O5_35 
REMARK    9  A    between atoms: C32_37  and  O7_39 
ROOT
HETATM    1  C8  UNL     1      -2.210  50.351 -21.856  1.00  0.00    -0.026 C 
HETATM    2  C9  UNL     1      -3.397  51.380 -21.711  1.00  0.00     0.011 C 
HETATM    3  C10 UNL     1      -4.788  50.797 -21.874  1.00  0.00     0.002 C 
HETATM    4  C11 UNL     1      -4.938  49.470 -21.158  1.00  0.00     0.017 C 
HETATM    5  C12 UNL     1      -3.698  48.531 -21.284  1.00  0.00     0.021 C 
HETATM    6  C13 UNL     1      -4.028  47.310 -20.425  1.00  0.00    -0.029 C 
HETATM    7  C14 UNL     1      -3.740  47.259 -19.098  1.00  0.00     0.002 C 
HETATM    8  C15 UNL     1      -3.105  48.483 -18.456  1.00  0.00     0.157 C 
HETATM    9  O2  UNL     1      -3.074  48.616 -17.232  1.00  0.00    -0.293 OA
HETATM   10  C16 UNL     1      -2.545  49.610 -19.319  1.00  0.00     0.094 C 
HETATM   11  C17 UNL     1      -2.365  49.193 -20.778  1.00  0.00    -0.015 C 
HETATM   12  C18 UNL     1      -1.183  48.153 -20.827  1.00  0.00     0.018 C 
HETATM   13  C19 UNL     1      -4.197  46.072 -18.201  1.00  0.00    -0.008 C 
HETATM   14  C20 UNL     1      -3.154  45.783 -17.084  1.00  0.00     0.021 C 
HETATM   15  C21 UNL     1      -5.519  46.566 -17.562  1.00  0.00     0.022 C 
HETATM   16  C22 UNL     1      -6.283  45.504 -16.815  1.00  0.00     0.080 C 
HETATM   17  C23 UNL     1      -6.680  44.433 -17.788  1.00  0.00     0.135 C 
HETATM   18  O3  UNL     1      -7.854  44.068 -17.848  1.00  0.00    -0.297 OA
HETATM   19  C24 UNL     1      -5.555  43.722 -18.546  1.00  0.00     0.018 C 
HETATM   20  C25 UNL     1      -6.200  42.925 -19.702  1.00  0.00     0.023 C 
HETATM   21  C26 UNL     1      -5.010  42.658 -17.558  1.00  0.00     0.023 C 
HETATM   22  C27 UNL     1      -4.374  44.691 -19.003  1.00  0.00     0.016 C 
HETATM   23  C28 UNL     1      -4.181  44.863 -20.531  1.00  0.00     0.043 C 
HETATM   24  C29 UNL     1      -4.735  46.160 -21.086  1.00  0.00     0.149 C 
HETATM   25  C30 UNL     1      -3.320  48.312 -22.784  1.00  0.00     0.132 C 
HETATM   26  C31 UNL     1      -2.447  49.535 -23.174  1.00  0.00     0.043 C 
ENDROOT
BRANCH   1  27
HETATM   27  C6  UNL     1      -0.903  51.259 -21.893  1.00  0.00    -0.006 C 
HETATM   28  C7  UNL     1      -0.426  51.615 -20.467  1.00  0.00     0.011 C 
BRANCH  27  29
HETATM   29  C5  UNL     1      -0.917  52.514 -22.794  1.00  0.00     0.040 C 
BRANCH  29  30
HETATM   30  C4  UNL     1       0.398  52.796 -23.551  1.00  0.00     0.142 C 
BRANCH  30  31
HETATM   31  C3  UNL     1       0.128  53.253 -24.961  1.00  0.00     0.018 C 
HETATM   32  C2  UNL     1       0.599  52.760 -26.129  1.00  0.00     0.010 C 
HETATM   33  C1  UNL     1       1.595  51.644 -26.268  1.00  0.00     0.055 C 
BRANCH  32  34
HETATM   34  C32 UNL     1       0.160  53.343 -27.426  1.00  0.00     0.171 C 
HETATM   35  O6  UNL     1       0.195  52.775 -28.503  1.00  0.00    -0.646 OA
BRANCH  34  36
HETATM   36  O7  UNL     1      -0.272  54.614 -27.337  1.00  0.00    -0.773 OA
HETATM   37  H46 UNL     1      -0.495  54.844 -28.263  1.00  0.00     0.167 HD
ENDBRANCH  34  36
ENDBRANCH  32  34
ENDBRANCH  30  31
BRANCH  30  38
HETATM   38  O1  UNL     1       1.170  53.769 -22.866  1.00  0.00    -0.392 OA
HETATM   39  H6  UNL     1       2.059  53.741 -23.267  1.00  0.00     0.210 HD
ENDBRANCH  30  38
ENDBRANCH  29  30
ENDBRANCH  27  29
ENDBRANCH   1  27
BRANCH  25  40
HETATM   40  O5  UNL     1      -4.455  48.198 -23.628  1.00  0.00    -0.394 OA
HETATM   41  H43 UNL     1      -4.127  48.070 -24.538  1.00  0.00     0.210 HD
ENDBRANCH  25  40
BRANCH  24  42
HETATM   42  O4  UNL     1      -6.122  46.242 -20.819  1.00  0.00    -0.391 OA
HETATM   43  H41 UNL     1      -6.487  46.915 -21.421  1.00  0.00     0.210 HD
ENDBRANCH  24  42
TORSDOF 9
ENDMDL
MODEL 8
REMARK minimizedAffinity -8.41875172
REMARK CNNscore 0.588744938
REMARK CNNaffinity 6.65972662
REMARK  9 active torsions:
REMARK  status: ('A' for Active; 'I' for Inactive)
REMARK    1  A    between atoms: C2_2  and  C32_37 
REMARK    2  A    between atoms: C3_3  and  C4_4 
REMARK    3  A    between atoms: C4_4  and  O1_5 
REMARK    4  A    between atoms: C4_4  and  C5_6 
REMARK    5  A    between atoms: C5_6  and  C6_7 
REMARK    6  A    between atoms: C6_7  and  C8_9 
REMARK    7  A    between atoms: C29_32  and  O4_33 
REMARK    8  A    between atoms: C30_34  and  O5_35 
REMARK    9  A    between atoms: C32_37  and  O7_39 
ROOT
HETATM    1  C8  UNL     1      -6.148  48.634 -22.857  1.00  0.00    -0.026 C 
HETATM    2  C9  UNL     1      -7.336  49.539 -22.350  1.00  0.00     0.011 C 
HETATM    3  C10 UNL     1      -7.688  49.389 -20.882  1.00  0.00     0.002 C 
HETATM    4  C11 UNL     1      -6.454  49.318 -20.004  1.00  0.00     0.017 C 
HETATM    5  C12 UNL     1      -5.292  48.465 -20.601  1.00  0.00     0.021 C 
HETATM    6  C13 UNL     1      -4.138  48.605 -19.608  1.00  0.00    -0.029 C 
HETATM    7  C14 UNL     1      -3.233  49.616 -19.688  1.00  0.00     0.002 C 
HETATM    8  C15 UNL     1      -3.414  50.655 -20.784  1.00  0.00     0.157 C 
HETATM    9  O2  UNL     1      -2.815  51.729 -20.749  1.00  0.00    -0.293 OA
HETATM   10  C16 UNL     1      -4.398  50.414 -21.926  1.00  0.00     0.094 C 
HETATM   11  C17 UNL     1      -4.833  48.952 -22.024  1.00  0.00    -0.015 C 
HETATM   12  C18 UNL     1      -3.586  48.122 -22.511  1.00  0.00     0.018 C 
HETATM   13  C19 UNL     1      -2.142  49.832 -18.600  1.00  0.00    -0.008 C 
HETATM   14  C20 UNL     1      -0.831  50.388 -19.226  1.00  0.00     0.021 C 
HETATM   15  C21 UNL     1      -2.755  50.893 -17.652  1.00  0.00     0.022 C 
HETATM   16  C22 UNL     1      -1.977  51.115 -16.381  1.00  0.00     0.080 C 
HETATM   17  C23 UNL     1      -1.970  49.833 -15.600  1.00  0.00     0.135 C 
HETATM   18  O3  UNL     1      -2.311  49.836 -14.418  1.00  0.00    -0.297 OA
HETATM   19  C24 UNL     1      -1.368  48.600 -16.282  1.00  0.00     0.018 C 
HETATM   20  C25 UNL     1      -1.767  47.362 -15.448  1.00  0.00     0.023 C 
HETATM   21  C26 UNL     1       0.166  48.747 -16.103  1.00  0.00     0.023 C 
HETATM   22  C27 UNL     1      -1.723  48.483 -17.833  1.00  0.00     0.016 C 
HETATM   23  C28 UNL     1      -2.593  47.270 -18.246  1.00  0.00     0.043 C 
HETATM   24  C29 UNL     1      -4.051  47.605 -18.490  1.00  0.00     0.149 C 
HETATM   25  C30 UNL     1      -5.791  47.033 -20.972  1.00  0.00     0.132 C 
HETATM   26  C31 UNL     1      -6.429  47.168 -22.381  1.00  0.00     0.043 C 
ENDROOT
BRANCH   1  27
HETATM   27  C6  UNL     1      -6.168  48.807 -24.440  1.00  0.00    -0.006 C 
HETATM   28  C7  UNL     1      -7.548  48.436 -25.028  1.00  0.00     0.011 C 
BRANCH  27  29
HETATM   29  C5  UNL     1      -5.031  48.150 -25.256  1.00  0.00     0.040 C 
BRANCH  29  30
HETATM   30  C4  UNL     1      -4.054  49.134 -25.933  1.00  0.00     0.142 C 
BRANCH  30  31
HETATM   31  C3  UNL     1      -4.027  48.934 -27.427  1.00  0.00     0.018 C 
HETATM   32  C2  UNL     1      -4.961  48.387 -28.236  1.00  0.00     0.010 C 
HETATM   33  C1  UNL     1      -6.254  47.769 -27.787  1.00  0.00     0.055 C 
BRANCH  32  34
HETATM   34  C32 UNL     1      -4.745  48.330 -29.707  1.00  0.00     0.171 C 
HETATM   35  O6  UNL     1      -4.771  47.319 -30.386  1.00  0.00    -0.646 OA
BRANCH  34  36
HETATM   36  O7  UNL     1      -4.474  49.523 -30.268  1.00  0.00    -0.773 OA
HETATM   37  H46 UNL     1      -4.339  49.305 -31.214  1.00  0.00     0.167 HD
ENDBRANCH  34  36
ENDBRANCH  32  34
ENDBRANCH  30  31
BRANCH  30  38
HETATM   38  O1  UNL     1      -4.404  50.475 -25.630  1.00  0.00    -0.392 OA
HETATM   39  H6  UNL     1      -3.643  51.022 -25.899  1.00  0.00     0.210 HD
ENDBRANCH  30  38
ENDBRANCH  29  30
ENDBRANCH  27  29
ENDBRANCH   1  27
BRANCH  25  40
HETATM   40  O5  UNL     1      -6.719  46.511 -20.033  1.00  0.00    -0.394 OA
HETATM   41  H43 UNL     1      -6.978  45.624 -20.345  1.00  0.00     0.210 HD
ENDBRANCH  25  40
BRANCH  24  42
HETATM   42  O4  UNL     1      -4.619  48.157 -17.317  1.00  0.00    -0.391 OA
HETATM   43  H41 UNL     1      -5.586  48.087 -17.410  1.00  0.00     0.210 HD
ENDBRANCH  24  42
TORSDOF 9
ENDMDL
MODEL 9
REMARK minimizedAffinity -9.10922623
REMARK CNNscore 0.583942771
REMARK CNNaffinity 6.41533661
REMARK  9 active torsions:
REMARK  status: ('A' for Active; 'I' for Inactive)
REMARK    1  A    between atoms: C2_2  and  C32_37 
REMARK    2  A    between atoms: C3_3  and  C4_4 
REMARK    3  A    between atoms: C4_4  and  O1_5 
REMARK    4  A    between atoms: C4_4  and  C5_6 
REMARK    5  A    between atoms: C5_6  and  C6_7 
REMARK    6  A    between atoms: C6_7  and  C8_9 
REMARK    7  A    between atoms: C29_32  and  O4_33 
REMARK    8  A    between atoms: C30_34  and  O5_35 
REMARK    9  A    between atoms: C32_37  and  O7_39 
ROOT
HETATM    1  C8  UNL     1       4.021  54.602  -8.916  1.00  0.00    -0.026 C 
HETATM    2  C9  UNL     1       3.962  56.069  -9.493  1.00  0.00     0.011 C 
HETATM    3  C10 UNL     1       3.257  56.215 -10.829  1.00  0.00     0.002 C 
HETATM    4  C11 UNL     1       1.981  55.400 -10.893  1.00  0.00     0.017 C 
HETATM    5  C12 UNL     1       2.092  53.987 -10.239  1.00  0.00     0.021 C 
HETATM    6  C13 UNL     1       0.688  53.388 -10.336  1.00  0.00    -0.029 C 
HETATM    7  C14 UNL     1      -0.253  53.590  -9.376  1.00  0.00     0.002 C 
HETATM    8  C15 UNL     1       0.108  54.478  -8.195  1.00  0.00     0.157 C 
HETATM    9  O2  UNL     1      -0.761  54.927  -7.447  1.00  0.00    -0.293 OA
HETATM   10  C16 UNL     1       1.557  54.887  -7.946  1.00  0.00     0.094 C 
HETATM   11  C17 UNL     1       2.549  54.034  -8.735  1.00  0.00    -0.015 C 
HETATM   12  C18 UNL     1       2.525  52.588  -8.111  1.00  0.00     0.018 C 
HETATM   13  C19 UNL     1      -1.718  53.092  -9.542  1.00  0.00    -0.008 C 
HETATM   14  C20 UNL     1      -2.322  52.671  -8.172  1.00  0.00     0.021 C 
HETATM   15  C21 UNL     1      -2.480  54.325 -10.089  1.00  0.00     0.022 C 
HETATM   16  C22 UNL     1      -3.885  54.036 -10.546  1.00  0.00     0.080 C 
HETATM   17  C23 UNL     1      -3.821  53.063 -11.687  1.00  0.00     0.135 C 
HETATM   18  O3  UNL     1      -4.412  53.313 -12.736  1.00  0.00    -0.297 OA
HETATM   19  C24 UNL     1      -3.152  51.711 -11.419  1.00  0.00     0.018 C 
HETATM   20  C25 UNL     1      -2.906  51.031 -12.785  1.00  0.00     0.023 C 
HETATM   21  C26 UNL     1      -4.237  50.854 -10.716  1.00  0.00     0.023 C 
HETATM   22  C27 UNL     1      -1.855  51.806 -10.495  1.00  0.00     0.016 C 
HETATM   23  C28 UNL     1      -0.512  51.412 -11.159  1.00  0.00     0.043 C 
HETATM   24  C29 UNL     1       0.351  52.591 -11.564  1.00  0.00     0.149 C 
HETATM   25  C30 UNL     1       3.290  53.190 -10.844  1.00  0.00     0.132 C 
HETATM   26  C31 UNL     1       4.542  53.663 -10.058  1.00  0.00     0.043 C 
ENDROOT
BRANCH   1  27
HETATM   27  C6  UNL     1       5.011  54.707  -7.673  1.00  0.00    -0.006 C 
HETATM   28  C7  UNL     1       5.829  56.016  -7.715  1.00  0.00     0.011 C 
BRANCH  27  29
HETATM   29  C5  UNL     1       5.927  53.499  -7.373  1.00  0.00     0.040 C 
BRANCH  29  30
HETATM   30  C4  UNL     1       7.149  53.353  -8.304  1.00  0.00     0.142 C 
BRANCH  30  31
HETATM   31  C3  UNL     1       6.993  52.171  -9.226  1.00  0.00     0.018 C 
HETATM   32  C2  UNL     1       7.273  50.867  -9.006  1.00  0.00     0.010 C 
HETATM   33  C1  UNL     1       7.896  50.305  -7.761  1.00  0.00     0.055 C 
BRANCH  32  34
HETATM   34  C32 UNL     1       6.995  49.848 -10.055  1.00  0.00     0.171 C 
HETATM   35  O6  UNL     1       6.094  49.030 -10.022  1.00  0.00    -0.646 OA
BRANCH  34  36
HETATM   36  O7  UNL     1       7.865  49.867 -11.082  1.00  0.00    -0.773 OA
HETATM   37  H46 UNL     1       7.556  49.135 -11.656  1.00  0.00     0.167 HD
ENDBRANCH  34  36
ENDBRANCH  32  34
ENDBRANCH  30  31
BRANCH  30  38
HETATM   38  O1  UNL     1       7.345  54.536  -9.061  1.00  0.00    -0.392 OA
HETATM   39  H6  UNL     1       8.235  54.461  -9.455  1.00  0.00     0.210 HD
ENDBRANCH  30  38
ENDBRANCH  29  30
ENDBRANCH  27  29
ENDBRANCH   1  27
BRANCH  25  40
HETATM   40  O5  UNL     1       3.446  53.402 -12.239  1.00  0.00    -0.394 OA
HETATM   41  H43 UNL     1       4.214  52.874 -12.527  1.00  0.00     0.210 HD
ENDBRANCH  25  40
BRANCH  24  42
HETATM   42  O4  UNL     1      -0.354  53.409 -12.479  1.00  0.00    -0.391 OA
HETATM   43  H41 UNL     1       0.307  53.967 -12.927  1.00  0.00     0.210 HD
ENDBRANCH  24  42
TORSDOF 9
ENDMDL
