MODEL 1
REMARK minimizedAffinity -6.65588236
REMARK CNNscore 0.656796694
REMARK CNNaffinity 5.34769106
REMARK  12 active torsions:
REMARK  status: ('A' for Active; 'I' for Inactive)
REMARK    1  A    between atoms: C2_2  and  O1_3 
REMARK    2  A    between atoms: C2_2  and  C3_4 
REMARK    3  A    between atoms: C4_5  and  C5_6 
REMARK    4  A    between atoms: C5_6  and  O2_7 
REMARK    5  A    between atoms: C8_10  and  O3_11 
REMARK    6  A    between atoms: O3_11  and  C9_12 
REMARK    7  A    between atoms: C10_14  and  C11_15 
REMARK    8  A    between atoms: C11_15  and  O5_16 
REMARK    9  A    between atoms: C12_17  and  O6_18 
REMARK   10  A    between atoms: C13_19  and  O7_20 
REMARK   11  A    between atoms: C14_21  and  O8_22 
REMARK   12  A    between atoms: C15_23  and  O9_24 
ROOT
HETATM    1  C5  UNL     1      -6.001   6.668  15.113  1.00  0.00     0.088 C 
HETATM    2  C6  UNL     1      -4.899   7.747  14.769  1.00  0.00     0.052 C 
HETATM    3  C7  UNL     1      -4.316   8.377  16.052  1.00  0.00     0.016 C 
HETATM    4  C8  UNL     1      -3.793   7.205  13.819  1.00  0.00     0.160 C 
HETATM    5  C15 UNL     1      -3.606   5.697  13.996  1.00  0.00     0.148 C 
HETATM    6  C16 UNL     1      -4.869   4.927  13.594  1.00  0.00     0.046 C 
HETATM    7  C17 UNL     1      -6.217   5.633  13.943  1.00  0.00    -0.010 C 
HETATM    8  C18 UNL     1      -6.788   6.320  12.676  1.00  0.00     0.018 C 
HETATM    9  C19 UNL     1      -7.239   4.522  14.313  1.00  0.00     0.018 C 
ENDROOT
BRANCH   4  10
HETATM   10  O3  UNL     1      -2.516   7.845  13.993  1.00  0.00    -0.350 OA
BRANCH  10  11
HETATM   11  C9  UNL     1      -2.409   9.101  13.317  1.00  0.00     0.292 C 
HETATM   12  O4  UNL     1      -1.921   8.935  11.988  1.00  0.00    -0.348 OA
HETATM   13  C10 UNL     1      -0.499   8.896  11.838  1.00  0.00     0.179 C 
HETATM   14  C12 UNL     1       0.284   8.613  13.131  1.00  0.00     0.180 C 
HETATM   15  C13 UNL     1      -0.086   9.631  14.220  1.00  0.00     0.183 C 
HETATM   16  C14 UNL     1      -1.555  10.075  14.153  1.00  0.00     0.204 C 
BRANCH  13  17
HETATM   17  C11 UNL     1      -0.191   7.853  10.755  1.00  0.00     0.198 C 
BRANCH  17  18
HETATM   18  O5  UNL     1       0.984   8.174  10.020  1.00  0.00    -0.398 OA
HETATM   19  H18 UNL     1       0.764   8.933   9.449  1.00  0.00     0.209 HD
ENDBRANCH  17  18
ENDBRANCH  13  17
BRANCH  14  20
HETATM   20  O6  UNL     1       1.700   8.685  12.906  1.00  0.00    -0.390 OA
HETATM   21  H20 UNL     1       1.905   8.049  12.189  1.00  0.00     0.210 HD
ENDBRANCH  14  20
BRANCH  15  22
HETATM   22  O7  UNL     1       0.187   9.043  15.504  1.00  0.00    -0.390 OA
HETATM   23  H22 UNL     1       0.335   9.777  16.122  1.00  0.00     0.210 HD
ENDBRANCH  15  22
BRANCH  16  24
HETATM   24  O8  UNL     1      -1.604  11.401  13.598  1.00  0.00    -0.388 OA
HETATM   25  H24 UNL     1      -2.537  11.665  13.542  1.00  0.00     0.210 HD
ENDBRANCH  16  24
ENDBRANCH  10  11
ENDBRANCH   4  10
BRANCH   5  26
HETATM   26  O9  UNL     1      -2.526   5.230  13.184  1.00  0.00    -0.393 OA
HETATM   27  H26 UNL     1      -1.757   5.779  13.441  1.00  0.00     0.210 HD
ENDBRANCH   5  26
BRANCH   1  28
HETATM   28  C4  UNL     1      -7.314   7.271  15.595  1.00  0.00     0.010 C 
HETATM   29  C3  UNL     1      -7.899   8.420  15.213  1.00  0.00     0.003 C 
BRANCH  29  30
HETATM   30  C2  UNL     1      -9.179   9.014  15.730  1.00  0.00     0.136 C 
HETATM   31  C1  UNL     1     -10.254   9.319  14.692  1.00  0.00     0.043 C 
BRANCH  30  32
HETATM   32  O1  UNL     1      -9.695   8.078  16.674  1.00  0.00    -0.392 OA
HETATM   33  H5  UNL     1     -10.545   8.427  16.994  1.00  0.00     0.210 HD
ENDBRANCH  30  32
ENDBRANCH  29  30
ENDBRANCH   1  28
BRANCH   1  34
HETATM   34  O2  UNL     1      -5.534   5.967  16.285  1.00  0.00    -0.385 OA
HETATM   35  H8  UNL     1      -5.380   5.027  16.084  1.00  0.00     0.211 HD
ENDBRANCH   1  34
TORSDOF 12
ENDMDL
MODEL 2
REMARK minimizedAffinity -7.85818434
REMARK CNNscore 0.580682278
REMARK CNNaffinity 5.11720324
REMARK  12 active torsions:
REMARK  status: ('A' for Active; 'I' for Inactive)
REMARK    1  A    between atoms: C2_2  and  O1_3 
REMARK    2  A    between atoms: C2_2  and  C3_4 
REMARK    3  A    between atoms: C4_5  and  C5_6 
REMARK    4  A    between atoms: C5_6  and  O2_7 
REMARK    5  A    between atoms: C8_10  and  O3_11 
REMARK    6  A    between atoms: O3_11  and  C9_12 
REMARK    7  A    between atoms: C10_14  and  C11_15 
REMARK    8  A    between atoms: C11_15  and  O5_16 
REMARK    9  A    between atoms: C12_17  and  O6_18 
REMARK   10  A    between atoms: C13_19  and  O7_20 
REMARK   11  A    between atoms: C14_21  and  O8_22 
REMARK   12  A    between atoms: C15_23  and  O9_24 
ROOT
HETATM    1  C5  UNL     1      -7.041   5.706  14.054  1.00  0.00     0.088 C 
HETATM    2  C6  UNL     1      -8.274   6.436  13.389  1.00  0.00     0.052 C 
HETATM    3  C7  UNL     1      -9.210   5.425  12.691  1.00  0.00     0.016 C 
HETATM    4  C8  UNL     1      -9.036   7.365  14.377  1.00  0.00     0.160 C 
HETATM    5  C15 UNL     1      -8.908   6.860  15.816  1.00  0.00     0.148 C 
HETATM    6  C16 UNL     1      -7.452   6.901  16.294  1.00  0.00     0.046 C 
HETATM    7  C17 UNL     1      -6.386   6.558  15.208  1.00  0.00    -0.010 C 
HETATM    8  C18 UNL     1      -5.761   7.868  14.661  1.00  0.00     0.018 C 
HETATM    9  C19 UNL     1      -5.226   5.806  15.917  1.00  0.00     0.018 C 
ENDROOT
BRANCH   4  10
HETATM   10  O3  UNL     1     -10.434   7.514  14.071  1.00  0.00    -0.350 OA
BRANCH  10  11
HETATM   11  C9  UNL     1     -11.055   8.608  14.753  1.00  0.00     0.292 C 
HETATM   12  O4  UNL     1     -12.293   8.218  15.339  1.00  0.00    -0.348 OA
HETATM   13  C10 UNL     1     -13.442   8.283  14.490  1.00  0.00     0.179 C 
HETATM   14  C12 UNL     1     -13.135   8.347  12.985  1.00  0.00     0.180 C 
HETATM   15  C13 UNL     1     -12.204   9.528  12.674  1.00  0.00     0.183 C 
HETATM   16  C14 UNL     1     -11.194   9.809  13.796  1.00  0.00     0.204 C 
BRANCH  13  17
HETATM   17  C11 UNL     1     -14.322   7.073  14.833  1.00  0.00     0.198 C 
BRANCH  17  18
HETATM   18  O5  UNL     1     -13.935   5.907  14.114  1.00  0.00    -0.398 OA
HETATM   19  H18 UNL     1     -14.205   6.042  13.188  1.00  0.00     0.209 HD
ENDBRANCH  17  18
ENDBRANCH  13  17
BRANCH  14  20
HETATM   20  O6  UNL     1     -14.338   8.504  12.216  1.00  0.00    -0.390 OA
HETATM   21  H20 UNL     1     -14.925   7.756  12.454  1.00  0.00     0.210 HD
ENDBRANCH  14  20
BRANCH  15  22
HETATM   22  O7  UNL     1     -11.505   9.245  11.448  1.00  0.00    -0.390 OA
HETATM   23  H22 UNL     1     -11.252  10.102  11.066  1.00  0.00     0.210 HD
ENDBRANCH  15  22
BRANCH  16  24
HETATM   24  O8  UNL     1     -11.623  10.982  14.510  1.00  0.00    -0.388 OA
HETATM   25  H24 UNL     1     -10.990  11.140  15.229  1.00  0.00     0.210 HD
ENDBRANCH  16  24
ENDBRANCH  10  11
ENDBRANCH   4  10
BRANCH   5  26
HETATM   26  O9  UNL     1      -9.687   7.670  16.700  1.00  0.00    -0.393 OA
HETATM   27  H26 UNL     1     -10.593   7.652  16.331  1.00  0.00     0.210 HD
ENDBRANCH   5  26
BRANCH   1  28
HETATM   28  C4  UNL     1      -6.009   5.215  13.046  1.00  0.00     0.010 C 
HETATM   29  C3  UNL     1      -5.809   3.965  12.593  1.00  0.00     0.003 C 
BRANCH  29  30
HETATM   30  C2  UNL     1      -4.759   3.497  11.624  1.00  0.00     0.136 C 
HETATM   31  C1  UNL     1      -3.407   3.118  12.218  1.00  0.00     0.043 C 
BRANCH  30  32
HETATM   32  O1  UNL     1      -5.312   2.361  10.963  1.00  0.00    -0.392 OA
HETATM   33  H5  UNL     1      -4.633   2.019  10.357  1.00  0.00     0.210 HD
ENDBRANCH  30  32
ENDBRANCH  29  30
ENDBRANCH   1  28
BRANCH   1  34
HETATM   34  O2  UNL     1      -7.546   4.471  14.605  1.00  0.00    -0.385 OA
HETATM   35  H8  UNL     1      -7.443   4.462  15.573  1.00  0.00     0.211 HD
ENDBRANCH   1  34
TORSDOF 12
ENDMDL
MODEL 3
REMARK minimizedAffinity -7.6465559
REMARK CNNscore 0.57893455
REMARK CNNaffinity 5.22879744
REMARK  12 active torsions:
REMARK  status: ('A' for Active; 'I' for Inactive)
REMARK    1  A    between atoms: C2_2  and  O1_3 
REMARK    2  A    between atoms: C2_2  and  C3_4 
REMARK    3  A    between atoms: C4_5  and  C5_6 
REMARK    4  A    between atoms: C5_6  and  O2_7 
REMARK    5  A    between atoms: C8_10  and  O3_11 
REMARK    6  A    between atoms: O3_11  and  C9_12 
REMARK    7  A    between atoms: C10_14  and  C11_15 
REMARK    8  A    between atoms: C11_15  and  O5_16 
REMARK    9  A    between atoms: C12_17  and  O6_18 
REMARK   10  A    between atoms: C13_19  and  O7_20 
REMARK   11  A    between atoms: C14_21  and  O8_22 
REMARK   12  A    between atoms: C15_23  and  O9_24 
ROOT
HETATM    1  C5  UNL     1      -6.739   5.591  13.953  1.00  0.00     0.088 C 
HETATM    2  C6  UNL     1      -8.148   6.017  13.376  1.00  0.00     0.052 C 
HETATM    3  C7  UNL     1      -8.962   4.785  12.926  1.00  0.00     0.016 C 
HETATM    4  C8  UNL     1      -8.948   6.935  14.345  1.00  0.00     0.160 C 
HETATM    5  C15 UNL     1      -8.577   6.653  15.803  1.00  0.00     0.148 C 
HETATM    6  C16 UNL     1      -7.107   6.992  16.079  1.00  0.00     0.046 C 
HETATM    7  C17 UNL     1      -6.123   6.684  14.907  1.00  0.00    -0.010 C 
HETATM    8  C18 UNL     1      -5.803   7.992  14.140  1.00  0.00     0.018 C 
HETATM    9  C19 UNL     1      -4.778   6.230  15.539  1.00  0.00     0.018 C 
ENDROOT
BRANCH   4  10
HETATM   10  O3  UNL     1     -10.376   6.814  14.209  1.00  0.00    -0.350 OA
BRANCH  10  11
HETATM   11  C9  UNL     1     -10.954   7.802  13.351  1.00  0.00     0.292 C 
HETATM   12  O4  UNL     1     -10.501   9.110  13.688  1.00  0.00    -0.348 OA
HETATM   13  C10 UNL     1     -11.229   9.785  14.717  1.00  0.00     0.179 C 
HETATM   14  C12 UNL     1     -12.104   8.878  15.597  1.00  0.00     0.180 C 
HETATM   15  C13 UNL     1     -13.079   8.065  14.732  1.00  0.00     0.183 C 
HETATM   16  C14 UNL     1     -12.491   7.676  13.368  1.00  0.00     0.204 C 
BRANCH  13  17
HETATM   17  C11 UNL     1     -10.204  10.562  15.557  1.00  0.00     0.198 C 
BRANCH  17  18
HETATM   18  O5  UNL     1      -8.866  10.189  15.248  1.00  0.00    -0.398 OA
HETATM   19  H18 UNL     1      -8.727   9.297  15.615  1.00  0.00     0.209 HD
ENDBRANCH  17  18
ENDBRANCH  13  17
BRANCH  14  20
HETATM   20  O6  UNL     1     -12.868   9.647  16.539  1.00  0.00    -0.390 OA
HETATM   21  H20 UNL     1     -12.226  10.177  17.057  1.00  0.00     0.210 HD
ENDBRANCH  14  20
BRANCH  15  22
HETATM   22  O7  UNL     1     -13.452   6.880  15.458  1.00  0.00    -0.390 OA
HETATM   23  H22 UNL     1     -14.317   6.602  15.115  1.00  0.00     0.210 HD
ENDBRANCH  15  22
BRANCH  16  24
HETATM   24  O8  UNL     1     -13.082   8.517  12.361  1.00  0.00    -0.388 OA
HETATM   25  H24 UNL     1     -12.689   8.277  11.506  1.00  0.00     0.210 HD
ENDBRANCH  16  24
ENDBRANCH  10  11
ENDBRANCH   4  10
BRANCH   5  26
HETATM   26  O9  UNL     1      -9.385   7.437  16.684  1.00  0.00    -0.393 OA
HETATM   27  H26 UNL     1     -10.308   7.224  16.440  1.00  0.00     0.210 HD
ENDBRANCH   5  26
BRANCH   1  28
HETATM   28  C4  UNL     1      -5.754   5.143  12.881  1.00  0.00     0.010 C 
HETATM   29  C3  UNL     1      -5.454   3.893  12.488  1.00  0.00     0.003 C 
BRANCH  29  30
HETATM   30  C2  UNL     1      -4.450   3.472  11.452  1.00  0.00     0.136 C 
HETATM   31  C1  UNL     1      -2.995   3.399  11.904  1.00  0.00     0.043 C 
BRANCH  30  32
HETATM   32  O1  UNL     1      -4.863   2.183  11.003  1.00  0.00    -0.392 OA
HETATM   33  H5  UNL     1      -4.204   1.875  10.357  1.00  0.00     0.210 HD
ENDBRANCH  30  32
ENDBRANCH  29  30
ENDBRANCH   1  28
BRANCH   1  34
HETATM   34  O2  UNL     1      -6.955   4.375  14.701  1.00  0.00    -0.385 OA
HETATM   35  H8  UNL     1      -6.748   4.512  15.642  1.00  0.00     0.211 HD
ENDBRANCH   1  34
TORSDOF 12
ENDMDL
MODEL 4
REMARK minimizedAffinity -8.30370426
REMARK CNNscore 0.534172058
REMARK CNNaffinity 5.22071409
REMARK  12 active torsions:
REMARK  status: ('A' for Active; 'I' for Inactive)
REMARK    1  A    between atoms: C2_2  and  O1_3 
REMARK    2  A    between atoms: C2_2  and  C3_4 
REMARK    3  A    between atoms: C4_5  and  C5_6 
REMARK    4  A    between atoms: C5_6  and  O2_7 
REMARK    5  A    between atoms: C8_10  and  O3_11 
REMARK    6  A    between atoms: O3_11  and  C9_12 
REMARK    7  A    between atoms: C10_14  and  C11_15 
REMARK    8  A    between atoms: C11_15  and  O5_16 
REMARK    9  A    between atoms: C12_17  and  O6_18 
REMARK   10  A    between atoms: C13_19  and  O7_20 
REMARK   11  A    between atoms: C14_21  and  O8_22 
REMARK   12  A    between atoms: C15_23  and  O9_24 
ROOT
HETATM    1  C5  UNL     1      -5.998   6.049  13.834  1.00  0.00     0.088 C 
HETATM    2  C6  UNL     1      -4.502   5.753  14.247  1.00  0.00     0.052 C 
HETATM    3  C7  UNL     1      -3.565   5.797  13.021  1.00  0.00     0.016 C 
HETATM    4  C8  UNL     1      -4.002   6.660  15.409  1.00  0.00     0.160 C 
HETATM    5  C15 UNL     1      -4.725   8.008  15.404  1.00  0.00     0.148 C 
HETATM    6  C16 UNL     1      -6.226   7.837  15.669  1.00  0.00     0.046 C 
HETATM    7  C17 UNL     1      -6.870   6.559  15.045  1.00  0.00    -0.010 C 
HETATM    8  C18 UNL     1      -7.020   5.468  16.135  1.00  0.00     0.018 C 
HETATM    9  C19 UNL     1      -8.317   6.930  14.620  1.00  0.00     0.018 C 
ENDROOT
BRANCH   4  10
HETATM   10  O3  UNL     1      -2.584   6.905  15.382  1.00  0.00    -0.350 OA
BRANCH  10  11
HETATM   11  C9  UNL     1      -2.246   8.295  15.367  1.00  0.00     0.292 C 
HETATM   12  O4  UNL     1      -2.031   8.762  14.038  1.00  0.00    -0.348 OA
HETATM   13  C10 UNL     1      -0.714   8.583  13.511  1.00  0.00     0.179 C 
HETATM   14  C12 UNL     1       0.151   7.555  14.258  1.00  0.00     0.180 C 
HETATM   15  C13 UNL     1       0.244   7.910  15.750  1.00  0.00     0.183 C 
HETATM   16  C14 UNL     1      -1.041   8.550  16.296  1.00  0.00     0.204 C 
BRANCH  13  17
HETATM   17  C11 UNL     1      -0.871   8.213  12.028  1.00  0.00     0.198 C 
BRANCH  17  18
HETATM   18  O5  UNL     1      -1.624   9.184  11.310  1.00  0.00    -0.398 OA
HETATM   19  H18 UNL     1      -2.551   9.091  11.595  1.00  0.00     0.209 HD
ENDBRANCH  17  18
ENDBRANCH  13  17
BRANCH  14  20
HETATM   20  O6  UNL     1       1.482   7.508  13.721  1.00  0.00    -0.390 OA
HETATM   21  H20 UNL     1       1.394   7.309  12.765  1.00  0.00     0.210 HD
ENDBRANCH  14  20
BRANCH  15  22
HETATM   22  O7  UNL     1       0.541   6.710  16.485  1.00  0.00    -0.390 OA
HETATM   23  H22 UNL     1       0.976   6.986  17.308  1.00  0.00     0.210 HD
ENDBRANCH  15  22
BRANCH  16  24
HETATM   24  O8  UNL     1      -0.812   9.961  16.457  1.00  0.00    -0.388 OA
HETATM   25  H24 UNL     1      -1.636  10.359  16.784  1.00  0.00     0.210 HD
ENDBRANCH  16  24
ENDBRANCH  10  11
ENDBRANCH   4  10
BRANCH   5  26
HETATM   26  O9  UNL     1      -4.192   8.864  16.418  1.00  0.00    -0.393 OA
HETATM   27  H26 UNL     1      -3.231   8.905  16.237  1.00  0.00     0.210 HD
ENDBRANCH   5  26
BRANCH   1  28
HETATM   28  C4  UNL     1      -6.664   4.896  13.094  1.00  0.00     0.010 C 
HETATM   29  C3  UNL     1      -6.139   3.706  12.750  1.00  0.00     0.003 C 
BRANCH  29  30
HETATM   30  C2  UNL     1      -6.805   2.595  11.987  1.00  0.00     0.136 C 
HETATM   31  C1  UNL     1      -5.912   1.436  11.557  1.00  0.00     0.043 C 
BRANCH  30  32
HETATM   32  O1  UNL     1      -7.837   2.097  12.836  1.00  0.00    -0.392 OA
HETATM   33  H5  UNL     1      -8.257   1.351  12.375  1.00  0.00     0.210 HD
ENDBRANCH  30  32
ENDBRANCH  29  30
ENDBRANCH   1  28
BRANCH   1  34
HETATM   34  O2  UNL     1      -5.946   7.076  12.821  1.00  0.00    -0.385 OA
HETATM   35  H8  UNL     1      -6.391   7.884  13.131  1.00  0.00     0.211 HD
ENDBRANCH   1  34
TORSDOF 12
ENDMDL
MODEL 5
REMARK minimizedAffinity -7.92909193
REMARK CNNscore 0.491986185
REMARK CNNaffinity 5.59963179
REMARK  12 active torsions:
REMARK  status: ('A' for Active; 'I' for Inactive)
REMARK    1  A    between atoms: C2_2  and  O1_3 
REMARK    2  A    between atoms: C2_2  and  C3_4 
REMARK    3  A    between atoms: C4_5  and  C5_6 
REMARK    4  A    between atoms: C5_6  and  O2_7 
REMARK    5  A    between atoms: C8_10  and  O3_11 
REMARK    6  A    between atoms: O3_11  and  C9_12 
REMARK    7  A    between atoms: C10_14  and  C11_15 
REMARK    8  A    between atoms: C11_15  and  O5_16 
REMARK    9  A    between atoms: C12_17  and  O6_18 
REMARK   10  A    between atoms: C13_19  and  O7_20 
REMARK   11  A    between atoms: C14_21  and  O8_22 
REMARK   12  A    between atoms: C15_23  and  O9_24 
ROOT
HETATM    1  C5  UNL     1      -6.129   5.954  13.703  1.00  0.00     0.088 C 
HETATM    2  C6  UNL     1      -4.616   5.716  14.092  1.00  0.00     0.052 C 
HETATM    3  C7  UNL     1      -3.697   5.833  12.856  1.00  0.00     0.016 C 
HETATM    4  C8  UNL     1      -4.142   6.616  15.269  1.00  0.00     0.160 C 
HETATM    5  C15 UNL     1      -4.925   7.931  15.307  1.00  0.00     0.148 C 
HETATM    6  C16 UNL     1      -6.413   7.685  15.585  1.00  0.00     0.046 C 
HETATM    7  C17 UNL     1      -7.006   6.395  14.937  1.00  0.00    -0.010 C 
HETATM    8  C18 UNL     1      -7.093   5.272  16.001  1.00  0.00     0.018 C 
HETATM    9  C19 UNL     1      -8.475   6.710  14.539  1.00  0.00     0.018 C 
ENDROOT
BRANCH   4  10
HETATM   10  O3  UNL     1      -2.737   6.926  15.232  1.00  0.00    -0.350 OA
BRANCH  10  11
HETATM   11  C9  UNL     1      -2.355   7.709  14.097  1.00  0.00     0.292 C 
HETATM   12  O4  UNL     1      -1.221   7.149  13.439  1.00  0.00    -0.348 OA
HETATM   13  C10 UNL     1       0.058   7.531  13.952  1.00  0.00     0.179 C 
HETATM   14  C12 UNL     1       0.039   8.129  15.368  1.00  0.00     0.180 C 
HETATM   15  C13 UNL     1      -0.915   9.331  15.433  1.00  0.00     0.183 C 
HETATM   16  C14 UNL     1      -2.140   9.176  14.521  1.00  0.00     0.204 C 
BRANCH  13  17
HETATM   17  C11 UNL     1       0.959   6.289  13.879  1.00  0.00     0.198 C 
BRANCH  17  18
HETATM   18  O5  UNL     1       0.249   5.093  14.184  1.00  0.00    -0.398 OA
HETATM   19  H18 UNL     1       0.072   5.104  15.142  1.00  0.00     0.209 HD
ENDBRANCH  17  18
ENDBRANCH  13  17
BRANCH  14  20
HETATM   20  O6  UNL     1       1.348   8.567  15.764  1.00  0.00    -0.390 OA
HETATM   21  H20 UNL     1       1.941   7.791  15.686  1.00  0.00     0.210 HD
ENDBRANCH  14  20
BRANCH  15  22
HETATM   22  O7  UNL     1      -1.341   9.500  16.797  1.00  0.00    -0.390 OA
HETATM   23  H22 UNL     1      -1.590  10.433  16.899  1.00  0.00     0.210 HD
ENDBRANCH  15  22
BRANCH  16  24
HETATM   24  O8  UNL     1      -1.958  10.018  13.369  1.00  0.00    -0.388 OA
HETATM   25  H24 UNL     1      -2.728   9.897  12.789  1.00  0.00     0.210 HD
ENDBRANCH  16  24
ENDBRANCH  10  11
ENDBRANCH   4  10
BRANCH   5  26
HETATM   26  O9  UNL     1      -4.418   8.784  16.335  1.00  0.00    -0.393 OA
HETATM   27  H26 UNL     1      -3.462   8.873  16.144  1.00  0.00     0.210 HD
ENDBRANCH   5  26
BRANCH   1  28
HETATM   28  C4  UNL     1      -6.751   4.790  12.943  1.00  0.00     0.010 C 
HETATM   29  C3  UNL     1      -6.257   3.555  12.750  1.00  0.00     0.003 C 
BRANCH  29  30
HETATM   30  C2  UNL     1      -6.873   2.431  11.964  1.00  0.00     0.136 C 
HETATM   31  C1  UNL     1      -5.917   1.371  11.430  1.00  0.00     0.043 C 
BRANCH  30  32
HETATM   32  O1  UNL     1      -7.815   1.811  12.837  1.00  0.00    -0.392 OA
HETATM   33  H5  UNL     1      -8.200   1.056  12.359  1.00  0.00     0.210 HD
ENDBRANCH  30  32
ENDBRANCH  29  30
ENDBRANCH   1  28
BRANCH   1  34
HETATM   34  O2  UNL     1      -6.136   7.007  12.716  1.00  0.00    -0.385 OA
HETATM   35  H8  UNL     1      -6.612   7.787  13.051  1.00  0.00     0.211 HD
ENDBRANCH   1  34
TORSDOF 12
ENDMDL
MODEL 6
REMARK minimizedAffinity -8.92757893
REMARK CNNscore 0.489198536
REMARK CNNaffinity 5.3446312
REMARK  12 active torsions:
REMARK  status: ('A' for Active; 'I' for Inactive)
REMARK    1  A    between atoms: C2_2  and  O1_3 
REMARK    2  A    between atoms: C2_2  and  C3_4 
REMARK    3  A    between atoms: C4_5  and  C5_6 
REMARK    4  A    between atoms: C5_6  and  O2_7 
REMARK    5  A    between atoms: C8_10  and  O3_11 
REMARK    6  A    between atoms: O3_11  and  C9_12 
REMARK    7  A    between atoms: C10_14  and  C11_15 
REMARK    8  A    between atoms: C11_15  and  O5_16 
REMARK    9  A    between atoms: C12_17  and  O6_18 
REMARK   10  A    between atoms: C13_19  and  O7_20 
REMARK   11  A    between atoms: C14_21  and  O8_22 
REMARK   12  A    between atoms: C15_23  and  O9_24 
ROOT
HETATM    1  C5  UNL     1      -3.681   4.091  12.382  1.00  0.00     0.088 C 
HETATM    2  C6  UNL     1      -2.619   5.223  12.089  1.00  0.00     0.052 C 
HETATM    3  C7  UNL     1      -2.256   5.993  13.377  1.00  0.00     0.016 C 
HETATM    4  C8  UNL     1      -1.361   4.698  11.339  1.00  0.00     0.160 C 
HETATM    5  C15 UNL     1      -1.099   3.226  11.669  1.00  0.00     0.148 C 
HETATM    6  C16 UNL     1      -2.242   2.332  11.177  1.00  0.00     0.046 C 
HETATM    7  C17 UNL     1      -3.669   2.955  11.288  1.00  0.00    -0.010 C 
HETATM    8  C18 UNL     1      -4.110   3.496   9.904  1.00  0.00     0.018 C 
HETATM    9  C19 UNL     1      -4.654   1.801  11.619  1.00  0.00     0.018 C 
ENDROOT
BRANCH   4  10
HETATM   10  O3  UNL     1      -0.165   5.446  11.619  1.00  0.00    -0.350 OA
BRANCH  10  11
HETATM   11  C9  UNL     1       0.183   6.374  10.587  1.00  0.00     0.292 C 
HETATM   12  O4  UNL     1       1.231   5.867   9.765  1.00  0.00    -0.348 OA
HETATM   13  C10 UNL     1       2.564   6.101  10.226  1.00  0.00     0.179 C 
HETATM   14  C12 UNL     1       2.682   6.474  11.713  1.00  0.00     0.180 C 
HETATM   15  C13 UNL     1       1.810   7.698  12.033  1.00  0.00     0.183 C 
HETATM   16  C14 UNL     1       0.516   7.746  11.208  1.00  0.00     0.204 C 
BRANCH  13  17
HETATM   17  C11 UNL     1       3.380   4.842   9.897  1.00  0.00     0.198 C 
BRANCH  17  18
HETATM   18  O5  UNL     1       2.689   3.649  10.250  1.00  0.00    -0.398 OA
HETATM   19  H18 UNL     1       2.697   3.592  11.222  1.00  0.00     0.209 HD
ENDBRANCH  17  18
ENDBRANCH  13  17
BRANCH  14  20
HETATM   20  O6  UNL     1       4.040   6.781  12.065  1.00  0.00    -0.390 OA
HETATM   21  H20 UNL     1       4.578   5.998  11.825  1.00  0.00     0.210 HD
ENDBRANCH  14  20
BRANCH  15  22
HETATM   22  O7  UNL     1       1.493   7.676  13.436  1.00  0.00    -0.390 OA
HETATM   23  H22 UNL     1       1.310   8.594  13.696  1.00  0.00     0.210 HD
ENDBRANCH  15  22
BRANCH  16  24
HETATM   24  O8  UNL     1       0.667   8.745  10.184  1.00  0.00    -0.388 OA
HETATM   25  H24 UNL     1      -0.148   8.754   9.655  1.00  0.00     0.210 HD
ENDBRANCH  16  24
ENDBRANCH  10  11
ENDBRANCH   4  10
BRANCH   5  26
HETATM   26  O9  UNL     1       0.109   2.784  11.045  1.00  0.00    -0.393 OA
HETATM   27  H26 UNL     1       0.797   3.409  11.350  1.00  0.00     0.210 HD
ENDBRANCH   5  26
BRANCH   1  28
HETATM   28  C4  UNL     1      -5.085   4.625  12.638  1.00  0.00     0.010 C 
HETATM   29  C3  UNL     1      -6.168   3.959  13.074  1.00  0.00     0.003 C 
BRANCH  29  30
HETATM   30  C2  UNL     1      -7.555   4.500  13.286  1.00  0.00     0.136 C 
HETATM   31  C1  UNL     1      -8.157   5.297  12.134  1.00  0.00     0.043 C 
BRANCH  30  32
HETATM   32  O1  UNL     1      -8.383   3.370  13.552  1.00  0.00    -0.392 OA
HETATM   33  H5  UNL     1      -9.293   3.695  13.656  1.00  0.00     0.210 HD
ENDBRANCH  30  32
ENDBRANCH  29  30
ENDBRANCH   1  28
BRANCH   1  34
HETATM   34  O2  UNL     1      -3.329   3.522  13.661  1.00  0.00    -0.385 OA
HETATM   35  H8  UNL     1      -3.088   2.584  13.562  1.00  0.00     0.211 HD
ENDBRANCH   1  34
TORSDOF 12
ENDMDL
MODEL 7
REMARK minimizedAffinity -7.25742674
REMARK CNNscore 0.475767791
REMARK CNNaffinity 4.77857542
REMARK  12 active torsions:
REMARK  status: ('A' for Active; 'I' for Inactive)
REMARK    1  A    between atoms: C2_2  and  O1_3 
REMARK    2  A    between atoms: C2_2  and  C3_4 
REMARK    3  A    between atoms: C4_5  and  C5_6 
REMARK    4  A    between atoms: C5_6  and  O2_7 
REMARK    5  A    between atoms: C8_10  and  O3_11 
REMARK    6  A    between atoms: O3_11  and  C9_12 
REMARK    7  A    between atoms: C10_14  and  C11_15 
REMARK    8  A    between atoms: C11_15  and  O5_16 
REMARK    9  A    between atoms: C12_17  and  O6_18 
REMARK   10  A    between atoms: C13_19  and  O7_20 
REMARK   11  A    between atoms: C14_21  and  O8_22 
REMARK   12  A    between atoms: C15_23  and  O9_24 
ROOT
HETATM    1  C5  UNL     1      -5.252 -10.959   5.279  1.00  0.00     0.088 C 
HETATM    2  C6  UNL     1      -5.932  -9.837   6.160  1.00  0.00     0.052 C 
HETATM    3  C7  UNL     1      -7.407 -10.180   6.460  1.00  0.00     0.016 C 
HETATM    4  C8  UNL     1      -5.126  -9.505   7.449  1.00  0.00     0.160 C 
HETATM    5  C15 UNL     1      -4.330 -10.721   7.928  1.00  0.00     0.148 C 
HETATM    6  C16 UNL     1      -3.265 -11.130   6.904  1.00  0.00     0.046 C 
HETATM    7  C17 UNL     1      -3.681 -10.959   5.409  1.00  0.00    -0.010 C 
HETATM    8  C18 UNL     1      -3.065  -9.654   4.844  1.00  0.00     0.018 C 
HETATM    9  C19 UNL     1      -3.019 -12.115   4.609  1.00  0.00     0.018 C 
ENDROOT
BRANCH   4  10
HETATM   10  O3  UNL     1      -5.943  -9.039   8.538  1.00  0.00    -0.350 OA
BRANCH  10  11
HETATM   11  C9  UNL     1      -5.796  -9.812   9.733  1.00  0.00     0.292 C 
HETATM   12  O4  UNL     1      -6.790 -10.828   9.820  1.00  0.00    -0.348 OA
HETATM   13  C10 UNL     1      -8.041 -10.441  10.396  1.00  0.00     0.179 C 
HETATM   14  C12 UNL     1      -8.291  -8.925  10.447  1.00  0.00     0.180 C 
HETATM   15  C13 UNL     1      -7.148  -8.214  11.186  1.00  0.00     0.183 C 
HETATM   16  C14 UNL     1      -5.782  -8.879  10.961  1.00  0.00     0.204 C 
BRANCH  13  17
HETATM   17  C11 UNL     1      -9.141 -11.166   9.607  1.00  0.00     0.198 C 
BRANCH  17  18
HETATM   18  O5  UNL     1      -9.356 -12.491  10.079  1.00  0.00    -0.398 OA
HETATM   19  H18 UNL     1      -8.587 -13.020   9.800  1.00  0.00     0.209 HD
ENDBRANCH  17  18
ENDBRANCH  13  17
BRANCH  14  20
HETATM   20  O6  UNL     1      -9.523  -8.625  11.122  1.00  0.00    -0.390 OA
HETATM   21  H20 UNL     1     -10.230  -9.112  10.650  1.00  0.00     0.210 HD
ENDBRANCH  14  20
BRANCH  15  22
HETATM   22  O7  UNL     1      -7.103  -6.845  10.744  1.00  0.00    -0.390 OA
HETATM   23  H22 UNL     1      -6.687  -6.334  11.458  1.00  0.00     0.210 HD
ENDBRANCH  15  22
BRANCH  16  24
HETATM   24  O8  UNL     1      -5.430  -9.607  12.151  1.00  0.00    -0.388 OA
HETATM   25  H24 UNL     1      -4.575 -10.040  11.992  1.00  0.00     0.210 HD
ENDBRANCH  16  24
ENDBRANCH  10  11
ENDBRANCH   4  10
BRANCH   5  26
HETATM   26  O9  UNL     1      -3.668 -10.429   9.162  1.00  0.00    -0.393 OA
HETATM   27  H26 UNL     1      -4.377 -10.130   9.766  1.00  0.00     0.210 HD
ENDBRANCH   5  26
BRANCH   1  28
HETATM   28  C4  UNL     1      -5.708 -10.950   3.825  1.00  0.00     0.010 C 
HETATM   29  C3  UNL     1      -5.991  -9.894   3.043  1.00  0.00     0.003 C 
BRANCH  29  30
HETATM   30  C2  UNL     1      -6.475  -9.910   1.619  1.00  0.00     0.136 C 
HETATM   31  C1  UNL     1      -6.914 -11.262   1.066  1.00  0.00     0.043 C 
BRANCH  30  32
HETATM   32  O1  UNL     1      -7.576  -9.006   1.567  1.00  0.00    -0.392 OA
HETATM   33  H5  UNL     1      -7.929  -9.030   0.661  1.00  0.00     0.210 HD
ENDBRANCH  30  32
ENDBRANCH  29  30
ENDBRANCH   1  28
BRANCH   1  34
HETATM   34  O2  UNL     1      -5.768 -12.220   5.757  1.00  0.00    -0.385 OA
HETATM   35  H8  UNL     1      -5.050 -12.766   6.123  1.00  0.00     0.211 HD
ENDBRANCH   1  34
TORSDOF 12
ENDMDL
MODEL 8
REMARK minimizedAffinity -7.60371399
REMARK CNNscore 0.446171731
REMARK CNNaffinity 5.01467943
REMARK  12 active torsions:
REMARK  status: ('A' for Active; 'I' for Inactive)
REMARK    1  A    between atoms: C2_2  and  O1_3 
REMARK    2  A    between atoms: C2_2  and  C3_4 
REMARK    3  A    between atoms: C4_5  and  C5_6 
REMARK    4  A    between atoms: C5_6  and  O2_7 
REMARK    5  A    between atoms: C8_10  and  O3_11 
REMARK    6  A    between atoms: O3_11  and  C9_12 
REMARK    7  A    between atoms: C10_14  and  C11_15 
REMARK    8  A    between atoms: C11_15  and  O5_16 
REMARK    9  A    between atoms: C12_17  and  O6_18 
REMARK   10  A    between atoms: C13_19  and  O7_20 
REMARK   11  A    between atoms: C14_21  and  O8_22 
REMARK   12  A    between atoms: C15_23  and  O9_24 
ROOT
HETATM    1  C5  UNL     1      -6.147   6.024  13.916  1.00  0.00     0.088 C 
HETATM    2  C6  UNL     1      -4.602   6.185  14.205  1.00  0.00     0.052 C 
HETATM    3  C7  UNL     1      -3.777   6.079  12.905  1.00  0.00     0.016 C 
HETATM    4  C8  UNL     1      -4.267   7.470  15.017  1.00  0.00     0.160 C 
HETATM    5  C15 UNL     1      -5.291   8.574  14.747  1.00  0.00     0.148 C 
HETATM    6  C16 UNL     1      -6.689   8.168  15.230  1.00  0.00     0.046 C 
HETATM    7  C17 UNL     1      -7.043   6.659  15.047  1.00  0.00    -0.010 C 
HETATM    8  C18 UNL     1      -6.863   5.916  16.396  1.00  0.00     0.018 C 
HETATM    9  C19 UNL     1      -8.559   6.575  14.722  1.00  0.00     0.018 C 
ENDROOT
BRANCH   4  10
HETATM   10  O3  UNL     1      -2.953   7.995  14.753  1.00  0.00    -0.350 OA
BRANCH  10  11
HETATM   11  C9  UNL     1      -2.041   7.826  15.842  1.00  0.00     0.292 C 
HETATM   12  O4  UNL     1      -1.889   9.032  16.583  1.00  0.00    -0.348 OA
HETATM   13  C10 UNL     1      -0.910   9.954  16.096  1.00  0.00     0.179 C 
HETATM   14  C12 UNL     1      -0.472   9.727  14.640  1.00  0.00     0.180 C 
HETATM   15  C13 UNL     1       0.041   8.292  14.448  1.00  0.00     0.183 C 
HETATM   16  C14 UNL     1      -0.701   7.268  15.320  1.00  0.00     0.204 C 
BRANCH  13  17
HETATM   17  C11 UNL     1      -1.484  11.365  16.295  1.00  0.00     0.198 C 
BRANCH  17  18
HETATM   18  O5  UNL     1      -2.690  11.561  15.565  1.00  0.00    -0.398 OA
HETATM   19  H18 UNL     1      -2.445  11.623  14.624  1.00  0.00     0.209 HD
ENDBRANCH  17  18
ENDBRANCH  13  17
BRANCH  14  20
HETATM   20  O6  UNL     1       0.576  10.635  14.265  1.00  0.00    -0.390 OA
HETATM   21  H20 UNL     1       0.234  11.540  14.424  1.00  0.00     0.210 HD
ENDBRANCH  14  20
BRANCH  15  22
HETATM   22  O7  UNL     1      -0.098   7.941  13.060  1.00  0.00    -0.390 OA
HETATM   23  H22 UNL     1       0.558   7.247  12.880  1.00  0.00     0.210 HD
ENDBRANCH  15  22
BRANCH  16  24
HETATM   24  O8  UNL     1       0.156   6.896  16.414  1.00  0.00    -0.388 OA
HETATM   25  H24 UNL     1      -0.329   6.264  16.969  1.00  0.00     0.210 HD
ENDBRANCH  16  24
ENDBRANCH  10  11
ENDBRANCH   4  10
BRANCH   5  26
HETATM   26  O9  UNL     1      -4.920   9.776  15.427  1.00  0.00    -0.393 OA
HETATM   27  H26 UNL     1      -4.010   9.969  15.125  1.00  0.00     0.210 HD
ENDBRANCH   5  26
BRANCH   1  28
HETATM   28  C4  UNL     1      -6.559   4.593  13.592  1.00  0.00     0.010 C 
HETATM   29  C3  UNL     1      -6.723   4.021  12.387  1.00  0.00     0.003 C 
BRANCH  29  30
HETATM   30  C2  UNL     1      -7.167   2.615  12.091  1.00  0.00     0.136 C 
HETATM   31  C1  UNL     1      -6.093   1.656  11.586  1.00  0.00     0.043 C 
BRANCH  30  32
HETATM   32  O1  UNL     1      -7.708   2.108  13.309  1.00  0.00    -0.392 OA
HETATM   33  H5  UNL     1      -7.967   1.185  13.149  1.00  0.00     0.210 HD
ENDBRANCH  30  32
ENDBRANCH  29  30
ENDBRANCH   1  28
BRANCH   1  34
HETATM   34  O2  UNL     1      -6.402   6.708  12.670  1.00  0.00    -0.385 OA
HETATM   35  H8  UNL     1      -7.009   7.456  12.809  1.00  0.00     0.211 HD
ENDBRANCH   1  34
TORSDOF 12
ENDMDL
MODEL 9
REMARK minimizedAffinity -6.44772863
REMARK CNNscore 0.444705486
REMARK CNNaffinity 5.34180212
REMARK  12 active torsions:
REMARK  status: ('A' for Active; 'I' for Inactive)
REMARK    1  A    between atoms: C2_2  and  O1_3 
REMARK    2  A    between atoms: C2_2  and  C3_4 
REMARK    3  A    between atoms: C4_5  and  C5_6 
REMARK    4  A    between atoms: C5_6  and  O2_7 
REMARK    5  A    between atoms: C8_10  and  O3_11 
REMARK    6  A    between atoms: O3_11  and  C9_12 
REMARK    7  A    between atoms: C10_14  and  C11_15 
REMARK    8  A    between atoms: C11_15  and  O5_16 
REMARK    9  A    between atoms: C12_17  and  O6_18 
REMARK   10  A    between atoms: C13_19  and  O7_20 
REMARK   11  A    between atoms: C14_21  and  O8_22 
REMARK   12  A    between atoms: C15_23  and  O9_24 
ROOT
HETATM    1  C5  UNL     1      -7.173   6.428  14.221  1.00  0.00     0.088 C 
HETATM    2  C6  UNL     1      -6.012   7.376  13.721  1.00  0.00     0.052 C 
HETATM    3  C7  UNL     1      -5.598   8.377  14.821  1.00  0.00     0.016 C 
HETATM    4  C8  UNL     1      -4.796   6.595  13.143  1.00  0.00     0.160 C 
HETATM    5  C15 UNL     1      -4.667   5.216  13.794  1.00  0.00     0.148 C 
HETATM    6  C16 UNL     1      -5.880   4.333  13.473  1.00  0.00     0.046 C 
HETATM    7  C17 UNL     1      -7.247   5.082  13.402  1.00  0.00    -0.010 C 
HETATM    8  C18 UNL     1      -7.622   5.340  11.920  1.00  0.00     0.018 C 
HETATM    9  C19 UNL     1      -8.334   4.115  13.946  1.00  0.00     0.018 C 
ENDROOT
BRANCH   4  10
HETATM   10  O3  UNL     1      -3.542   7.285  13.290  1.00  0.00    -0.350 OA
BRANCH  10  11
HETATM   11  C9  UNL     1      -3.369   7.888  14.576  1.00  0.00     0.292 C 
HETATM   12  O4  UNL     1      -2.746   9.165  14.471  1.00  0.00    -0.348 OA
HETATM   13  C10 UNL     1      -1.316   9.169  14.436  1.00  0.00     0.179 C 
HETATM   14  C12 UNL     1      -0.670   7.818  14.090  1.00  0.00     0.180 C 
HETATM   15  C13 UNL     1      -1.153   6.726  15.057  1.00  0.00     0.183 C 
HETATM   16  C14 UNL     1      -2.608   6.922  15.508  1.00  0.00     0.204 C 
BRANCH  13  17
HETATM   17  C11 UNL     1      -0.896  10.263  13.444  1.00  0.00     0.198 C 
BRANCH  17  18
HETATM   18  O5  UNL     1      -1.016  11.567  14.000  1.00  0.00    -0.398 OA
HETATM   19  H18 UNL     1      -1.968  11.765  14.058  1.00  0.00     0.209 HD
ENDBRANCH  17  18
ENDBRANCH  13  17
BRANCH  14  20
HETATM   20  O6  UNL     1       0.762   7.891  14.169  1.00  0.00    -0.390 OA
HETATM   21  H20 UNL     1       1.041   8.612  13.567  1.00  0.00     0.210 HD
ENDBRANCH  14  20
BRANCH  15  22
HETATM   22  O7  UNL     1      -1.012   5.449  14.408  1.00  0.00    -0.390 OA
HETATM   23  H22 UNL     1      -0.930   4.785  15.112  1.00  0.00     0.210 HD
ENDBRANCH  15  22
BRANCH  16  24
HETATM   24  O8  UNL     1      -2.603   7.417  16.858  1.00  0.00    -0.388 OA
HETATM   25  H24 UNL     1      -3.526   7.557  17.127  1.00  0.00     0.210 HD
ENDBRANCH  16  24
ENDBRANCH  10  11
ENDBRANCH   4  10
BRANCH   5  26
HETATM   26  O9  UNL     1      -3.496   4.548  13.319  1.00  0.00    -0.393 OA
HETATM   27  H26 UNL     1      -2.759   5.166  13.502  1.00  0.00     0.210 HD
ENDBRANCH   5  26
BRANCH   1  28
HETATM   28  C4  UNL     1      -8.527   7.120  14.311  1.00  0.00     0.010 C 
HETATM   29  C3  UNL     1      -9.728   6.579  14.581  1.00  0.00     0.003 C 
BRANCH  29  30
HETATM   30  C2  UNL     1     -11.059   7.277  14.629  1.00  0.00     0.136 C 
HETATM   31  C1  UNL     1     -11.071   8.747  14.221  1.00  0.00     0.043 C 
BRANCH  30  32
HETATM   32  O1  UNL     1     -11.919   6.545  13.759  1.00  0.00    -0.392 OA
HETATM   33  H5  UNL     1     -12.777   7.003  13.746  1.00  0.00     0.210 HD
ENDBRANCH  30  32
ENDBRANCH  29  30
ENDBRANCH   1  28
BRANCH   1  34
HETATM   34  O2  UNL     1      -6.887   6.126  15.603  1.00  0.00    -0.385 OA
HETATM   35  H8  UNL     1      -6.728   5.173  15.719  1.00  0.00     0.211 HD
ENDBRANCH   1  34
TORSDOF 12
ENDMDL
