MODEL 1
REMARK minimizedAffinity -8.67218018
REMARK CNNscore 0.41203019
REMARK CNNaffinity 6.24462128
REMARK  11 active torsions:
REMARK  status: ('A' for Active; 'I' for Inactive)
REMARK    1  A    between atoms: C3_3  and  O1_4 
REMARK    2  A    between atoms: N1_14  and  O2_16 
REMARK    3  A    between atoms: O2_16  and  C13_17 
REMARK    4  A    between atoms: C13_17  and  C14_18 
REMARK       I    between atoms: C14_18  and  N2_20 
REMARK    5  A    between atoms: N2_20  and  C15_21 
REMARK    6  A    between atoms: C15_21  and  C16_22 
REMARK    7  A    between atoms: C15_21  and  C17_25 
REMARK    8  A    between atoms: C16_22  and  O5_24 
REMARK    9  A    between atoms: C17_25  and  O6_26 
REMARK   10  A    between atoms: C17_25  and  C18_27 
REMARK   11  A    between atoms: C22_31  and  N3_32 
ROOT
HETATM    1  C1  UNL     1       2.020  51.248 -26.379  1.00  0.00     0.015 C 
HETATM    2  C2  UNL     1       1.202  51.794 -25.690  1.00  0.00    -0.078 C 
HETATM    3  C3  UNL     1       0.200  52.468 -24.848  1.00  0.00     0.128 C 
HETATM    4  C4  UNL     1       0.371  52.111 -23.363  1.00  0.00     0.052 C 
HETATM    5  C5  UNL     1      -1.027  52.212 -22.734  1.00  0.00     0.010 C 
HETATM    6  C6  UNL     1      -2.006  52.536 -23.876  1.00  0.00     0.002 C 
HETATM    7  C7  UNL     1      -3.429  51.961 -23.716  1.00  0.00    -0.004 C 
HETATM    8  C8  UNL     1      -4.149  52.476 -22.454  1.00  0.00     0.010 C 
HETATM    9  C9  UNL     1      -4.490  51.380 -21.451  1.00  0.00     0.035 C 
HETATM   10  C10 UNL     1      -5.215  50.206 -22.070  1.00  0.00    -0.069 C 
HETATM   11  C11 UNL     1      -6.059  49.479 -21.318  1.00  0.00     0.030 C 
HETATM   12  C12 UNL     1      -6.703  48.247 -21.842  1.00  0.00     0.032 C 
HETATM   13  N1  UNL     1      -7.696  47.747 -21.161  1.00  0.00    -0.271 N 
ATOM     14  H1  UNL     1      -8.057  48.147 -20.296  1.00  0.00     0.194 HD
HETATM   15  C24 UNL     1      -6.188  47.652 -23.140  1.00  0.00     0.060 C 
HETATM   16  C25 UNL     1      -4.881  48.288 -23.615  1.00  0.00     0.020 C 
HETATM   17  C26 UNL     1      -4.880  49.837 -23.520  1.00  0.00    -0.016 C 
HETATM   18  C27 UNL     1      -5.964  50.403 -24.469  1.00  0.00     0.020 C 
HETATM   19  C28 UNL     1      -3.461  50.415 -23.850  1.00  0.00     0.002 C 
HETATM   20  C29 UNL     1      -2.890  50.033 -25.225  1.00  0.00     0.007 C 
HETATM   21  C30 UNL     1      -1.448  50.535 -25.373  1.00  0.00     0.014 C 
HETATM   22  C31 UNL     1      -1.277  52.066 -25.166  1.00  0.00     0.003 C 
HETATM   23  C32 UNL     1      -1.816  52.809 -26.406  1.00  0.00     0.020 C 
ENDROOT
BRANCH   3  24
HETATM   24  O1  UNL     1       0.400  53.876 -24.995  1.00  0.00    -0.377 OA
HETATM   25  H2  UNL     1      -0.124  54.335 -24.319  1.00  0.00     0.211 HD
ENDBRANCH   3  24
BRANCH  13  26
HETATM   26  O2  UNL     1      -8.206  46.591 -21.770  1.00  0.00    -0.271 OA
BRANCH  26  27
HETATM   27  C13 UNL     1      -9.620  46.560 -21.599  1.00  0.00     0.303 C 
BRANCH  27  28
HETATM   28  C14 UNL     1     -10.299  46.118 -22.888  1.00  0.00     0.244 C 
HETATM   29  O3  UNL     1      -9.690  45.585 -23.812  1.00  0.00    -0.271 OA
HETATM   30  N2  UNL     1     -11.632  46.446 -22.972  1.00  0.00    -0.342 N 
HETATM   31  H16 UNL     1     -12.058  46.958 -22.204  1.00  0.00     0.163 HD
BRANCH  30  32
HETATM   32  C15 UNL     1     -12.380  46.306 -24.228  1.00  0.00     0.216 C 
BRANCH  32  33
HETATM   33  C16 UNL     1     -11.592  46.900 -25.402  1.00  0.00     0.166 C 
HETATM   34  O4  UNL     1     -11.274  48.074 -25.537  1.00  0.00    -0.648 OA
BRANCH  33  35
HETATM   35  O5  UNL     1     -11.162  45.993 -26.309  1.00  0.00    -0.775 OA
HETATM   36  H18 UNL     1     -10.726  46.535 -26.999  1.00  0.00     0.167 HD
ENDBRANCH  33  35
ENDBRANCH  32  33
BRANCH  32  37
HETATM   37  C17 UNL     1     -13.749  47.029 -24.168  1.00  0.00     0.184 C 
BRANCH  37  38
HETATM   38  O6  UNL     1     -14.121  47.312 -22.806  1.00  0.00    -0.388 OA
HETATM   39  H20 UNL     1     -15.092  47.321 -22.754  1.00  0.00     0.210 HD
ENDBRANCH  37  38
BRANCH  37  40
HETATM   40  C18 UNL     1     -14.873  46.253 -24.838  1.00  0.00    -0.025 A 
HETATM   41  C19 UNL     1     -14.600  45.118 -25.620  1.00  0.00     0.010 A 
HETATM   42  C20 UNL     1     -15.632  44.419 -26.252  1.00  0.00     0.003 A 
HETATM   43  C21 UNL     1     -16.953  44.847 -26.124  1.00  0.00     0.036 A 
HETATM   44  C22 UNL     1     -17.235  45.981 -25.352  1.00  0.00     0.103 A 
HETATM   45  C23 UNL     1     -16.205  46.680 -24.706  1.00  0.00     0.045 A 
BRANCH  44  46
HETATM   46  N3  UNL     1     -18.621  46.448 -25.225  1.00  0.00    -0.116 N 
HETATM   47  O7  UNL     1     -18.803  47.597 -24.794  1.00  0.00    -0.532 OA
HETATM   48  O8  UNL     1     -19.528  45.667 -25.546  1.00  0.00    -0.532 OA
ENDBRANCH  44  46
ENDBRANCH  37  40
ENDBRANCH  32  37
ENDBRANCH  30  32
ENDBRANCH  27  28
ENDBRANCH  26  27
ENDBRANCH  13  26
TORSDOF 11
ENDMDL
MODEL 2
REMARK minimizedAffinity -9.32512665
REMARK CNNscore 0.369745165
REMARK CNNaffinity 6.19034338
REMARK  11 active torsions:
REMARK  status: ('A' for Active; 'I' for Inactive)
REMARK    1  A    between atoms: C3_3  and  O1_4 
REMARK    2  A    between atoms: N1_14  and  O2_16 
REMARK    3  A    between atoms: O2_16  and  C13_17 
REMARK    4  A    between atoms: C13_17  and  C14_18 
REMARK       I    between atoms: C14_18  and  N2_20 
REMARK    5  A    between atoms: N2_20  and  C15_21 
REMARK    6  A    between atoms: C15_21  and  C16_22 
REMARK    7  A    between atoms: C15_21  and  C17_25 
REMARK    8  A    between atoms: C16_22  and  O5_24 
REMARK    9  A    between atoms: C17_25  and  O6_26 
REMARK   10  A    between atoms: C17_25  and  C18_27 
REMARK   11  A    between atoms: C22_31  and  N3_32 
ROOT
HETATM    1  C1  UNL     1       0.286  55.505 -25.430  1.00  0.00     0.015 C 
HETATM    2  C2  UNL     1       0.194  54.366 -25.799  1.00  0.00    -0.078 C 
HETATM    3  C3  UNL     1       0.085  52.969 -26.251  1.00  0.00     0.128 C 
HETATM    4  C4  UNL     1      -0.817  52.839 -27.489  1.00  0.00     0.052 C 
HETATM    5  C5  UNL     1      -1.438  51.436 -27.423  1.00  0.00     0.010 C 
HETATM    6  C6  UNL     1      -0.963  50.802 -26.103  1.00  0.00     0.002 C 
HETATM    7  C7  UNL     1      -1.956  49.825 -25.439  1.00  0.00    -0.004 C 
HETATM    8  C8  UNL     1      -2.297  48.614 -26.331  1.00  0.00     0.010 C 
HETATM    9  C9  UNL     1      -3.768  48.536 -26.724  1.00  0.00     0.035 C 
HETATM   10  C10 UNL     1      -4.710  48.647 -25.546  1.00  0.00    -0.069 C 
HETATM   11  C11 UNL     1      -5.913  48.051 -25.603  1.00  0.00     0.030 C 
HETATM   12  C12 UNL     1      -6.921  48.230 -24.526  1.00  0.00     0.032 C 
HETATM   13  N1  UNL     1      -7.947  47.426 -24.518  1.00  0.00    -0.271 N 
ATOM     14  H1  UNL     1      -8.100  46.686 -25.202  1.00  0.00     0.194 HD
HETATM   15  C24 UNL     1      -6.694  49.316 -23.490  1.00  0.00     0.060 C 
HETATM   16  C25 UNL     1      -5.547  50.260 -23.851  1.00  0.00     0.020 C 
HETATM   17  C26 UNL     1      -4.281  49.524 -24.363  1.00  0.00    -0.016 C 
HETATM   18  C27 UNL     1      -3.719  48.634 -23.227  1.00  0.00     0.020 C 
HETATM   19  C28 UNL     1      -3.211  50.546 -24.882  1.00  0.00     0.002 C 
HETATM   20  C29 UNL     1      -2.754  51.604 -23.865  1.00  0.00     0.007 C 
HETATM   21  C30 UNL     1      -1.823  52.627 -24.527  1.00  0.00     0.014 C 
HETATM   22  C31 UNL     1      -0.568  52.008 -25.205  1.00  0.00     0.003 C 
HETATM   23  C32 UNL     1       0.437  51.580 -24.117  1.00  0.00     0.020 C 
ENDROOT
BRANCH   3  24
HETATM   24  O1  UNL     1       1.399  52.534 -26.608  1.00  0.00    -0.377 OA
HETATM   25  H2  UNL     1       1.329  51.686 -27.075  1.00  0.00     0.211 HD
ENDBRANCH   3  24
BRANCH  13  26
HETATM   26  O2  UNL     1      -8.812  47.708 -23.450  1.00  0.00    -0.271 OA
BRANCH  26  27
HETATM   27  C13 UNL     1      -9.558  46.535 -23.136  1.00  0.00     0.303 C 
BRANCH  27  28
HETATM   28  C14 UNL     1     -11.008  46.700 -23.570  1.00  0.00     0.244 C 
HETATM   29  O3  UNL     1     -11.334  47.314 -24.584  1.00  0.00    -0.271 OA
HETATM   30  N2  UNL     1     -11.930  46.185 -22.689  1.00  0.00    -0.342 N 
HETATM   31  H16 UNL     1     -11.597  45.758 -21.829  1.00  0.00     0.163 HD
BRANCH  30  32
HETATM   32  C15 UNL     1     -13.366  46.458 -22.832  1.00  0.00     0.216 C 
BRANCH  32  33
HETATM   33  C16 UNL     1     -13.921  47.133 -21.571  1.00  0.00     0.166 C 
HETATM   34  O4  UNL     1     -14.490  48.215 -21.523  1.00  0.00    -0.648 OA
BRANCH  33  35
HETATM   35  O5  UNL     1     -13.818  46.392 -20.443  1.00  0.00    -0.775 OA
HETATM   36  H18 UNL     1     -14.170  46.978 -19.741  1.00  0.00     0.167 HD
ENDBRANCH  33  35
ENDBRANCH  32  33
BRANCH  32  37
HETATM   37  C17 UNL     1     -14.180  45.161 -23.066  1.00  0.00     0.184 C 
BRANCH  37  38
HETATM   38  O6  UNL     1     -13.318  44.080 -23.468  1.00  0.00    -0.388 OA
HETATM   39  H20 UNL     1     -13.835  43.472 -24.025  1.00  0.00     0.210 HD
ENDBRANCH  37  38
BRANCH  37  40
HETATM   40  C18 UNL     1     -15.289  45.320 -24.094  1.00  0.00    -0.025 A 
HETATM   41  C19 UNL     1     -15.047  45.090 -25.459  1.00  0.00     0.010 A 
HETATM   42  C20 UNL     1     -16.062  45.257 -26.405  1.00  0.00     0.003 A 
HETATM   43  C21 UNL     1     -17.334  45.667 -26.006  1.00  0.00     0.036 A 
HETATM   44  C22 UNL     1     -17.584  45.905 -24.649  1.00  0.00     0.103 A 
HETATM   45  C23 UNL     1     -16.573  45.728 -23.694  1.00  0.00     0.045 A 
BRANCH  44  46
HETATM   46  N3  UNL     1     -18.916  46.352 -24.222  1.00  0.00    -0.116 N 
HETATM   47  O7  UNL     1     -19.346  45.926 -23.139  1.00  0.00    -0.532 OA
HETATM   48  O8  UNL     1     -19.537  47.121 -24.971  1.00  0.00    -0.532 OA
ENDBRANCH  44  46
ENDBRANCH  37  40
ENDBRANCH  32  37
ENDBRANCH  30  32
ENDBRANCH  27  28
ENDBRANCH  26  27
ENDBRANCH  13  26
TORSDOF 11
ENDMDL
MODEL 3
REMARK minimizedAffinity -8.85279179
REMARK CNNscore 0.340600908
REMARK CNNaffinity 6.04477882
REMARK  11 active torsions:
REMARK  status: ('A' for Active; 'I' for Inactive)
REMARK    1  A    between atoms: C3_3  and  O1_4 
REMARK    2  A    between atoms: N1_14  and  O2_16 
REMARK    3  A    between atoms: O2_16  and  C13_17 
REMARK    4  A    between atoms: C13_17  and  C14_18 
REMARK       I    between atoms: C14_18  and  N2_20 
REMARK    5  A    between atoms: N2_20  and  C15_21 
REMARK    6  A    between atoms: C15_21  and  C16_22 
REMARK    7  A    between atoms: C15_21  and  C17_25 
REMARK    8  A    between atoms: C16_22  and  O5_24 
REMARK    9  A    between atoms: C17_25  and  O6_26 
REMARK   10  A    between atoms: C17_25  and  C18_27 
REMARK   11  A    between atoms: C22_31  and  N3_32 
ROOT
HETATM    1  C1  UNL     1       0.341  52.904 -20.950  1.00  0.00     0.015 C 
HETATM    2  C2  UNL     1      -0.184  51.895 -20.563  1.00  0.00    -0.078 C 
HETATM    3  C3  UNL     1      -0.826  50.659 -20.085  1.00  0.00     0.128 C 
HETATM    4  C4  UNL     1      -0.535  49.471 -21.015  1.00  0.00     0.052 C 
HETATM    5  C5  UNL     1      -1.741  48.527 -20.893  1.00  0.00     0.010 C 
HETATM    6  C6  UNL     1      -2.758  49.220 -19.969  1.00  0.00     0.002 C 
HETATM    7  C7  UNL     1      -4.241  48.926 -20.270  1.00  0.00    -0.004 C 
HETATM    8  C8  UNL     1      -4.595  47.429 -20.153  1.00  0.00     0.010 C 
HETATM    9  C9  UNL     1      -5.065  46.805 -21.462  1.00  0.00     0.035 C 
HETATM   10  C10 UNL     1      -6.166  47.589 -22.139  1.00  0.00    -0.069 C 
HETATM   11  C11 UNL     1      -7.051  46.946 -22.919  1.00  0.00     0.030 C 
HETATM   12  C12 UNL     1      -8.077  47.684 -23.701  1.00  0.00     0.032 C 
HETATM   13  N1  UNL     1      -9.053  46.994 -24.220  1.00  0.00    -0.271 N 
ATOM     14  H1  UNL     1      -9.157  45.984 -24.124  1.00  0.00     0.194 HD
HETATM   15  C24 UNL     1      -7.945  49.191 -23.836  1.00  0.00     0.060 C 
HETATM   16  C25 UNL     1      -6.603  49.723 -23.335  1.00  0.00     0.020 C 
HETATM   17  C26 UNL     1      -6.167  49.114 -21.976  1.00  0.00    -0.016 C 
HETATM   18  C27 UNL     1      -7.188  49.525 -20.887  1.00  0.00     0.020 C 
HETATM   19  C28 UNL     1      -4.711  49.562 -21.605  1.00  0.00     0.002 C 
HETATM   20  C29 UNL     1      -4.480  51.079 -21.530  1.00  0.00     0.007 C 
HETATM   21  C30 UNL     1      -2.996  51.392 -21.303  1.00  0.00     0.014 C 
HETATM   22  C31 UNL     1      -2.387  50.729 -20.036  1.00  0.00     0.003 C 
HETATM   23  C32 UNL     1      -2.886  51.476 -18.782  1.00  0.00     0.020 C 
ENDROOT
BRANCH   3  24
HETATM   24  O1  UNL     1      -0.276  50.366 -18.799  1.00  0.00    -0.377 OA
HETATM   25  H2  UNL     1      -0.547  49.469 -18.544  1.00  0.00     0.211 HD
ENDBRANCH   3  24
BRANCH  13  26
HETATM   26  O2  UNL     1      -9.944  47.816 -24.927  1.00  0.00    -0.271 OA
BRANCH  26  27
HETATM   27  C13 UNL     1     -10.916  46.999 -25.574  1.00  0.00     0.303 C 
BRANCH  27  28
HETATM   28  C14 UNL     1     -12.134  46.818 -24.678  1.00  0.00     0.244 C 
HETATM   29  O3  UNL     1     -12.073  46.877 -23.452  1.00  0.00    -0.271 OA
HETATM   30  N2  UNL     1     -13.291  46.493 -25.347  1.00  0.00    -0.342 N 
HETATM   31  H16 UNL     1     -13.257  46.382 -26.356  1.00  0.00     0.163 HD
BRANCH  30  32
HETATM   32  C15 UNL     1     -14.497  46.058 -24.630  1.00  0.00     0.216 C 
BRANCH  32  33
HETATM   33  C16 UNL     1     -15.164  44.879 -25.350  1.00  0.00     0.166 C 
HETATM   34  O4  UNL     1     -15.675  43.904 -24.817  1.00  0.00    -0.648 OA
BRANCH  33  35
HETATM   35  O5  UNL     1     -15.241  45.011 -26.694  1.00  0.00    -0.775 OA
HETATM   36  H18 UNL     1     -15.645  44.169 -26.993  1.00  0.00     0.167 HD
ENDBRANCH  33  35
ENDBRANCH  32  33
BRANCH  32  37
HETATM   37  C17 UNL     1     -15.544  47.194 -24.519  1.00  0.00     0.184 C 
BRANCH  37  38
HETATM   38  O6  UNL     1     -15.119  48.194 -23.574  1.00  0.00    -0.388 OA
HETATM   39  H20 UNL     1     -15.912  48.604 -23.189  1.00  0.00     0.210 HD
ENDBRANCH  37  38
BRANCH  37  40
HETATM   40  C18 UNL     1     -16.930  46.703 -24.131  1.00  0.00    -0.025 A 
HETATM   41  C19 UNL     1     -17.942  46.563 -25.095  1.00  0.00     0.010 A 
HETATM   42  C20 UNL     1     -19.222  46.132 -24.734  1.00  0.00     0.003 A 
HETATM   43  C21 UNL     1     -19.516  45.843 -23.401  1.00  0.00     0.036 A 
HETATM   44  C22 UNL     1     -18.516  45.985 -22.432  1.00  0.00     0.103 A 
HETATM   45  C23 UNL     1     -17.227  46.406 -22.790  1.00  0.00     0.045 A 
BRANCH  44  46
HETATM   46  N3  UNL     1     -18.821  45.698 -21.024  1.00  0.00    -0.116 N 
HETATM   47  O7  UNL     1     -19.674  44.829 -20.787  1.00  0.00    -0.532 OA
HETATM   48  O8  UNL     1     -18.217  46.345 -20.157  1.00  0.00    -0.532 OA
ENDBRANCH  44  46
ENDBRANCH  37  40
ENDBRANCH  32  37
ENDBRANCH  30  32
ENDBRANCH  27  28
ENDBRANCH  26  27
ENDBRANCH  13  26
TORSDOF 11
ENDMDL
MODEL 4
REMARK minimizedAffinity -9.03519058
REMARK CNNscore 0.327320397
REMARK CNNaffinity 6.0592823
REMARK  11 active torsions:
REMARK  status: ('A' for Active; 'I' for Inactive)
REMARK    1  A    between atoms: C3_3  and  O1_4 
REMARK    2  A    between atoms: N1_14  and  O2_16 
REMARK    3  A    between atoms: O2_16  and  C13_17 
REMARK    4  A    between atoms: C13_17  and  C14_18 
REMARK       I    between atoms: C14_18  and  N2_20 
REMARK    5  A    between atoms: N2_20  and  C15_21 
REMARK    6  A    between atoms: C15_21  and  C16_22 
REMARK    7  A    between atoms: C15_21  and  C17_25 
REMARK    8  A    between atoms: C16_22  and  O5_24 
REMARK    9  A    between atoms: C17_25  and  O6_26 
REMARK   10  A    between atoms: C17_25  and  C18_27 
REMARK   11  A    between atoms: C22_31  and  N3_32 
ROOT
HETATM    1  C1  UNL     1      -0.068  53.497 -19.579  1.00  0.00     0.015 C 
HETATM    2  C2  UNL     1      -0.164  52.753 -20.517  1.00  0.00    -0.078 C 
HETATM    3  C3  UNL     1      -0.276  51.840 -21.667  1.00  0.00     0.128 C 
HETATM    4  C4  UNL     1      -0.982  52.508 -22.857  1.00  0.00     0.052 C 
HETATM    5  C5  UNL     1      -1.680  51.379 -23.631  1.00  0.00     0.010 C 
HETATM    6  C6  UNL     1      -1.449  50.084 -22.831  1.00  0.00     0.002 C 
HETATM    7  C7  UNL     1      -2.582  49.040 -22.912  1.00  0.00    -0.004 C 
HETATM    8  C8  UNL     1      -2.846  48.546 -24.348  1.00  0.00     0.010 C 
HETATM    9  C9  UNL     1      -4.241  48.879 -24.865  1.00  0.00     0.035 C 
HETATM   10  C10 UNL     1      -5.345  48.466 -23.919  1.00  0.00    -0.069 C 
HETATM   11  C11 UNL     1      -6.556  48.152 -24.412  1.00  0.00     0.030 C 
HETATM   12  C12 UNL     1      -7.706  47.857 -23.519  1.00  0.00     0.032 C 
HETATM   13  N1  UNL     1      -8.762  47.312 -24.054  1.00  0.00    -0.271 N 
ATOM     14  H1  UNL     1      -8.849  47.077 -25.043  1.00  0.00     0.194 HD
HETATM   15  C24 UNL     1      -7.584  48.184 -22.042  1.00  0.00     0.060 C 
HETATM   16  C25 UNL     1      -6.346  49.018 -21.712  1.00  0.00     0.020 C 
HETATM   17  C26 UNL     1      -5.058  48.513 -22.413  1.00  0.00    -0.016 C 
HETATM   18  C27 UNL     1      -4.726  47.091 -21.898  1.00  0.00     0.020 C 
HETATM   19  C28 UNL     1      -3.868  49.507 -22.180  1.00  0.00     0.002 C 
HETATM   20  C29 UNL     1      -3.517  49.791 -20.711  1.00  0.00     0.007 C 
HETATM   21  C30 UNL     1      -2.442  50.880 -20.610  1.00  0.00     0.014 C 
HETATM   22  C31 UNL     1      -1.133  50.563 -21.386  1.00  0.00     0.003 C 
HETATM   23  C32 UNL     1      -0.331  49.496 -20.614  1.00  0.00     0.020 C 
ENDROOT
BRANCH   3  24
HETATM   24  O1  UNL     1       1.053  51.498 -22.069  1.00  0.00    -0.377 OA
HETATM   25  H2  UNL     1       1.010  51.047 -22.927  1.00  0.00     0.211 HD
ENDBRANCH   3  24
BRANCH  13  26
HETATM   26  O2  UNL     1      -9.765  47.089 -23.099  1.00  0.00    -0.271 OA
BRANCH  26  27
HETATM   27  C13 UNL     1     -10.573  45.993 -23.520  1.00  0.00     0.303 C 
BRANCH  27  28
HETATM   28  C14 UNL     1     -11.930  46.042 -22.832  1.00  0.00     0.244 C 
HETATM   29  O3  UNL     1     -12.288  45.206 -22.005  1.00  0.00    -0.271 OA
HETATM   30  N2  UNL     1     -12.760  47.045 -23.276  1.00  0.00    -0.342 N 
HETATM   31  H16 UNL     1     -12.432  47.656 -24.019  1.00  0.00     0.163 HD
BRANCH  30  32
HETATM   32  C15 UNL     1     -14.177  47.097 -22.893  1.00  0.00     0.216 C 
BRANCH  32  33
HETATM   33  C16 UNL     1     -14.326  47.318 -21.382  1.00  0.00     0.166 C 
HETATM   34  O4  UNL     1     -14.309  48.397 -20.806  1.00  0.00    -0.648 OA
BRANCH  33  35
HETATM   35  O5  UNL     1     -14.575  46.194 -20.671  1.00  0.00    -0.775 OA
HETATM   36  H18 UNL     1     -14.596  46.502 -19.740  1.00  0.00     0.167 HD
ENDBRANCH  33  35
ENDBRANCH  32  33
BRANCH  32  37
HETATM   37  C17 UNL     1     -14.919  45.784 -23.251  1.00  0.00     0.184 C 
BRANCH  37  38
HETATM   38  O6  UNL     1     -14.389  45.208 -24.459  1.00  0.00    -0.388 OA
HETATM   39  H20 UNL     1     -15.102  44.709 -24.894  1.00  0.00     0.210 HD
ENDBRANCH  37  38
BRANCH  37  40
HETATM   40  C18 UNL     1     -16.422  45.962 -23.403  1.00  0.00    -0.025 A 
HETATM   41  C19 UNL     1     -16.957  46.704 -24.470  1.00  0.00     0.010 A 
HETATM   42  C20 UNL     1     -18.337  46.884 -24.596  1.00  0.00     0.003 A 
HETATM   43  C21 UNL     1     -19.207  46.334 -23.654  1.00  0.00     0.036 A 
HETATM   44  C22 UNL     1     -18.683  45.599 -22.584  1.00  0.00     0.103 A 
HETATM   45  C23 UNL     1     -17.300  45.405 -22.458  1.00  0.00     0.045 A 
BRANCH  44  46
HETATM   46  N3  UNL     1     -19.591  45.030 -21.579  1.00  0.00    -0.116 N 
HETATM   47  O7  UNL     1     -20.330  44.099 -21.934  1.00  0.00    -0.532 OA
HETATM   48  O8  UNL     1     -19.573  45.519 -20.440  1.00  0.00    -0.532 OA
ENDBRANCH  44  46
ENDBRANCH  37  40
ENDBRANCH  32  37
ENDBRANCH  30  32
ENDBRANCH  27  28
ENDBRANCH  26  27
ENDBRANCH  13  26
TORSDOF 11
ENDMDL
MODEL 5
REMARK minimizedAffinity -10.1182785
REMARK CNNscore 0.287197441
REMARK CNNaffinity 6.1677146
REMARK  11 active torsions:
REMARK  status: ('A' for Active; 'I' for Inactive)
REMARK    1  A    between atoms: C3_3  and  O1_4 
REMARK    2  A    between atoms: N1_14  and  O2_16 
REMARK    3  A    between atoms: O2_16  and  C13_17 
REMARK    4  A    between atoms: C13_17  and  C14_18 
REMARK       I    between atoms: C14_18  and  N2_20 
REMARK    5  A    between atoms: N2_20  and  C15_21 
REMARK    6  A    between atoms: C15_21  and  C16_22 
REMARK    7  A    between atoms: C15_21  and  C17_25 
REMARK    8  A    between atoms: C16_22  and  O5_24 
REMARK    9  A    between atoms: C17_25  and  O6_26 
REMARK   10  A    between atoms: C17_25  and  C18_27 
REMARK   11  A    between atoms: C22_31  and  N3_32 
ROOT
HETATM    1  C1  UNL     1       0.235  55.375 -25.279  1.00  0.00     0.015 C 
HETATM    2  C2  UNL     1       0.101  54.256 -25.693  1.00  0.00    -0.078 C 
HETATM    3  C3  UNL     1      -0.059  52.883 -26.202  1.00  0.00     0.128 C 
HETATM    4  C4  UNL     1      -1.006  52.830 -27.411  1.00  0.00     0.052 C 
HETATM    5  C5  UNL     1      -1.659  51.440 -27.384  1.00  0.00     0.010 C 
HETATM    6  C6  UNL     1      -1.156  50.738 -26.110  1.00  0.00     0.002 C 
HETATM    7  C7  UNL     1      -2.150  49.756 -25.454  1.00  0.00    -0.004 C 
HETATM    8  C8  UNL     1      -2.552  48.594 -26.384  1.00  0.00     0.010 C 
HETATM    9  C9  UNL     1      -4.036  48.568 -26.728  1.00  0.00     0.035 C 
HETATM   10  C10 UNL     1      -4.934  48.651 -25.514  1.00  0.00    -0.069 C 
HETATM   11  C11 UNL     1      -6.154  48.086 -25.554  1.00  0.00     0.030 C 
HETATM   12  C12 UNL     1      -7.119  48.241 -24.435  1.00  0.00     0.032 C 
HETATM   13  N1  UNL     1      -8.164  47.462 -24.426  1.00  0.00    -0.271 N 
ATOM     14  H1  UNL     1      -8.360  46.757 -25.135  1.00  0.00     0.194 HD
HETATM   15  C24 UNL     1      -6.829  49.275 -23.362  1.00  0.00     0.060 C 
HETATM   16  C25 UNL     1      -5.672  50.207 -23.723  1.00  0.00     0.020 C 
HETATM   17  C26 UNL     1      -4.443  49.463 -24.310  1.00  0.00    -0.016 C 
HETATM   18  C27 UNL     1      -3.865  48.511 -23.235  1.00  0.00     0.020 C 
HETATM   19  C28 UNL     1      -3.366  50.482 -24.822  1.00  0.00     0.002 C 
HETATM   20  C29 UNL     1      -2.848  51.483 -23.777  1.00  0.00     0.007 C 
HETATM   21  C30 UNL     1      -1.914  52.512 -24.427  1.00  0.00     0.014 C 
HETATM   22  C31 UNL     1      -0.700  51.893 -25.176  1.00  0.00     0.003 C 
HETATM   23  C32 UNL     1       0.331  51.394 -24.143  1.00  0.00     0.020 C 
ENDROOT
BRANCH   3  24
HETATM   24  O1  UNL     1       1.231  52.434 -26.623  1.00  0.00    -0.377 OA
HETATM   25  H2  UNL     1       1.123  51.609 -27.123  1.00  0.00     0.211 HD
ENDBRANCH   3  24
BRANCH  13  26
HETATM   26  O2  UNL     1      -8.984  47.717 -23.317  1.00  0.00    -0.271 OA
BRANCH  26  27
HETATM   27  C13 UNL     1      -9.831  46.592 -23.098  1.00  0.00     0.303 C 
BRANCH  27  28
HETATM   28  C14 UNL     1     -11.076  46.691 -23.969  1.00  0.00     0.244 C 
HETATM   29  O3  UNL     1     -11.159  47.454 -24.929  1.00  0.00    -0.271 OA
HETATM   30  N2  UNL     1     -12.134  45.924 -23.540  1.00  0.00    -0.342 N 
HETATM   31  H16 UNL     1     -12.027  45.373 -22.693  1.00  0.00     0.163 HD
BRANCH  30  32
HETATM   32  C15 UNL     1     -13.476  46.073 -24.119  1.00  0.00     0.216 C 
BRANCH  32  33
HETATM   33  C16 UNL     1     -13.390  46.418 -25.612  1.00  0.00     0.166 C 
HETATM   34  O4  UNL     1     -13.686  47.490 -26.123  1.00  0.00    -0.648 OA
BRANCH  33  35
HETATM   35  O5  UNL     1     -12.861  45.443 -26.386  1.00  0.00    -0.775 OA
HETATM   36  H18 UNL     1     -12.921  45.803 -27.296  1.00  0.00     0.167 HD
ENDBRANCH  33  35
ENDBRANCH  32  33
BRANCH  32  37
HETATM   37  C17 UNL     1     -14.283  47.197 -23.423  1.00  0.00     0.184 C 
BRANCH  37  38
HETATM   38  O6  UNL     1     -13.686  47.552 -22.162  1.00  0.00    -0.388 OA
HETATM   39  H20 UNL     1     -14.391  47.872 -21.573  1.00  0.00     0.210 HD
ENDBRANCH  37  38
BRANCH  37  40
HETATM   40  C18 UNL     1     -15.745  46.842 -23.198  1.00  0.00    -0.025 A 
HETATM   41  C19 UNL     1     -16.239  46.603 -21.906  1.00  0.00     0.010 A 
HETATM   42  C20 UNL     1     -17.577  46.256 -21.703  1.00  0.00     0.003 A 
HETATM   43  C21 UNL     1     -18.444  46.131 -22.789  1.00  0.00     0.036 A 
HETATM   44  C22 UNL     1     -17.960  46.361 -24.082  1.00  0.00     0.103 A 
HETATM   45  C23 UNL     1     -16.621  46.721 -24.291  1.00  0.00     0.045 A 
BRANCH  44  46
HETATM   46  N3  UNL     1     -18.860  46.217 -25.233  1.00  0.00    -0.116 N 
HETATM   47  O7  UNL     1     -18.378  45.781 -26.289  1.00  0.00    -0.532 OA
HETATM   48  O8  UNL     1     -20.046  46.548 -25.085  1.00  0.00    -0.532 OA
ENDBRANCH  44  46
ENDBRANCH  37  40
ENDBRANCH  32  37
ENDBRANCH  30  32
ENDBRANCH  27  28
ENDBRANCH  26  27
ENDBRANCH  13  26
TORSDOF 11
ENDMDL
MODEL 6
REMARK minimizedAffinity -10.3713064
REMARK CNNscore 0.24337931
REMARK CNNaffinity 7.33864784
REMARK  11 active torsions:
REMARK  status: ('A' for Active; 'I' for Inactive)
REMARK    1  A    between atoms: C3_3  and  O1_4 
REMARK    2  A    between atoms: N1_14  and  O2_16 
REMARK    3  A    between atoms: O2_16  and  C13_17 
REMARK    4  A    between atoms: C13_17  and  C14_18 
REMARK       I    between atoms: C14_18  and  N2_20 
REMARK    5  A    between atoms: N2_20  and  C15_21 
REMARK    6  A    between atoms: C15_21  and  C16_22 
REMARK    7  A    between atoms: C15_21  and  C17_25 
REMARK    8  A    between atoms: C16_22  and  O5_24 
REMARK    9  A    between atoms: C17_25  and  O6_26 
REMARK   10  A    between atoms: C17_25  and  C18_27 
REMARK   11  A    between atoms: C22_31  and  N3_32 
ROOT
HETATM    1  C1  UNL     1       0.999  51.515 -28.500  1.00  0.00     0.015 C 
HETATM    2  C2  UNL     1       0.075  51.956 -27.871  1.00  0.00    -0.078 C 
HETATM    3  C3  UNL     1      -1.057  52.500 -27.103  1.00  0.00     0.128 C 
HETATM    4  C4  UNL     1      -0.595  53.155 -25.793  1.00  0.00     0.052 C 
HETATM    5  C5  UNL     1      -1.761  53.005 -24.804  1.00  0.00     0.010 C 
HETATM    6  C6  UNL     1      -2.849  52.185 -25.520  1.00  0.00     0.002 C 
HETATM    7  C7  UNL     1      -3.705  51.278 -24.612  1.00  0.00    -0.004 C 
HETATM    8  C8  UNL     1      -4.481  52.062 -23.535  1.00  0.00     0.010 C 
HETATM    9  C9  UNL     1      -4.080  51.706 -22.108  1.00  0.00     0.035 C 
HETATM   10  C10 UNL     1      -4.091  50.218 -21.836  1.00  0.00    -0.069 C 
HETATM   11  C11 UNL     1      -4.332  49.776 -20.590  1.00  0.00     0.030 C 
HETATM   12  C12 UNL     1      -4.237  48.335 -20.244  1.00  0.00     0.032 C 
HETATM   13  N1  UNL     1      -4.732  47.952 -19.101  1.00  0.00    -0.271 N 
ATOM     14  H1  UNL     1      -5.180  48.578 -18.432  1.00  0.00     0.194 HD
HETATM   15  C24 UNL     1      -3.590  47.389 -21.241  1.00  0.00     0.060 C 
HETATM   16  C25 UNL     1      -2.891  48.114 -22.390  1.00  0.00     0.020 C 
HETATM   17  C26 UNL     1      -3.731  49.273 -22.989  1.00  0.00    -0.016 C 
HETATM   18  C27 UNL     1      -5.023  48.693 -23.614  1.00  0.00     0.020 C 
HETATM   19  C28 UNL     1      -2.895  50.086 -24.036  1.00  0.00     0.002 C 
HETATM   20  C29 UNL     1      -2.325  49.272 -25.209  1.00  0.00     0.007 C 
HETATM   21  C30 UNL     1      -1.413  50.142 -26.082  1.00  0.00     0.014 C 
HETATM   22  C31 UNL     1      -2.093  51.423 -26.644  1.00  0.00     0.003 C 
HETATM   23  C32 UNL     1      -3.052  51.028 -27.785  1.00  0.00     0.020 C 
ENDROOT
BRANCH   3  24
HETATM   24  O1  UNL     1      -1.675  53.504 -27.912  1.00  0.00    -0.377 OA
HETATM   25  H2  UNL     1      -2.306  53.998 -27.364  1.00  0.00     0.211 HD
ENDBRANCH   3  24
BRANCH  13  26
HETATM   26  O2  UNL     1      -4.573  46.572 -18.908  1.00  0.00    -0.271 OA
BRANCH  26  27
HETATM   27  C13 UNL     1      -3.266  46.322 -18.400  1.00  0.00     0.303 C 
BRANCH  27  28
HETATM   28  C14 UNL     1      -2.939  47.299 -17.279  1.00  0.00     0.244 C 
HETATM   29  O3  UNL     1      -3.601  47.375 -16.247  1.00  0.00    -0.271 OA
HETATM   30  N2  UNL     1      -1.896  48.153 -17.553  1.00  0.00    -0.342 N 
HETATM   31  H16 UNL     1      -1.439  48.091 -18.459  1.00  0.00     0.163 HD
BRANCH  30  32
HETATM   32  C15 UNL     1      -1.598  49.304 -16.690  1.00  0.00     0.216 C 
BRANCH  32  33
HETATM   33  C16 UNL     1      -2.739  50.328 -16.732  1.00  0.00     0.166 C 
HETATM   34  O4  UNL     1      -3.031  51.044 -17.680  1.00  0.00    -0.648 OA
BRANCH  33  35
HETATM   35  O5  UNL     1      -3.516  50.351 -15.624  1.00  0.00    -0.775 OA
HETATM   36  H18 UNL     1      -4.153  51.076 -15.796  1.00  0.00     0.167 HD
ENDBRANCH  33  35
ENDBRANCH  32  33
BRANCH  32  37
HETATM   37  C17 UNL     1      -0.300  50.030 -17.124  1.00  0.00     0.184 C 
BRANCH  37  38
HETATM   38  O6  UNL     1      -0.089  51.218 -16.338  1.00  0.00    -0.388 OA
HETATM   39  H20 UNL     1       0.404  51.856 -16.882  1.00  0.00     0.210 HD
ENDBRANCH  37  38
BRANCH  37  40
HETATM   40  C18 UNL     1      -0.278  50.400 -18.599  1.00  0.00    -0.025 A 
HETATM   41  C19 UNL     1      -0.563  49.443 -19.587  1.00  0.00     0.010 A 
HETATM   42  C20 UNL     1      -0.522  49.780 -20.943  1.00  0.00     0.003 A 
HETATM   43  C21 UNL     1      -0.185  51.075 -21.336  1.00  0.00     0.036 A 
HETATM   44  C22 UNL     1       0.107  52.034 -20.359  1.00  0.00     0.103 A 
HETATM   45  C23 UNL     1       0.057  51.706 -18.997  1.00  0.00     0.045 A 
BRANCH  44  46
HETATM   46  N3  UNL     1       0.478  53.396 -20.764  1.00  0.00    -0.116 N 
HETATM   47  O7  UNL     1       1.002  53.541 -21.879  1.00  0.00    -0.532 OA
HETATM   48  O8  UNL     1       0.256  54.319 -19.966  1.00  0.00    -0.532 OA
ENDBRANCH  44  46
ENDBRANCH  37  40
ENDBRANCH  32  37
ENDBRANCH  30  32
ENDBRANCH  27  28
ENDBRANCH  26  27
ENDBRANCH  13  26
TORSDOF 11
ENDMDL
MODEL 7
REMARK minimizedAffinity -10.3214378
REMARK CNNscore 0.225724235
REMARK CNNaffinity 7.06251526
REMARK  11 active torsions:
REMARK  status: ('A' for Active; 'I' for Inactive)
REMARK    1  A    between atoms: C3_3  and  O1_4 
REMARK    2  A    between atoms: N1_14  and  O2_16 
REMARK    3  A    between atoms: O2_16  and  C13_17 
REMARK    4  A    between atoms: C13_17  and  C14_18 
REMARK       I    between atoms: C14_18  and  N2_20 
REMARK    5  A    between atoms: N2_20  and  C15_21 
REMARK    6  A    between atoms: C15_21  and  C16_22 
REMARK    7  A    between atoms: C15_21  and  C17_25 
REMARK    8  A    between atoms: C16_22  and  O5_24 
REMARK    9  A    between atoms: C17_25  and  O6_26 
REMARK   10  A    between atoms: C17_25  and  C18_27 
REMARK   11  A    between atoms: C22_31  and  N3_32 
ROOT
HETATM    1  C1  UNL     1       0.895  51.725 -28.427  1.00  0.00     0.015 C 
HETATM    2  C2  UNL     1      -0.086  52.067 -27.824  1.00  0.00    -0.078 C 
HETATM    3  C3  UNL     1      -1.289  52.489 -27.087  1.00  0.00     0.128 C 
HETATM    4  C4  UNL     1      -0.934  53.151 -25.747  1.00  0.00     0.052 C 
HETATM    5  C5  UNL     1      -2.115  52.874 -24.805  1.00  0.00     0.010 C 
HETATM    6  C6  UNL     1      -3.099  51.978 -25.578  1.00  0.00     0.002 C 
HETATM    7  C7  UNL     1      -3.900  50.976 -24.722  1.00  0.00    -0.004 C 
HETATM    8  C8  UNL     1      -4.781  51.661 -23.658  1.00  0.00     0.010 C 
HETATM    9  C9  UNL     1      -4.400  51.308 -22.225  1.00  0.00     0.035 C 
HETATM   10  C10 UNL     1      -4.287  49.820 -21.984  1.00  0.00    -0.069 C 
HETATM   11  C11 UNL     1      -4.531  49.328 -20.757  1.00  0.00     0.030 C 
HETATM   12  C12 UNL     1      -4.317  47.893 -20.438  1.00  0.00     0.032 C 
HETATM   13  N1  UNL     1      -4.816  47.441 -19.322  1.00  0.00    -0.271 N 
ATOM     14  H1  UNL     1      -5.341  48.008 -18.657  1.00  0.00     0.194 HD
HETATM   15  C24 UNL     1      -3.554  47.033 -21.430  1.00  0.00     0.060 C 
HETATM   16  C25 UNL     1      -2.884  47.845 -22.537  1.00  0.00     0.020 C 
HETATM   17  C26 UNL     1      -3.803  48.939 -23.142  1.00  0.00    -0.016 C 
HETATM   18  C27 UNL     1      -5.015  48.260 -23.826  1.00  0.00     0.020 C 
HETATM   19  C28 UNL     1      -3.007  49.848 -24.141  1.00  0.00     0.002 C 
HETATM   20  C29 UNL     1      -2.326  49.116 -25.308  1.00  0.00     0.007 C 
HETATM   21  C30 UNL     1      -1.466  50.085 -26.129  1.00  0.00     0.014 C 
HETATM   22  C31 UNL     1      -2.238  51.313 -26.689  1.00  0.00     0.003 C 
HETATM   23  C32 UNL     1      -3.117  50.862 -27.873  1.00  0.00     0.020 C 
ENDROOT
BRANCH   3  24
HETATM   24  O1  UNL     1      -1.966  53.453 -27.898  1.00  0.00    -0.377 OA
HETATM   25  H2  UNL     1      -2.658  53.875 -27.363  1.00  0.00     0.211 HD
ENDBRANCH   3  24
BRANCH  13  26
HETATM   26  O2  UNL     1      -4.540  46.076 -19.152  1.00  0.00    -0.271 OA
BRANCH  26  27
HETATM   27  C13 UNL     1      -3.722  45.908 -17.998  1.00  0.00     0.303 C 
BRANCH  27  28
HETATM   28  C14 UNL     1      -3.260  47.262 -17.476  1.00  0.00     0.244 C 
HETATM   29  O3  UNL     1      -4.013  48.046 -16.902  1.00  0.00    -0.271 OA
HETATM   30  N2  UNL     1      -1.956  47.576 -17.779  1.00  0.00    -0.342 N 
HETATM   31  H16 UNL     1      -1.409  46.917 -18.326  1.00  0.00     0.163 HD
BRANCH  30  32
HETATM   32  C15 UNL     1      -1.420  48.926 -17.559  1.00  0.00     0.216 C 
BRANCH  32  33
HETATM   33  C16 UNL     1      -2.292  49.704 -16.565  1.00  0.00     0.166 C 
HETATM   34  O4  UNL     1      -2.217  49.652 -15.345  1.00  0.00    -0.648 OA
BRANCH  33  35
HETATM   35  O5  UNL     1      -3.157  50.574 -17.136  1.00  0.00    -0.775 OA
HETATM   36  H18 UNL     1      -3.656  50.945 -16.377  1.00  0.00     0.167 HD
ENDBRANCH  33  35
ENDBRANCH  32  33
BRANCH  32  37
HETATM   37  C17 UNL     1      -1.361  49.745 -18.873  1.00  0.00     0.184 C 
BRANCH  37  38
HETATM   38  O6  UNL     1      -1.037  48.898 -19.991  1.00  0.00    -0.388 OA
HETATM   39  H20 UNL     1      -0.572  49.438 -20.654  1.00  0.00     0.210 HD
ENDBRANCH  37  38
BRANCH  37  40
HETATM   40  C18 UNL     1      -0.373  50.900 -18.822  1.00  0.00    -0.025 A 
HETATM   41  C19 UNL     1       0.277  51.242 -17.625  1.00  0.00     0.010 A 
HETATM   42  C20 UNL     1       1.169  52.316 -17.575  1.00  0.00     0.003 A 
HETATM   43  C21 UNL     1       1.419  53.076 -18.718  1.00  0.00     0.036 A 
HETATM   44  C22 UNL     1       0.771  52.748 -19.915  1.00  0.00     0.103 A 
HETATM   45  C23 UNL     1      -0.116  51.664 -19.974  1.00  0.00     0.045 A 
BRANCH  44  46
HETATM   46  N3  UNL     1       1.016  53.551 -21.119  1.00  0.00    -0.116 N 
HETATM   47  O7  UNL     1       0.508  53.164 -22.182  1.00  0.00    -0.532 OA
HETATM   48  O8  UNL     1       1.724  54.563 -21.006  1.00  0.00    -0.532 OA
ENDBRANCH  44  46
ENDBRANCH  37  40
ENDBRANCH  32  37
ENDBRANCH  30  32
ENDBRANCH  27  28
ENDBRANCH  26  27
ENDBRANCH  13  26
TORSDOF 11
ENDMDL
MODEL 8
REMARK minimizedAffinity -8.55357742
REMARK CNNscore 0.212390929
REMARK CNNaffinity 5.83620405
REMARK  11 active torsions:
REMARK  status: ('A' for Active; 'I' for Inactive)
REMARK    1  A    between atoms: C3_3  and  O1_4 
REMARK    2  A    between atoms: N1_14  and  O2_16 
REMARK    3  A    between atoms: O2_16  and  C13_17 
REMARK    4  A    between atoms: C13_17  and  C14_18 
REMARK       I    between atoms: C14_18  and  N2_20 
REMARK    5  A    between atoms: N2_20  and  C15_21 
REMARK    6  A    between atoms: C15_21  and  C16_22 
REMARK    7  A    between atoms: C15_21  and  C17_25 
REMARK    8  A    between atoms: C16_22  and  O5_24 
REMARK    9  A    between atoms: C17_25  and  O6_26 
REMARK   10  A    between atoms: C17_25  and  C18_27 
REMARK   11  A    between atoms: C22_31  and  N3_32 
ROOT
HETATM    1  C1  UNL     1       0.209  53.700 -19.809  1.00  0.00     0.015 C 
HETATM    2  C2  UNL     1       0.029  52.897 -20.683  1.00  0.00    -0.078 C 
HETATM    3  C3  UNL     1      -0.188  51.912 -21.756  1.00  0.00     0.128 C 
HETATM    4  C4  UNL     1      -0.991  52.508 -22.923  1.00  0.00     0.052 C 
HETATM    5  C5  UNL     1      -1.759  51.339 -23.557  1.00  0.00     0.010 C 
HETATM    6  C6  UNL     1      -1.467  50.097 -22.696  1.00  0.00     0.002 C 
HETATM    7  C7  UNL     1      -2.609  49.063 -22.609  1.00  0.00    -0.004 C 
HETATM    8  C8  UNL     1      -2.999  48.479 -23.982  1.00  0.00     0.010 C 
HETATM    9  C9  UNL     1      -4.432  48.793 -24.398  1.00  0.00     0.035 C 
HETATM   10  C10 UNL     1      -5.452  48.456 -23.335  1.00  0.00    -0.069 C 
HETATM   11  C11 UNL     1      -6.703  48.124 -23.701  1.00  0.00     0.030 C 
HETATM   12  C12 UNL     1      -7.773  47.901 -22.695  1.00  0.00     0.032 C 
HETATM   13  N1  UNL     1      -8.875  47.335 -23.100  1.00  0.00    -0.271 N 
ATOM     14  H1  UNL     1      -9.048  47.036 -24.060  1.00  0.00     0.194 HD
HETATM   15  C24 UNL     1      -7.522  48.323 -21.259  1.00  0.00     0.060 C 
HETATM   16  C25 UNL     1      -6.256  49.163 -21.093  1.00  0.00     0.020 C 
HETATM   17  C26 UNL     1      -5.035  48.598 -21.867  1.00  0.00    -0.016 C 
HETATM   18  C27 UNL     1      -4.668  47.209 -21.289  1.00  0.00     0.020 C 
HETATM   19  C28 UNL     1      -3.824  49.592 -21.803  1.00  0.00     0.002 C 
HETATM   20  C29 UNL     1      -3.346  49.968 -20.391  1.00  0.00     0.007 C 
HETATM   21  C30 UNL     1      -2.260  51.048 -20.455  1.00  0.00     0.014 C 
HETATM   22  C31 UNL     1      -1.024  50.666 -21.319  1.00  0.00     0.003 C 
HETATM   23  C32 UNL     1      -0.165  49.643 -20.549  1.00  0.00     0.020 C 
ENDROOT
BRANCH   3  24
HETATM   24  O1  UNL     1       1.099  51.530 -22.247  1.00  0.00    -0.377 OA
HETATM   25  H2  UNL     1       0.979  51.023 -23.066  1.00  0.00     0.211 HD
ENDBRANCH   3  24
BRANCH  13  26
HETATM   26  O2  UNL     1      -9.793  47.187 -22.050  1.00  0.00    -0.271 OA
BRANCH  26  27
HETATM   27  C13 UNL     1     -10.088  45.803 -21.883  1.00  0.00     0.303 C 
BRANCH  27  28
HETATM   28  C14 UNL     1     -11.564  45.613 -21.559  1.00  0.00     0.244 C 
HETATM   29  O3  UNL     1     -12.382  45.223 -22.389  1.00  0.00    -0.271 OA
HETATM   30  N2  UNL     1     -11.924  45.998 -20.289  1.00  0.00    -0.342 N 
HETATM   31  H16 UNL     1     -11.212  46.386 -19.676  1.00  0.00     0.163 HD
BRANCH  30  32
HETATM   32  C15 UNL     1     -13.333  46.102 -19.888  1.00  0.00     0.216 C 
BRANCH  32  33
HETATM   33  C16 UNL     1     -13.887  44.730 -19.482  1.00  0.00     0.166 C 
HETATM   34  O4  UNL     1     -14.053  43.771 -20.222  1.00  0.00    -0.648 OA
BRANCH  33  35
HETATM   35  O5  UNL     1     -14.129  44.590 -18.158  1.00  0.00    -0.775 OA
HETATM   36  H18 UNL     1     -14.513  43.691 -18.080  1.00  0.00     0.167 HD
ENDBRANCH  33  35
ENDBRANCH  32  33
BRANCH  32  37
HETATM   37  C17 UNL     1     -14.221  46.646 -21.035  1.00  0.00     0.184 C 
BRANCH  37  38
HETATM   38  O6  UNL     1     -13.742  47.924 -21.493  1.00  0.00    -0.388 OA
HETATM   39  H20 UNL     1     -14.502  48.427 -21.834  1.00  0.00     0.210 HD
ENDBRANCH  37  38
BRANCH  37  40
HETATM   40  C18 UNL     1     -15.689  46.772 -20.657  1.00  0.00    -0.025 A 
HETATM   41  C19 UNL     1     -16.073  47.377 -19.449  1.00  0.00     0.010 A 
HETATM   42  C20 UNL     1     -17.421  47.473 -19.093  1.00  0.00     0.003 A 
HETATM   43  C21 UNL     1     -18.408  46.957 -19.932  1.00  0.00     0.036 A 
HETATM   44  C22 UNL     1     -18.035  46.347 -21.135  1.00  0.00     0.103 A 
HETATM   45  C23 UNL     1     -16.685  46.257 -21.503  1.00  0.00     0.045 A 
BRANCH  44  46
HETATM   46  N3  UNL     1     -19.067  45.787 -22.018  1.00  0.00    -0.116 N 
HETATM   47  O7  UNL     1     -19.151  46.245 -23.167  1.00  0.00    -0.532 OA
HETATM   48  O8  UNL     1     -19.799  44.897 -21.561  1.00  0.00    -0.532 OA
ENDBRANCH  44  46
ENDBRANCH  37  40
ENDBRANCH  32  37
ENDBRANCH  30  32
ENDBRANCH  27  28
ENDBRANCH  26  27
ENDBRANCH  13  26
TORSDOF 11
ENDMDL
MODEL 9
REMARK minimizedAffinity -8.32482719
REMARK CNNscore 0.190487489
REMARK CNNaffinity 5.75201273
REMARK  11 active torsions:
REMARK  status: ('A' for Active; 'I' for Inactive)
REMARK    1  A    between atoms: C3_3  and  O1_4 
REMARK    2  A    between atoms: N1_14  and  O2_16 
REMARK    3  A    between atoms: O2_16  and  C13_17 
REMARK    4  A    between atoms: C13_17  and  C14_18 
REMARK       I    between atoms: C14_18  and  N2_20 
REMARK    5  A    between atoms: N2_20  and  C15_21 
REMARK    6  A    between atoms: C15_21  and  C16_22 
REMARK    7  A    between atoms: C15_21  and  C17_25 
REMARK    8  A    between atoms: C16_22  and  O5_24 
REMARK    9  A    between atoms: C17_25  and  O6_26 
REMARK   10  A    between atoms: C17_25  and  C18_27 
REMARK   11  A    between atoms: C22_31  and  N3_32 
ROOT
HETATM    1  C1  UNL     1      -4.387  46.642 -32.251  1.00  0.00     0.015 C 
HETATM    2  C2  UNL     1      -5.582  46.584 -32.347  1.00  0.00    -0.078 C 
HETATM    3  C3  UNL     1      -7.048  46.511 -32.469  1.00  0.00     0.128 C 
HETATM    4  C4  UNL     1      -7.702  47.893 -32.316  1.00  0.00     0.052 C 
HETATM    5  C5  UNL     1      -9.101  47.644 -31.734  1.00  0.00     0.010 C 
HETATM    6  C6  UNL     1      -9.210  46.132 -31.469  1.00  0.00     0.002 C 
HETATM    7  C7  UNL     1     -10.089  45.727 -30.268  1.00  0.00    -0.004 C 
HETATM    8  C8  UNL     1     -11.555  46.184 -30.413  1.00  0.00     0.010 C 
HETATM    9  C9  UNL     1     -11.998  47.174 -29.343  1.00  0.00     0.035 C 
HETATM   10  C10 UNL     1     -11.692  46.713 -27.936  1.00  0.00    -0.069 C 
HETATM   11  C11 UNL     1     -12.472  47.124 -26.921  1.00  0.00     0.030 C 
HETATM   12  C12 UNL     1     -12.145  46.799 -25.508  1.00  0.00     0.032 C 
HETATM   13  N1  UNL     1     -13.069  47.000 -24.612  1.00  0.00    -0.271 N 
ATOM     14  H1  UNL     1     -13.999  47.365 -24.818  1.00  0.00     0.194 HD
HETATM   15  C24 UNL     1     -10.771  46.236 -25.190  1.00  0.00     0.060 C 
HETATM   16  C25 UNL     1      -9.804  46.312 -26.371  1.00  0.00     0.020 C 
HETATM   17  C26 UNL     1     -10.436  45.863 -27.715  1.00  0.00    -0.016 C 
HETATM   18  C27 UNL     1     -10.825  44.367 -27.617  1.00  0.00     0.020 C 
HETATM   19  C28 UNL     1      -9.456  46.129 -28.910  1.00  0.00     0.002 C 
HETATM   20  C29 UNL     1      -8.075  45.463 -28.800  1.00  0.00     0.007 C 
HETATM   21  C30 UNL     1      -7.162  45.911 -29.948  1.00  0.00     0.014 C 
HETATM   22  C31 UNL     1      -7.738  45.642 -31.367  1.00  0.00     0.003 C 
HETATM   23  C32 UNL     1      -7.634  44.136 -31.680  1.00  0.00     0.020 C 
ENDROOT
BRANCH   3  24
HETATM   24  O1  UNL     1      -7.341  46.019 -33.779  1.00  0.00    -0.377 OA
HETATM   25  H2  UNL     1      -8.291  46.132 -33.946  1.00  0.00     0.211 HD
ENDBRANCH   3  24
BRANCH  13  26
HETATM   26  O2  UNL     1     -12.625  46.651 -23.328  1.00  0.00    -0.271 OA
BRANCH  26  27
HETATM   27  C13 UNL     1     -13.567  45.759 -22.738  1.00  0.00     0.303 C 
BRANCH  27  28
HETATM   28  C14 UNL     1     -14.765  46.533 -22.206  1.00  0.00     0.244 C 
HETATM   29  O3  UNL     1     -14.998  47.698 -22.520  1.00  0.00    -0.271 OA
HETATM   30  N2  UNL     1     -15.516  45.854 -21.275  1.00  0.00    -0.342 N 
HETATM   31  H16 UNL     1     -15.224  44.920 -21.000  1.00  0.00     0.163 HD
BRANCH  30  32
HETATM   32  C15 UNL     1     -16.561  46.526 -20.492  1.00  0.00     0.216 C 
BRANCH  32  33
HETATM   33  C16 UNL     1     -16.001  47.037 -19.158  1.00  0.00     0.166 C 
HETATM   34  O4  UNL     1     -16.089  48.179 -18.728  1.00  0.00    -0.648 OA
BRANCH  33  35
HETATM   35  O5  UNL     1     -15.432  46.083 -18.385  1.00  0.00    -0.775 OA
HETATM   36  H18 UNL     1     -15.093  46.578 -17.609  1.00  0.00     0.167 HD
ENDBRANCH  33  35
ENDBRANCH  32  33
BRANCH  32  37
HETATM   37  C17 UNL     1     -17.743  45.577 -20.172  1.00  0.00     0.184 C 
BRANCH  37  38
HETATM   38  O6  UNL     1     -17.268  44.331 -19.628  1.00  0.00    -0.388 OA
HETATM   39  H20 UNL     1     -17.906  43.636 -19.862  1.00  0.00     0.210 HD
ENDBRANCH  37  38
BRANCH  37  40
HETATM   40  C18 UNL     1     -18.629  45.287 -21.373  1.00  0.00    -0.025 A 
HETATM   41  C19 UNL     1     -19.569  44.244 -21.342  1.00  0.00     0.010 A 
HETATM   42  C20 UNL     1     -20.369  43.966 -22.454  1.00  0.00     0.003 A 
HETATM   43  C21 UNL     1     -20.235  44.719 -23.621  1.00  0.00     0.036 A 
HETATM   44  C22 UNL     1     -19.297  45.757 -23.665  1.00  0.00     0.103 A 
HETATM   45  C23 UNL     1     -18.500  46.048 -22.548  1.00  0.00     0.045 A 
BRANCH  44  46
HETATM   46  N3  UNL     1     -19.139  46.544 -24.894  1.00  0.00    -0.116 N 
HETATM   47  O7  UNL     1     -19.061  45.925 -25.966  1.00  0.00    -0.532 OA
HETATM   48  O8  UNL     1     -19.082  47.778 -24.789  1.00  0.00    -0.532 OA
ENDBRANCH  44  46
ENDBRANCH  37  40
ENDBRANCH  32  37
ENDBRANCH  30  32
ENDBRANCH  27  28
ENDBRANCH  26  27
ENDBRANCH  13  26
TORSDOF 11
ENDMDL
