MODEL 1
REMARK minimizedAffinity -9.46212864
REMARK  7 active torsions:
REMARK  status: ('A' for Active; 'I' for Inactive)
REMARK    1  A    between atoms: C2_2  and  C3_3 
REMARK    2  A    between atoms: C4_5  and  C5_6 
REMARK    3  A    between atoms: C5_6  and  C6_7 
REMARK    4  A    between atoms: C6_7  and  C7_8 
REMARK    5  A    between atoms: C7_8  and  C9_10 
REMARK    6  A    between atoms: C11_12  and  O2_13 
REMARK    7  A    between atoms: C30_33  and  O4_34 
ROOT
HETATM    1  C9  UNL     1      -3.876  50.376 -25.319  1.00  0.00     0.001 C 
HETATM    2  C10 UNL     1      -5.368  50.346 -24.866  1.00  0.00     0.038 C 
HETATM    3  C11 UNL     1      -5.374  50.240 -23.330  1.00  0.00     0.132 C 
HETATM    4  C12 UNL     1      -3.956  50.688 -22.908  1.00  0.00     0.016 C 
HETATM    5  C13 UNL     1      -3.885  52.253 -22.949  1.00  0.00     0.023 C 
HETATM    6  C14 UNL     1      -3.440  50.290 -21.525  1.00  0.00    -0.037 C 
HETATM    7  C15 UNL     1      -2.099  50.206 -21.317  1.00  0.00    -0.065 C 
HETATM    8  C16 UNL     1      -1.101  50.359 -22.477  1.00  0.00     0.036 C 
HETATM    9  C17 UNL     1      -1.665  50.499 -23.909  1.00  0.00     0.015 C 
HETATM   10  C18 UNL     1      -3.102  49.973 -24.022  1.00  0.00    -0.026 C 
HETATM   11  C19 UNL     1      -3.078  48.419 -23.879  1.00  0.00     0.016 C 
HETATM   12  C20 UNL     1      -1.497  49.937 -19.910  1.00  0.00    -0.015 C 
HETATM   13  C21 UNL     1      -0.957  48.487 -19.921  1.00  0.00     0.020 C 
HETATM   14  C22 UNL     1      -0.317  50.917 -19.633  1.00  0.00     0.021 C 
HETATM   15  C23 UNL     1      -0.059  51.244 -18.165  1.00  0.00     0.080 C 
HETATM   16  C24 UNL     1      -0.584  50.177 -17.237  1.00  0.00     0.135 C 
HETATM   17  O3  UNL     1       0.159  49.635 -16.420  1.00  0.00    -0.297 OA
HETATM   18  C25 UNL     1      -2.084  49.870 -17.329  1.00  0.00     0.018 C 
HETATM   19  C26 UNL     1      -2.790  50.816 -16.336  1.00  0.00     0.023 C 
HETATM   20  C27 UNL     1      -2.353  48.429 -16.854  1.00  0.00     0.023 C 
HETATM   21  C28 UNL     1      -2.575  50.170 -18.788  1.00  0.00     0.016 C 
HETATM   22  C29 UNL     1      -3.896  49.475 -19.145  1.00  0.00     0.043 C 
HETATM   23  C30 UNL     1      -4.469  50.024 -20.450  1.00  0.00     0.148 C 
ENDROOT
BRANCH   1  24
HETATM   24  C7  UNL     1      -3.645  49.579 -26.634  1.00  0.00    -0.013 C 
HETATM   25  C8  UNL     1      -2.696  48.389 -26.456  1.00  0.00     0.010 C 
BRANCH  24  26
HETATM   26  C6  UNL     1      -3.142  50.476 -27.799  1.00  0.00     0.008 C 
BRANCH  26  27
HETATM   27  C5  UNL     1      -2.313  51.691 -27.370  1.00  0.00     0.028 C 
BRANCH  27  28
HETATM   28  C4  UNL     1      -0.836  51.412 -27.473  1.00  0.00    -0.017 C 
HETATM   29  C2  UNL     1       0.144  52.266 -27.821  1.00  0.00    -0.028 C 
HETATM   30  C1  UNL     1       1.580  51.844 -27.929  1.00  0.00     0.051 C 
BRANCH  29  31
HETATM   31  C3  UNL     1      -0.097  53.713 -28.098  1.00  0.00     0.265 C 
HETATM   32  O1  UNL     1      -0.354  54.547 -27.240  1.00  0.00    -0.302 OA
ENDBRANCH  29  31
ENDBRANCH  27  28
ENDBRANCH  26  27
ENDBRANCH  24  26
ENDBRANCH   1  24
BRANCH   3  33
HETATM   33  O2  UNL     1      -6.404  51.030 -22.746  1.00  0.00    -0.394 OA
HETATM   34  H18 UNL     1      -7.234  50.804 -23.201  1.00  0.00     0.210 HD
ENDBRANCH   3  33
BRANCH  23  35
HETATM   35  O4  UNL     1      -5.158  51.236 -20.161  1.00  0.00    -0.391 OA
HETATM   36  H46 UNL     1      -5.763  51.385 -20.918  1.00  0.00     0.210 HD
ENDBRANCH  23  35
TORSDOF 7
ENDMDL
MODEL 2
REMARK minimizedAffinity -9.29616642
REMARK  7 active torsions:
REMARK  status: ('A' for Active; 'I' for Inactive)
REMARK    1  A    between atoms: C2_2  and  C3_3 
REMARK    2  A    between atoms: C4_5  and  C5_6 
REMARK    3  A    between atoms: C5_6  and  C6_7 
REMARK    4  A    between atoms: C6_7  and  C7_8 
REMARK    5  A    between atoms: C7_8  and  C9_10 
REMARK    6  A    between atoms: C11_12  and  O2_13 
REMARK    7  A    between atoms: C30_33  and  O4_34 
ROOT
HETATM    1  C9  UNL     1      -0.595  49.849 -20.387  1.00  0.00     0.001 C 
HETATM    2  C10 UNL     1      -1.008  48.938 -19.191  1.00  0.00     0.038 C 
HETATM    3  C11 UNL     1      -2.353  48.286 -19.559  1.00  0.00     0.132 C 
HETATM    4  C12 UNL     1      -2.447  48.439 -21.094  1.00  0.00     0.016 C 
HETATM    5  C13 UNL     1      -1.558  47.339 -21.769  1.00  0.00     0.023 C 
HETATM    6  C14 UNL     1      -3.817  48.325 -21.762  1.00  0.00    -0.037 C 
HETATM    7  C15 UNL     1      -4.023  48.935 -22.960  1.00  0.00    -0.065 C 
HETATM    8  C16 UNL     1      -2.956  49.852 -23.582  1.00  0.00     0.036 C 
HETATM    9  C17 UNL     1      -1.686  50.155 -22.755  1.00  0.00     0.015 C 
HETATM   10  C18 UNL     1      -1.894  49.905 -21.256  1.00  0.00    -0.026 C 
HETATM   11  C19 UNL     1      -2.861  50.994 -20.696  1.00  0.00     0.016 C 
HETATM   12  C20 UNL     1      -5.342  48.756 -23.760  1.00  0.00    -0.015 C 
HETATM   13  C21 UNL     1      -6.118  50.091 -23.654  1.00  0.00     0.020 C 
HETATM   14  C22 UNL     1      -5.027  48.471 -25.260  1.00  0.00     0.021 C 
HETATM   15  C23 UNL     1      -6.076  47.659 -26.015  1.00  0.00     0.080 C 
HETATM   16  C24 UNL     1      -7.441  47.753 -25.380  1.00  0.00     0.135 C 
HETATM   17  O3  UNL     1      -8.414  48.122 -26.037  1.00  0.00    -0.297 OA
HETATM   18  C25 UNL     1      -7.548  47.300 -23.919  1.00  0.00     0.018 C 
HETATM   19  C26 UNL     1      -7.872  45.793 -23.946  1.00  0.00     0.023 C 
HETATM   20  C27 UNL     1      -8.735  48.008 -23.238  1.00  0.00     0.023 C 
HETATM   21  C28 UNL     1      -6.167  47.534 -23.213  1.00  0.00     0.016 C 
HETATM   22  C29 UNL     1      -6.261  47.579 -21.682  1.00  0.00     0.043 C 
HETATM   23  C30 UNL     1      -4.874  47.516 -21.045  1.00  0.00     0.148 C 
ENDROOT
BRANCH   1  24
HETATM   24  C7  UNL     1       0.074  51.170 -19.916  1.00  0.00    -0.013 C 
HETATM   25  C8  UNL     1      -0.080  51.419 -18.411  1.00  0.00     0.010 C 
BRANCH  24  26
HETATM   26  C6  UNL     1      -0.429  52.412 -20.702  1.00  0.00     0.008 C 
BRANCH  26  27
HETATM   27  C5  UNL     1       0.601  53.047 -21.641  1.00  0.00     0.028 C 
BRANCH  27  28
HETATM   28  C4  UNL     1       0.663  52.322 -22.960  1.00  0.00    -0.017 C 
HETATM   29  C2  UNL     1       0.639  52.852 -24.196  1.00  0.00    -0.028 C 
HETATM   30  C1  UNL     1       0.662  52.007 -25.436  1.00  0.00     0.051 C 
BRANCH  29  31
HETATM   31  C3  UNL     1       0.623  54.323 -24.452  1.00  0.00     0.265 C 
HETATM   32  O1  UNL     1       0.234  54.840 -25.491  1.00  0.00    -0.302 OA
ENDBRANCH  29  31
ENDBRANCH  27  28
ENDBRANCH  26  27
ENDBRANCH  24  26
ENDBRANCH   1  24
BRANCH   3  33
HETATM   33  O2  UNL     1      -2.422  46.930 -19.129  1.00  0.00    -0.394 OA
HETATM   34  H18 UNL     1      -2.174  46.913 -18.188  1.00  0.00     0.210 HD
ENDBRANCH   3  33
BRANCH  23  35
HETATM   35  O4  UNL     1      -4.463  46.155 -21.003  1.00  0.00    -0.391 OA
HETATM   36  H46 UNL     1      -3.753  46.111 -20.327  1.00  0.00     0.210 HD
ENDBRANCH  23  35
TORSDOF 7
ENDMDL
MODEL 3
REMARK minimizedAffinity -9.28700638
REMARK  7 active torsions:
REMARK  status: ('A' for Active; 'I' for Inactive)
REMARK    1  A    between atoms: C2_2  and  C3_3 
REMARK    2  A    between atoms: C4_5  and  C5_6 
REMARK    3  A    between atoms: C5_6  and  C6_7 
REMARK    4  A    between atoms: C6_7  and  C7_8 
REMARK    5  A    between atoms: C7_8  and  C9_10 
REMARK    6  A    between atoms: C11_12  and  O2_13 
REMARK    7  A    between atoms: C30_33  and  O4_34 
ROOT
HETATM    1  C9  UNL     1      -0.630  50.194 -21.690  1.00  0.00     0.001 C 
HETATM    2  C10 UNL     1      -0.483  49.698 -20.219  1.00  0.00     0.038 C 
HETATM    3  C11 UNL     1      -1.803  49.005 -19.838  1.00  0.00     0.132 C 
HETATM    4  C12 UNL     1      -2.477  48.690 -21.194  1.00  0.00     0.016 C 
HETATM    5  C13 UNL     1      -1.809  47.412 -21.808  1.00  0.00     0.023 C 
HETATM    6  C14 UNL     1      -3.982  48.421 -21.222  1.00  0.00    -0.037 C 
HETATM    7  C15 UNL     1      -4.673  48.647 -22.371  1.00  0.00    -0.065 C 
HETATM    8  C16 UNL     1      -4.003  49.302 -23.590  1.00  0.00     0.036 C 
HETATM    9  C17 UNL     1      -2.549  49.803 -23.439  1.00  0.00     0.015 C 
HETATM   10  C18 UNL     1      -2.159  50.023 -21.971  1.00  0.00    -0.026 C 
HETATM   11  C19 UNL     1      -2.941  51.258 -21.425  1.00  0.00     0.016 C 
HETATM   12  C20 UNL     1      -6.174  48.274 -22.516  1.00  0.00    -0.015 C 
HETATM   13  C21 UNL     1      -6.971  49.601 -22.512  1.00  0.00     0.020 C 
HETATM   14  C22 UNL     1      -6.418  47.541 -23.870  1.00  0.00     0.021 C 
HETATM   15  C23 UNL     1      -7.596  46.570 -23.896  1.00  0.00     0.080 C 
HETATM   16  C24 UNL     1      -8.627  46.891 -22.844  1.00  0.00     0.135 C 
HETATM   17  O3  UNL     1      -9.804  47.074 -23.154  1.00  0.00    -0.297 OA
HETATM   18  C25 UNL     1      -8.140  46.903 -21.390  1.00  0.00     0.018 C 
HETATM   19  C26 UNL     1      -8.313  45.468 -20.853  1.00  0.00     0.023 C 
HETATM   20  C27 UNL     1      -9.045  47.818 -20.543  1.00  0.00     0.023 C 
HETATM   21  C28 UNL     1      -6.622  47.298 -21.366  1.00  0.00     0.016 C 
HETATM   22  C29 UNL     1      -6.141  47.806 -20.000  1.00  0.00     0.043 C 
HETATM   23  C30 UNL     1      -4.617  47.897 -19.955  1.00  0.00     0.148 C 
ENDROOT
BRANCH   1  24
HETATM   24  C7  UNL     1       0.045  51.575 -21.915  1.00  0.00    -0.013 C 
HETATM   25  C8  UNL     1      -0.104  52.519 -20.717  1.00  0.00     0.010 C 
BRANCH  24  26
HETATM   26  C6  UNL     1      -0.457  52.286 -23.202  1.00  0.00     0.008 C 
BRANCH  26  27
HETATM   27  C5  UNL     1       0.626  53.016 -24.004  1.00  0.00     0.028 C 
BRANCH  27  28
HETATM   28  C4  UNL     1       0.998  52.252 -25.247  1.00  0.00    -0.017 C 
HETATM   29  C2  UNL     1       0.671  52.537 -26.521  1.00  0.00    -0.028 C 
HETATM   30  C1  UNL     1       1.071  51.660 -27.671  1.00  0.00     0.051 C 
BRANCH  29  31
HETATM   31  C3  UNL     1      -0.086  53.762 -26.913  1.00  0.00     0.265 C 
HETATM   32  O1  UNL     1       0.204  54.897 -26.558  1.00  0.00    -0.302 OA
ENDBRANCH  29  31
ENDBRANCH  27  28
ENDBRANCH  26  27
ENDBRANCH  24  26
ENDBRANCH   1  24
BRANCH   3  33
HETATM   33  O2  UNL     1      -1.586  47.845 -19.043  1.00  0.00    -0.394 OA
HETATM   34  H18 UNL     1      -1.003  48.104 -18.307  1.00  0.00     0.210 HD
ENDBRANCH   3  33
BRANCH  23  35
HETATM   35  O4  UNL     1      -4.100  46.600 -19.681  1.00  0.00    -0.391 OA
HETATM   36  H46 UNL     1      -3.188  46.742 -19.347  1.00  0.00     0.210 HD
ENDBRANCH  23  35
TORSDOF 7
ENDMDL
MODEL 4
REMARK minimizedAffinity -9.2730875
REMARK  7 active torsions:
REMARK  status: ('A' for Active; 'I' for Inactive)
REMARK    1  A    between atoms: C2_2  and  C3_3 
REMARK    2  A    between atoms: C4_5  and  C5_6 
REMARK    3  A    between atoms: C5_6  and  C6_7 
REMARK    4  A    between atoms: C6_7  and  C7_8 
REMARK    5  A    between atoms: C7_8  and  C9_10 
REMARK    6  A    between atoms: C11_12  and  O2_13 
REMARK    7  A    between atoms: C30_33  and  O4_34 
ROOT
HETATM    1  C9  UNL     1      -1.503  52.146 -23.015  1.00  0.00     0.001 C 
HETATM    2  C10 UNL     1      -2.065  52.139 -24.470  1.00  0.00     0.038 C 
HETATM    3  C11 UNL     1      -3.292  51.210 -24.479  1.00  0.00     0.132 C 
HETATM    4  C12 UNL     1      -3.694  51.089 -22.991  1.00  0.00     0.016 C 
HETATM    5  C13 UNL     1      -4.485  52.376 -22.573  1.00  0.00     0.023 C 
HETATM    6  C14 UNL     1      -4.569  49.912 -22.559  1.00  0.00    -0.037 C 
HETATM    7  C15 UNL     1      -4.518  49.488 -21.268  1.00  0.00    -0.065 C 
HETATM    8  C16 UNL     1      -3.498  50.072 -20.276  1.00  0.00     0.036 C 
HETATM    9  C17 UNL     1      -2.452  51.075 -20.814  1.00  0.00     0.015 C 
HETATM   10  C18 UNL     1      -2.268  50.965 -22.333  1.00  0.00    -0.026 C 
HETATM   11  C19 UNL     1      -1.556  49.614 -22.655  1.00  0.00     0.016 C 
HETATM   12  C20 UNL     1      -5.469  48.387 -20.723  1.00  0.00    -0.015 C 
HETATM   13  C21 UNL     1      -4.615  47.113 -20.520  1.00  0.00     0.020 C 
HETATM   14  C22 UNL     1      -6.066  48.822 -19.351  1.00  0.00     0.021 C 
HETATM   15  C23 UNL     1      -7.433  48.236 -19.006  1.00  0.00     0.080 C 
HETATM   16  C24 UNL     1      -7.708  46.950 -19.744  1.00  0.00     0.135 C 
HETATM   17  O3  UNL     1      -8.003  45.925 -19.130  1.00  0.00    -0.297 OA
HETATM   18  C25 UNL     1      -7.668  47.019 -21.276  1.00  0.00     0.018 C 
HETATM   19  C26 UNL     1      -9.096  47.371 -21.740  1.00  0.00     0.023 C 
HETATM   20  C27 UNL     1      -7.332  45.631 -21.853  1.00  0.00     0.023 C 
HETATM   21  C28 UNL     1      -6.675  48.154 -21.707  1.00  0.00     0.016 C 
HETATM   22  C29 UNL     1      -6.182  48.020 -23.154  1.00  0.00     0.043 C 
HETATM   23  C30 UNL     1      -5.462  49.288 -23.607  1.00  0.00     0.148 C 
ENDROOT
BRANCH   1  24
HETATM   24  C7  UNL     1       0.050  52.177 -22.985  1.00  0.00    -0.013 C 
HETATM   25  C8  UNL     1       0.630  51.882 -21.597  1.00  0.00     0.010 C 
BRANCH  24  26
HETATM   26  C6  UNL     1       0.634  53.514 -23.519  1.00  0.00     0.008 C 
BRANCH  26  27
HETATM   27  C5  UNL     1       0.206  53.887 -24.942  1.00  0.00     0.028 C 
BRANCH  27  28
HETATM   28  C4  UNL     1       0.726  52.895 -25.949  1.00  0.00    -0.017 C 
HETATM   29  C2  UNL     1       0.372  52.767 -27.241  1.00  0.00    -0.028 C 
HETATM   30  C1  UNL     1       0.938  51.699 -28.130  1.00  0.00     0.051 C 
BRANCH  29  31
HETATM   31  C3  UNL     1      -0.586  53.691 -27.919  1.00  0.00     0.265 C 
HETATM   32  O1  UNL     1      -1.797  53.679 -27.746  1.00  0.00    -0.302 OA
ENDBRANCH  29  31
ENDBRANCH  27  28
ENDBRANCH  26  27
ENDBRANCH  24  26
ENDBRANCH   1  24
BRANCH   3  33
HETATM   33  O2  UNL     1      -4.339  51.718 -25.299  1.00  0.00    -0.394 OA
HETATM   34  H18 UNL     1      -3.949  51.932 -26.165  1.00  0.00     0.210 HD
ENDBRANCH   3  33
BRANCH  23  35
HETATM   35  O4  UNL     1      -6.441  50.241 -24.004  1.00  0.00    -0.391 OA
HETATM   36  H46 UNL     1      -5.969  50.888 -24.571  1.00  0.00     0.210 HD
ENDBRANCH  23  35
TORSDOF 7
ENDMDL
MODEL 5
REMARK minimizedAffinity -9.2054081
REMARK  7 active torsions:
REMARK  status: ('A' for Active; 'I' for Inactive)
REMARK    1  A    between atoms: C2_2  and  C3_3 
REMARK    2  A    between atoms: C4_5  and  C5_6 
REMARK    3  A    between atoms: C5_6  and  C6_7 
REMARK    4  A    between atoms: C6_7  and  C7_8 
REMARK    5  A    between atoms: C7_8  and  C9_10 
REMARK    6  A    between atoms: C11_12  and  O2_13 
REMARK    7  A    between atoms: C30_33  and  O4_34 
ROOT
HETATM    1  C9  UNL     1      -0.187  51.318 -20.190  1.00  0.00     0.001 C 
HETATM    2  C10 UNL     1      -0.916  52.149 -19.091  1.00  0.00     0.038 C 
HETATM    3  C11 UNL     1      -2.250  51.440 -18.795  1.00  0.00     0.132 C 
HETATM    4  C12 UNL     1      -2.056  50.009 -19.346  1.00  0.00     0.016 C 
HETATM    5  C13 UNL     1      -1.215  49.179 -18.317  1.00  0.00     0.023 C 
HETATM    6  C14 UNL     1      -3.292  49.161 -19.643  1.00  0.00    -0.037 C 
HETATM    7  C15 UNL     1      -3.206  48.163 -20.563  1.00  0.00    -0.065 C 
HETATM    8  C16 UNL     1      -1.937  47.967 -21.410  1.00  0.00     0.036 C 
HETATM    9  C17 UNL     1      -0.801  49.006 -21.270  1.00  0.00     0.015 C 
HETATM   10  C18 UNL     1      -1.297  50.335 -20.687  1.00  0.00    -0.026 C 
HETATM   11  C19 UNL     1      -2.196  51.043 -21.748  1.00  0.00     0.016 C 
HETATM   12  C20 UNL     1      -4.378  47.178 -20.824  1.00  0.00    -0.015 C 
HETATM   13  C21 UNL     1      -4.980  47.548 -22.201  1.00  0.00     0.020 C 
HETATM   14  C22 UNL     1      -3.848  45.713 -20.878  1.00  0.00     0.021 C 
HETATM   15  C23 UNL     1      -4.847  44.631 -20.477  1.00  0.00     0.080 C 
HETATM   16  C24 UNL     1      -6.277  45.081 -20.641  1.00  0.00     0.135 C 
HETATM   17  O3  UNL     1      -7.065  44.431 -21.327  1.00  0.00    -0.297 OA
HETATM   18  C25 UNL     1      -6.694  46.332 -19.858  1.00  0.00     0.018 C 
HETATM   19  C26 UNL     1      -7.202  45.846 -18.486  1.00  0.00     0.023 C 
HETATM   20  C27 UNL     1      -7.878  47.020 -20.564  1.00  0.00     0.023 C 
HETATM   21  C28 UNL     1      -5.438  47.251 -19.663  1.00  0.00     0.016 C 
HETATM   22  C29 UNL     1      -5.789  48.709 -19.334  1.00  0.00     0.043 C 
HETATM   23  C30 UNL     1      -4.554  49.479 -18.874  1.00  0.00     0.148 C 
ENDROOT
BRANCH   1  24
HETATM   24  C7  UNL     1       0.557  52.221 -21.213  1.00  0.00    -0.013 C 
HETATM   25  C8  UNL     1       0.691  53.675 -20.745  1.00  0.00     0.010 C 
BRANCH  24  26
HETATM   26  C6  UNL     1      -0.089  52.187 -22.625  1.00  0.00     0.008 C 
BRANCH  26  27
HETATM   27  C5  UNL     1       0.606  53.059 -23.677  1.00  0.00     0.028 C 
BRANCH  27  28
HETATM   28  C4  UNL     1       0.991  52.253 -24.890  1.00  0.00    -0.017 C 
HETATM   29  C2  UNL     1       0.619  52.455 -26.167  1.00  0.00    -0.028 C 
HETATM   30  C1  UNL     1       1.040  51.545 -27.283  1.00  0.00     0.051 C 
BRANCH  29  31
HETATM   31  C3  UNL     1      -0.215  53.616 -26.600  1.00  0.00     0.265 C 
HETATM   32  O1  UNL     1       0.178  54.775 -26.631  1.00  0.00    -0.302 OA
ENDBRANCH  29  31
ENDBRANCH  27  28
ENDBRANCH  26  27
ENDBRANCH  24  26
ENDBRANCH   1  24
BRANCH   3  33
HETATM   33  O2  UNL     1      -2.570  51.464 -17.408  1.00  0.00    -0.394 OA
HETATM   34  H18 UNL     1      -2.492  52.387 -17.110  1.00  0.00     0.210 HD
ENDBRANCH   3  33
BRANCH  23  35
HETATM   35  O4  UNL     1      -4.338  49.196 -17.496  1.00  0.00    -0.391 OA
HETATM   36  H46 UNL     1      -3.768  49.921 -17.161  1.00  0.00     0.210 HD
ENDBRANCH  23  35
TORSDOF 7
ENDMDL
MODEL 6
REMARK minimizedAffinity -8.97054482
REMARK  7 active torsions:
REMARK  status: ('A' for Active; 'I' for Inactive)
REMARK    1  A    between atoms: C2_2  and  C3_3 
REMARK    2  A    between atoms: C4_5  and  C5_6 
REMARK    3  A    between atoms: C5_6  and  C6_7 
REMARK    4  A    between atoms: C6_7  and  C7_8 
REMARK    5  A    between atoms: C7_8  and  C9_10 
REMARK    6  A    between atoms: C11_12  and  O2_13 
REMARK    7  A    between atoms: C30_33  and  O4_34 
ROOT
HETATM    1  C9  UNL     1      -2.677  51.524 -25.008  1.00  0.00     0.001 C 
HETATM    2  C10 UNL     1      -4.165  51.978 -25.116  1.00  0.00     0.038 C 
HETATM    3  C11 UNL     1      -4.947  51.237 -24.017  1.00  0.00     0.132 C 
HETATM    4  C12 UNL     1      -3.861  50.765 -23.023  1.00  0.00     0.016 C 
HETATM    5  C13 UNL     1      -3.441  51.974 -22.118  1.00  0.00     0.023 C 
HETATM    6  C14 UNL     1      -4.191  49.626 -22.059  1.00  0.00    -0.037 C 
HETATM    7  C15 UNL     1      -3.180  48.865 -21.561  1.00  0.00    -0.065 C 
HETATM    8  C16 UNL     1      -1.735  49.034 -22.060  1.00  0.00     0.036 C 
HETATM    9  C17 UNL     1      -1.478  50.015 -23.226  1.00  0.00     0.015 C 
HETATM   10  C18 UNL     1      -2.749  50.300 -24.037  1.00  0.00    -0.026 C 
HETATM   11  C19 UNL     1      -3.136  49.014 -24.831  1.00  0.00     0.016 C 
HETATM   12  C20 UNL     1      -3.423  47.777 -20.479  1.00  0.00    -0.015 C 
HETATM   13  C21 UNL     1      -3.276  46.405 -21.178  1.00  0.00     0.020 C 
HETATM   14  C22 UNL     1      -2.350  47.891 -19.353  1.00  0.00     0.021 C 
HETATM   15  C23 UNL     1      -2.783  47.398 -17.974  1.00  0.00     0.080 C 
HETATM   16  C24 UNL     1      -3.913  46.402 -18.049  1.00  0.00     0.135 C 
HETATM   17  O3  UNL     1      -3.805  45.291 -17.531  1.00  0.00    -0.297 OA
HETATM   18  C25 UNL     1      -5.200  46.879 -18.733  1.00  0.00     0.018 C 
HETATM   19  C26 UNL     1      -6.078  47.509 -17.634  1.00  0.00     0.023 C 
HETATM   20  C27 UNL     1      -5.972  45.670 -19.295  1.00  0.00     0.023 C 
HETATM   21  C28 UNL     1      -4.832  47.963 -19.806  1.00  0.00     0.016 C 
HETATM   22  C29 UNL     1      -5.922  48.171 -20.866  1.00  0.00     0.043 C 
HETATM   23  C30 UNL     1      -5.645  49.420 -21.699  1.00  0.00     0.148 C 
ENDROOT
BRANCH   1  24
HETATM   24  C7  UNL     1      -2.010  51.363 -26.403  1.00  0.00    -0.013 C 
HETATM   25  C8  UNL     1      -2.924  50.691 -27.433  1.00  0.00     0.010 C 
BRANCH  24  26
HETATM   26  C6  UNL     1      -0.656  50.604 -26.336  1.00  0.00     0.008 C 
BRANCH  26  27
HETATM   27  C5  UNL     1       0.590  51.496 -26.359  1.00  0.00     0.028 C 
BRANCH  27  28
HETATM   28  C4  UNL     1       0.902  52.036 -24.988  1.00  0.00    -0.017 C 
HETATM   29  C2  UNL     1       0.634  53.262 -24.502  1.00  0.00    -0.028 C 
HETATM   30  C1  UNL     1       1.042  53.690 -23.123  1.00  0.00     0.051 C 
BRANCH  29  31
HETATM   31  C3  UNL     1      -0.122  54.295 -25.271  1.00  0.00     0.265 C 
HETATM   32  O1  UNL     1       0.344  54.948 -26.195  1.00  0.00    -0.302 OA
ENDBRANCH  29  31
ENDBRANCH  27  28
ENDBRANCH  26  27
ENDBRANCH  24  26
ENDBRANCH   1  24
BRANCH   3  33
HETATM   33  O2  UNL     1      -5.932  52.068 -23.411  1.00  0.00    -0.394 OA
HETATM   34  H18 UNL     1      -6.458  52.462 -24.129  1.00  0.00     0.210 HD
ENDBRANCH   3  33
BRANCH  23  35
HETATM   35  O4  UNL     1      -6.105  50.553 -20.972  1.00  0.00    -0.391 OA
HETATM   36  H46 UNL     1      -6.212  51.270 -21.634  1.00  0.00     0.210 HD
ENDBRANCH  23  35
TORSDOF 7
ENDMDL
MODEL 7
REMARK minimizedAffinity -8.82718372
REMARK  7 active torsions:
REMARK  status: ('A' for Active; 'I' for Inactive)
REMARK    1  A    between atoms: C2_2  and  C3_3 
REMARK    2  A    between atoms: C4_5  and  C5_6 
REMARK    3  A    between atoms: C5_6  and  C6_7 
REMARK    4  A    between atoms: C6_7  and  C7_8 
REMARK    5  A    between atoms: C7_8  and  C9_10 
REMARK    6  A    between atoms: C11_12  and  O2_13 
REMARK    7  A    between atoms: C30_33  and  O4_34 
ROOT
HETATM    1  C9  UNL     1      -1.405  49.331 -18.234  1.00  0.00     0.001 C 
HETATM    2  C10 UNL     1      -2.665  48.438 -18.450  1.00  0.00     0.038 C 
HETATM    3  C11 UNL     1      -3.080  48.586 -19.925  1.00  0.00     0.132 C 
HETATM    4  C12 UNL     1      -1.821  49.149 -20.624  1.00  0.00     0.016 C 
HETATM    5  C13 UNL     1      -0.811  47.976 -20.870  1.00  0.00     0.023 C 
HETATM    6  C14 UNL     1      -1.979  49.845 -21.976  1.00  0.00    -0.037 C 
HETATM    7  C15 UNL     1      -1.052  50.762 -22.361  1.00  0.00    -0.065 C 
HETATM    8  C16 UNL     1       0.064  51.218 -21.406  1.00  0.00     0.036 C 
HETATM    9  C17 UNL     1       0.040  50.689 -19.954  1.00  0.00     0.015 C 
HETATM   10  C18 UNL     1      -1.350  50.190 -19.540  1.00  0.00    -0.026 C 
HETATM   11  C19 UNL     1      -2.304  51.418 -19.408  1.00  0.00     0.016 C 
HETATM   12  C20 UNL     1      -1.074  51.413 -23.771  1.00  0.00    -0.015 C 
HETATM   13  C21 UNL     1      -1.535  52.879 -23.585  1.00  0.00     0.020 C 
HETATM   14  C22 UNL     1       0.358  51.407 -24.389  1.00  0.00     0.021 C 
HETATM   15  C23 UNL     1       0.422  51.382 -25.913  1.00  0.00     0.080 C 
HETATM   16  C24 UNL     1      -0.834  51.922 -26.550  1.00  0.00     0.135 C 
HETATM   17  O3  UNL     1      -0.778  52.847 -27.360  1.00  0.00    -0.297 OA
HETATM   18  C25 UNL     1      -2.144  51.214 -26.185  1.00  0.00     0.018 C 
HETATM   19  C26 UNL     1      -2.336  50.081 -27.214  1.00  0.00     0.023 C 
HETATM   20  C27 UNL     1      -3.328  52.186 -26.353  1.00  0.00     0.023 C 
HETATM   21  C28 UNL     1      -2.009  50.606 -24.745  1.00  0.00     0.016 C 
HETATM   22  C29 UNL     1      -3.358  50.299 -24.080  1.00  0.00     0.043 C 
HETATM   23  C30 UNL     1      -3.169  49.453 -22.823  1.00  0.00     0.148 C 
ENDROOT
BRANCH   1  24
HETATM   24  C7  UNL     1      -1.414  50.035 -16.848  1.00  0.00    -0.013 C 
HETATM   25  C8  UNL     1      -2.819  50.440 -16.389  1.00  0.00     0.010 C 
BRANCH  24  26
HETATM   26  C6  UNL     1      -0.474  51.272 -16.797  1.00  0.00     0.008 C 
BRANCH  26  27
HETATM   27  C5  UNL     1       0.606  51.220 -15.712  1.00  0.00     0.028 C 
BRANCH  27  28
HETATM   28  C4  UNL     1       1.883  51.869 -16.178  1.00  0.00    -0.017 C 
HETATM   29  C2  UNL     1       3.053  51.958 -15.518  1.00  0.00    -0.028 C 
HETATM   30  C1  UNL     1       4.243  52.677 -16.082  1.00  0.00     0.051 C 
BRANCH  29  31
HETATM   31  C3  UNL     1       3.288  51.325 -14.187  1.00  0.00     0.265 C 
HETATM   32  O1  UNL     1       2.943  51.813 -13.119  1.00  0.00    -0.302 OA
ENDBRANCH  29  31
ENDBRANCH  27  28
ENDBRANCH  26  27
ENDBRANCH  24  26
ENDBRANCH   1  24
BRANCH   3  33
HETATM   33  O2  UNL     1      -3.520  47.352 -20.481  1.00  0.00    -0.394 OA
HETATM   34  H18 UNL     1      -4.189  46.986 -19.875  1.00  0.00     0.210 HD
ENDBRANCH   3  33
BRANCH  23  35
HETATM   35  O4  UNL     1      -3.027  48.093 -23.216  1.00  0.00    -0.391 OA
HETATM   36  H46 UNL     1      -3.229  47.562 -22.416  1.00  0.00     0.210 HD
ENDBRANCH  23  35
TORSDOF 7
ENDMDL
MODEL 8
REMARK minimizedAffinity -8.67864895
REMARK  7 active torsions:
REMARK  status: ('A' for Active; 'I' for Inactive)
REMARK    1  A    between atoms: C2_2  and  C3_3 
REMARK    2  A    between atoms: C4_5  and  C5_6 
REMARK    3  A    between atoms: C5_6  and  C6_7 
REMARK    4  A    between atoms: C6_7  and  C7_8 
REMARK    5  A    between atoms: C7_8  and  C9_10 
REMARK    6  A    between atoms: C11_12  and  O2_13 
REMARK    7  A    between atoms: C30_33  and  O4_34 
ROOT
HETATM    1  C9  UNL     1      -0.593  50.901 -22.789  1.00  0.00     0.001 C 
HETATM    2  C10 UNL     1      -0.019  51.327 -21.403  1.00  0.00     0.038 C 
HETATM    3  C11 UNL     1      -0.966  50.766 -20.327  1.00  0.00     0.132 C 
HETATM    4  C12 UNL     1      -1.761  49.659 -21.055  1.00  0.00     0.016 C 
HETATM    5  C13 UNL     1      -0.870  48.374 -21.153  1.00  0.00     0.023 C 
HETATM    6  C14 UNL     1      -3.088  49.191 -20.455  1.00  0.00    -0.037 C 
HETATM    7  C15 UNL     1      -4.025  48.638 -21.271  1.00  0.00    -0.065 C 
HETATM    8  C16 UNL     1      -3.836  48.608 -22.797  1.00  0.00     0.036 C 
HETATM    9  C17 UNL     1      -2.603  49.324 -23.392  1.00  0.00     0.015 C 
HETATM   10  C18 UNL     1      -2.021  50.372 -22.435  1.00  0.00    -0.026 C 
HETATM   11  C19 UNL     1      -3.020  51.567 -22.333  1.00  0.00     0.016 C 
HETATM   12  C20 UNL     1      -5.340  48.023 -20.718  1.00  0.00    -0.015 C 
HETATM   13  C21 UNL     1      -6.486  48.993 -21.096  1.00  0.00     0.020 C 
HETATM   14  C22 UNL     1      -5.608  46.639 -21.382  1.00  0.00     0.021 C 
HETATM   15  C23 UNL     1      -6.415  45.648 -20.548  1.00  0.00     0.080 C 
HETATM   16  C24 UNL     1      -7.270  46.333 -19.512  1.00  0.00     0.135 C 
HETATM   17  O3  UNL     1      -8.484  46.132 -19.468  1.00  0.00    -0.297 OA
HETATM   18  C25 UNL     1      -6.537  47.218 -18.497  1.00  0.00     0.018 C 
HETATM   19  C26 UNL     1      -6.158  46.310 -17.310  1.00  0.00     0.023 C 
HETATM   20  C27 UNL     1      -7.494  48.297 -17.956  1.00  0.00     0.023 C 
HETATM   21  C28 UNL     1      -5.237  47.788 -19.166  1.00  0.00     0.016 C 
HETATM   22  C29 UNL     1      -4.678  49.030 -18.459  1.00  0.00     0.043 C 
HETATM   23  C30 UNL     1      -3.276  49.363 -18.965  1.00  0.00     0.148 C 
ENDROOT
BRANCH   1  24
HETATM   24  C7  UNL     1      -0.427  52.014 -23.861  1.00  0.00    -0.013 C 
HETATM   25  C8  UNL     1       0.489  53.155 -23.405  1.00  0.00     0.010 C 
BRANCH  24  26
HETATM   26  C6  UNL     1      -1.786  52.596 -24.338  1.00  0.00     0.008 C 
BRANCH  26  27
HETATM   27  C5  UNL     1      -2.196  52.205 -25.761  1.00  0.00     0.028 C 
BRANCH  27  28
HETATM   28  C4  UNL     1      -1.012  51.732 -26.563  1.00  0.00    -0.017 C 
HETATM   29  C2  UNL     1      -0.314  52.417 -27.487  1.00  0.00    -0.028 C 
HETATM   30  C1  UNL     1       0.826  51.808 -28.251  1.00  0.00     0.051 C 
BRANCH  29  31
HETATM   31  C3  UNL     1      -0.581  53.849 -27.814  1.00  0.00     0.265 C 
HETATM   32  O1  UNL     1      -1.645  54.273 -28.246  1.00  0.00    -0.302 OA
ENDBRANCH  29  31
ENDBRANCH  27  28
ENDBRANCH  26  27
ENDBRANCH  24  26
ENDBRANCH   1  24
BRANCH   3  33
HETATM   33  O2  UNL     1      -0.255  50.285 -19.191  1.00  0.00    -0.394 OA
HETATM   34  H18 UNL     1       0.352  50.993 -18.910  1.00  0.00     0.210 HD
ENDBRANCH   3  33
BRANCH  23  35
HETATM   35  O4  UNL     1      -2.345  48.529 -18.285  1.00  0.00    -0.391 OA
HETATM   36  H46 UNL     1      -1.473  48.968 -18.380  1.00  0.00     0.210 HD
ENDBRANCH  23  35
TORSDOF 7
ENDMDL
MODEL 9
REMARK minimizedAffinity -8.63883495
REMARK  7 active torsions:
REMARK  status: ('A' for Active; 'I' for Inactive)
REMARK    1  A    between atoms: C2_2  and  C3_3 
REMARK    2  A    between atoms: C4_5  and  C5_6 
REMARK    3  A    between atoms: C5_6  and  C6_7 
REMARK    4  A    between atoms: C6_7  and  C7_8 
REMARK    5  A    between atoms: C7_8  and  C9_10 
REMARK    6  A    between atoms: C11_12  and  O2_13 
REMARK    7  A    between atoms: C30_33  and  O4_34 
ROOT
HETATM    1  C9  UNL     1      -0.908  50.040 -20.186  1.00  0.00     0.001 C 
HETATM    2  C10 UNL     1      -1.195  49.018 -19.044  1.00  0.00     0.038 C 
HETATM    3  C11 UNL     1      -2.477  48.256 -19.428  1.00  0.00     0.132 C 
HETATM    4  C12 UNL     1      -2.627  48.496 -20.947  1.00  0.00     0.016 C 
HETATM    5  C13 UNL     1      -1.650  47.538 -21.711  1.00  0.00     0.023 C 
HETATM    6  C14 UNL     1      -3.996  48.286 -21.594  1.00  0.00    -0.037 C 
HETATM    7  C15 UNL     1      -4.293  48.947 -22.745  1.00  0.00    -0.065 C 
HETATM    8  C16 UNL     1      -3.341  50.006 -23.325  1.00  0.00     0.036 C 
HETATM    9  C17 UNL     1      -2.086  50.384 -22.506  1.00  0.00     0.015 C 
HETATM   10  C18 UNL     1      -2.229  50.019 -21.023  1.00  0.00    -0.026 C 
HETATM   11  C19 UNL     1      -3.285  50.965 -20.373  1.00  0.00     0.016 C 
HETATM   12  C20 UNL     1      -5.609  48.687 -23.528  1.00  0.00    -0.015 C 
HETATM   13  C21 UNL     1      -6.512  49.926 -23.318  1.00  0.00     0.020 C 
HETATM   14  C22 UNL     1      -5.308  48.531 -25.050  1.00  0.00     0.021 C 
HETATM   15  C23 UNL     1      -6.289  47.665 -25.835  1.00  0.00     0.080 C 
HETATM   16  C24 UNL     1      -7.639  47.579 -25.168  1.00  0.00     0.135 C 
HETATM   17  O3  UNL     1      -8.662  47.889 -25.779  1.00  0.00    -0.297 OA
HETATM   18  C25 UNL     1      -7.661  47.026 -23.738  1.00  0.00     0.018 C 
HETATM   19  C26 UNL     1      -7.833  45.498 -23.858  1.00  0.00     0.023 C 
HETATM   20  C27 UNL     1      -8.894  47.565 -22.988  1.00  0.00     0.023 C 
HETATM   21  C28 UNL     1      -6.292  47.354 -23.046  1.00  0.00     0.016 C 
HETATM   22  C29 UNL     1      -6.350  47.292 -21.514  1.00  0.00     0.043 C 
HETATM   23  C30 UNL     1      -4.947  47.330 -20.911  1.00  0.00     0.148 C 
ENDROOT
BRANCH   1  24
HETATM   24  C7  UNL     1      -0.362  51.390 -19.642  1.00  0.00    -0.013 C 
HETATM   25  C8  UNL     1       0.612  52.076 -20.606  1.00  0.00     0.010 C 
BRANCH  24  26
HETATM   26  C6  UNL     1       0.302  51.250 -18.244  1.00  0.00     0.008 C 
BRANCH  26  27
HETATM   27  C5  UNL     1       0.756  52.568 -17.607  1.00  0.00     0.028 C 
BRANCH  27  28
HETATM   28  C4  UNL     1       2.238  52.566 -17.339  1.00  0.00    -0.017 C 
HETATM   29  C2  UNL     1       2.868  52.265 -16.189  1.00  0.00    -0.028 C 
HETATM   30  C1  UNL     1       4.359  52.346 -16.042  1.00  0.00     0.051 C 
BRANCH  29  31
HETATM   31  C3  UNL     1       2.153  51.791 -14.967  1.00  0.00     0.265 C 
HETATM   32  O1  UNL     1       2.109  50.624 -14.601  1.00  0.00    -0.302 OA
ENDBRANCH  29  31
ENDBRANCH  27  28
ENDBRANCH  26  27
ENDBRANCH  24  26
ENDBRANCH   1  24
BRANCH   3  33
HETATM   33  O2  UNL     1      -2.399  46.876 -19.087  1.00  0.00    -0.394 OA
HETATM   34  H18 UNL     1      -2.125  46.824 -18.155  1.00  0.00     0.210 HD
ENDBRANCH   3  33
BRANCH  23  35
HETATM   35  O4  UNL     1      -4.400  46.018 -20.967  1.00  0.00    -0.391 OA
HETATM   36  H46 UNL     1      -3.672  46.004 -20.309  1.00  0.00     0.210 HD
ENDBRANCH  23  35
TORSDOF 7
ENDMDL
