MODEL 1
REMARK minimizedAffinity -7.14085007
REMARK CNNscore 0.804514289
REMARK CNNaffinity 7.82423401
REMARK  10 active torsions:
REMARK  status: ('A' for Active; 'I' for Inactive)
REMARK    1  A    between atoms: O1_2  and  C2_3 
REMARK    2  A    between atoms: C2_3  and  C3_4 
REMARK    3  A    between atoms: C2_3  and  C26_35 
REMARK    4  A    between atoms: C3_4  and  C4_5 
REMARK    5  A    between atoms: C4_5  and  C5_6 
REMARK    6  A    between atoms: C5_6  and  C7_8 
REMARK    7  A    between atoms: C13_17  and  C14_18 
REMARK    8  A    between atoms: C14_18  and  O5_19 
REMARK    9  A    between atoms: C17_24  and  O8_25 
REMARK   10  A    between atoms: C30_39  and  O10_40 
ROOT
HETATM    1  C7  UNL     1       1.293  53.102  -9.603  1.00  0.00     0.135 C 
HETATM    2  O2  UNL     1       1.880  54.397  -9.364  1.00  0.00    -0.348 OA
HETATM    3  C8  UNL     1       3.008  54.467  -8.481  1.00  0.00     0.177 C 
HETATM    4  C9  UNL     1       2.496  53.997  -7.114  1.00  0.00     0.102 C 
HETATM    5  C10 UNL     1       1.869  52.606  -7.178  1.00  0.00     0.143 C 
HETATM    6  O3  UNL     1       2.841  51.565  -7.409  1.00  0.00    -0.315 OA
HETATM    7  C11 UNL     1       3.465  51.066  -6.308  1.00  0.00     0.261 C 
HETATM    8  O4  UNL     1       3.320  51.513  -5.175  1.00  0.00    -0.265 OA
HETATM    9  C12 UNL     1       4.300  49.841  -6.601  1.00  0.00     0.145 C 
HETATM   10  C13 UNL     1       4.819  49.742  -8.038  1.00  0.00     0.164 C 
HETATM   11  O6  UNL     1       5.747  50.822  -8.233  1.00  0.00    -0.313 OA
HETATM   12  C15 UNL     1       5.671  51.461  -9.432  1.00  0.00     0.264 C 
HETATM   13  O7  UNL     1       5.211  50.980 -10.459  1.00  0.00    -0.265 OA
HETATM   14  C16 UNL     1       6.255  52.847  -9.322  1.00  0.00     0.179 C 
HETATM   15  C17 UNL     1       5.368  53.745  -8.443  1.00  0.00     0.177 C 
HETATM   16  O9  UNL     1       4.056  53.652  -8.998  1.00  0.00    -0.318 OA
HETATM   17  C18 UNL     1       5.889  55.203  -8.461  1.00  0.00     0.045 C 
HETATM   18  C19 UNL     1       7.236  55.413  -7.762  1.00  0.00     0.015 C 
HETATM   19  C20 UNL     1       4.841  56.142  -7.839  1.00  0.00     0.024 C 
HETATM   20  C21 UNL     1       3.464  55.978  -8.523  1.00  0.00     0.010 C 
HETATM   21  C22 UNL     1       2.461  56.925  -7.832  1.00  0.00     0.020 C 
HETATM   22  C23 UNL     1       3.586  56.457 -10.001  1.00  0.00     0.020 C 
HETATM   23  C24 UNL     1       0.772  52.520  -8.265  1.00  0.00     0.041 C 
HETATM   24  C25 UNL     1       0.285  51.064  -8.325  1.00  0.00     0.015 C 
ENDROOT
BRANCH   1  25
HETATM   25  C5  UNL     1       0.210  53.430 -10.682  1.00  0.00     0.011 C 
HETATM   26  C6  UNL     1      -0.334  54.854 -10.483  1.00  0.00     0.012 C 
BRANCH  25  27
HETATM   27  C4  UNL     1       0.530  53.187 -12.171  1.00  0.00     0.009 C 
BRANCH  27  28
HETATM   28  C3  UNL     1      -0.131  51.989 -12.867  1.00  0.00     0.037 C 
BRANCH  28  29
HETATM   29  C2  UNL     1       0.811  50.902 -13.426  1.00  0.00     0.153 C 
BRANCH  29  30
HETATM   30  O1  UNL     1       1.592  50.349 -12.357  1.00  0.00    -0.386 OA
HETATM   31  C1  UNL     1       1.432  48.942 -12.227  1.00  0.00     0.202 C 
ENDBRANCH  29  30
BRANCH  29  32
HETATM   32  C26 UNL     1       1.709  51.509 -14.500  1.00  0.00    -0.027 A 
HETATM   33  C27 UNL     1       3.104  51.519 -14.329  1.00  0.00     0.010 A 
HETATM   34  C28 UNL     1       3.937  52.029 -15.329  1.00  0.00     0.003 A 
HETATM   35  C29 UNL     1       3.388  52.536 -16.506  1.00  0.00     0.036 A 
HETATM   36  C30 UNL     1       2.009  52.532 -16.677  1.00  0.00     0.066 A 
HETATM   37  C31 UNL     1       1.167  52.018 -15.695  1.00  0.00     0.046 A 
BRANCH  36  38
HETATM   38  O10 UNL     1       1.516  53.047 -17.837  1.00  0.00    -0.361 OA
HETATM   39  H45 UNL     1       0.547  53.073 -17.773  1.00  0.00     0.217 HD
ENDBRANCH  36  38
ENDBRANCH  29  32
ENDBRANCH  28  29
ENDBRANCH  27  28
ENDBRANCH  25  27
ENDBRANCH   1  25
BRANCH  15  40
HETATM   40  O8  UNL     1       5.425  53.219  -7.125  1.00  0.00    -0.364 OA
HETATM   41  H25 UNL     1       5.469  53.921  -6.462  1.00  0.00     0.213 HD
ENDBRANCH  15  40
BRANCH  10  42
HETATM   42  C14 UNL     1       5.552  48.419  -8.261  1.00  0.00     0.197 C 
BRANCH  42  43
HETATM   43  O5  UNL     1       6.665  48.607  -9.128  1.00  0.00    -0.398 OA
HETATM   44  H22 UNL     1       6.867  47.749  -9.534  1.00  0.00     0.209 HD
ENDBRANCH  42  43
ENDBRANCH  10  42
TORSDOF 10
ENDMDL
MODEL 2
REMARK minimizedAffinity -7.25381517
REMARK CNNscore 0.796088994
REMARK CNNaffinity 6.855371
REMARK  10 active torsions:
REMARK  status: ('A' for Active; 'I' for Inactive)
REMARK    1  A    between atoms: O1_2  and  C2_3 
REMARK    2  A    between atoms: C2_3  and  C3_4 
REMARK    3  A    between atoms: C2_3  and  C26_35 
REMARK    4  A    between atoms: C3_4  and  C4_5 
REMARK    5  A    between atoms: C4_5  and  C5_6 
REMARK    6  A    between atoms: C5_6  and  C7_8 
REMARK    7  A    between atoms: C13_17  and  C14_18 
REMARK    8  A    between atoms: C14_18  and  O5_19 
REMARK    9  A    between atoms: C17_24  and  O8_25 
REMARK   10  A    between atoms: C30_39  and  O10_40 
ROOT
HETATM    1  C7  UNL     1       0.677  55.341  -7.966  1.00  0.00     0.135 C 
HETATM    2  O2  UNL     1       1.580  55.321  -9.090  1.00  0.00    -0.348 OA
HETATM    3  C8  UNL     1       2.978  55.505  -8.829  1.00  0.00     0.177 C 
HETATM    4  C9  UNL     1       3.108  56.911  -8.231  1.00  0.00     0.102 C 
HETATM    5  C10 UNL     1       2.236  57.096  -6.992  1.00  0.00     0.143 C 
HETATM    6  O3  UNL     1       2.710  56.340  -5.857  1.00  0.00    -0.315 OA
HETATM    7  C11 UNL     1       3.662  56.935  -5.090  1.00  0.00     0.261 C 
HETATM    8  O4  UNL     1       4.193  58.007  -5.363  1.00  0.00    -0.265 OA
HETATM    9  C12 UNL     1       3.949  56.185  -3.809  1.00  0.00     0.145 C 
HETATM   10  C13 UNL     1       3.662  54.682  -3.864  1.00  0.00     0.164 C 
HETATM   11  O6  UNL     1       4.592  54.103  -4.794  1.00  0.00    -0.313 OA
HETATM   12  C15 UNL     1       4.086  53.152  -5.626  1.00  0.00     0.264 C 
HETATM   13  O7  UNL     1       3.089  52.478  -5.401  1.00  0.00    -0.265 OA
HETATM   14  C16 UNL     1       4.943  53.028  -6.859  1.00  0.00     0.179 C 
HETATM   15  C17 UNL     1       4.825  54.287  -7.735  1.00  0.00     0.177 C 
HETATM   16  O9  UNL     1       3.426  54.478  -7.949  1.00  0.00    -0.318 OA
HETATM   17  C18 UNL     1       5.583  54.091  -9.071  1.00  0.00     0.045 C 
HETATM   18  C19 UNL     1       7.107  54.012  -8.940  1.00  0.00     0.015 C 
HETATM   19  C20 UNL     1       5.213  55.215 -10.053  1.00  0.00     0.024 C 
HETATM   20  C21 UNL     1       3.681  55.323 -10.231  1.00  0.00     0.010 C 
HETATM   21  C22 UNL     1       3.385  56.484 -11.203  1.00  0.00     0.020 C 
HETATM   22  C23 UNL     1       3.170  54.022 -10.920  1.00  0.00     0.020 C 
HETATM   23  C24 UNL     1       0.761  56.721  -7.265  1.00  0.00     0.041 C 
HETATM   24  C25 UNL     1      -0.006  56.833  -5.939  1.00  0.00     0.015 C 
ENDROOT
BRANCH   1  25
HETATM   25  C5  UNL     1      -0.689  54.989  -8.639  1.00  0.00     0.011 C 
HETATM   26  C6  UNL     1      -0.673  55.381 -10.126  1.00  0.00     0.012 C 
BRANCH  25  27
HETATM   27  C4  UNL     1      -1.272  53.571  -8.470  1.00  0.00     0.009 C 
BRANCH  27  28
HETATM   28  C3  UNL     1      -2.441  53.157  -9.374  1.00  0.00     0.037 C 
BRANCH  28  29
HETATM   29  C2  UNL     1      -2.209  51.945 -10.301  1.00  0.00     0.153 C 
BRANCH  29  30
HETATM   30  O1  UNL     1      -2.286  52.368 -11.670  1.00  0.00    -0.386 OA
HETATM   31  C1  UNL     1      -1.015  52.402 -12.309  1.00  0.00     0.202 C 
ENDBRANCH  29  30
BRANCH  29  32
HETATM   32  C26 UNL     1      -3.250  50.870 -10.004  1.00  0.00    -0.027 A 
HETATM   33  C27 UNL     1      -2.891  49.724  -9.274  1.00  0.00     0.010 A 
HETATM   34  C28 UNL     1      -3.849  48.757  -8.955  1.00  0.00     0.003 A 
HETATM   35  C29 UNL     1      -5.172  48.922  -9.363  1.00  0.00     0.036 A 
HETATM   36  C30 UNL     1      -5.530  50.052 -10.088  1.00  0.00     0.066 A 
HETATM   37  C31 UNL     1      -4.590  51.028 -10.404  1.00  0.00     0.046 A 
BRANCH  36  38
HETATM   38  O10 UNL     1      -6.831  50.166 -10.475  1.00  0.00    -0.361 OA
HETATM   39  H45 UNL     1      -6.911  50.942 -11.054  1.00  0.00     0.217 HD
ENDBRANCH  36  38
ENDBRANCH  29  32
ENDBRANCH  28  29
ENDBRANCH  27  28
ENDBRANCH  25  27
ENDBRANCH   1  25
BRANCH  15  40
HETATM   40  O8  UNL     1       5.399  55.358  -6.997  1.00  0.00    -0.364 OA
HETATM   41  H25 UNL     1       5.917  55.945  -7.565  1.00  0.00     0.213 HD
ENDBRANCH  15  40
BRANCH  10  42
HETATM   42  C14 UNL     1       3.876  54.038  -2.493  1.00  0.00     0.197 C 
BRANCH  42  43
HETATM   43  O5  UNL     1       5.125  53.360  -2.451  1.00  0.00    -0.398 OA
HETATM   44  H22 UNL     1       5.067  52.684  -1.757  1.00  0.00     0.209 HD
ENDBRANCH  42  43
ENDBRANCH  10  42
TORSDOF 10
ENDMDL
MODEL 3
REMARK minimizedAffinity -7.35946798
REMARK CNNscore 0.760572731
REMARK CNNaffinity 7.11915636
REMARK  10 active torsions:
REMARK  status: ('A' for Active; 'I' for Inactive)
REMARK    1  A    between atoms: O1_2  and  C2_3 
REMARK    2  A    between atoms: C2_3  and  C3_4 
REMARK    3  A    between atoms: C2_3  and  C26_35 
REMARK    4  A    between atoms: C3_4  and  C4_5 
REMARK    5  A    between atoms: C4_5  and  C5_6 
REMARK    6  A    between atoms: C5_6  and  C7_8 
REMARK    7  A    between atoms: C13_17  and  C14_18 
REMARK    8  A    between atoms: C14_18  and  O5_19 
REMARK    9  A    between atoms: C17_24  and  O8_25 
REMARK   10  A    between atoms: C30_39  and  O10_40 
ROOT
HETATM    1  C7  UNL     1       2.430  51.467 -11.351  1.00  0.00     0.135 C 
HETATM    2  O2  UNL     1       2.602  52.859 -11.014  1.00  0.00    -0.348 OA
HETATM    3  C8  UNL     1       3.321  53.171  -9.812  1.00  0.00     0.177 C 
HETATM    4  C9  UNL     1       2.493  52.576  -8.666  1.00  0.00     0.102 C 
HETATM    5  C10 UNL     1       2.247  51.080  -8.846  1.00  0.00     0.143 C 
HETATM    6  O3  UNL     1       3.444  50.292  -8.674  1.00  0.00    -0.315 OA
HETATM    7  C11 UNL     1       3.753  49.933  -7.400  1.00  0.00     0.261 C 
HETATM    8  O4  UNL     1       3.139  50.318  -6.410  1.00  0.00    -0.265 OA
HETATM    9  C12 UNL     1       4.885  48.935  -7.320  1.00  0.00     0.145 C 
HETATM   10  C13 UNL     1       5.867  48.978  -8.494  1.00  0.00     0.164 C 
HETATM   11  O6  UNL     1       6.545  50.244  -8.438  1.00  0.00    -0.313 OA
HETATM   12  C15 UNL     1       6.739  50.868  -9.632  1.00  0.00     0.264 C 
HETATM   13  O7  UNL     1       6.771  50.310 -10.721  1.00  0.00    -0.265 OA
HETATM   14  C16 UNL     1       6.932  52.348  -9.422  1.00  0.00     0.179 C 
HETATM   15  C17 UNL     1       5.626  53.007  -8.947  1.00  0.00     0.177 C 
HETATM   16  O9  UNL     1       4.633  52.624  -9.899  1.00  0.00    -0.318 OA
HETATM   17  C18 UNL     1       5.789  54.546  -8.883  1.00  0.00     0.045 C 
HETATM   18  C19 UNL     1       6.739  55.047  -7.792  1.00  0.00     0.015 C 
HETATM   19  C20 UNL     1       4.413  55.210  -8.706  1.00  0.00     0.024 C 
HETATM   20  C21 UNL     1       3.420  54.747  -9.796  1.00  0.00     0.010 C 
HETATM   21  C22 UNL     1       2.060  55.429  -9.539  1.00  0.00     0.020 C 
HETATM   22  C23 UNL     1       3.925  55.263 -11.177  1.00  0.00     0.020 C 
HETATM   23  C24 UNL     1       1.629  50.762 -10.228  1.00  0.00     0.041 C 
HETATM   24  C25 UNL     1       1.524  49.234 -10.354  1.00  0.00     0.015 C 
ENDROOT
BRANCH   1  25
HETATM   25  C5  UNL     1       1.731  51.555 -12.747  1.00  0.00     0.011 C 
HETATM   26  C6  UNL     1       0.762  52.749 -12.789  1.00  0.00     0.012 C 
BRANCH  25  27
HETATM   27  C4  UNL     1       2.592  51.525 -14.026  1.00  0.00     0.009 C 
BRANCH  27  28
HETATM   28  C3  UNL     1       1.953  51.997 -15.339  1.00  0.00     0.037 C 
BRANCH  28  29
HETATM   29  C2  UNL     1       0.800  51.138 -15.900  1.00  0.00     0.153 C 
BRANCH  29  30
HETATM   30  O1  UNL     1       1.114  49.748 -15.735  1.00  0.00    -0.386 OA
HETATM   31  C1  UNL     1       0.132  49.046 -14.982  1.00  0.00     0.202 C 
ENDBRANCH  29  30
BRANCH  29  32
HETATM   32  C26 UNL     1       0.582  51.477 -17.372  1.00  0.00    -0.027 A 
HETATM   33  C27 UNL     1      -0.176  50.619 -18.188  1.00  0.00     0.010 A 
HETATM   34  C28 UNL     1      -0.421  50.945 -19.525  1.00  0.00     0.003 A 
HETATM   35  C29 UNL     1       0.087  52.127 -20.061  1.00  0.00     0.036 A 
HETATM   36  C30 UNL     1       0.840  52.977 -19.259  1.00  0.00     0.066 A 
HETATM   37  C31 UNL     1       1.084  52.670 -17.924  1.00  0.00     0.046 A 
BRANCH  36  38
HETATM   38  O10 UNL     1       1.326  54.114 -19.828  1.00  0.00    -0.361 OA
HETATM   39  H45 UNL     1       1.911  54.551 -19.187  1.00  0.00     0.217 HD
ENDBRANCH  36  38
ENDBRANCH  29  32
ENDBRANCH  28  29
ENDBRANCH  27  28
ENDBRANCH  25  27
ENDBRANCH   1  25
BRANCH  15  40
HETATM   40  O8  UNL     1       5.349  52.488  -7.654  1.00  0.00    -0.364 OA
HETATM   41  H25 UNL     1       5.010  53.172  -7.060  1.00  0.00     0.213 HD
ENDBRANCH  15  40
BRANCH  10  42
HETATM   42  C14 UNL     1       6.905  47.861  -8.377  1.00  0.00     0.197 C 
BRANCH  42  43
HETATM   43  O5  UNL     1       7.329  47.439  -9.667  1.00  0.00    -0.398 OA
HETATM   44  H22 UNL     1       7.670  46.534  -9.581  1.00  0.00     0.209 HD
ENDBRANCH  42  43
ENDBRANCH  10  42
TORSDOF 10
ENDMDL
MODEL 4
REMARK minimizedAffinity -7.65911818
REMARK CNNscore 0.62481308
REMARK CNNaffinity 6.78059959
REMARK  10 active torsions:
REMARK  status: ('A' for Active; 'I' for Inactive)
REMARK    1  A    between atoms: O1_2  and  C2_3 
REMARK    2  A    between atoms: C2_3  and  C3_4 
REMARK    3  A    between atoms: C2_3  and  C26_35 
REMARK    4  A    between atoms: C3_4  and  C4_5 
REMARK    5  A    between atoms: C4_5  and  C5_6 
REMARK    6  A    between atoms: C5_6  and  C7_8 
REMARK    7  A    between atoms: C13_17  and  C14_18 
REMARK    8  A    between atoms: C14_18  and  O5_19 
REMARK    9  A    between atoms: C17_24  and  O8_25 
REMARK   10  A    between atoms: C30_39  and  O10_40 
ROOT
HETATM    1  C7  UNL     1       2.287  52.557 -11.380  1.00  0.00     0.135 C 
HETATM    2  O2  UNL     1       3.048  53.768 -11.190  1.00  0.00    -0.348 OA
HETATM    3  C8  UNL     1       2.646  54.651 -10.134  1.00  0.00     0.177 C 
HETATM    4  C9  UNL     1       1.230  55.116 -10.495  1.00  0.00     0.102 C 
HETATM    5  C10 UNL     1       0.271  53.945 -10.696  1.00  0.00     0.143 C 
HETATM    6  O3  UNL     1      -0.040  53.259  -9.464  1.00  0.00    -0.315 OA
HETATM    7  C11 UNL     1      -1.061  53.772  -8.728  1.00  0.00     0.261 C 
HETATM    8  O4  UNL     1      -1.648  54.815  -9.000  1.00  0.00    -0.265 OA
HETATM    9  C12 UNL     1      -1.469  52.884  -7.575  1.00  0.00     0.145 C 
HETATM   10  C13 UNL     1      -0.363  51.969  -7.044  1.00  0.00     0.164 C 
HETATM   11  O6  UNL     1       0.647  52.810  -6.464  1.00  0.00    -0.313 OA
HETATM   12  C15 UNL     1       1.936  52.451  -6.716  1.00  0.00     0.264 C 
HETATM   13  O7  UNL     1       2.308  51.324  -7.014  1.00  0.00    -0.265 OA
HETATM   14  C16 UNL     1       2.850  53.640  -6.555  1.00  0.00     0.179 C 
HETATM   15  C17 UNL     1       2.602  54.674  -7.666  1.00  0.00     0.177 C 
HETATM   16  O9  UNL     1       2.708  53.952  -8.894  1.00  0.00    -0.318 OA
HETATM   17  C18 UNL     1       3.645  55.815  -7.586  1.00  0.00     0.045 C 
HETATM   18  C19 UNL     1       3.512  56.723  -6.359  1.00  0.00     0.015 C 
HETATM   19  C20 UNL     1       3.583  56.671  -8.862  1.00  0.00     0.024 C 
HETATM   20  C21 UNL     1       3.729  55.800 -10.131  1.00  0.00     0.010 C 
HETATM   21  C22 UNL     1       3.630  56.719 -11.366  1.00  0.00     0.020 C 
HETATM   22  C23 UNL     1       5.161  55.184 -10.145  1.00  0.00     0.020 C 
HETATM   23  C24 UNL     1       0.819  52.921 -11.717  1.00  0.00     0.041 C 
HETATM   24  C25 UNL     1      -0.158  51.737 -11.765  1.00  0.00     0.015 C 
ENDROOT
BRANCH   1  25
HETATM   25  C5  UNL     1       3.097  51.838 -12.507  1.00  0.00     0.011 C 
HETATM   26  C6  UNL     1       3.128  50.320 -12.262  1.00  0.00     0.012 C 
BRANCH  25  27
HETATM   27  C4  UNL     1       2.760  52.131 -13.983  1.00  0.00     0.009 C 
BRANCH  27  28
HETATM   28  C3  UNL     1       2.527  50.939 -14.922  1.00  0.00     0.037 C 
BRANCH  28  29
HETATM   29  C2  UNL     1       1.061  50.539 -15.190  1.00  0.00     0.153 C 
BRANCH  29  30
HETATM   30  O1  UNL     1       0.898  49.132 -14.960  1.00  0.00    -0.386 OA
HETATM   31  C1  UNL     1      -0.106  48.844 -13.993  1.00  0.00     0.202 C 
ENDBRANCH  29  30
BRANCH  29  32
HETATM   32  C26 UNL     1       0.687  50.904 -16.624  1.00  0.00    -0.027 A 
HETATM   33  C27 UNL     1      -0.039  49.997 -17.415  1.00  0.00     0.010 A 
HETATM   34  C28 UNL     1      -0.427  50.342 -18.713  1.00  0.00     0.003 A 
HETATM   35  C29 UNL     1      -0.094  51.591 -19.234  1.00  0.00     0.036 A 
HETATM   36  C30 UNL     1       0.627  52.489 -18.456  1.00  0.00     0.066 A 
HETATM   37  C31 UNL     1       1.013  52.164 -17.159  1.00  0.00     0.046 A 
BRANCH  36  38
HETATM   38  O10 UNL     1       0.941  53.692 -19.011  1.00  0.00    -0.361 OA
HETATM   39  H45 UNL     1       1.527  54.168 -18.399  1.00  0.00     0.217 HD
ENDBRANCH  36  38
ENDBRANCH  29  32
ENDBRANCH  28  29
ENDBRANCH  27  28
ENDBRANCH  25  27
ENDBRANCH   1  25
BRANCH  15  40
HETATM   40  O8  UNL     1       1.293  55.189  -7.466  1.00  0.00    -0.364 OA
HETATM   41  H25 UNL     1       1.256  56.142  -7.629  1.00  0.00     0.213 HD
ENDBRANCH  15  40
BRANCH  10  42
HETATM   42  C14 UNL     1      -0.904  51.035  -5.960  1.00  0.00     0.197 C 
BRANCH  42  43
HETATM   43  O5  UNL     1      -1.796  50.082  -6.524  1.00  0.00    -0.398 OA
HETATM   44  H22 UNL     1      -2.381  49.774  -5.814  1.00  0.00     0.209 HD
ENDBRANCH  42  43
ENDBRANCH  10  42
TORSDOF 10
ENDMDL
MODEL 5
REMARK minimizedAffinity -7.19809532
REMARK CNNscore 0.570064604
REMARK CNNaffinity 6.5479331
REMARK  10 active torsions:
REMARK  status: ('A' for Active; 'I' for Inactive)
REMARK    1  A    between atoms: O1_2  and  C2_3 
REMARK    2  A    between atoms: C2_3  and  C3_4 
REMARK    3  A    between atoms: C2_3  and  C26_35 
REMARK    4  A    between atoms: C3_4  and  C4_5 
REMARK    5  A    between atoms: C4_5  and  C5_6 
REMARK    6  A    between atoms: C5_6  and  C7_8 
REMARK    7  A    between atoms: C13_17  and  C14_18 
REMARK    8  A    between atoms: C14_18  and  O5_19 
REMARK    9  A    between atoms: C17_24  and  O8_25 
REMARK   10  A    between atoms: C30_39  and  O10_40 
ROOT
HETATM    1  C7  UNL     1       2.259  53.483 -10.224  1.00  0.00     0.135 C 
HETATM    2  O2  UNL     1       3.664  53.617  -9.928  1.00  0.00    -0.348 OA
HETATM    3  C8  UNL     1       4.030  54.267  -8.703  1.00  0.00     0.177 C 
HETATM    4  C9  UNL     1       3.503  55.703  -8.821  1.00  0.00     0.102 C 
HETATM    5  C10 UNL     1       2.003  55.748  -9.099  1.00  0.00     0.143 C 
HETATM    6  O3  UNL     1       1.212  55.325  -7.968  1.00  0.00    -0.315 OA
HETATM    7  C11 UNL     1       0.915  56.280  -7.047  1.00  0.00     0.261 C 
HETATM    8  O4  UNL     1       1.357  57.424  -7.078  1.00  0.00    -0.265 OA
HETATM    9  C12 UNL     1      -0.089  55.821  -6.015  1.00  0.00     0.145 C 
HETATM   10  C13 UNL     1      -0.115  54.310  -5.769  1.00  0.00     0.164 C 
HETATM   11  O6  UNL     1       1.145  53.950  -5.178  1.00  0.00    -0.313 OA
HETATM   12  C15 UNL     1       1.704  52.794  -5.630  1.00  0.00     0.264 C 
HETATM   13  O7  UNL     1       1.090  51.870  -6.147  1.00  0.00    -0.265 OA
HETATM   14  C16 UNL     1       3.191  52.803  -5.383  1.00  0.00     0.179 C 
HETATM   15  C17 UNL     1       3.887  53.844  -6.276  1.00  0.00     0.177 C 
HETATM   16  O9  UNL     1       3.466  53.551  -7.609  1.00  0.00    -0.318 OA
HETATM   17  C18 UNL     1       5.425  53.741  -6.130  1.00  0.00     0.045 C 
HETATM   18  C19 UNL     1       5.972  54.170  -4.765  1.00  0.00     0.015 C 
HETATM   19  C20 UNL     1       6.112  54.561  -7.235  1.00  0.00     0.024 C 
HETATM   20  C21 UNL     1       5.603  54.153  -8.637  1.00  0.00     0.010 C 
HETATM   21  C22 UNL     1       6.313  55.033  -9.687  1.00  0.00     0.020 C 
HETATM   22  C23 UNL     1       6.044  52.684  -8.914  1.00  0.00     0.020 C 
HETATM   23  C24 UNL     1       1.620  54.891 -10.329  1.00  0.00     0.041 C 
HETATM   24  C25 UNL     1       0.090  54.911 -10.457  1.00  0.00     0.015 C 
ENDROOT
BRANCH   1  25
HETATM   25  C5  UNL     1       2.283  52.636 -11.537  1.00  0.00     0.011 C 
HETATM   26  C6  UNL     1       3.320  51.505 -11.430  1.00  0.00     0.012 C 
BRANCH  25  27
HETATM   27  C4  UNL     1       0.958  52.088 -12.107  1.00  0.00     0.009 C 
BRANCH  27  28
HETATM   28  C3  UNL     1       0.356  50.834 -11.458  1.00  0.00     0.037 C 
BRANCH  28  29
HETATM   29  C2  UNL     1      -1.040  50.398 -11.951  1.00  0.00     0.153 C 
BRANCH  29  30
HETATM   30  O1  UNL     1      -0.993  50.147 -13.363  1.00  0.00    -0.386 OA
HETATM   31  C1  UNL     1      -1.245  48.785 -13.691  1.00  0.00     0.202 C 
ENDBRANCH  29  30
BRANCH  29  32
HETATM   32  C26 UNL     1      -2.059  51.486 -11.625  1.00  0.00    -0.027 A 
HETATM   33  C27 UNL     1      -2.274  51.874 -10.291  1.00  0.00     0.010 A 
HETATM   34  C28 UNL     1      -3.169  52.903  -9.987  1.00  0.00     0.003 A 
HETATM   35  C29 UNL     1      -3.861  53.553 -11.009  1.00  0.00     0.036 A 
HETATM   36  C30 UNL     1      -3.654  53.170 -12.329  1.00  0.00     0.066 A 
HETATM   37  C31 UNL     1      -2.759  52.154 -12.648  1.00  0.00     0.046 A 
BRANCH  36  38
HETATM   38  O10 UNL     1      -4.359  53.824 -13.292  1.00  0.00    -0.361 OA
HETATM   39  H45 UNL     1      -4.193  53.387 -14.144  1.00  0.00     0.217 HD
ENDBRANCH  36  38
ENDBRANCH  29  32
ENDBRANCH  28  29
ENDBRANCH  27  28
ENDBRANCH  25  27
ENDBRANCH   1  25
BRANCH  15  40
HETATM   40  O8  UNL     1       3.438  55.122  -5.847  1.00  0.00    -0.364 OA
HETATM   41  H25 UNL     1       4.155  55.771  -5.848  1.00  0.00     0.213 HD
ENDBRANCH  15  40
BRANCH  10  42
HETATM   42  C14 UNL     1      -1.236  53.937  -4.797  1.00  0.00     0.197 C 
BRANCH  42  43
HETATM   43  O5  UNL     1      -1.889  55.107  -4.319  1.00  0.00    -0.398 OA
HETATM   44  H22 UNL     1      -2.306  54.883  -3.471  1.00  0.00     0.209 HD
ENDBRANCH  42  43
ENDBRANCH  10  42
TORSDOF 10
ENDMDL
MODEL 6
REMARK minimizedAffinity -8.00858974
REMARK CNNscore 0.523332179
REMARK CNNaffinity 6.54841852
REMARK  10 active torsions:
REMARK  status: ('A' for Active; 'I' for Inactive)
REMARK    1  A    between atoms: O1_2  and  C2_3 
REMARK    2  A    between atoms: C2_3  and  C3_4 
REMARK    3  A    between atoms: C2_3  and  C26_35 
REMARK    4  A    between atoms: C3_4  and  C4_5 
REMARK    5  A    between atoms: C4_5  and  C5_6 
REMARK    6  A    between atoms: C5_6  and  C7_8 
REMARK    7  A    between atoms: C13_17  and  C14_18 
REMARK    8  A    between atoms: C14_18  and  O5_19 
REMARK    9  A    between atoms: C17_24  and  O8_25 
REMARK   10  A    between atoms: C30_39  and  O10_40 
ROOT
HETATM    1  C7  UNL     1       1.159  51.917 -12.457  1.00  0.00     0.135 C 
HETATM    2  O2  UNL     1       1.960  52.872 -11.731  1.00  0.00    -0.348 OA
HETATM    3  C8  UNL     1       1.427  53.397 -10.507  1.00  0.00     0.177 C 
HETATM    4  C9  UNL     1       0.152  54.155 -10.900  1.00  0.00     0.102 C 
HETATM    5  C10 UNL     1      -0.837  53.270 -11.654  1.00  0.00     0.143 C 
HETATM    6  O3  UNL     1      -1.440  52.263 -10.813  1.00  0.00    -0.315 OA
HETATM    7  C11 UNL     1      -2.543  52.641 -10.114  1.00  0.00     0.261 C 
HETATM    8  O4  UNL     1      -2.980  53.787 -10.087  1.00  0.00    -0.265 OA
HETATM    9  C12 UNL     1      -3.242  51.486  -9.434  1.00  0.00     0.145 C 
HETATM   10  C13 UNL     1      -2.339  50.297  -9.095  1.00  0.00     0.164 C 
HETATM   11  O6  UNL     1      -1.401  50.741  -8.101  1.00  0.00    -0.313 OA
HETATM   12  C15 UNL     1      -0.121  50.306  -8.256  1.00  0.00     0.264 C 
HETATM   13  O7  UNL     1       0.212  49.302  -8.872  1.00  0.00    -0.265 OA
HETATM   14  C16 UNL     1       0.833  51.227  -7.539  1.00  0.00     0.179 C 
HETATM   15  C17 UNL     1       0.894  52.598  -8.234  1.00  0.00     0.177 C 
HETATM   16  O9  UNL     1       1.186  52.322  -9.605  1.00  0.00    -0.318 OA
HETATM   17  C18 UNL     1       1.988  53.484  -7.588  1.00  0.00     0.045 C 
HETATM   18  C19 UNL     1       1.685  53.937  -6.156  1.00  0.00     0.015 C 
HETATM   19  C20 UNL     1       2.249  54.718  -8.468  1.00  0.00     0.024 C 
HETATM   20  C21 UNL     1       2.576  54.311  -9.924  1.00  0.00     0.010 C 
HETATM   21  C22 UNL     1       2.798  55.595 -10.750  1.00  0.00     0.020 C 
HETATM   22  C23 UNL     1       3.928  53.536  -9.929  1.00  0.00     0.020 C 
HETATM   23  C24 UNL     1      -0.179  52.580 -12.872  1.00  0.00     0.041 C 
HETATM   24  C25 UNL     1      -1.218  51.633 -13.493  1.00  0.00     0.015 C 
ENDROOT
BRANCH   1  25
HETATM   25  C5  UNL     1       2.117  51.508 -13.622  1.00  0.00     0.011 C 
HETATM   26  C6  UNL     1       3.388  50.845 -13.066  1.00  0.00     0.012 C 
BRANCH  25  27
HETATM   27  C4  UNL     1       1.563  50.686 -14.803  1.00  0.00     0.009 C 
BRANCH  27  28
HETATM   28  C3  UNL     1       1.282  51.415 -16.124  1.00  0.00     0.037 C 
BRANCH  28  29
HETATM   29  C2  UNL     1       0.102  50.893 -16.971  1.00  0.00     0.153 C 
BRANCH  29  30
HETATM   30  O1  UNL     1       0.119  49.458 -16.983  1.00  0.00    -0.386 OA
HETATM   31  C1  UNL     1      -1.087  48.887 -16.490  1.00  0.00     0.202 C 
ENDBRANCH  29  30
BRANCH  29  32
HETATM   32  C26 UNL     1       0.204  51.451 -18.387  1.00  0.00    -0.027 A 
HETATM   33  C27 UNL     1      -0.377  50.757 -19.462  1.00  0.00     0.010 A 
HETATM   34  C28 UNL     1      -0.330  51.285 -20.755  1.00  0.00     0.003 A 
HETATM   35  C29 UNL     1       0.299  52.507 -20.990  1.00  0.00     0.036 A 
HETATM   36  C30 UNL     1       0.878  53.195 -19.930  1.00  0.00     0.066 A 
HETATM   37  C31 UNL     1       0.831  52.687 -18.636  1.00  0.00     0.046 A 
BRANCH  36  38
HETATM   38  O10 UNL     1       1.492  54.378 -20.207  1.00  0.00    -0.361 OA
HETATM   39  H45 UNL     1       1.936  54.689 -19.401  1.00  0.00     0.217 HD
ENDBRANCH  36  38
ENDBRANCH  29  32
ENDBRANCH  28  29
ENDBRANCH  27  28
ENDBRANCH  25  27
ENDBRANCH   1  25
BRANCH  15  40
HETATM   40  O8  UNL     1      -0.383  53.199  -8.074  1.00  0.00    -0.364 OA
HETATM   41  H25 UNL     1      -0.312  54.146  -7.891  1.00  0.00     0.213 HD
ENDBRANCH  15  40
BRANCH  10  42
HETATM   42  C14 UNL     1      -3.157  49.142  -8.515  1.00  0.00     0.197 C 
BRANCH  42  43
HETATM   43  O5  UNL     1      -4.529  49.278  -8.867  1.00  0.00    -0.398 OA
HETATM   44  H22 UNL     1      -5.049  48.784  -8.212  1.00  0.00     0.209 HD
ENDBRANCH  42  43
ENDBRANCH  10  42
TORSDOF 10
ENDMDL
MODEL 7
REMARK minimizedAffinity -8.60348892
REMARK CNNscore 0.50323379
REMARK CNNaffinity 6.87346888
REMARK  10 active torsions:
REMARK  status: ('A' for Active; 'I' for Inactive)
REMARK    1  A    between atoms: O1_2  and  C2_3 
REMARK    2  A    between atoms: C2_3  and  C3_4 
REMARK    3  A    between atoms: C2_3  and  C26_35 
REMARK    4  A    between atoms: C3_4  and  C4_5 
REMARK    5  A    between atoms: C4_5  and  C5_6 
REMARK    6  A    between atoms: C5_6  and  C7_8 
REMARK    7  A    between atoms: C13_17  and  C14_18 
REMARK    8  A    between atoms: C14_18  and  O5_19 
REMARK    9  A    between atoms: C17_24  and  O8_25 
REMARK   10  A    between atoms: C30_39  and  O10_40 
ROOT
HETATM    1  C7  UNL     1       0.906  51.748 -14.804  1.00  0.00     0.135 C 
HETATM    2  O2  UNL     1      -0.432  51.214 -14.867  1.00  0.00    -0.348 OA
HETATM    3  C8  UNL     1      -1.021  50.742 -13.648  1.00  0.00     0.177 C 
HETATM    4  C9  UNL     1      -0.142  49.574 -13.184  1.00  0.00     0.102 C 
HETATM    5  C10 UNL     1       1.322  49.981 -13.026  1.00  0.00     0.143 C 
HETATM    6  O3  UNL     1       1.537  50.865 -11.906  1.00  0.00    -0.315 OA
HETATM    7  C11 UNL     1       1.728  50.274 -10.696  1.00  0.00     0.261 C 
HETATM    8  O4  UNL     1       1.630  49.067 -10.499  1.00  0.00    -0.265 OA
HETATM    9  C12 UNL     1       2.162  51.243  -9.621  1.00  0.00     0.145 C 
HETATM   10  C13 UNL     1       1.719  52.692  -9.842  1.00  0.00     0.164 C 
HETATM   11  O6  UNL     1       0.285  52.720  -9.745  1.00  0.00    -0.313 OA
HETATM   12  C15 UNL     1      -0.356  53.503 -10.655  1.00  0.00     0.264 C 
HETATM   13  O7  UNL     1       0.143  54.454 -11.243  1.00  0.00    -0.265 OA
HETATM   14  C16 UNL     1      -1.783  53.047 -10.823  1.00  0.00     0.179 C 
HETATM   15  C17 UNL     1      -1.839  51.674 -11.514  1.00  0.00     0.177 C 
HETATM   16  O9  UNL     1      -1.072  51.813 -12.710  1.00  0.00    -0.318 OA
HETATM   17  C18 UNL     1      -3.306  51.282 -11.822  1.00  0.00     0.045 C 
HETATM   18  C19 UNL     1      -4.164  50.982 -10.589  1.00  0.00     0.015 C 
HETATM   19  C20 UNL     1      -3.336  50.072 -12.771  1.00  0.00     0.024 C 
HETATM   20  C21 UNL     1      -2.495  50.333 -14.041  1.00  0.00     0.010 C 
HETATM   21  C22 UNL     1      -2.550  49.071 -14.928  1.00  0.00     0.020 C 
HETATM   22  C23 UNL     1      -3.169  51.480 -14.853  1.00  0.00     0.020 C 
HETATM   23  C24 UNL     1       1.876  50.646 -14.307  1.00  0.00     0.041 C 
HETATM   24  C25 UNL     1       3.308  51.115 -14.010  1.00  0.00     0.015 C 
ENDROOT
BRANCH   1  25
HETATM   25  C5  UNL     1       1.125  52.252 -16.267  1.00  0.00     0.011 C 
HETATM   26  C6  UNL     1       2.604  52.602 -16.501  1.00  0.00     0.012 C 
BRANCH  25  27
HETATM   27  C4  UNL     1       0.587  51.412 -17.443  1.00  0.00     0.009 C 
BRANCH  27  28
HETATM   28  C3  UNL     1      -0.408  52.072 -18.408  1.00  0.00     0.037 C 
BRANCH  28  29
HETATM   29  C2  UNL     1      -0.753  51.291 -19.694  1.00  0.00     0.153 C 
BRANCH  29  30
HETATM   30  O1  UNL     1      -0.236  49.956 -19.597  1.00  0.00    -0.386 OA
HETATM   31  C1  UNL     1      -1.230  48.962 -19.823  1.00  0.00     0.202 C 
ENDBRANCH  29  30
BRANCH  29  32
HETATM   32  C26 UNL     1      -0.166  52.016 -20.902  1.00  0.00    -0.027 A 
HETATM   33  C27 UNL     1      -0.512  51.611 -22.203  1.00  0.00     0.010 A 
HETATM   34  C28 UNL     1      -0.018  52.299 -23.315  1.00  0.00     0.003 A 
HETATM   35  C29 UNL     1       0.827  53.395 -23.141  1.00  0.00     0.036 A 
HETATM   36  C30 UNL     1       1.174  53.796 -21.856  1.00  0.00     0.066 A 
HETATM   37  C31 UNL     1       0.682  53.127 -20.740  1.00  0.00     0.046 A 
BRANCH  36  38
HETATM   38  O10 UNL     1       2.010  54.864 -21.734  1.00  0.00    -0.361 OA
HETATM   39  H45 UNL     1       2.245  54.963 -20.797  1.00  0.00     0.217 HD
ENDBRANCH  36  38
ENDBRANCH  29  32
ENDBRANCH  28  29
ENDBRANCH  27  28
ENDBRANCH  25  27
ENDBRANCH   1  25
BRANCH  15  40
HETATM   40  O8  UNL     1      -1.259  50.736 -10.618  1.00  0.00    -0.364 OA
HETATM   41  H25 UNL     1      -1.742  49.899 -10.615  1.00  0.00     0.213 HD
ENDBRANCH  15  40
BRANCH  10  42
HETATM   42  C14 UNL     1       2.300  53.609  -8.765  1.00  0.00     0.197 C 
BRANCH  42  43
HETATM   43  O5  UNL     1       2.219  54.969  -9.173  1.00  0.00    -0.398 OA
HETATM   44  H22 UNL     1       2.896  55.462  -8.681  1.00  0.00     0.209 HD
ENDBRANCH  42  43
ENDBRANCH  10  42
TORSDOF 10
ENDMDL
MODEL 8
REMARK minimizedAffinity -7.23773909
REMARK CNNscore 0.443495244
REMARK CNNaffinity 6.27039719
REMARK  10 active torsions:
REMARK  status: ('A' for Active; 'I' for Inactive)
REMARK    1  A    between atoms: O1_2  and  C2_3 
REMARK    2  A    between atoms: C2_3  and  C3_4 
REMARK    3  A    between atoms: C2_3  and  C26_35 
REMARK    4  A    between atoms: C3_4  and  C4_5 
REMARK    5  A    between atoms: C4_5  and  C5_6 
REMARK    6  A    between atoms: C5_6  and  C7_8 
REMARK    7  A    between atoms: C13_17  and  C14_18 
REMARK    8  A    between atoms: C14_18  and  O5_19 
REMARK    9  A    between atoms: C17_24  and  O8_25 
REMARK   10  A    between atoms: C30_39  and  O10_40 
ROOT
HETATM    1  C7  UNL     1       3.204  51.710 -11.589  1.00  0.00     0.135 C 
HETATM    2  O2  UNL     1       3.089  53.132 -11.377  1.00  0.00    -0.348 OA
HETATM    3  C8  UNL     1       3.406  53.641 -10.074  1.00  0.00     0.177 C 
HETATM    4  C9  UNL     1       2.386  53.006  -9.120  1.00  0.00     0.102 C 
HETATM    5  C10 UNL     1       2.401  51.481  -9.188  1.00  0.00     0.143 C 
HETATM    6  O3  UNL     1       3.601  50.909  -8.626  1.00  0.00    -0.315 OA
HETATM    7  C11 UNL     1       3.598  50.697  -7.283  1.00  0.00     0.261 C 
HETATM    8  O4  UNL     1       2.692  51.049  -6.535  1.00  0.00    -0.265 OA
HETATM    9  C12 UNL     1       4.790  49.901  -6.803  1.00  0.00     0.145 C 
HETATM   10  C13 UNL     1       6.038  50.015  -7.682  1.00  0.00     0.164 C 
HETATM   11  O6  UNL     1       6.499  51.374  -7.595  1.00  0.00    -0.313 OA
HETATM   12  C15 UNL     1       6.924  51.932  -8.761  1.00  0.00     0.264 C 
HETATM   13  O7  UNL     1       7.326  51.309  -9.735  1.00  0.00    -0.265 OA
HETATM   14  C16 UNL     1       6.852  53.436  -8.677  1.00  0.00     0.179 C 
HETATM   15  C17 UNL     1       5.390  53.910  -8.631  1.00  0.00     0.177 C 
HETATM   16  O9  UNL     1       4.754  53.306  -9.758  1.00  0.00    -0.318 OA
HETATM   17  C18 UNL     1       5.320  55.456  -8.700  1.00  0.00     0.045 C 
HETATM   18  C19 UNL     1       5.862  56.180  -7.464  1.00  0.00     0.015 C 
HETATM   19  C20 UNL     1       3.872  55.903  -8.959  1.00  0.00     0.024 C 
HETATM   20  C21 UNL     1       3.284  55.210 -10.210  1.00  0.00     0.010 C 
HETATM   21  C22 UNL     1       1.826  55.683 -10.389  1.00  0.00     0.020 C 
HETATM   22  C23 UNL     1       4.071  55.699 -11.462  1.00  0.00     0.020 C 
HETATM   23  C24 UNL     1       2.231  50.969 -10.638  1.00  0.00     0.041 C 
HETATM   24  C25 UNL     1       2.370  49.439 -10.615  1.00  0.00     0.015 C 
ENDROOT
BRANCH   1  25
HETATM   25  C5  UNL     1       2.905  51.584 -13.118  1.00  0.00     0.011 C 
HETATM   26  C6  UNL     1       3.687  50.407 -13.724  1.00  0.00     0.012 C 
BRANCH  25  27
HETATM   27  C4  UNL     1       1.441  51.554 -13.601  1.00  0.00     0.009 C 
BRANCH  27  28
HETATM   28  C3  UNL     1       1.078  50.604 -14.750  1.00  0.00     0.037 C 
BRANCH  28  29
HETATM   29  C2  UNL     1       1.438  51.068 -16.178  1.00  0.00     0.153 C 
BRANCH  29  30
HETATM   30  O1  UNL     1       1.583  52.495 -16.195  1.00  0.00    -0.386 OA
HETATM   31  C1  UNL     1       2.876  52.914 -16.615  1.00  0.00     0.202 C 
ENDBRANCH  29  30
BRANCH  29  32
HETATM   32  C26 UNL     1       0.350  50.619 -17.149  1.00  0.00    -0.027 A 
HETATM   33  C27 UNL     1      -0.029  51.451 -18.216  1.00  0.00     0.010 A 
HETATM   34  C28 UNL     1      -0.990  51.027 -19.139  1.00  0.00     0.003 A 
HETATM   35  C29 UNL     1      -1.583  49.773 -19.005  1.00  0.00     0.036 A 
HETATM   36  C30 UNL     1      -1.213  48.948 -17.950  1.00  0.00     0.066 A 
HETATM   37  C31 UNL     1      -0.251  49.352 -17.029  1.00  0.00     0.046 A 
BRANCH  36  38
HETATM   38  O10 UNL     1      -1.826  47.737 -17.852  1.00  0.00    -0.361 OA
HETATM   39  H45 UNL     1      -1.549  47.319 -17.020  1.00  0.00     0.217 HD
ENDBRANCH  36  38
ENDBRANCH  29  32
ENDBRANCH  28  29
ENDBRANCH  27  28
ENDBRANCH  25  27
ENDBRANCH   1  25
BRANCH  15  40
HETATM   40  O8  UNL     1       4.844  53.449  -7.403  1.00  0.00    -0.364 OA
HETATM   41  H25 UNL     1       4.268  54.111  -6.997  1.00  0.00     0.213 HD
ENDBRANCH  15  40
BRANCH  10  42
HETATM   42  C14 UNL     1       7.146  49.090  -7.176  1.00  0.00     0.197 C 
BRANCH  42  43
HETATM   43  O5  UNL     1       7.948  48.636  -8.260  1.00  0.00    -0.398 OA
HETATM   44  H22 UNL     1       8.370  47.806  -7.983  1.00  0.00     0.209 HD
ENDBRANCH  42  43
ENDBRANCH  10  42
TORSDOF 10
ENDMDL
MODEL 9
REMARK minimizedAffinity -8.29748058
REMARK CNNscore 0.400066882
REMARK CNNaffinity 5.97171593
REMARK  10 active torsions:
REMARK  status: ('A' for Active; 'I' for Inactive)
REMARK    1  A    between atoms: O1_2  and  C2_3 
REMARK    2  A    between atoms: C2_3  and  C3_4 
REMARK    3  A    between atoms: C2_3  and  C26_35 
REMARK    4  A    between atoms: C3_4  and  C4_5 
REMARK    5  A    between atoms: C4_5  and  C5_6 
REMARK    6  A    between atoms: C5_6  and  C7_8 
REMARK    7  A    between atoms: C13_17  and  C14_18 
REMARK    8  A    between atoms: C14_18  and  O5_19 
REMARK    9  A    between atoms: C17_24  and  O8_25 
REMARK   10  A    between atoms: C30_39  and  O10_40 
ROOT
HETATM    1  C7  UNL     1      -5.936  47.708 -28.523  1.00  0.00     0.135 C 
HETATM    2  O2  UNL     1      -6.765  47.773 -27.345  1.00  0.00    -0.348 OA
HETATM    3  C8  UNL     1      -8.127  47.340 -27.460  1.00  0.00     0.177 C 
HETATM    4  C9  UNL     1      -8.783  48.291 -28.469  1.00  0.00     0.102 C 
HETATM    5  C10 UNL     1      -8.045  48.315 -29.806  1.00  0.00     0.143 C 
HETATM    6  O3  UNL     1      -8.192  47.085 -30.548  1.00  0.00    -0.315 OA
HETATM    7  C11 UNL     1      -9.298  46.983 -31.333  1.00  0.00     0.261 C 
HETATM    8  O4  UNL     1     -10.198  47.816 -31.363  1.00  0.00    -0.265 OA
HETATM    9  C12 UNL     1      -9.274  45.774 -32.239  1.00  0.00     0.145 C 
HETATM   10  C13 UNL     1      -8.437  44.599 -31.726  1.00  0.00     0.164 C 
HETATM   11  O6  UNL     1      -9.077  44.103 -30.539  1.00  0.00    -0.313 OA
HETATM   12  C15 UNL     1      -8.248  43.763 -29.514  1.00  0.00     0.264 C 
HETATM   13  O7  UNL     1      -7.068  43.457 -29.634  1.00  0.00    -0.265 OA
HETATM   14  C16 UNL     1      -8.995  43.795 -28.205  1.00  0.00     0.179 C 
HETATM   15  C17 UNL     1      -9.368  45.238 -27.825  1.00  0.00     0.177 C 
HETATM   16  O9  UNL     1      -8.148  45.978 -27.878  1.00  0.00    -0.318 OA
HETATM   17  C18 UNL     1      -9.996  45.279 -26.410  1.00  0.00     0.045 C 
HETATM   18  C19 UNL     1     -11.375  44.621 -26.299  1.00  0.00     0.015 C 
HETATM   19  C20 UNL     1     -10.084  46.734 -25.918  1.00  0.00     0.024 C 
HETATM   20  C21 UNL     1      -8.710  47.438 -25.996  1.00  0.00     0.010 C 
HETATM   21  C22 UNL     1      -8.881  48.894 -25.516  1.00  0.00     0.020 C 
HETATM   22  C23 UNL     1      -7.743  46.746 -24.989  1.00  0.00     0.020 C 
HETATM   23  C24 UNL     1      -6.538  48.616 -29.625  1.00  0.00     0.041 C 
HETATM   24  C25 UNL     1      -5.870  48.508 -31.004  1.00  0.00     0.015 C 
ENDROOT
BRANCH   1  25
HETATM   25  C5  UNL     1      -4.540  48.134 -27.964  1.00  0.00     0.011 C 
HETATM   26  C6  UNL     1      -4.009  49.363 -28.721  1.00  0.00     0.012 C 
BRANCH  25  27
HETATM   27  C4  UNL     1      -4.364  48.330 -26.444  1.00  0.00     0.009 C 
BRANCH  27  28
HETATM   28  C3  UNL     1      -3.768  49.656 -25.950  1.00  0.00     0.037 C 
BRANCH  28  29
HETATM   29  C2  UNL     1      -2.295  49.628 -25.489  1.00  0.00     0.153 C 
BRANCH  29  30
HETATM   30  O1  UNL     1      -2.233  49.840 -24.072  1.00  0.00    -0.386 OA
HETATM   31  C1  UNL     1      -2.692  51.129 -23.685  1.00  0.00     0.202 C 
ENDBRANCH  29  30
BRANCH  29  32
HETATM   32  C26 UNL     1      -1.508  50.702 -26.235  1.00  0.00    -0.027 A 
HETATM   33  C27 UNL     1      -0.114  50.585 -26.375  1.00  0.00     0.010 A 
HETATM   34  C28 UNL     1       0.608  51.538 -27.099  1.00  0.00     0.003 A 
HETATM   35  C29 UNL     1      -0.051  52.617 -27.686  1.00  0.00     0.036 A 
HETATM   36  C30 UNL     1      -1.428  52.739 -27.547  1.00  0.00     0.066 A 
HETATM   37  C31 UNL     1      -2.162  51.793 -26.839  1.00  0.00     0.046 A 
BRANCH  36  38
HETATM   38  O10 UNL     1      -2.027  53.814 -28.128  1.00  0.00    -0.361 OA
HETATM   39  H45 UNL     1      -2.962  53.824 -27.863  1.00  0.00     0.217 HD
ENDBRANCH  36  38
ENDBRANCH  29  32
ENDBRANCH  28  29
ENDBRANCH  27  28
ENDBRANCH  25  27
ENDBRANCH   1  25
BRANCH  15  40
HETATM   40  O8  UNL     1     -10.305  45.691 -28.792  1.00  0.00    -0.364 OA
HETATM   41  H25 UNL     1     -11.009  46.216 -28.388  1.00  0.00     0.213 HD
ENDBRANCH  15  40
BRANCH  10  42
HETATM   42  C14 UNL     1      -8.385  43.474 -32.761  1.00  0.00     0.197 C 
BRANCH  42  43
HETATM   43  O5  UNL     1      -9.506  42.611 -32.613  1.00  0.00    -0.398 OA
HETATM   44  H22 UNL     1      -9.266  41.752 -32.996  1.00  0.00     0.209 HD
ENDBRANCH  42  43
ENDBRANCH  10  42
TORSDOF 10
ENDMDL
