MODEL 1
REMARK minimizedAffinity -8.22456264
REMARK CNNscore 0.410320222
REMARK CNNaffinity 7.0831008
REMARK  12 active torsions:
REMARK  status: ('A' for Active; 'I' for Inactive)
REMARK    1  A    between atoms: C3_3  and  O1_4 
REMARK    2  A    between atoms: N1_14  and  O2_16 
REMARK    3  A    between atoms: O2_16  and  C13_17 
REMARK    4  A    between atoms: C13_17  and  C14_18 
REMARK       I    between atoms: C14_18  and  N2_20 
REMARK    5  A    between atoms: N2_20  and  C15_21 
REMARK    6  A    between atoms: C15_21  and  C16_22 
REMARK    7  A    between atoms: C15_21  and  C26_36 
REMARK       I    between atoms: C16_22  and  N3_24 
REMARK    8  A    between atoms: N3_24  and  C17_25 
REMARK    9  A    between atoms: C17_25  and  C18_26 
REMARK   10  A    between atoms: C17_25  and  C25_33 
REMARK   11  A    between atoms: C18_26  and  C19_27 
REMARK   12  A    between atoms: C25_33  and  O6_35 
ROOT
HETATM    1  C1  UNL     1      -6.350   6.722  14.487  1.00  0.00     0.015 C 
HETATM    2  C2  UNL     1      -5.201   6.921  14.777  1.00  0.00    -0.078 C 
HETATM    3  C3  UNL     1      -3.788   7.149  15.163  1.00  0.00     0.128 C 
HETATM    4  C4  UNL     1      -3.122   5.802  15.482  1.00  0.00     0.052 C 
HETATM    5  C5  UNL     1      -2.378   5.385  14.208  1.00  0.00     0.010 C 
HETATM    6  C6  UNL     1      -2.643   6.484  13.149  1.00  0.00     0.002 C 
HETATM    7  C7  UNL     1      -1.584   6.651  12.019  1.00  0.00    -0.004 C 
HETATM    8  C8  UNL     1      -0.914   5.300  11.685  1.00  0.00     0.010 C 
HETATM    9  C9  UNL     1       0.182   5.395  10.636  1.00  0.00     0.035 C 
HETATM   10  C10 UNL     1       1.192   6.409  11.107  1.00  0.00    -0.069 C 
HETATM   11  C11 UNL     1       2.447   6.029  11.392  1.00  0.00     0.030 C 
HETATM   12  C12 UNL     1       3.415   6.958  12.026  1.00  0.00     0.032 C 
HETATM   13  N1  UNL     1       4.657   6.576  12.091  1.00  0.00    -0.271 N 
ATOM     14  H1  UNL     1       5.006   5.711  11.678  1.00  0.00     0.194 HD
HETATM   15  C29 UNL     1       2.860   8.240  12.604  1.00  0.00     0.060 C 
HETATM   16  C30 UNL     1       1.789   8.814  11.681  1.00  0.00     0.020 C 
HETATM   17  C31 UNL     1       0.656   7.823  11.276  1.00  0.00    -0.016 C 
HETATM   18  C32 UNL     1       0.154   8.337   9.891  1.00  0.00     0.020 C 
HETATM   19  C33 UNL     1      -0.583   7.832  12.256  1.00  0.00     0.002 C 
HETATM   20  C34 UNL     1      -0.289   7.957  13.753  1.00  0.00     0.007 C 
HETATM   21  C35 UNL     1      -1.549   8.291  14.577  1.00  0.00     0.014 C 
HETATM   22  C36 UNL     1      -2.897   7.735  14.017  1.00  0.00     0.003 C 
HETATM   23  C37 UNL     1      -3.640   8.854  13.254  1.00  0.00     0.020 C 
ENDROOT
BRANCH   3  24
HETATM   24  O1  UNL     1      -3.776   7.993  16.307  1.00  0.00    -0.377 OA
HETATM   25  H2  UNL     1      -4.388   7.600  16.954  1.00  0.00     0.211 HD
ENDBRANCH   3  24
BRANCH  13  26
HETATM   26  O2  UNL     1       5.461   7.485  12.792  1.00  0.00    -0.271 OA
BRANCH  26  27
HETATM   27  C13 UNL     1       6.577   6.780  13.322  1.00  0.00     0.303 C 
BRANCH  27  28
HETATM   28  C14 UNL     1       7.709   7.727  13.704  1.00  0.00     0.244 C 
HETATM   29  O3  UNL     1       8.034   8.680  12.998  1.00  0.00    -0.271 OA
HETATM   30  N2  UNL     1       8.390   7.366  14.852  1.00  0.00    -0.346 N 
HETATM   31  H16 UNL     1       7.847   6.820  15.518  1.00  0.00     0.163 HD
BRANCH  30  32
HETATM   32  C15 UNL     1       9.431   8.230  15.412  1.00  0.00     0.180 C 
BRANCH  32  33
HETATM   33  C16 UNL     1      10.419   8.574  14.273  1.00  0.00     0.241 C 
HETATM   34  O4  UNL     1      10.917   7.709  13.554  1.00  0.00    -0.271 OA
HETATM   35  N3  UNL     1      10.692   9.912  14.126  1.00  0.00    -0.345 N 
HETATM   36  H18 UNL     1      10.061  10.578  14.557  1.00  0.00     0.163 HD
BRANCH  35  37
HETATM   37  C17 UNL     1      11.515  10.421  13.025  1.00  0.00     0.186 C 
BRANCH  37  38
HETATM   38  C18 UNL     1      13.004  10.483  13.407  1.00  0.00     0.074 C 
BRANCH  38  39
HETATM   39  C19 UNL     1      13.279  11.069  14.777  1.00  0.00    -0.056 A 
HETATM   40  C20 UNL     1      14.590  11.102  15.276  1.00  0.00     0.007 A 
HETATM   41  C21 UNL     1      14.851  11.619  16.545  1.00  0.00     0.001 A 
HETATM   42  C22 UNL     1      13.807  12.106  17.328  1.00  0.00     0.000 A 
HETATM   43  C23 UNL     1      12.501  12.078  16.840  1.00  0.00     0.001 A 
HETATM   44  C24 UNL     1      12.237  11.563  15.569  1.00  0.00     0.007 A 
ENDBRANCH  38  39
ENDBRANCH  37  38
BRANCH  37  45
HETATM   45  C25 UNL     1      11.038  11.784  12.514  1.00  0.00     0.163 C 
HETATM   46  O5  UNL     1       9.893  12.206  12.565  1.00  0.00    -0.648 OA
BRANCH  45  47
HETATM   47  O6  UNL     1      12.004  12.540  11.950  1.00  0.00    -0.775 OA
HETATM   48  H27 UNL     1      11.539  13.365  11.700  1.00  0.00     0.167 HD
ENDBRANCH  45  47
ENDBRANCH  37  45
ENDBRANCH  35  37
ENDBRANCH  32  33
BRANCH  32  49
HETATM   49  C26 UNL     1       8.791   9.464  16.088  1.00  0.00     0.009 C 
HETATM   50  C27 UNL     1       9.460   9.859  17.407  1.00  0.00     0.012 C 
HETATM   51  C28 UNL     1       7.284   9.295  16.288  1.00  0.00     0.012 C 
ENDBRANCH  32  49
ENDBRANCH  30  32
ENDBRANCH  27  28
ENDBRANCH  26  27
ENDBRANCH  13  26
TORSDOF 12
ENDMDL
MODEL 2
REMARK minimizedAffinity -8.13557434
REMARK CNNscore 0.354605258
REMARK CNNaffinity 6.72746134
REMARK  12 active torsions:
REMARK  status: ('A' for Active; 'I' for Inactive)
REMARK    1  A    between atoms: C3_3  and  O1_4 
REMARK    2  A    between atoms: N1_14  and  O2_16 
REMARK    3  A    between atoms: O2_16  and  C13_17 
REMARK    4  A    between atoms: C13_17  and  C14_18 
REMARK       I    between atoms: C14_18  and  N2_20 
REMARK    5  A    between atoms: N2_20  and  C15_21 
REMARK    6  A    between atoms: C15_21  and  C16_22 
REMARK    7  A    between atoms: C15_21  and  C26_36 
REMARK       I    between atoms: C16_22  and  N3_24 
REMARK    8  A    between atoms: N3_24  and  C17_25 
REMARK    9  A    between atoms: C17_25  and  C18_26 
REMARK   10  A    between atoms: C17_25  and  C25_33 
REMARK   11  A    between atoms: C18_26  and  C19_27 
REMARK   12  A    between atoms: C25_33  and  O6_35 
ROOT
HETATM    1  C1  UNL     1      -4.367   5.196  12.713  1.00  0.00     0.015 C 
HETATM    2  C2  UNL     1      -3.403   5.743  13.178  1.00  0.00    -0.078 C 
HETATM    3  C3  UNL     1      -2.198   6.413  13.721  1.00  0.00     0.128 C 
HETATM    4  C4  UNL     1      -1.774   7.547  12.775  1.00  0.00     0.052 C 
HETATM    5  C5  UNL     1      -2.369   8.832  13.362  1.00  0.00     0.010 C 
HETATM    6  C6  UNL     1      -3.158   8.428  14.631  1.00  0.00     0.002 C 
HETATM    7  C7  UNL     1      -3.349   9.519  15.727  1.00  0.00    -0.004 C 
HETATM    8  C8  UNL     1      -3.425  10.927  15.097  1.00  0.00     0.010 C 
HETATM    9  C9  UNL     1      -3.542  12.053  16.112  1.00  0.00     0.035 C 
HETATM   10  C10 UNL     1      -2.385  11.941  17.069  1.00  0.00    -0.069 C 
HETATM   11  C11 UNL     1      -1.459  12.911  17.125  1.00  0.00     0.030 C 
HETATM   12  C12 UNL     1      -0.217  12.753  17.921  1.00  0.00     0.032 C 
HETATM   13  N1  UNL     1       0.532  13.806  18.078  1.00  0.00    -0.271 N 
ATOM     14  H1  UNL     1       0.280  14.735  17.741  1.00  0.00     0.194 HD
HETATM   15  C29 UNL     1       0.107  11.365  18.424  1.00  0.00     0.060 C 
HETATM   16  C30 UNL     1      -1.164  10.667  18.902  1.00  0.00     0.020 C 
HETATM   17  C31 UNL     1      -2.342  10.655  17.880  1.00  0.00    -0.016 C 
HETATM   18  C32 UNL     1      -3.629  10.574  18.760  1.00  0.00     0.020 C 
HETATM   19  C33 UNL     1      -2.347   9.397  16.926  1.00  0.00     0.002 C 
HETATM   20  C34 UNL     1      -0.994   8.905  16.409  1.00  0.00     0.007 C 
HETATM   21  C35 UNL     1      -1.076   7.502  15.775  1.00  0.00     0.014 C 
HETATM   22  C36 UNL     1      -2.432   7.144  15.086  1.00  0.00     0.003 C 
HETATM   23  C37 UNL     1      -3.284   6.278  16.040  1.00  0.00     0.020 C 
ENDROOT
BRANCH   3  24
HETATM   24  O1  UNL     1      -1.166   5.442  13.828  1.00  0.00    -0.377 OA
HETATM   25  H2  UNL     1      -1.111   4.992  12.967  1.00  0.00     0.211 HD
ENDBRANCH   3  24
BRANCH  13  26
HETATM   26  O2  UNL     1       1.722  13.521  18.762  1.00  0.00    -0.271 OA
BRANCH  26  27
HETATM   27  C13 UNL     1       2.813  13.963  17.964  1.00  0.00     0.303 C 
BRANCH  27  28
HETATM   28  C14 UNL     1       4.013  13.030  18.087  1.00  0.00     0.244 C 
HETATM   29  O3  UNL     1       3.903  11.807  18.017  1.00  0.00    -0.271 OA
HETATM   30  N2  UNL     1       5.204  13.670  18.375  1.00  0.00    -0.346 N 
HETATM   31  H16 UNL     1       5.257  14.637  18.062  1.00  0.00     0.163 HD
BRANCH  30  32
HETATM   32  C15 UNL     1       6.466  12.928  18.417  1.00  0.00     0.180 C 
BRANCH  32  33
HETATM   33  C16 UNL     1       6.409  11.973  19.633  1.00  0.00     0.241 C 
HETATM   34  O4  UNL     1       6.270  10.757  19.506  1.00  0.00    -0.271 OA
HETATM   35  N3  UNL     1       6.531  12.585  20.856  1.00  0.00    -0.345 N 
HETATM   36  H18 UNL     1       6.906  13.526  20.884  1.00  0.00     0.163 HD
BRANCH  35  37
HETATM   37  C17 UNL     1       6.616  11.819  22.104  1.00  0.00     0.186 C 
BRANCH  37  38
HETATM   38  C18 UNL     1       5.338  11.963  22.949  1.00  0.00     0.074 C 
BRANCH  38  39
HETATM   39  C19 UNL     1       4.243  10.972  22.610  1.00  0.00    -0.056 A 
HETATM   40  C20 UNL     1       3.331  11.258  21.583  1.00  0.00     0.007 A 
HETATM   41  C21 UNL     1       2.306  10.362  21.278  1.00  0.00     0.001 A 
HETATM   42  C22 UNL     1       2.180   9.175  21.995  1.00  0.00     0.000 A 
HETATM   43  C23 UNL     1       3.083   8.882  23.016  1.00  0.00     0.001 A 
HETATM   44  C24 UNL     1       4.111   9.775  23.323  1.00  0.00     0.007 A 
ENDBRANCH  38  39
ENDBRANCH  37  38
BRANCH  37  45
HETATM   45  C25 UNL     1       7.849  12.181  22.936  1.00  0.00     0.163 C 
HETATM   46  O5  UNL     1       8.756  11.421  23.237  1.00  0.00    -0.648 OA
BRANCH  45  47
HETATM   47  O6  UNL     1       7.880  13.461  23.365  1.00  0.00    -0.775 OA
HETATM   48  H27 UNL     1       8.725  13.524  23.855  1.00  0.00     0.167 HD
ENDBRANCH  45  47
ENDBRANCH  37  45
ENDBRANCH  35  37
ENDBRANCH  32  33
BRANCH  32  49
HETATM   49  C26 UNL     1       6.710  12.217  17.066  1.00  0.00     0.009 C 
HETATM   50  C27 UNL     1       8.070  11.522  16.973  1.00  0.00     0.012 C 
HETATM   51  C28 UNL     1       6.511  13.157  15.876  1.00  0.00     0.012 C 
ENDBRANCH  32  49
ENDBRANCH  30  32
ENDBRANCH  27  28
ENDBRANCH  26  27
ENDBRANCH  13  26
TORSDOF 12
ENDMDL
MODEL 3
REMARK minimizedAffinity -9.85153103
REMARK CNNscore 0.308269083
REMARK CNNaffinity 7.1270051
REMARK  12 active torsions:
REMARK  status: ('A' for Active; 'I' for Inactive)
REMARK    1  A    between atoms: C3_3  and  O1_4 
REMARK    2  A    between atoms: N1_14  and  O2_16 
REMARK    3  A    between atoms: O2_16  and  C13_17 
REMARK    4  A    between atoms: C13_17  and  C14_18 
REMARK       I    between atoms: C14_18  and  N2_20 
REMARK    5  A    between atoms: N2_20  and  C15_21 
REMARK    6  A    between atoms: C15_21  and  C16_22 
REMARK    7  A    between atoms: C15_21  and  C26_36 
REMARK       I    between atoms: C16_22  and  N3_24 
REMARK    8  A    between atoms: N3_24  and  C17_25 
REMARK    9  A    between atoms: C17_25  and  C18_26 
REMARK   10  A    between atoms: C17_25  and  C25_33 
REMARK   11  A    between atoms: C18_26  and  C19_27 
REMARK   12  A    between atoms: C25_33  and  O6_35 
ROOT
HETATM    1  C1  UNL     1      -7.127   6.204  14.287  1.00  0.00     0.015 C 
HETATM    2  C2  UNL     1      -6.065   6.635  14.647  1.00  0.00    -0.078 C 
HETATM    3  C3  UNL     1      -4.761   7.155  15.124  1.00  0.00     0.128 C 
HETATM    4  C4  UNL     1      -3.979   6.023  15.806  1.00  0.00     0.052 C 
HETATM    5  C5  UNL     1      -3.017   5.474  14.745  1.00  0.00     0.010 C 
HETATM    6  C6  UNL     1      -3.271   6.276  13.445  1.00  0.00     0.002 C 
HETATM    7  C7  UNL     1      -2.095   6.370  12.428  1.00  0.00    -0.004 C 
HETATM    8  C8  UNL     1      -1.216   5.101  12.479  1.00  0.00     0.010 C 
HETATM    9  C9  UNL     1      -0.006   5.148  11.561  1.00  0.00     0.035 C 
HETATM   10  C10 UNL     1       0.789   6.381  11.899  1.00  0.00    -0.069 C 
HETATM   11  C11 UNL     1       2.031   6.268  12.397  1.00  0.00     0.030 C 
HETATM   12  C12 UNL     1       2.773   7.447  12.907  1.00  0.00     0.032 C 
HETATM   13  N1  UNL     1       4.033   7.285  13.191  1.00  0.00    -0.271 N 
ATOM     14  H1  UNL     1       4.544   6.419  13.022  1.00  0.00     0.194 HD
HETATM   15  C29 UNL     1       1.983   8.718  13.120  1.00  0.00     0.060 C 
HETATM   16  C30 UNL     1       0.985   8.916  11.982  1.00  0.00     0.020 C 
HETATM   17  C31 UNL     1       0.057   7.698  11.689  1.00  0.00    -0.016 C 
HETATM   18  C32 UNL     1      -0.309   7.832  10.178  1.00  0.00     0.020 C 
HETATM   19  C33 UNL     1      -1.297   7.716  12.502  1.00  0.00     0.002 C 
HETATM   20  C34 UNL     1      -1.233   8.190  13.956  1.00  0.00     0.007 C 
HETATM   21  C35 UNL     1      -2.628   8.486  14.543  1.00  0.00     0.014 C 
HETATM   22  C36 UNL     1      -3.803   7.624  13.979  1.00  0.00     0.003 C 
HETATM   23  C37 UNL     1      -4.569   8.433  12.908  1.00  0.00     0.020 C 
ENDROOT
BRANCH   3  24
HETATM   24  O1  UNL     1      -5.018   8.207  16.044  1.00  0.00    -0.377 OA
HETATM   25  H2  UNL     1      -5.658   7.866  16.692  1.00  0.00     0.211 HD
ENDBRANCH   3  24
BRANCH  13  26
HETATM   26  O2  UNL     1       4.607   8.433  13.753  1.00  0.00    -0.271 OA
BRANCH  26  27
HETATM   27  C13 UNL     1       5.729   8.036  14.534  1.00  0.00     0.303 C 
BRANCH  27  28
HETATM   28  C14 UNL     1       6.721   9.179  14.712  1.00  0.00     0.244 C 
HETATM   29  O3  UNL     1       6.405  10.356  14.544  1.00  0.00    -0.271 OA
HETATM   30  N2  UNL     1       8.014   8.773  14.983  1.00  0.00    -0.346 N 
HETATM   31  H16 UNL     1       8.091   7.867  15.442  1.00  0.00     0.163 HD
BRANCH  30  32
HETATM   32  C15 UNL     1       9.062   9.749  15.290  1.00  0.00     0.180 C 
BRANCH  32  33
HETATM   33  C16 UNL     1       9.299   9.719  16.818  1.00  0.00     0.241 C 
HETATM   34  O4  UNL     1       9.249   8.677  17.469  1.00  0.00    -0.271 OA
HETATM   35  N3  UNL     1       9.572  10.939  17.386  1.00  0.00    -0.345 N 
HETATM   36  H18 UNL     1       9.861  11.696  16.777  1.00  0.00     0.163 HD
BRANCH  35  37
HETATM   37  C17 UNL     1       9.936  11.074  18.801  1.00  0.00     0.186 C 
BRANCH  37  38
HETATM   38  C18 UNL     1       9.479  12.425  19.380  1.00  0.00     0.074 C 
BRANCH  38  39
HETATM   39  C19 UNL     1       8.694  12.324  20.671  1.00  0.00    -0.056 A 
HETATM   40  C20 UNL     1       7.291  12.316  20.640  1.00  0.00     0.007 A 
HETATM   41  C21 UNL     1       6.558  12.245  21.825  1.00  0.00     0.001 A 
HETATM   42  C22 UNL     1       7.216  12.184  23.050  1.00  0.00     0.000 A 
HETATM   43  C23 UNL     1       8.610  12.190  23.091  1.00  0.00     0.001 A 
HETATM   44  C24 UNL     1       9.347  12.258  21.907  1.00  0.00     0.007 A 
ENDBRANCH  38  39
ENDBRANCH  37  38
BRANCH  37  45
HETATM   45  C25 UNL     1      11.433  10.866  19.047  1.00  0.00     0.163 C 
HETATM   46  O5  UNL     1      11.957  10.657  20.130  1.00  0.00    -0.648 OA
BRANCH  45  47
HETATM   47  O6  UNL     1      12.199  10.949  17.939  1.00  0.00    -0.775 OA
HETATM   48  H27 UNL     1      13.106  10.778  18.268  1.00  0.00     0.167 HD
ENDBRANCH  45  47
ENDBRANCH  37  45
ENDBRANCH  35  37
ENDBRANCH  32  33
BRANCH  32  49
HETATM   49  C26 UNL     1      10.324   9.456  14.448  1.00  0.00     0.009 C 
HETATM   50  C27 UNL     1      10.496  10.391  13.249  1.00  0.00     0.012 C 
HETATM   51  C28 UNL     1      10.389   7.996  13.996  1.00  0.00     0.012 C 
ENDBRANCH  32  49
ENDBRANCH  30  32
ENDBRANCH  27  28
ENDBRANCH  26  27
ENDBRANCH  13  26
TORSDOF 12
ENDMDL
MODEL 4
REMARK minimizedAffinity -7.77655506
REMARK CNNscore 0.239189416
REMARK CNNaffinity 7.40279055
REMARK  12 active torsions:
REMARK  status: ('A' for Active; 'I' for Inactive)
REMARK    1  A    between atoms: C3_3  and  O1_4 
REMARK    2  A    between atoms: N1_14  and  O2_16 
REMARK    3  A    between atoms: O2_16  and  C13_17 
REMARK    4  A    between atoms: C13_17  and  C14_18 
REMARK       I    between atoms: C14_18  and  N2_20 
REMARK    5  A    between atoms: N2_20  and  C15_21 
REMARK    6  A    between atoms: C15_21  and  C16_22 
REMARK    7  A    between atoms: C15_21  and  C26_36 
REMARK       I    between atoms: C16_22  and  N3_24 
REMARK    8  A    between atoms: N3_24  and  C17_25 
REMARK    9  A    between atoms: C17_25  and  C18_26 
REMARK   10  A    between atoms: C17_25  and  C25_33 
REMARK   11  A    between atoms: C18_26  and  C19_27 
REMARK   12  A    between atoms: C25_33  and  O6_35 
ROOT
HETATM    1  C1  UNL     1     -13.896   9.455  15.939  1.00  0.00     0.015 C 
HETATM    2  C2  UNL     1     -12.741   9.765  16.060  1.00  0.00    -0.078 C 
HETATM    3  C3  UNL     1     -11.324  10.164  16.240  1.00  0.00     0.128 C 
HETATM    4  C4  UNL     1     -10.836   9.702  17.621  1.00  0.00     0.052 C 
HETATM    5  C5  UNL     1     -10.106   8.373  17.389  1.00  0.00     0.010 C 
HETATM    6  C6  UNL     1     -10.203   8.061  15.875  1.00  0.00     0.002 C 
HETATM    7  C7  UNL     1      -9.095   7.151  15.266  1.00  0.00    -0.004 C 
HETATM    8  C8  UNL     1      -8.581   6.133  16.307  1.00  0.00     0.010 C 
HETATM    9  C9  UNL     1      -7.448   5.252  15.805  1.00  0.00     0.035 C 
HETATM   10  C10 UNL     1      -6.340   6.150  15.319  1.00  0.00    -0.069 C 
HETATM   11  C11 UNL     1      -5.149   6.147  15.939  1.00  0.00     0.030 C 
HETATM   12  C12 UNL     1      -4.098   7.140  15.605  1.00  0.00     0.032 C 
HETATM   13  N1  UNL     1      -2.914   6.950  16.109  1.00  0.00    -0.271 N 
ATOM     14  H1  UNL     1      -2.657   6.132  16.661  1.00  0.00     0.194 HD
HETATM   15  C29 UNL     1      -4.514   8.325  14.764  1.00  0.00     0.060 C 
HETATM   16  C30 UNL     1      -5.479   7.882  13.667  1.00  0.00     0.020 C 
HETATM   17  C31 UNL     1      -6.708   7.056  14.155  1.00  0.00    -0.016 C 
HETATM   18  C32 UNL     1      -7.100   6.168  12.932  1.00  0.00     0.020 C 
HETATM   19  C33 UNL     1      -7.968   7.938  14.515  1.00  0.00     0.002 C 
HETATM   20  C34 UNL     1      -7.710   9.265  15.233  1.00  0.00     0.007 C 
HETATM   21  C35 UNL     1      -8.947  10.186  15.236  1.00  0.00     0.014 C 
HETATM   22  C36 UNL     1     -10.334   9.466  15.249  1.00  0.00     0.003 C 
HETATM   23  C37 UNL     1     -10.911   9.433  13.817  1.00  0.00     0.020 C 
ENDROOT
BRANCH   3  24
HETATM   24  O1  UNL     1     -11.249  11.579  16.132  1.00  0.00    -0.377 OA
HETATM   25  H2  UNL     1     -11.924  11.943  16.731  1.00  0.00     0.211 HD
ENDBRANCH   3  24
BRANCH  13  26
HETATM   26  O2  UNL     1      -2.029   7.995  15.807  1.00  0.00    -0.271 OA
BRANCH  26  27
HETATM   27  C13 UNL     1      -0.730   7.445  15.626  1.00  0.00     0.303 C 
BRANCH  27  28
HETATM   28  C14 UNL     1       0.022   8.142  14.498  1.00  0.00     0.244 C 
HETATM   29  O3  UNL     1       0.494   9.271  14.624  1.00  0.00    -0.271 OA
HETATM   30  N2  UNL     1       0.043   7.439  13.308  1.00  0.00    -0.346 N 
HETATM   31  H16 UNL     1      -0.040   6.429  13.406  1.00  0.00     0.163 HD
BRANCH  30  32
HETATM   32  C15 UNL     1       0.817   7.921  12.163  1.00  0.00     0.180 C 
BRANCH  32  33
HETATM   33  C16 UNL     1       2.080   7.035  12.043  1.00  0.00     0.241 C 
HETATM   34  O4  UNL     1       2.018   5.840  11.756  1.00  0.00    -0.271 OA
HETATM   35  N3  UNL     1       3.268   7.683  12.276  1.00  0.00    -0.345 N 
HETATM   36  H18 UNL     1       3.274   8.696  12.241  1.00  0.00     0.163 HD
BRANCH  35  37
HETATM   37  C17 UNL     1       4.564   7.023  12.091  1.00  0.00     0.186 C 
BRANCH  37  38
HETATM   38  C18 UNL     1       5.677   7.718  12.894  1.00  0.00     0.074 C 
BRANCH  38  39
HETATM   39  C19 UNL     1       5.843   9.193  12.595  1.00  0.00    -0.056 A 
HETATM   40  C20 UNL     1       4.884  10.113  13.045  1.00  0.00     0.007 A 
HETATM   41  C21 UNL     1       5.016  11.471  12.756  1.00  0.00     0.001 A 
HETATM   42  C22 UNL     1       6.104  11.925  12.015  1.00  0.00     0.000 A 
HETATM   43  C23 UNL     1       7.063  11.018  11.564  1.00  0.00     0.001 A 
HETATM   44  C24 UNL     1       6.935   9.658  11.854  1.00  0.00     0.007 A 
ENDBRANCH  38  39
ENDBRANCH  37  38
BRANCH  37  45
HETATM   45  C25 UNL     1       4.961   6.908  10.617  1.00  0.00     0.163 C 
HETATM   46  O5  UNL     1       4.233   7.124   9.661  1.00  0.00    -0.648 OA
BRANCH  45  47
HETATM   47  O6  UNL     1       6.235   6.512  10.410  1.00  0.00    -0.775 OA
HETATM   48  H27 UNL     1       6.324   6.508   9.434  1.00  0.00     0.167 HD
ENDBRANCH  45  47
ENDBRANCH  37  45
ENDBRANCH  35  37
ENDBRANCH  32  33
BRANCH  32  49
HETATM   49  C26 UNL     1      -0.065   7.937  10.894  1.00  0.00     0.009 C 
HETATM   50  C27 UNL     1       0.719   8.176   9.601  1.00  0.00     0.012 C 
HETATM   51  C28 UNL     1      -1.218   8.936  11.007  1.00  0.00     0.012 C 
ENDBRANCH  32  49
ENDBRANCH  30  32
ENDBRANCH  27  28
ENDBRANCH  26  27
ENDBRANCH  13  26
TORSDOF 12
ENDMDL
MODEL 5
REMARK minimizedAffinity -7.82371759
REMARK CNNscore 0.237235174
REMARK CNNaffinity 6.86466408
REMARK  12 active torsions:
REMARK  status: ('A' for Active; 'I' for Inactive)
REMARK    1  A    between atoms: C3_3  and  O1_4 
REMARK    2  A    between atoms: N1_14  and  O2_16 
REMARK    3  A    between atoms: O2_16  and  C13_17 
REMARK    4  A    between atoms: C13_17  and  C14_18 
REMARK       I    between atoms: C14_18  and  N2_20 
REMARK    5  A    between atoms: N2_20  and  C15_21 
REMARK    6  A    between atoms: C15_21  and  C16_22 
REMARK    7  A    between atoms: C15_21  and  C26_36 
REMARK       I    between atoms: C16_22  and  N3_24 
REMARK    8  A    between atoms: N3_24  and  C17_25 
REMARK    9  A    between atoms: C17_25  and  C18_26 
REMARK   10  A    between atoms: C17_25  and  C25_33 
REMARK   11  A    between atoms: C18_26  and  C19_27 
REMARK   12  A    between atoms: C25_33  and  O6_35 
ROOT
HETATM    1  C1  UNL     1      -6.695   6.363  14.334  1.00  0.00     0.015 C 
HETATM    2  C2  UNL     1      -5.591   6.712  14.654  1.00  0.00    -0.078 C 
HETATM    3  C3  UNL     1      -4.234   7.127  15.081  1.00  0.00     0.128 C 
HETATM    4  C4  UNL     1      -3.468   5.904  15.609  1.00  0.00     0.052 C 
HETATM    5  C5  UNL     1      -2.608   5.407  14.441  1.00  0.00     0.010 C 
HETATM    6  C6  UNL     1      -2.904   6.332  13.235  1.00  0.00     0.002 C 
HETATM    7  C7  UNL     1      -1.794   6.461  12.149  1.00  0.00    -0.004 C 
HETATM    8  C8  UNL     1      -0.981   5.153  12.032  1.00  0.00     0.010 C 
HETATM    9  C9  UNL     1       0.167   5.225  11.038  1.00  0.00     0.035 C 
HETATM   10  C10 UNL     1       1.046   6.385  11.424  1.00  0.00    -0.069 C 
HETATM   11  C11 UNL     1       2.310   6.172  11.822  1.00  0.00     0.030 C 
HETATM   12  C12 UNL     1       3.144   7.265  12.377  1.00  0.00     0.032 C 
HETATM   13  N1  UNL     1       4.410   7.021  12.557  1.00  0.00    -0.271 N 
ATOM     14  H1  UNL     1       4.864   6.151  12.281  1.00  0.00     0.194 HD
HETATM   15  C29 UNL     1       2.437   8.548  12.752  1.00  0.00     0.060 C 
HETATM   16  C30 UNL     1       1.379   8.891  11.707  1.00  0.00     0.020 C 
HETATM   17  C31 UNL     1       0.371   7.748  11.377  1.00  0.00    -0.016 C 
HETATM   18  C32 UNL     1      -0.085   8.031   9.912  1.00  0.00     0.020 C 
HETATM   19  C33 UNL     1      -0.923   7.757  12.281  1.00  0.00     0.002 C 
HETATM   20  C34 UNL     1      -0.740   8.098  13.762  1.00  0.00     0.007 C 
HETATM   21  C35 UNL     1      -2.076   8.405  14.468  1.00  0.00     0.014 C 
HETATM   22  C36 UNL     1      -3.329   7.651  13.916  1.00  0.00     0.003 C 
HETATM   23  C37 UNL     1      -4.120   8.585  12.974  1.00  0.00     0.020 C 
ENDROOT
BRANCH   3  24
HETATM   24  O1  UNL     1      -4.374   8.105  16.103  1.00  0.00    -0.377 OA
HETATM   25  H2  UNL     1      -4.988   7.737  16.763  1.00  0.00     0.211 HD
ENDBRANCH   3  24
BRANCH  13  26
HETATM   26  O2  UNL     1       5.079   8.087  13.174  1.00  0.00    -0.271 OA
BRANCH  26  27
HETATM   27  C13 UNL     1       6.443   7.720  13.346  1.00  0.00     0.303 C 
BRANCH  27  28
HETATM   28  C14 UNL     1       7.239   8.825  14.032  1.00  0.00     0.244 C 
HETATM   29  O3  UNL     1       7.248   8.965  15.254  1.00  0.00    -0.271 OA
HETATM   30  N2  UNL     1       7.863   9.699  13.163  1.00  0.00    -0.346 N 
HETATM   31  H16 UNL     1       8.090   9.307  12.251  1.00  0.00     0.163 HD
BRANCH  30  32
HETATM   32  C15 UNL     1       8.755  10.748  13.661  1.00  0.00     0.180 C 
BRANCH  32  33
HETATM   33  C16 UNL     1      10.153  10.509  13.044  1.00  0.00     0.241 C 
HETATM   34  O4  UNL     1      10.763   9.450  13.193  1.00  0.00    -0.271 OA
HETATM   35  N3  UNL     1      10.654  11.561  12.317  1.00  0.00    -0.345 N 
HETATM   36  H18 UNL     1      10.009  12.280  12.011  1.00  0.00     0.163 HD
BRANCH  35  37
HETATM   37  C17 UNL     1      11.912  11.460  11.569  1.00  0.00     0.186 C 
BRANCH  37  38
HETATM   38  C18 UNL     1      12.930  12.522  12.020  1.00  0.00     0.074 C 
BRANCH  38  39
HETATM   39  C19 UNL     1      13.960  12.026  13.013  1.00  0.00    -0.056 A 
HETATM   40  C20 UNL     1      15.323  12.050  12.683  1.00  0.00     0.007 A 
HETATM   41  C21 UNL     1      16.278  11.575  13.582  1.00  0.00     0.001 A 
HETATM   42  C22 UNL     1      15.882  11.069  14.817  1.00  0.00     0.000 A 
HETATM   43  C23 UNL     1      14.530  11.042  15.156  1.00  0.00     0.001 A 
HETATM   44  C24 UNL     1      13.572  11.518  14.259  1.00  0.00     0.007 A 
ENDBRANCH  38  39
ENDBRANCH  37  38
BRANCH  37  45
HETATM   45  C25 UNL     1      11.703  11.530  10.054  1.00  0.00     0.163 C 
HETATM   46  O5  UNL     1      11.930  10.631   9.259  1.00  0.00    -0.648 OA
BRANCH  45  47
HETATM   47  O6  UNL     1      11.244  12.718   9.606  1.00  0.00    -0.775 OA
HETATM   48  H27 UNL     1      11.154  12.585   8.639  1.00  0.00     0.167 HD
ENDBRANCH  45  47
ENDBRANCH  37  45
ENDBRANCH  35  37
ENDBRANCH  32  33
BRANCH  32  49
HETATM   49  C26 UNL     1       8.160  12.142  13.356  1.00  0.00     0.009 C 
HETATM   50  C27 UNL     1       7.635  12.872  14.596  1.00  0.00     0.012 C 
HETATM   51  C28 UNL     1       7.077  12.082  12.278  1.00  0.00     0.012 C 
ENDBRANCH  32  49
ENDBRANCH  30  32
ENDBRANCH  27  28
ENDBRANCH  26  27
ENDBRANCH  13  26
TORSDOF 12
ENDMDL
MODEL 6
REMARK minimizedAffinity -8.45482635
REMARK CNNscore 0.195020974
REMARK CNNaffinity 6.23531151
REMARK  12 active torsions:
REMARK  status: ('A' for Active; 'I' for Inactive)
REMARK    1  A    between atoms: C3_3  and  O1_4 
REMARK    2  A    between atoms: N1_14  and  O2_16 
REMARK    3  A    between atoms: O2_16  and  C13_17 
REMARK    4  A    between atoms: C13_17  and  C14_18 
REMARK       I    between atoms: C14_18  and  N2_20 
REMARK    5  A    between atoms: N2_20  and  C15_21 
REMARK    6  A    between atoms: C15_21  and  C16_22 
REMARK    7  A    between atoms: C15_21  and  C26_36 
REMARK       I    between atoms: C16_22  and  N3_24 
REMARK    8  A    between atoms: N3_24  and  C17_25 
REMARK    9  A    between atoms: C17_25  and  C18_26 
REMARK   10  A    between atoms: C17_25  and  C25_33 
REMARK   11  A    between atoms: C18_26  and  C19_27 
REMARK   12  A    between atoms: C25_33  and  O6_35 
ROOT
HETATM    1  C1  UNL     1       2.689   5.514   7.072  1.00  0.00     0.015 C 
HETATM    2  C2  UNL     1       2.913   5.948   8.170  1.00  0.00    -0.078 C 
HETATM    3  C3  UNL     1       3.215   6.504   9.510  1.00  0.00     0.128 C 
HETATM    4  C4  UNL     1       3.180   8.039   9.446  1.00  0.00     0.052 C 
HETATM    5  C5  UNL     1       1.786   8.452   9.933  1.00  0.00     0.010 C 
HETATM    6  C6  UNL     1       1.013   7.149  10.250  1.00  0.00     0.002 C 
HETATM    7  C7  UNL     1      -0.145   7.245  11.289  1.00  0.00    -0.004 C 
HETATM    8  C8  UNL     1      -0.815   8.636  11.243  1.00  0.00     0.010 C 
HETATM    9  C9  UNL     1      -1.911   8.829  12.278  1.00  0.00     0.035 C 
HETATM   10  C10 UNL     1      -1.326   8.545  13.636  1.00  0.00    -0.069 C 
HETATM   11  C11 UNL     1      -1.239   9.523  14.551  1.00  0.00     0.030 C 
HETATM   12  C12 UNL     1      -0.510   9.329  15.828  1.00  0.00     0.032 C 
HETATM   13  N1  UNL     1      -0.636  10.252  16.736  1.00  0.00    -0.271 N 
ATOM     14  H1  UNL     1      -1.252  11.059  16.642  1.00  0.00     0.194 HD
HETATM   15  C29 UNL     1       0.373   8.107  15.937  1.00  0.00     0.060 C 
HETATM   16  C30 UNL     1      -0.309   6.903  15.292  1.00  0.00     0.020 C 
HETATM   17  C31 UNL     1      -0.814   7.126  13.834  1.00  0.00    -0.016 C 
HETATM   18  C32 UNL     1      -2.010   6.135  13.672  1.00  0.00     0.020 C 
HETATM   19  C33 UNL     1       0.250   6.761  12.726  1.00  0.00     0.002 C 
HETATM   20  C34 UNL     1       1.707   7.134  13.005  1.00  0.00     0.007 C 
HETATM   21  C35 UNL     1       2.690   6.446  12.037  1.00  0.00     0.014 C 
HETATM   22  C36 UNL     1       2.146   6.160  10.601  1.00  0.00     0.003 C 
HETATM   23  C37 UNL     1       1.705   4.683  10.501  1.00  0.00     0.020 C 
ENDROOT
BRANCH   3  24
HETATM   24  O1  UNL     1       4.506   6.051   9.894  1.00  0.00    -0.377 OA
HETATM   25  H2  UNL     1       5.105   6.247   9.153  1.00  0.00     0.211 HD
ENDBRANCH   3  24
BRANCH  13  26
HETATM   26  O2  UNL     1       0.169  10.013  17.859  1.00  0.00    -0.271 OA
BRANCH  26  27
HETATM   27  C13 UNL     1      -0.106  11.018  18.828  1.00  0.00     0.303 C 
BRANCH  27  28
HETATM   28  C14 UNL     1       0.829  10.909  20.028  1.00  0.00     0.244 C 
HETATM   29  O3  UNL     1       0.822   9.936  20.780  1.00  0.00    -0.271 OA
HETATM   30  N2  UNL     1       1.608  12.030  20.245  1.00  0.00    -0.346 N 
HETATM   31  H16 UNL     1       1.801  12.585  19.414  1.00  0.00     0.163 HD
BRANCH  30  32
HETATM   32  C15 UNL     1       2.635  12.042  21.289  1.00  0.00     0.180 C 
BRANCH  32  33
HETATM   33  C16 UNL     1       3.921  11.424  20.691  1.00  0.00     0.241 C 
HETATM   34  O4  UNL     1       4.262  10.266  20.926  1.00  0.00    -0.271 OA
HETATM   35  N3  UNL     1       4.643  12.263  19.878  1.00  0.00    -0.345 N 
HETATM   36  H18 UNL     1       4.183  13.089  19.515  1.00  0.00     0.163 HD
BRANCH  35  37
HETATM   37  C17 UNL     1       5.823  11.803  19.138  1.00  0.00     0.186 C 
BRANCH  37  38
HETATM   38  C18 UNL     1       7.020  12.751  19.328  1.00  0.00     0.074 C 
BRANCH  38  39
HETATM   39  C19 UNL     1       7.725  12.616  20.661  1.00  0.00    -0.056 A 
HETATM   40  C20 UNL     1       9.127  12.621  20.718  1.00  0.00     0.007 A 
HETATM   41  C21 UNL     1       9.786  12.476  21.938  1.00  0.00     0.001 A 
HETATM   42  C22 UNL     1       9.054  12.323  23.113  1.00  0.00     0.000 A 
HETATM   43  C23 UNL     1       7.660  12.318  23.067  1.00  0.00     0.001 A 
HETATM   44  C24 UNL     1       6.997  12.465  21.847  1.00  0.00     0.007 A 
ENDBRANCH  38  39
ENDBRANCH  37  38
BRANCH  37  45
HETATM   45  C25 UNL     1       5.539  11.593  17.648  1.00  0.00     0.163 C 
HETATM   46  O5  UNL     1       4.923  10.656  17.163  1.00  0.00    -0.648 OA
BRANCH  45  47
HETATM   47  O6  UNL     1       6.052  12.545  16.840  1.00  0.00    -0.775 OA
HETATM   48  H27 UNL     1       5.768  12.270  15.944  1.00  0.00     0.167 HD
ENDBRANCH  45  47
ENDBRANCH  37  45
ENDBRANCH  35  37
ENDBRANCH  32  33
BRANCH  32  49
HETATM   49  C26 UNL     1       2.819  13.476  21.838  1.00  0.00     0.009 C 
HETATM   50  C27 UNL     1       2.688  13.574  23.360  1.00  0.00     0.012 C 
HETATM   51  C28 UNL     1       1.882  14.477  21.159  1.00  0.00     0.012 C 
ENDBRANCH  32  49
ENDBRANCH  30  32
ENDBRANCH  27  28
ENDBRANCH  26  27
ENDBRANCH  13  26
TORSDOF 12
ENDMDL
MODEL 7
REMARK minimizedAffinity -7.7013073
REMARK CNNscore 0.187356234
REMARK CNNaffinity 6.635149
REMARK  12 active torsions:
REMARK  status: ('A' for Active; 'I' for Inactive)
REMARK    1  A    between atoms: C3_3  and  O1_4 
REMARK    2  A    between atoms: N1_14  and  O2_16 
REMARK    3  A    between atoms: O2_16  and  C13_17 
REMARK    4  A    between atoms: C13_17  and  C14_18 
REMARK       I    between atoms: C14_18  and  N2_20 
REMARK    5  A    between atoms: N2_20  and  C15_21 
REMARK    6  A    between atoms: C15_21  and  C16_22 
REMARK    7  A    between atoms: C15_21  and  C26_36 
REMARK       I    between atoms: C16_22  and  N3_24 
REMARK    8  A    between atoms: N3_24  and  C17_25 
REMARK    9  A    between atoms: C17_25  and  C18_26 
REMARK   10  A    between atoms: C17_25  and  C25_33 
REMARK   11  A    between atoms: C18_26  and  C19_27 
REMARK   12  A    between atoms: C25_33  and  O6_35 
ROOT
HETATM    1  C1  UNL     1     -13.951   9.286  16.230  1.00  0.00     0.015 C 
HETATM    2  C2  UNL     1     -12.796   9.619  16.244  1.00  0.00    -0.078 C 
HETATM    3  C3  UNL     1     -11.378  10.046  16.291  1.00  0.00     0.128 C 
HETATM    4  C4  UNL     1     -10.774   9.662  17.651  1.00  0.00     0.052 C 
HETATM    5  C5  UNL     1     -10.040   8.334  17.428  1.00  0.00     0.010 C 
HETATM    6  C6  UNL     1     -10.249   7.945  15.944  1.00  0.00     0.002 C 
HETATM    7  C7  UNL     1      -9.176   7.022  15.294  1.00  0.00    -0.004 C 
HETATM    8  C8  UNL     1      -8.563   6.065  16.340  1.00  0.00     0.010 C 
HETATM    9  C9  UNL     1      -7.456   5.177  15.794  1.00  0.00     0.035 C 
HETATM   10  C10 UNL     1      -6.407   6.065  15.179  1.00  0.00    -0.069 C 
HETATM   11  C11 UNL     1      -5.171   6.111  15.702  1.00  0.00     0.030 C 
HETATM   12  C12 UNL     1      -4.168   7.101  15.238  1.00  0.00     0.032 C 
HETATM   13  N1  UNL     1      -2.944   6.954  15.655  1.00  0.00    -0.271 N 
ATOM     14  H1  UNL     1      -2.630   6.169  16.225  1.00  0.00     0.194 HD
HETATM   15  C29 UNL     1      -4.670   8.236  14.375  1.00  0.00     0.060 C 
HETATM   16  C30 UNL     1      -5.709   7.724  13.381  1.00  0.00     0.020 C 
HETATM   17  C31 UNL     1      -6.881   6.906  14.004  1.00  0.00    -0.016 C 
HETATM   18  C32 UNL     1      -7.351   5.951  12.862  1.00  0.00     0.020 C 
HETATM   19  C33 UNL     1      -8.125   7.786  14.419  1.00  0.00     0.002 C 
HETATM   20  C34 UNL     1      -7.837   9.151  15.048  1.00  0.00     0.007 C 
HETATM   21  C35 UNL     1      -9.086  10.053  15.103  1.00  0.00     0.014 C 
HETATM   22  C36 UNL     1     -10.454   9.314  15.261  1.00  0.00     0.003 C 
HETATM   23  C37 UNL     1     -11.141   9.200  13.882  1.00  0.00     0.020 C 
ENDROOT
BRANCH   3  24
HETATM   24  O1  UNL     1     -11.337  11.455  16.109  1.00  0.00    -0.377 OA
HETATM   25  H2  UNL     1     -11.970  11.840  16.740  1.00  0.00     0.211 HD
ENDBRANCH   3  24
BRANCH  13  26
HETATM   26  O2  UNL     1      -2.106   7.996  15.234  1.00  0.00    -0.271 OA
BRANCH  26  27
HETATM   27  C13 UNL     1      -0.912   7.950  16.006  1.00  0.00     0.303 C 
BRANCH  27  28
HETATM   28  C14 UNL     1      -0.245   9.318  16.089  1.00  0.00     0.244 C 
HETATM   29  O3  UNL     1      -0.892  10.359  16.191  1.00  0.00    -0.271 OA
HETATM   30  N2  UNL     1       1.130   9.290  15.949  1.00  0.00    -0.346 N 
HETATM   31  H16 UNL     1       1.571   8.416  16.228  1.00  0.00     0.163 HD
BRANCH  30  32
HETATM   32  C15 UNL     1       1.929  10.506  16.114  1.00  0.00     0.180 C 
BRANCH  32  33
HETATM   33  C16 UNL     1       2.213  10.678  17.625  1.00  0.00     0.241 C 
HETATM   34  O4  UNL     1       2.551   9.736  18.341  1.00  0.00    -0.271 OA
HETATM   35  N3  UNL     1       2.065  11.958  18.101  1.00  0.00    -0.345 N 
HETATM   36  H18 UNL     1       2.051  12.718  17.431  1.00  0.00     0.163 HD
BRANCH  35  37
HETATM   37  C17 UNL     1       2.407  12.319  19.481  1.00  0.00     0.186 C 
BRANCH  37  38
HETATM   38  C18 UNL     1       1.562  11.536  20.501  1.00  0.00     0.074 C 
BRANCH  38  39
HETATM   39  C19 UNL     1       2.367  10.794  21.548  1.00  0.00    -0.056 A 
HETATM   40  C20 UNL     1       3.430  11.435  22.201  1.00  0.00     0.007 A 
HETATM   41  C21 UNL     1       4.191  10.754  23.150  1.00  0.00     0.001 A 
HETATM   42  C22 UNL     1       3.900   9.427  23.457  1.00  0.00     0.000 A 
HETATM   43  C23 UNL     1       2.844   8.781  22.814  1.00  0.00     0.001 A 
HETATM   44  C24 UNL     1       2.079   9.461  21.865  1.00  0.00     0.007 A 
ENDBRANCH  38  39
ENDBRANCH  37  38
BRANCH  37  45
HETATM   45  C25 UNL     1       2.297  13.824  19.741  1.00  0.00     0.163 C 
HETATM   46  O5  UNL     1       3.187  14.645  19.577  1.00  0.00    -0.648 OA
BRANCH  45  47
HETATM   47  O6  UNL     1       1.095  14.226  20.208  1.00  0.00    -0.775 OA
HETATM   48  H27 UNL     1       1.192  15.196  20.300  1.00  0.00     0.167 HD
ENDBRANCH  45  47
ENDBRANCH  37  45
ENDBRANCH  35  37
ENDBRANCH  32  33
BRANCH  32  49
HETATM   49  C26 UNL     1       3.199  10.432  15.237  1.00  0.00     0.009 C 
HETATM   50  C27 UNL     1       4.501  10.595  16.024  1.00  0.00     0.012 C 
HETATM   51  C28 UNL     1       3.154  11.425  14.074  1.00  0.00     0.012 C 
ENDBRANCH  32  49
ENDBRANCH  30  32
ENDBRANCH  27  28
ENDBRANCH  26  27
ENDBRANCH  13  26
TORSDOF 12
ENDMDL
MODEL 8
REMARK minimizedAffinity -7.86529684
REMARK CNNscore 0.154580623
REMARK CNNaffinity 5.90885782
REMARK  12 active torsions:
REMARK  status: ('A' for Active; 'I' for Inactive)
REMARK    1  A    between atoms: C3_3  and  O1_4 
REMARK    2  A    between atoms: N1_14  and  O2_16 
REMARK    3  A    between atoms: O2_16  and  C13_17 
REMARK    4  A    between atoms: C13_17  and  C14_18 
REMARK       I    between atoms: C14_18  and  N2_20 
REMARK    5  A    between atoms: N2_20  and  C15_21 
REMARK    6  A    between atoms: C15_21  and  C16_22 
REMARK    7  A    between atoms: C15_21  and  C26_36 
REMARK       I    between atoms: C16_22  and  N3_24 
REMARK    8  A    between atoms: N3_24  and  C17_25 
REMARK    9  A    between atoms: C17_25  and  C18_26 
REMARK   10  A    between atoms: C17_25  and  C25_33 
REMARK   11  A    between atoms: C18_26  and  C19_27 
REMARK   12  A    between atoms: C25_33  and  O6_35 
ROOT
HETATM    1  C1  UNL     1      -3.040   3.598  10.225  1.00  0.00     0.015 C 
HETATM    2  C2  UNL     1      -2.165   3.979  10.954  1.00  0.00    -0.078 C 
HETATM    3  C3  UNL     1      -1.060   4.439  11.829  1.00  0.00     0.128 C 
HETATM    4  C4  UNL     1      -0.131   5.369  11.033  1.00  0.00     0.052 C 
HETATM    5  C5  UNL     1      -0.573   6.798  11.369  1.00  0.00     0.010 C 
HETATM    6  C6  UNL     1      -1.776   6.684  12.338  1.00  0.00     0.002 C 
HETATM    7  C7  UNL     1      -2.038   7.890  13.289  1.00  0.00    -0.004 C 
HETATM    8  C8  UNL     1      -1.607   9.218  12.630  1.00  0.00     0.010 C 
HETATM    9  C9  UNL     1      -1.769  10.435  13.526  1.00  0.00     0.035 C 
HETATM   10  C10 UNL     1      -1.008  10.181  14.800  1.00  0.00    -0.069 C 
HETATM   11  C11 UNL     1       0.050  10.944  15.118  1.00  0.00     0.030 C 
HETATM   12  C12 UNL     1       0.928  10.613  16.267  1.00  0.00     0.032 C 
HETATM   13  N1  UNL     1       1.810  11.502  16.621  1.00  0.00    -0.271 N 
ATOM     14  H1  UNL     1       1.885  12.427  16.198  1.00  0.00     0.194 HD
HETATM   15  C29 UNL     1       0.770   9.242  16.882  1.00  0.00     0.060 C 
HETATM   16  C30 UNL     1      -0.708   8.865  16.957  1.00  0.00     0.020 C 
HETATM   17  C31 UNL     1      -1.497   8.996  15.618  1.00  0.00    -0.016 C 
HETATM   18  C32 UNL     1      -2.973   9.261  16.053  1.00  0.00     0.020 C 
HETATM   19  C33 UNL     1      -1.496   7.680  14.744  1.00  0.00     0.002 C 
HETATM   20  C34 UNL     1      -0.194   6.877  14.691  1.00  0.00     0.007 C 
HETATM   21  C35 UNL     1      -0.393   5.467  14.101  1.00  0.00     0.014 C 
HETATM   22  C36 UNL     1      -1.524   5.328  13.031  1.00  0.00     0.003 C 
HETATM   23  C37 UNL     1      -2.793   4.748  13.694  1.00  0.00     0.020 C 
ENDROOT
BRANCH   3  24
HETATM   24  O1  UNL     1      -0.350   3.293  12.279  1.00  0.00    -0.377 OA
HETATM   25  H2  UNL     1      -0.141   2.763  11.491  1.00  0.00     0.211 HD
ENDBRANCH   3  24
BRANCH  13  26
HETATM   26  O2  UNL     1       2.646  11.047  17.651  1.00  0.00    -0.271 OA
BRANCH  26  27
HETATM   27  C13 UNL     1       2.677  12.037  18.673  1.00  0.00     0.303 C 
BRANCH  27  28
HETATM   28  C14 UNL     1       3.988  12.816  18.657  1.00  0.00     0.244 C 
HETATM   29  O3  UNL     1       4.049  14.005  18.966  1.00  0.00    -0.271 OA
HETATM   30  N2  UNL     1       5.070  12.099  18.181  1.00  0.00    -0.346 N 
HETATM   31  H16 UNL     1       5.001  11.090  18.300  1.00  0.00     0.163 HD
BRANCH  30  32
HETATM   32  C15 UNL     1       6.419  12.667  18.206  1.00  0.00     0.180 C 
BRANCH  32  33
HETATM   33  C16 UNL     1       7.211  11.948  19.323  1.00  0.00     0.241 C 
HETATM   34  O4  UNL     1       7.653  10.808  19.184  1.00  0.00    -0.271 OA
HETATM   35  N3  UNL     1       7.386  12.679  20.473  1.00  0.00    -0.345 N 
HETATM   36  H18 UNL     1       7.241  13.680  20.428  1.00  0.00     0.163 HD
BRANCH  35  37
HETATM   37  C17 UNL     1       8.211  12.194  21.584  1.00  0.00     0.186 C 
BRANCH  37  38
HETATM   38  C18 UNL     1       7.540  12.449  22.945  1.00  0.00     0.074 C 
BRANCH  38  39
HETATM   39  C19 UNL     1       6.029  12.357  22.930  1.00  0.00    -0.056 A 
HETATM   40  C20 UNL     1       5.254  13.526  22.905  1.00  0.00     0.007 A 
HETATM   41  C21 UNL     1       3.861  13.452  22.913  1.00  0.00     0.001 A 
HETATM   42  C22 UNL     1       3.228  12.212  22.948  1.00  0.00     0.000 A 
HETATM   43  C23 UNL     1       3.989  11.044  22.971  1.00  0.00     0.001 A 
HETATM   44  C24 UNL     1       5.384  11.115  22.961  1.00  0.00     0.007 A 
ENDBRANCH  38  39
ENDBRANCH  37  38
BRANCH  37  45
HETATM   45  C25 UNL     1       9.625  12.780  21.568  1.00  0.00     0.163 C 
HETATM   46  O5  UNL     1       9.938  13.903  21.933  1.00  0.00    -0.648 OA
BRANCH  45  47
HETATM   47  O6  UNL     1      10.571  11.948  21.083  1.00  0.00    -0.775 OA
HETATM   48  H27 UNL     1      11.400  12.465  21.159  1.00  0.00     0.167 HD
ENDBRANCH  45  47
ENDBRANCH  37  45
ENDBRANCH  35  37
ENDBRANCH  32  33
BRANCH  32  49
HETATM   49  C26 UNL     1       7.065  12.564  16.806  1.00  0.00     0.009 C 
HETATM   50  C27 UNL     1       6.770  11.245  16.087  1.00  0.00     0.012 C 
HETATM   51  C28 UNL     1       8.573  12.819  16.847  1.00  0.00     0.012 C 
ENDBRANCH  32  49
ENDBRANCH  30  32
ENDBRANCH  27  28
ENDBRANCH  26  27
ENDBRANCH  13  26
TORSDOF 12
ENDMDL
MODEL 9
REMARK minimizedAffinity -8.96088314
REMARK CNNscore 0.152475178
REMARK CNNaffinity 6.29126167
REMARK  12 active torsions:
REMARK  status: ('A' for Active; 'I' for Inactive)
REMARK    1  A    between atoms: C3_3  and  O1_4 
REMARK    2  A    between atoms: N1_14  and  O2_16 
REMARK    3  A    between atoms: O2_16  and  C13_17 
REMARK    4  A    between atoms: C13_17  and  C14_18 
REMARK       I    between atoms: C14_18  and  N2_20 
REMARK    5  A    between atoms: N2_20  and  C15_21 
REMARK    6  A    between atoms: C15_21  and  C16_22 
REMARK    7  A    between atoms: C15_21  and  C26_36 
REMARK       I    between atoms: C16_22  and  N3_24 
REMARK    8  A    between atoms: N3_24  and  C17_25 
REMARK    9  A    between atoms: C17_25  and  C18_26 
REMARK   10  A    between atoms: C17_25  and  C25_33 
REMARK   11  A    between atoms: C18_26  and  C19_27 
REMARK   12  A    between atoms: C25_33  and  O6_35 
ROOT
HETATM    1  C1  UNL     1      -6.568   6.330  13.957  1.00  0.00     0.015 C 
HETATM    2  C2  UNL     1      -5.512   6.680  14.410  1.00  0.00    -0.078 C 
HETATM    3  C3  UNL     1      -4.216   7.095  14.999  1.00  0.00     0.128 C 
HETATM    4  C4  UNL     1      -3.469   5.855  15.512  1.00  0.00     0.052 C 
HETATM    5  C5  UNL     1      -2.483   5.466  14.403  1.00  0.00     0.010 C 
HETATM    6  C6  UNL     1      -2.689   6.470  13.242  1.00  0.00     0.002 C 
HETATM    7  C7  UNL     1      -1.482   6.705  12.285  1.00  0.00    -0.004 C 
HETATM    8  C8  UNL     1      -0.622   5.429  12.156  1.00  0.00     0.010 C 
HETATM    9  C9  UNL     1       0.616   5.601  11.290  1.00  0.00     0.035 C 
HETATM   10  C10 UNL     1       1.416   6.751  11.843  1.00  0.00    -0.069 C 
HETATM   11  C11 UNL     1       2.641   6.538  12.349  1.00  0.00     0.030 C 
HETATM   12  C12 UNL     1       3.383   7.608  13.062  1.00  0.00     0.032 C 
HETATM   13  N1  UNL     1       4.631   7.380  13.349  1.00  0.00    -0.271 N 
ATOM     14  H1  UNL     1       5.137   6.544  13.058  1.00  0.00     0.194 HD
HETATM   15  C29 UNL     1       2.603   8.842  13.454  1.00  0.00     0.060 C 
HETATM   16  C30 UNL     1       1.642   9.236  12.336  1.00  0.00     0.020 C 
HETATM   17  C31 UNL     1       0.707   8.097  11.827  1.00  0.00    -0.016 C 
HETATM   18  C32 UNL     1       0.388   8.477  10.347  1.00  0.00     0.020 C 
HETATM   19  C33 UNL     1      -0.669   8.008  12.595  1.00  0.00     0.002 C 
HETATM   20  C34 UNL     1      -0.643   8.243  14.107  1.00  0.00     0.007 C 
HETATM   21  C35 UNL     1      -2.050   8.465  14.697  1.00  0.00     0.014 C 
HETATM   22  C36 UNL     1      -3.218   7.724  13.970  1.00  0.00     0.003 C 
HETATM   23  C37 UNL     1      -3.943   8.706  13.023  1.00  0.00     0.020 C 
ENDROOT
BRANCH   3  24
HETATM   24  O1  UNL     1      -4.487   7.991  16.069  1.00  0.00    -0.377 OA
HETATM   25  H2  UNL     1      -5.150   7.561  16.636  1.00  0.00     0.211 HD
ENDBRANCH   3  24
BRANCH  13  26
HETATM   26  O2  UNL     1       5.204   8.414  14.104  1.00  0.00    -0.271 OA
BRANCH  26  27
HETATM   27  C13 UNL     1       6.415   7.933  14.675  1.00  0.00     0.303 C 
BRANCH  27  28
HETATM   28  C14 UNL     1       6.957   8.891  15.730  1.00  0.00     0.244 C 
HETATM   29  O3  UNL     1       7.417   8.498  16.800  1.00  0.00    -0.271 OA
HETATM   30  N2  UNL     1       6.799  10.229  15.417  1.00  0.00    -0.346 N 
HETATM   31  H16 UNL     1       6.757  10.434  14.421  1.00  0.00     0.163 HD
BRANCH  30  32
HETATM   32  C15 UNL     1       7.364  11.274  16.274  1.00  0.00     0.180 C 
BRANCH  32  33
HETATM   33  C16 UNL     1       6.833  11.043  17.708  1.00  0.00     0.241 C 
HETATM   34  O4  UNL     1       7.157  10.062  18.377  1.00  0.00    -0.271 OA
HETATM   35  N3  UNL     1       5.983  12.014  18.175  1.00  0.00    -0.345 N 
HETATM   36  H18 UNL     1       5.970  12.908  17.698  1.00  0.00     0.163 HD
BRANCH  35  37
HETATM   37  C17 UNL     1       5.481  12.012  19.553  1.00  0.00     0.186 C 
BRANCH  37  38
HETATM   38  C18 UNL     1       4.026  11.518  19.629  1.00  0.00     0.074 C 
BRANCH  38  39
HETATM   39  C19 UNL     1       3.701  10.700  20.862  1.00  0.00    -0.056 A 
HETATM   40  C20 UNL     1       4.570  10.714  21.963  1.00  0.00     0.007 A 
HETATM   41  C21 UNL     1       4.291   9.948  23.095  1.00  0.00     0.001 A 
HETATM   42  C22 UNL     1       3.144   9.159  23.138  1.00  0.00     0.000 A 
HETATM   43  C23 UNL     1       2.274   9.140  22.049  1.00  0.00     0.001 A 
HETATM   44  C24 UNL     1       2.549   9.907  20.916  1.00  0.00     0.007 A 
ENDBRANCH  38  39
ENDBRANCH  37  38
BRANCH  37  45
HETATM   45  C25 UNL     1       5.617  13.377  20.233  1.00  0.00     0.163 C 
HETATM   46  O5  UNL     1       4.722  13.987  20.798  1.00  0.00    -0.648 OA
BRANCH  45  47
HETATM   47  O6  UNL     1       6.850  13.920  20.157  1.00  0.00    -0.775 OA
HETATM   48  H27 UNL     1       6.765  14.765  20.646  1.00  0.00     0.167 HD
ENDBRANCH  45  47
ENDBRANCH  37  45
ENDBRANCH  35  37
ENDBRANCH  32  33
BRANCH  32  49
HETATM   49  C26 UNL     1       8.906  11.276  16.163  1.00  0.00     0.009 C 
HETATM   50  C27 UNL     1       9.437  10.522  14.942  1.00  0.00     0.012 C 
HETATM   51  C28 UNL     1       9.576  10.761  17.438  1.00  0.00     0.012 C 
ENDBRANCH  32  49
ENDBRANCH  30  32
ENDBRANCH  27  28
ENDBRANCH  26  27
ENDBRANCH  13  26
TORSDOF 12
ENDMDL
