MODEL 1
REMARK minimizedAffinity -10.2160759
REMARK CNNscore 0.693533301
REMARK CNNaffinity 7.16559839
REMARK  7 active torsions:
REMARK  status: ('A' for Active; 'I' for Inactive)
REMARK    1  A    between atoms: C6_7  and  O1_8 
REMARK    2  A    between atoms: C8_11  and  C9_12 
REMARK    3  A    between atoms: C9_12  and  O3_13 
REMARK    4  A    between atoms: C9_12  and  C10_14 
REMARK    5  A    between atoms: C10_14  and  O4_16 
REMARK    6  A    between atoms: C10_14  and  C12_17 
REMARK    7  A    between atoms: C19_25  and  C20_26 
ROOT
HETATM    1  C12 UNL     1       4.382  66.630 -37.553  1.00  0.00     0.034 C 
HETATM    2  C13 UNL     1       3.225  65.761 -36.987  1.00  0.00     0.012 C 
HETATM    3  C14 UNL     1       2.118  66.732 -36.537  1.00  0.00     0.044 C 
HETATM    4  C15 UNL     1       2.428  68.054 -37.266  1.00  0.00     0.093 C 
HETATM    5  O5  UNL     1       2.162  67.957 -38.686  1.00  0.00    -0.363 OA
HETATM    6  C16 UNL     1       0.913  67.455 -39.155  1.00  0.00     0.263 C 
HETATM    7  C17 UNL     1       0.073  68.509 -39.743  1.00  0.00    -0.080 C 
HETATM    8  C18 UNL     1      -0.655  69.313 -40.266  1.00  0.00    -0.093 C 
HETATM    9  C19 UNL     1      -1.532  70.312 -40.928  1.00  0.00     0.121 C 
HETATM   10  C26 UNL     1      -2.038  71.398 -39.943  1.00  0.00     0.190 C 
HETATM   11  O6  UNL     1      -1.086  72.452 -39.721  1.00  0.00    -0.384 OA
HETATM   12  C27 UNL     1      -0.091  72.150 -38.749  1.00  0.00     0.122 C 
HETATM   13  C28 UNL     1       1.140  73.023 -39.010  1.00  0.00     0.033 C 
HETATM   14  C29 UNL     1       2.070  73.157 -37.796  1.00  0.00     0.013 C 
HETATM   15  C30 UNL     1       1.946  71.994 -36.773  1.00  0.00    -0.026 C 
HETATM   16  C31 UNL     1       2.810  72.360 -35.534  1.00  0.00     0.016 C 
HETATM   17  C32 UNL     1       0.464  71.957 -36.280  1.00  0.00     0.071 C 
HETATM   18  C33 UNL     1      -0.597  72.337 -37.329  1.00  0.00     0.045 C 
HETATM   19  C34 UNL     1       0.087  70.657 -35.600  1.00  0.00     0.154 C 
HETATM   20  O7  UNL     1      -0.838  70.599 -34.789  1.00  0.00    -0.293 OA
HETATM   21  C35 UNL     1       0.786  69.410 -35.952  1.00  0.00     0.057 C 
HETATM   22  C36 UNL     1       1.828  69.372 -36.797  1.00  0.00    -0.036 C 
HETATM   23  C37 UNL     1       2.440  70.630 -37.424  1.00  0.00     0.026 C 
HETATM   24  C38 UNL     1       3.992  70.573 -37.569  1.00  0.00     0.011 C 
HETATM   25  C39 UNL     1       4.552  69.210 -37.988  1.00  0.00     0.014 C 
HETATM   26  C40 UNL     1       3.999  68.086 -37.087  1.00  0.00    -0.002 C 
HETATM   27  C41 UNL     1       4.432  68.339 -35.615  1.00  0.00     0.019 C 
ENDROOT
BRANCH   1  28
HETATM   28  C10 UNL     1       5.833  66.068 -37.331  1.00  0.00     0.087 C 
HETATM   29  C11 UNL     1       6.892  66.596 -38.302  1.00  0.00     0.049 C 
BRANCH  28  30
HETATM   30  C9  UNL     1       6.303  66.187 -35.831  1.00  0.00     0.181 C 
BRANCH  30  31
HETATM   31  C8  UNL     1       5.609  65.322 -34.761  1.00  0.00     0.158 C 
HETATM   32  C2  UNL     1       5.519  65.809 -33.313  1.00  0.00     0.020 C 
HETATM   33  C1  UNL     1       6.846  66.353 -32.766  1.00  0.00     0.013 C 
HETATM   34  C3  UNL     1       5.181  64.506 -32.573  1.00  0.00     0.027 C 
HETATM   35  C4  UNL     1       3.687  64.294 -32.320  1.00  0.00     0.038 C 
HETATM   36  C7  UNL     1       5.766  63.395 -33.453  1.00  0.00     0.185 C 
HETATM   37  C5  UNL     1       3.450  62.842 -31.896  1.00  0.00     0.273 C 
HETATM   38  N1  UNL     1       3.768  61.890 -32.946  1.00  0.00     0.114 N 
HETATM   39  C6  UNL     1       4.720  62.351 -33.933  1.00  0.00     0.383 C 
HETATM   40  H10 UNL     1       4.101  61.006 -32.572  1.00  0.00     0.319 HD
HETATM   41  O2  UNL     1       6.323  64.063 -34.610  1.00  0.00    -0.373 OA
BRANCH  39  42
HETATM   42  O1  UNL     1       5.414  61.210 -34.423  1.00  0.00    -0.366 OA
HETATM   43  H12 UNL     1       6.004  61.562 -35.117  1.00  0.00     0.212 HD
ENDBRANCH  39  42
ENDBRANCH  30  31
BRANCH  30  44
HETATM   44  O3  UNL     1       7.714  65.834 -35.816  1.00  0.00    -0.390 OA
HETATM   45  H16 UNL     1       8.072  66.111 -36.681  1.00  0.00     0.210 HD
ENDBRANCH  30  44
ENDBRANCH  28  30
BRANCH  28  46
HETATM   46  O4  UNL     1       5.776  64.638 -37.562  1.00  0.00    -0.387 OA
HETATM   47  H20 UNL     1       6.678  64.275 -37.486  1.00  0.00     0.210 HD
ENDBRANCH  28  46
ENDBRANCH   1  28
BRANCH   9  48
HETATM   48  C20 UNL     1      -2.708  69.625 -41.611  1.00  0.00    -0.040 A 
HETATM   49  C21 UNL     1      -2.513  68.618 -42.572  1.00  0.00     0.008 A 
HETATM   50  C22 UNL     1      -3.604  67.959 -43.146  1.00  0.00     0.001 A 
HETATM   51  C23 UNL     1      -4.900  68.300 -42.771  1.00  0.00     0.000 A 
HETATM   52  C24 UNL     1      -5.111  69.306 -41.830  1.00  0.00     0.001 A 
HETATM   53  C25 UNL     1      -4.022  69.967 -41.254  1.00  0.00     0.008 A 
ENDBRANCH   9  48
TORSDOF 7
ENDMDL
MODEL 2
REMARK minimizedAffinity -9.99656391
REMARK CNNscore 0.652986228
REMARK CNNaffinity 7.29234314
REMARK  7 active torsions:
REMARK  status: ('A' for Active; 'I' for Inactive)
REMARK    1  A    between atoms: C6_7  and  O1_8 
REMARK    2  A    between atoms: C8_11  and  C9_12 
REMARK    3  A    between atoms: C9_12  and  O3_13 
REMARK    4  A    between atoms: C9_12  and  C10_14 
REMARK    5  A    between atoms: C10_14  and  O4_16 
REMARK    6  A    between atoms: C10_14  and  C12_17 
REMARK    7  A    between atoms: C19_25  and  C20_26 
ROOT
HETATM    1  C12 UNL     1       3.988  66.375 -37.495  1.00  0.00     0.034 C 
HETATM    2  C13 UNL     1       2.714  66.259 -36.613  1.00  0.00     0.012 C 
HETATM    3  C14 UNL     1       1.821  67.465 -36.960  1.00  0.00     0.044 C 
HETATM    4  C15 UNL     1       2.339  67.964 -38.323  1.00  0.00     0.093 C 
HETATM    5  O5  UNL     1       2.006  67.045 -39.392  1.00  0.00    -0.363 OA
HETATM    6  C16 UNL     1       0.669  66.576 -39.551  1.00  0.00     0.263 C 
HETATM    7  C17 UNL     1       0.014  67.150 -40.736  1.00  0.00    -0.080 C 
HETATM    8  C18 UNL     1      -0.574  67.557 -41.705  1.00  0.00    -0.093 C 
HETATM    9  C19 UNL     1      -1.278  68.049 -42.916  1.00  0.00     0.121 C 
HETATM   10  C26 UNL     1      -1.540  69.577 -42.866  1.00  0.00     0.190 C 
HETATM   11  O6  UNL     1      -0.404  70.362 -43.268  1.00  0.00    -0.384 OA
HETATM   12  C27 UNL     1       0.556  70.575 -42.238  1.00  0.00     0.122 C 
HETATM   13  C28 UNL     1       1.915  70.872 -42.879  1.00  0.00     0.033 C 
HETATM   14  C29 UNL     1       2.899  71.580 -41.937  1.00  0.00     0.013 C 
HETATM   15  C30 UNL     1       2.604  71.355 -40.428  1.00  0.00    -0.026 C 
HETATM   16  C31 UNL     1       3.566  72.266 -39.617  1.00  0.00     0.016 C 
HETATM   17  C32 UNL     1       1.160  71.881 -40.148  1.00  0.00     0.071 C 
HETATM   18  C33 UNL     1       0.147  71.690 -41.291  1.00  0.00     0.045 C 
HETATM   19  C34 UNL     1       0.578  71.379 -38.842  1.00  0.00     0.154 C 
HETATM   20  O7  UNL     1      -0.311  71.996 -38.253  1.00  0.00    -0.293 OA
HETATM   21  C35 UNL     1       1.024  70.092 -38.282  1.00  0.00     0.057 C 
HETATM   22  C36 UNL     1       2.008  69.362 -38.828  1.00  0.00    -0.036 C 
HETATM   23  C37 UNL     1       2.816  69.826 -40.045  1.00  0.00     0.026 C 
HETATM   24  C38 UNL     1       4.324  69.435 -39.991  1.00  0.00     0.011 C 
HETATM   25  C39 UNL     1       4.610  68.041 -39.423  1.00  0.00     0.014 C 
HETATM   26  C40 UNL     1       3.895  67.840 -38.069  1.00  0.00    -0.002 C 
HETATM   27  C41 UNL     1       4.423  68.882 -37.043  1.00  0.00     0.019 C 
ENDROOT
BRANCH   1  28
HETATM   28  C10 UNL     1       5.319  65.845 -36.850  1.00  0.00     0.087 C 
HETATM   29  C11 UNL     1       6.466  66.857 -36.796  1.00  0.00     0.049 C 
BRANCH  28  30
HETATM   30  C9  UNL     1       5.078  65.158 -35.451  1.00  0.00     0.181 C 
BRANCH  30  31
HETATM   31  C8  UNL     1       5.666  63.756 -35.197  1.00  0.00     0.158 C 
HETATM   32  C2  UNL     1       4.862  62.711 -34.421  1.00  0.00     0.020 C 
HETATM   33  C1  UNL     1       4.232  63.254 -33.132  1.00  0.00     0.013 C 
HETATM   34  C3  UNL     1       5.957  61.701 -34.045  1.00  0.00     0.027 C 
HETATM   35  C4  UNL     1       6.079  60.515 -35.004  1.00  0.00     0.038 C 
HETATM   36  C7  UNL     1       7.249  62.525 -34.002  1.00  0.00     0.185 C 
HETATM   37  C5  UNL     1       7.393  59.779 -34.728  1.00  0.00     0.273 C 
HETATM   38  N1  UNL     1       8.563  60.589 -35.017  1.00  0.00     0.114 N 
HETATM   39  C6  UNL     1       8.355  62.019 -34.967  1.00  0.00     0.383 C 
HETATM   40  H10 UNL     1       9.345  60.360 -34.411  1.00  0.00     0.319 HD
HETATM   41  O2  UNL     1       6.871  63.868 -34.389  1.00  0.00    -0.373 OA
BRANCH  39  42
HETATM   42  O1  UNL     1       9.590  62.618 -34.593  1.00  0.00    -0.366 OA
HETATM   43  H12 UNL     1       9.415  63.578 -34.622  1.00  0.00     0.212 HD
ENDBRANCH  39  42
ENDBRANCH  30  31
BRANCH  30  44
HETATM   44  O3  UNL     1       5.653  66.048 -34.454  1.00  0.00    -0.390 OA
HETATM   45  H16 UNL     1       5.558  66.952 -34.812  1.00  0.00     0.210 HD
ENDBRANCH  30  44
ENDBRANCH  28  30
BRANCH  28  46
HETATM   46  O4  UNL     1       5.798  64.763 -37.687  1.00  0.00    -0.387 OA
HETATM   47  H20 UNL     1       6.655  64.455 -37.337  1.00  0.00     0.210 HD
ENDBRANCH  28  46
ENDBRANCH   1  28
BRANCH   9  48
HETATM   48  C20 UNL     1      -2.585  67.293 -43.121  1.00  0.00    -0.040 A 
HETATM   49  C21 UNL     1      -2.600  65.959 -43.563  1.00  0.00     0.008 A 
HETATM   50  C22 UNL     1      -3.806  65.263 -43.691  1.00  0.00     0.001 A 
HETATM   51  C23 UNL     1      -5.009  65.892 -43.385  1.00  0.00     0.000 A 
HETATM   52  C24 UNL     1      -5.013  67.219 -42.959  1.00  0.00     0.001 A 
HETATM   53  C25 UNL     1      -3.808  67.917 -42.830  1.00  0.00     0.008 A 
ENDBRANCH   9  48
TORSDOF 7
ENDMDL
MODEL 3
REMARK minimizedAffinity -10.2444315
REMARK CNNscore 0.576137125
REMARK CNNaffinity 7.05637503
REMARK  7 active torsions:
REMARK  status: ('A' for Active; 'I' for Inactive)
REMARK    1  A    between atoms: C6_7  and  O1_8 
REMARK    2  A    between atoms: C8_11  and  C9_12 
REMARK    3  A    between atoms: C9_12  and  O3_13 
REMARK    4  A    between atoms: C9_12  and  C10_14 
REMARK    5  A    between atoms: C10_14  and  O4_16 
REMARK    6  A    between atoms: C10_14  and  C12_17 
REMARK    7  A    between atoms: C19_25  and  C20_26 
ROOT
HETATM    1  C12 UNL     1       4.202  66.600 -38.097  1.00  0.00     0.034 C 
HETATM    2  C13 UNL     1       3.002  66.482 -37.116  1.00  0.00     0.012 C 
HETATM    3  C14 UNL     1       2.061  67.660 -37.421  1.00  0.00     0.044 C 
HETATM    4  C15 UNL     1       2.461  68.136 -38.831  1.00  0.00     0.093 C 
HETATM    5  O5  UNL     1       2.066  67.185 -39.849  1.00  0.00    -0.363 OA
HETATM    6  C16 UNL     1       0.731  66.686 -39.893  1.00  0.00     0.263 C 
HETATM    7  C17 UNL     1      -0.026  67.218 -41.036  1.00  0.00    -0.080 C 
HETATM    8  C18 UNL     1      -0.696  67.589 -41.966  1.00  0.00    -0.093 C 
HETATM    9  C19 UNL     1      -1.502  68.037 -43.130  1.00  0.00     0.121 C 
HETATM   10  C26 UNL     1      -1.791  69.561 -43.095  1.00  0.00     0.190 C 
HETATM   11  O6  UNL     1      -0.707  70.357 -43.602  1.00  0.00    -0.384 OA
HETATM   12  C27 UNL     1       0.326  70.614 -42.655  1.00  0.00     0.122 C 
HETATM   13  C28 UNL     1       1.624  70.922 -43.406  1.00  0.00     0.033 C 
HETATM   14  C29 UNL     1       2.663  71.672 -42.560  1.00  0.00     0.013 C 
HETATM   15  C30 UNL     1       2.490  71.479 -41.028  1.00  0.00    -0.026 C 
HETATM   16  C31 UNL     1       3.492  72.427 -40.315  1.00  0.00     0.016 C 
HETATM   17  C32 UNL     1       1.061  71.983 -40.649  1.00  0.00     0.071 C 
HETATM   18  C33 UNL     1      -0.033  71.744 -41.705  1.00  0.00     0.045 C 
HETATM   19  C34 UNL     1       0.592  71.502 -39.290  1.00  0.00     0.154 C 
HETATM   20  O7  UNL     1      -0.261  72.116 -38.649  1.00  0.00    -0.293 OA
HETATM   21  C35 UNL     1       1.107  70.239 -38.737  1.00  0.00     0.057 C 
HETATM   22  C36 UNL     1       2.062  69.514 -39.341  1.00  0.00    -0.036 C 
HETATM   23  C37 UNL     1       2.763  69.964 -40.628  1.00  0.00     0.026 C 
HETATM   24  C38 UNL     1       4.279  69.603 -40.682  1.00  0.00     0.011 C 
HETATM   25  C39 UNL     1       4.638  68.229 -40.105  1.00  0.00     0.014 C 
HETATM   26  C40 UNL     1       4.034  68.048 -38.696  1.00  0.00    -0.002 C 
HETATM   27  C41 UNL     1       4.617  69.125 -37.739  1.00  0.00     0.019 C 
ENDROOT
BRANCH   1  28
HETATM   28  C10 UNL     1       5.590  66.112 -37.545  1.00  0.00     0.087 C 
HETATM   29  C11 UNL     1       6.799  66.472 -38.411  1.00  0.00     0.049 C 
BRANCH  28  30
HETATM   30  C9  UNL     1       5.811  66.509 -36.036  1.00  0.00     0.181 C 
BRANCH  30  31
HETATM   31  C8  UNL     1       5.309  65.558 -34.932  1.00  0.00     0.158 C 
HETATM   32  C2  UNL     1       5.318  66.000 -33.468  1.00  0.00     0.020 C 
HETATM   33  C1  UNL     1       6.637  66.654 -33.033  1.00  0.00     0.013 C 
HETATM   34  C3  UNL     1       5.175  64.654 -32.742  1.00  0.00     0.027 C 
HETATM   35  C4  UNL     1       3.739  64.297 -32.353  1.00  0.00     0.038 C 
HETATM   36  C7  UNL     1       5.770  63.624 -33.708  1.00  0.00     0.185 C 
HETATM   37  C5  UNL     1       3.679  62.819 -31.955  1.00  0.00     0.273 C 
HETATM   38  N1  UNL     1       3.978  61.926 -33.061  1.00  0.00     0.114 N 
HETATM   39  C6  UNL     1       4.782  62.498 -34.119  1.00  0.00     0.383 C 
HETATM   40  H10 UNL     1       4.426  61.069 -32.750  1.00  0.00     0.319 HD
HETATM   41  O2  UNL     1       6.146  64.368 -34.891  1.00  0.00    -0.373 OA
BRANCH  39  42
HETATM   42  O1  UNL     1       5.526  61.439 -34.710  1.00  0.00    -0.366 OA
HETATM   43  H12 UNL     1       6.009  61.861 -35.446  1.00  0.00     0.212 HD
ENDBRANCH  39  42
ENDBRANCH  30  31
BRANCH  30  44
HETATM   44  O3  UNL     1       7.248  66.649 -35.856  1.00  0.00    -0.390 OA
HETATM   45  H16 UNL     1       7.600  66.953 -36.715  1.00  0.00     0.210 HD
ENDBRANCH  30  44
ENDBRANCH  28  30
BRANCH  28  46
HETATM   46  O4  UNL     1       5.552  64.663 -37.518  1.00  0.00    -0.387 OA
HETATM   47  H20 UNL     1       6.425  64.335 -37.232  1.00  0.00     0.210 HD
ENDBRANCH  28  46
ENDBRANCH   1  28
BRANCH   9  48
HETATM   48  C20 UNL     1      -2.805  67.251 -43.215  1.00  0.00    -0.040 A 
HETATM   49  C21 UNL     1      -2.824  65.903 -43.610  1.00  0.00     0.008 A 
HETATM   50  C22 UNL     1      -4.021  65.181 -43.628  1.00  0.00     0.001 A 
HETATM   51  C23 UNL     1      -5.212  65.799 -43.256  1.00  0.00     0.000 A 
HETATM   52  C24 UNL     1      -5.212  67.139 -42.875  1.00  0.00     0.001 A 
HETATM   53  C25 UNL     1      -4.016  67.863 -42.856  1.00  0.00     0.008 A 
ENDBRANCH   9  48
TORSDOF 7
ENDMDL
MODEL 4
REMARK minimizedAffinity -11.5341043
REMARK CNNscore 0.538964272
REMARK CNNaffinity 7.04306746
REMARK  7 active torsions:
REMARK  status: ('A' for Active; 'I' for Inactive)
REMARK    1  A    between atoms: C6_7  and  O1_8 
REMARK    2  A    between atoms: C8_11  and  C9_12 
REMARK    3  A    between atoms: C9_12  and  O3_13 
REMARK    4  A    between atoms: C9_12  and  C10_14 
REMARK    5  A    between atoms: C10_14  and  O4_16 
REMARK    6  A    between atoms: C10_14  and  C12_17 
REMARK    7  A    between atoms: C19_25  and  C20_26 
ROOT
HETATM    1  C12 UNL     1       4.666  64.501 -35.054  1.00  0.00     0.034 C 
HETATM    2  C13 UNL     1       3.584  65.466 -34.493  1.00  0.00     0.012 C 
HETATM    3  C14 UNL     1       3.910  66.867 -35.041  1.00  0.00     0.044 C 
HETATM    4  C15 UNL     1       4.837  66.617 -36.246  1.00  0.00     0.093 C 
HETATM    5  O5  UNL     1       4.120  66.035 -37.362  1.00  0.00    -0.363 OA
HETATM    6  C16 UNL     1       2.908  66.623 -37.828  1.00  0.00     0.263 C 
HETATM    7  C17 UNL     1       3.070  67.279 -39.133  1.00  0.00    -0.080 C 
HETATM    8  C18 UNL     1       3.124  67.808 -40.213  1.00  0.00    -0.093 C 
HETATM    9  C19 UNL     1       3.199  68.438 -41.556  1.00  0.00     0.121 C 
HETATM   10  C26 UNL     1       4.119  69.687 -41.572  1.00  0.00     0.190 C 
HETATM   11  O6  UNL     1       5.515  69.363 -41.699  1.00  0.00    -0.384 OA
HETATM   12  C27 UNL     1       6.150  69.011 -40.474  1.00  0.00     0.122 C 
HETATM   13  C28 UNL     1       7.381  68.153 -40.781  1.00  0.00     0.033 C 
HETATM   14  C29 UNL     1       8.404  68.111 -39.637  1.00  0.00     0.013 C 
HETATM   15  C30 UNL     1       7.801  68.419 -38.238  1.00  0.00    -0.026 C 
HETATM   16  C31 UNL     1       8.977  68.510 -37.226  1.00  0.00     0.016 C 
HETATM   17  C32 UNL     1       7.166  69.844 -38.303  1.00  0.00     0.071 C 
HETATM   18  C33 UNL     1       6.529  70.230 -39.650  1.00  0.00     0.045 C 
HETATM   19  C34 UNL     1       6.203  70.127 -37.168  1.00  0.00     0.154 C 
HETATM   20  O7  UNL     1       5.957  71.278 -36.804  1.00  0.00    -0.293 OA
HETATM   21  C35 UNL     1       5.483  69.020 -36.517  1.00  0.00     0.057 C 
HETATM   22  C36 UNL     1       5.705  67.730 -36.817  1.00  0.00    -0.036 C 
HETATM   23  C37 UNL     1       6.778  67.278 -37.814  1.00  0.00     0.026 C 
HETATM   24  C38 UNL     1       7.501  65.957 -37.408  1.00  0.00     0.011 C 
HETATM   25  C39 UNL     1       6.595  64.889 -36.787  1.00  0.00     0.014 C 
HETATM   26  C40 UNL     1       5.753  65.482 -35.637  1.00  0.00    -0.002 C 
HETATM   27  C41 UNL     1       6.697  66.005 -34.518  1.00  0.00     0.019 C 
ENDROOT
BRANCH   1  28
HETATM   28  C10 UNL     1       5.074  63.309 -34.115  1.00  0.00     0.087 C 
HETATM   29  C11 UNL     1       3.942  62.735 -33.261  1.00  0.00     0.049 C 
BRANCH  28  30
HETATM   30  C9  UNL     1       5.859  62.179 -34.884  1.00  0.00     0.181 C 
BRANCH  30  31
HETATM   31  C8  UNL     1       7.399  62.239 -34.931  1.00  0.00     0.158 C 
HETATM   32  C2  UNL     1       8.199  61.085 -35.539  1.00  0.00     0.020 C 
HETATM   33  C1  UNL     1       7.744  59.701 -35.056  1.00  0.00     0.013 C 
HETATM   34  C3  UNL     1       9.604  61.362 -34.984  1.00  0.00     0.027 C 
HETATM   35  C4  UNL     1      10.513  62.148 -35.932  1.00  0.00     0.038 C 
HETATM   36  C7  UNL     1       9.363  62.123 -33.676  1.00  0.00     0.185 C 
HETATM   37  C5  UNL     1      11.734  62.648 -35.157  1.00  0.00     0.273 C 
HETATM   38  N1  UNL     1      11.390  63.608 -34.122  1.00  0.00     0.114 N 
HETATM   39  C6  UNL     1      10.035  63.523 -33.624  1.00  0.00     0.383 C 
HETATM   40  H10 UNL     1      12.023  63.558 -33.329  1.00  0.00     0.319 HD
HETATM   41  O2  UNL     1       7.929  62.289 -33.577  1.00  0.00    -0.373 OA
BRANCH  39  42
HETATM   42  O1  UNL     1      10.046  63.969 -32.274  1.00  0.00    -0.366 OA
HETATM   43  H12 UNL     1       9.109  63.943 -32.000  1.00  0.00     0.212 HD
ENDBRANCH  39  42
ENDBRANCH  30  31
BRANCH  30  44
HETATM   44  O3  UNL     1       5.501  60.924 -34.242  1.00  0.00    -0.390 OA
HETATM   45  H16 UNL     1       4.588  61.038 -33.914  1.00  0.00     0.210 HD
ENDBRANCH  30  44
ENDBRANCH  28  30
BRANCH  28  46
HETATM   46  O4  UNL     1       6.047  63.823 -33.172  1.00  0.00    -0.387 OA
HETATM   47  H20 UNL     1       6.273  63.114 -32.541  1.00  0.00     0.210 HD
ENDBRANCH  28  46
ENDBRANCH   1  28
BRANCH   9  48
HETATM   48  C20 UNL     1       1.807  68.798 -42.059  1.00  0.00    -0.040 A 
HETATM   49  C21 UNL     1       0.699  67.969 -41.812  1.00  0.00     0.008 A 
HETATM   50  C22 UNL     1      -0.581  68.344 -42.232  1.00  0.00     0.001 A 
HETATM   51  C23 UNL     1      -0.768  69.547 -42.905  1.00  0.00     0.000 A 
HETATM   52  C24 UNL     1       0.321  70.375 -43.170  1.00  0.00     0.001 A 
HETATM   53  C25 UNL     1       1.603  70.002 -42.752  1.00  0.00     0.008 A 
ENDBRANCH   9  48
TORSDOF 7
ENDMDL
MODEL 5
REMARK minimizedAffinity -9.32477379
REMARK CNNscore 0.51650548
REMARK CNNaffinity 7.11923838
REMARK  7 active torsions:
REMARK  status: ('A' for Active; 'I' for Inactive)
REMARK    1  A    between atoms: C6_7  and  O1_8 
REMARK    2  A    between atoms: C8_11  and  C9_12 
REMARK    3  A    between atoms: C9_12  and  O3_13 
REMARK    4  A    between atoms: C9_12  and  C10_14 
REMARK    5  A    between atoms: C10_14  and  O4_16 
REMARK    6  A    between atoms: C10_14  and  C12_17 
REMARK    7  A    between atoms: C19_25  and  C20_26 
ROOT
HETATM    1  C12 UNL     1       5.712  49.171  -7.521  1.00  0.00     0.034 C 
HETATM    2  C13 UNL     1       4.638  49.136  -6.397  1.00  0.00     0.012 C 
HETATM    3  C14 UNL     1       4.131  50.578  -6.222  1.00  0.00     0.044 C 
HETATM    4  C15 UNL     1       4.540  51.305  -7.518  1.00  0.00     0.093 C 
HETATM    5  O5  UNL     1       3.753  50.863  -8.651  1.00  0.00    -0.363 OA
HETATM    6  C16 UNL     1       2.330  50.827  -8.572  1.00  0.00     0.263 C 
HETATM    7  C17 UNL     1       1.700  51.875  -9.389  1.00  0.00    -0.080 C 
HETATM    8  C18 UNL     1       1.116  52.687 -10.058  1.00  0.00    -0.093 C 
HETATM    9  C19 UNL     1       0.408  53.680 -10.906  1.00  0.00     0.121 C 
HETATM   10  C26 UNL     1       0.661  55.139 -10.441  1.00  0.00     0.190 C 
HETATM   11  O6  UNL     1       1.901  55.683 -10.924  1.00  0.00    -0.384 OA
HETATM   12  C27 UNL     1       3.041  55.325 -10.148  1.00  0.00     0.122 C 
HETATM   13  C28 UNL     1       4.292  55.433 -11.024  1.00  0.00     0.033 C 
HETATM   14  C29 UNL     1       5.597  55.550 -10.222  1.00  0.00     0.013 C 
HETATM   15  C30 UNL     1       5.508  54.975  -8.782  1.00  0.00    -0.026 C 
HETATM   16  C31 UNL     1       6.835  55.322  -8.051  1.00  0.00     0.016 C 
HETATM   17  C32 UNL     1       4.378  55.751  -8.034  1.00  0.00     0.071 C 
HETATM   18  C33 UNL     1       3.177  56.177  -8.898  1.00  0.00     0.045 C 
HETATM   19  C34 UNL     1       3.899  55.056  -6.776  1.00  0.00     0.154 C 
HETATM   20  O7  UNL     1       3.368  55.681  -5.857  1.00  0.00    -0.293 OA
HETATM   21  C35 UNL     1       4.000  53.592  -6.658  1.00  0.00     0.057 C 
HETATM   22  C36 UNL     1       4.591  52.825  -7.587  1.00  0.00    -0.036 C 
HETATM   23  C37 UNL     1       5.283  53.401  -8.828  1.00  0.00     0.026 C 
HETATM   24  C38 UNL     1       6.574  52.632  -9.246  1.00  0.00     0.011 C 
HETATM   25  C39 UNL     1       6.493  51.108  -9.105  1.00  0.00     0.014 C 
HETATM   26  C40 UNL     1       5.994  50.711  -7.699  1.00  0.00    -0.002 C 
HETATM   27  C41 UNL     1       6.994  51.228  -6.628  1.00  0.00     0.019 C 
ENDROOT
BRANCH   1  28
HETATM   28  C10 UNL     1       6.894  48.146  -7.371  1.00  0.00     0.087 C 
HETATM   29  C11 UNL     1       7.181  47.687  -5.939  1.00  0.00     0.049 C 
BRANCH  28  30
HETATM   30  C9  UNL     1       6.763  46.927  -8.361  1.00  0.00     0.181 C 
BRANCH  30  31
HETATM   31  C8  UNL     1       7.938  46.601  -9.304  1.00  0.00     0.158 C 
HETATM   32  C2  UNL     1       9.005  45.587  -8.887  1.00  0.00     0.020 C 
HETATM   33  C1  UNL     1       9.524  45.795  -7.457  1.00  0.00     0.013 C 
HETATM   34  C3  UNL     1      10.138  45.913  -9.872  1.00  0.00     0.027 C 
HETATM   35  C4  UNL     1      10.160  45.030 -11.122  1.00  0.00     0.038 C 
HETATM   36  C7  UNL     1       9.932  47.389 -10.229  1.00  0.00     0.185 C 
HETATM   37  C5  UNL     1      11.094  45.656 -12.162  1.00  0.00     0.273 C 
HETATM   38  N1  UNL     1      10.618  46.940 -12.645  1.00  0.00     0.114 N 
HETATM   39  C6  UNL     1       9.735  47.652 -11.747  1.00  0.00     0.383 C 
HETATM   40  H10 UNL     1      11.382  47.560 -12.897  1.00  0.00     0.319 HD
HETATM   41  O2  UNL     1       8.735  47.799  -9.526  1.00  0.00    -0.373 OA
BRANCH  39  42
HETATM   42  O1  UNL     1       9.908  49.043 -11.991  1.00  0.00    -0.366 OA
HETATM   43  H12 UNL     1       9.260  49.477 -11.403  1.00  0.00     0.212 HD
ENDBRANCH  39  42
ENDBRANCH  30  31
BRANCH  30  44
HETATM   44  O3  UNL     1       6.541  45.750  -7.535  1.00  0.00    -0.390 OA
HETATM   45  H16 UNL     1       6.058  46.061  -6.745  1.00  0.00     0.210 HD
ENDBRANCH  30  44
ENDBRANCH  28  30
BRANCH  28  46
HETATM   46  O4  UNL     1       8.100  48.819  -7.810  1.00  0.00    -0.387 OA
HETATM   47  H20 UNL     1       8.858  48.220  -7.672  1.00  0.00     0.210 HD
ENDBRANCH  28  46
ENDBRANCH   1  28
BRANCH   9  48
HETATM   48  C20 UNL     1      -1.086  53.387 -10.944  1.00  0.00    -0.040 A 
HETATM   49  C21 UNL     1      -2.017  54.232 -10.317  1.00  0.00     0.008 A 
HETATM   50  C22 UNL     1      -3.388  53.978 -10.411  1.00  0.00     0.001 A 
HETATM   51  C23 UNL     1      -3.845  52.876 -11.127  1.00  0.00     0.000 A 
HETATM   52  C24 UNL     1      -2.934  52.019 -11.744  1.00  0.00     0.001 A 
HETATM   53  C25 UNL     1      -1.562  52.271 -11.651  1.00  0.00     0.008 A 
ENDBRANCH   9  48
TORSDOF 7
ENDMDL
MODEL 6
REMARK minimizedAffinity -9.34689617
REMARK CNNscore 0.438863337
REMARK CNNaffinity 6.51984406
REMARK  7 active torsions:
REMARK  status: ('A' for Active; 'I' for Inactive)
REMARK    1  A    between atoms: C6_7  and  O1_8 
REMARK    2  A    between atoms: C8_11  and  C9_12 
REMARK    3  A    between atoms: C9_12  and  O3_13 
REMARK    4  A    between atoms: C9_12  and  C10_14 
REMARK    5  A    between atoms: C10_14  and  O4_16 
REMARK    6  A    between atoms: C10_14  and  C12_17 
REMARK    7  A    between atoms: C19_25  and  C20_26 
ROOT
HETATM    1  C12 UNL     1      -7.072  47.214 -21.155  1.00  0.00     0.034 C 
HETATM    2  C13 UNL     1      -6.995  45.794 -21.783  1.00  0.00     0.012 C 
HETATM    3  C14 UNL     1      -8.330  45.096 -21.469  1.00  0.00     0.044 C 
HETATM    4  C15 UNL     1      -9.302  46.237 -21.110  1.00  0.00     0.093 C 
HETATM    5  O5  UNL     1      -9.658  47.023 -22.274  1.00  0.00    -0.363 OA
HETATM    6  C16 UNL     1     -10.116  46.386 -23.464  1.00  0.00     0.263 C 
HETATM    7  C17 UNL     1     -11.551  46.606 -23.699  1.00  0.00    -0.080 C 
HETATM    8  C18 UNL     1     -12.712  46.771 -23.970  1.00  0.00    -0.093 C 
HETATM    9  C19 UNL     1     -14.141  47.001 -24.303  1.00  0.00     0.121 C 
HETATM   10  C26 UNL     1     -15.100  46.351 -23.271  1.00  0.00     0.190 C 
HETATM   11  O6  UNL     1     -15.295  47.153 -22.094  1.00  0.00    -0.384 OA
HETATM   12  C27 UNL     1     -14.274  47.013 -21.111  1.00  0.00     0.122 C 
HETATM   13  C28 UNL     1     -14.252  48.269 -20.235  1.00  0.00     0.033 C 
HETATM   14  C29 UNL     1     -13.561  48.062 -18.879  1.00  0.00     0.013 C 
HETATM   15  C30 UNL     1     -12.544  46.887 -18.860  1.00  0.00    -0.026 C 
HETATM   16  C31 UNL     1     -12.068  46.698 -17.393  1.00  0.00     0.016 C 
HETATM   17  C32 UNL     1     -13.320  45.587 -19.241  1.00  0.00     0.071 C 
HETATM   18  C33 UNL     1     -14.456  45.764 -20.266  1.00  0.00     0.045 C 
HETATM   19  C34 UNL     1     -12.416  44.444 -19.654  1.00  0.00     0.154 C 
HETATM   20  O7  UNL     1     -12.778  43.270 -19.562  1.00  0.00    -0.293 OA
HETATM   21  C35 UNL     1     -11.096  44.723 -20.243  1.00  0.00     0.057 C 
HETATM   22  C36 UNL     1     -10.595  45.963 -20.355  1.00  0.00    -0.036 C 
HETATM   23  C37 UNL     1     -11.314  47.205 -19.816  1.00  0.00     0.026 C 
HETATM   24  C38 UNL     1     -10.357  48.278 -19.211  1.00  0.00     0.011 C 
HETATM   25  C39 UNL     1      -9.044  48.477 -19.976  1.00  0.00     0.014 C 
HETATM   26  C40 UNL     1      -8.341  47.125 -20.224  1.00  0.00    -0.002 C 
HETATM   27  C41 UNL     1      -7.994  46.463 -18.861  1.00  0.00     0.019 C 
ENDROOT
BRANCH   1  28
HETATM   28  C10 UNL     1      -5.716  47.800 -20.618  1.00  0.00     0.087 C 
HETATM   29  C11 UNL     1      -4.776  46.780 -19.972  1.00  0.00     0.049 C 
BRANCH  28  30
HETATM   30  C9  UNL     1      -4.974  48.683 -21.693  1.00  0.00     0.181 C 
BRANCH  30  31
HETATM   31  C8  UNL     1      -3.675  49.409 -21.294  1.00  0.00     0.158 C 
HETATM   32  C2  UNL     1      -2.319  48.887 -21.775  1.00  0.00     0.020 C 
HETATM   33  C1  UNL     1      -2.147  47.372 -21.598  1.00  0.00     0.013 C 
HETATM   34  C3  UNL     1      -1.358  49.605 -20.817  1.00  0.00     0.027 C 
HETATM   35  C4  UNL     1      -0.763  50.901 -21.374  1.00  0.00     0.038 C 
HETATM   36  C7  UNL     1      -2.186  49.863 -19.554  1.00  0.00     0.185 C 
HETATM   37  C5  UNL     1      -0.109  51.684 -20.232  1.00  0.00     0.273 C 
HETATM   38  N1  UNL     1      -1.067  52.134 -19.237  1.00  0.00     0.114 N 
HETATM   39  C6  UNL     1      -2.287  51.362 -19.158  1.00  0.00     0.383 C 
HETATM   40  H10 UNL     1      -0.659  52.180 -18.308  1.00  0.00     0.319 HD
HETATM   41  O2  UNL     1      -3.514  49.368 -19.848  1.00  0.00    -0.373 OA
BRANCH  39  42
HETATM   42  O1  UNL     1      -2.759  51.445 -17.819  1.00  0.00    -0.366 OA
HETATM   43  H12 UNL     1      -3.604  50.956 -17.826  1.00  0.00     0.212 HD
ENDBRANCH  39  42
ENDBRANCH  30  31
BRANCH  30  44
HETATM   44  O3  UNL     1      -4.645  47.793 -22.795  1.00  0.00    -0.390 OA
HETATM   45  H16 UNL     1      -5.347  47.115 -22.816  1.00  0.00     0.210 HD
ENDBRANCH  30  44
ENDBRANCH  28  30
BRANCH  28  46
HETATM   46  O4  UNL     1      -6.046  48.742 -19.566  1.00  0.00    -0.387 OA
HETATM   47  H20 UNL     1      -5.216  49.077 -19.179  1.00  0.00     0.210 HD
ENDBRANCH  28  46
ENDBRANCH   1  28
BRANCH   9  48
HETATM   48  C20 UNL     1     -14.452  46.498 -25.707  1.00  0.00    -0.040 A 
HETATM   49  C21 UNL     1     -13.637  46.829 -26.803  1.00  0.00     0.008 A 
HETATM   50  C22 UNL     1     -13.906  46.312 -28.074  1.00  0.00     0.001 A 
HETATM   51  C23 UNL     1     -14.993  45.464 -28.265  1.00  0.00     0.000 A 
HETATM   52  C24 UNL     1     -15.819  45.137 -27.192  1.00  0.00     0.001 A 
HETATM   53  C25 UNL     1     -15.553  45.653 -25.920  1.00  0.00     0.008 A 
ENDBRANCH   9  48
TORSDOF 7
ENDMDL
MODEL 7
REMARK minimizedAffinity -9.03039837
REMARK CNNscore 0.355354905
REMARK CNNaffinity 5.91013575
REMARK  7 active torsions:
REMARK  status: ('A' for Active; 'I' for Inactive)
REMARK    1  A    between atoms: C6_7  and  O1_8 
REMARK    2  A    between atoms: C8_11  and  C9_12 
REMARK    3  A    between atoms: C9_12  and  O3_13 
REMARK    4  A    between atoms: C9_12  and  C10_14 
REMARK    5  A    between atoms: C10_14  and  O4_16 
REMARK    6  A    between atoms: C10_14  and  C12_17 
REMARK    7  A    between atoms: C19_25  and  C20_26 
ROOT
HETATM    1  C12 UNL     1       5.299  68.673 -38.321  1.00  0.00     0.034 C 
HETATM    2  C13 UNL     1       6.404  69.523 -37.632  1.00  0.00     0.012 C 
HETATM    3  C14 UNL     1       6.735  68.826 -36.300  1.00  0.00     0.044 C 
HETATM    4  C15 UNL     1       6.201  67.389 -36.460  1.00  0.00     0.093 C 
HETATM    5  O5  UNL     1       7.001  66.620 -37.391  1.00  0.00    -0.363 OA
HETATM    6  C16 UNL     1       8.419  66.571 -37.257  1.00  0.00     0.263 C 
HETATM    7  C17 UNL     1       8.892  65.258 -36.795  1.00  0.00    -0.080 C 
HETATM    8  C18 UNL     1       9.351  64.200 -36.450  1.00  0.00    -0.093 C 
HETATM    9  C19 UNL     1       9.905  62.883 -36.045  1.00  0.00     0.121 C 
HETATM   10  C26 UNL     1       9.491  62.488 -34.603  1.00  0.00     0.190 C 
HETATM   11  O6  UNL     1       8.179  61.904 -34.528  1.00  0.00    -0.384 OA
HETATM   12  C27 UNL     1       7.117  62.851 -34.486  1.00  0.00     0.122 C 
HETATM   13  C28 UNL     1       5.835  62.183 -34.991  1.00  0.00     0.033 C 
HETATM   14  C29 UNL     1       4.551  62.905 -34.557  1.00  0.00     0.013 C 
HETATM   15  C30 UNL     1       4.754  64.408 -34.219  1.00  0.00    -0.026 C 
HETATM   16  C31 UNL     1       3.418  64.946 -33.636  1.00  0.00     0.016 C 
HETATM   17  C32 UNL     1       5.803  64.493 -33.065  1.00  0.00     0.071 C 
HETATM   18  C33 UNL     1       6.916  63.430 -33.095  1.00  0.00     0.045 C 
HETATM   19  C34 UNL     1       6.402  65.875 -32.896  1.00  0.00     0.154 C 
HETATM   20  O7  UNL     1       6.881  66.242 -31.822  1.00  0.00    -0.293 OA
HETATM   21  C35 UNL     1       6.485  66.789 -34.047  1.00  0.00     0.057 C 
HETATM   22  C36 UNL     1       5.963  66.498 -35.248  1.00  0.00    -0.036 C 
HETATM   23  C37 UNL     1       5.167  65.216 -35.524  1.00  0.00     0.026 C 
HETATM   24  C38 UNL     1       3.968  65.415 -36.501  1.00  0.00     0.011 C 
HETATM   25  C39 UNL     1       4.239  66.365 -37.673  1.00  0.00     0.014 C 
HETATM   26  C40 UNL     1       4.826  67.702 -37.173  1.00  0.00    -0.002 C 
HETATM   27  C41 UNL     1       3.804  68.399 -36.232  1.00  0.00     0.019 C 
ENDROOT
BRANCH   1  28
HETATM   28  C10 UNL     1       4.256  69.474 -39.182  1.00  0.00     0.087 C 
HETATM   29  C11 UNL     1       4.828  70.662 -39.959  1.00  0.00     0.049 C 
BRANCH  28  30
HETATM   30  C9  UNL     1       3.389  68.534 -40.104  1.00  0.00     0.181 C 
BRANCH  30  31
HETATM   31  C8  UNL     1       1.881  68.815 -40.248  1.00  0.00     0.158 C 
HETATM   32  C2  UNL     1       0.868  68.058 -39.386  1.00  0.00     0.020 C 
HETATM   33  C1  UNL     1       1.115  66.544 -39.338  1.00  0.00     0.013 C 
HETATM   34  C3  UNL     1      -0.438  68.318 -40.152  1.00  0.00     0.027 C 
HETATM   35  C4  UNL     1      -1.258  69.495 -39.618  1.00  0.00     0.038 C 
HETATM   36  C7  UNL     1      -0.001  68.547 -41.602  1.00  0.00     0.185 C 
HETATM   37  C5  UNL     1      -2.334  69.862 -40.643  1.00  0.00     0.273 C 
HETATM   38  N1  UNL     1      -1.778  70.356 -41.891  1.00  0.00     0.114 N 
HETATM   39  C6  UNL     1      -0.429  69.924 -42.182  1.00  0.00     0.383 C 
HETATM   40  H10 UNL     1      -2.364  70.126 -42.688  1.00  0.00     0.319 HD
HETATM   41  O2  UNL     1       1.444  68.473 -41.593  1.00  0.00    -0.373 OA
BRANCH  39  42
HETATM   42  O1  UNL     1      -0.289  69.881 -43.597  1.00  0.00    -0.366 OA
HETATM   43  H12 UNL     1       0.645  69.636 -43.744  1.00  0.00     0.212 HD
ENDBRANCH  39  42
ENDBRANCH  30  31
BRANCH  30  44
HETATM   44  O3  UNL     1       3.968  68.621 -41.436  1.00  0.00    -0.390 OA
HETATM   45  H16 UNL     1       4.923  68.781 -41.306  1.00  0.00     0.210 HD
ENDBRANCH  30  44
ENDBRANCH  28  30
BRANCH  28  46
HETATM   46  O4  UNL     1       3.290  70.042 -38.263  1.00  0.00    -0.387 OA
HETATM   47  H20 UNL     1       2.664  70.591 -38.771  1.00  0.00     0.210 HD
ENDBRANCH  28  46
ENDBRANCH   1  28
BRANCH   9  48
HETATM   48  C20 UNL     1      11.422  62.874 -36.183  1.00  0.00    -0.040 A 
HETATM   49  C21 UNL     1      12.247  63.549 -35.267  1.00  0.00     0.008 A 
HETATM   50  C22 UNL     1      13.640  63.482 -35.377  1.00  0.00     0.001 A 
HETATM   51  C23 UNL     1      14.223  62.745 -36.403  1.00  0.00     0.000 A 
HETATM   52  C24 UNL     1      13.419  62.080 -37.327  1.00  0.00     0.001 A 
HETATM   53  C25 UNL     1      12.026  62.146 -37.220  1.00  0.00     0.008 A 
ENDBRANCH   9  48
TORSDOF 7
ENDMDL
MODEL 8
REMARK minimizedAffinity -10.2414989
REMARK CNNscore 0.345031053
REMARK CNNaffinity 6.59109926
REMARK  7 active torsions:
REMARK  status: ('A' for Active; 'I' for Inactive)
REMARK    1  A    between atoms: C6_7  and  O1_8 
REMARK    2  A    between atoms: C8_11  and  C9_12 
REMARK    3  A    between atoms: C9_12  and  O3_13 
REMARK    4  A    between atoms: C9_12  and  C10_14 
REMARK    5  A    between atoms: C10_14  and  O4_16 
REMARK    6  A    between atoms: C10_14  and  C12_17 
REMARK    7  A    between atoms: C19_25  and  C20_26 
ROOT
HETATM    1  C12 UNL     1      -5.030  48.701 -22.399  1.00  0.00     0.034 C 
HETATM    2  C13 UNL     1      -5.884  47.860 -23.388  1.00  0.00     0.012 C 
HETATM    3  C14 UNL     1      -6.467  46.684 -22.583  1.00  0.00     0.044 C 
HETATM    4  C15 UNL     1      -6.351  47.116 -21.108  1.00  0.00     0.093 C 
HETATM    5  O5  UNL     1      -7.285  48.174 -20.784  1.00  0.00    -0.363 OA
HETATM    6  C16 UNL     1      -8.665  48.047 -21.119  1.00  0.00     0.263 C 
HETATM    7  C17 UNL     1      -9.511  47.842 -19.934  1.00  0.00    -0.080 C 
HETATM    8  C18 UNL     1     -10.266  47.702 -19.006  1.00  0.00    -0.093 C 
HETATM    9  C19 UNL     1     -11.188  47.552 -17.852  1.00  0.00     0.121 C 
HETATM   10  C26 UNL     1     -10.977  46.213 -17.097  1.00  0.00     0.190 C 
HETATM   11  O6  UNL     1      -9.887  46.255 -16.160  1.00  0.00    -0.384 OA
HETATM   12  C27 UNL     1      -8.605  46.037 -16.740  1.00  0.00     0.122 C 
HETATM   13  C28 UNL     1      -7.538  46.664 -15.837  1.00  0.00     0.033 C 
HETATM   14  C29 UNL     1      -6.128  46.105 -16.070  1.00  0.00     0.013 C 
HETATM   15  C30 UNL     1      -5.916  45.487 -17.480  1.00  0.00    -0.026 C 
HETATM   16  C31 UNL     1      -4.515  44.817 -17.498  1.00  0.00     0.016 C 
HETATM   17  C32 UNL     1      -6.957  44.335 -17.649  1.00  0.00     0.071 C 
HETATM   18  C33 UNL     1      -8.321  44.563 -16.972  1.00  0.00     0.045 C 
HETATM   19  C34 UNL     1      -7.152  43.904 -19.088  1.00  0.00     0.154 C 
HETATM   20  O7  UNL     1      -7.562  42.778 -19.374  1.00  0.00    -0.293 OA
HETATM   21  C35 UNL     1      -6.914  44.860 -20.183  1.00  0.00     0.057 C 
HETATM   22  C36 UNL     1      -6.435  46.096 -19.980  1.00  0.00    -0.036 C 
HETATM   23  C37 UNL     1      -6.019  46.613 -18.598  1.00  0.00     0.026 C 
HETATM   24  C38 UNL     1      -4.763  47.539 -18.620  1.00  0.00     0.011 C 
HETATM   25  C39 UNL     1      -4.696  48.508 -19.806  1.00  0.00     0.014 C 
HETATM   26  C40 UNL     1      -4.908  47.761 -21.140  1.00  0.00    -0.002 C 
HETATM   27  C41 UNL     1      -3.781  46.708 -21.331  1.00  0.00     0.019 C 
ENDROOT
BRANCH   1  28
HETATM   28  C10 UNL     1      -3.761  49.398 -23.012  1.00  0.00     0.087 C 
HETATM   29  C11 UNL     1      -2.667  48.447 -23.501  1.00  0.00     0.049 C 
BRANCH  28  30
HETATM   30  C9  UNL     1      -4.133  50.474 -24.102  1.00  0.00     0.181 C 
BRANCH  30  31
HETATM   31  C8  UNL     1      -2.999  51.174 -24.877  1.00  0.00     0.158 C 
HETATM   32  C2  UNL     1      -2.704  50.792 -26.328  1.00  0.00     0.020 C 
HETATM   33  C1  UNL     1      -2.638  49.276 -26.562  1.00  0.00     0.013 C 
HETATM   34  C3  UNL     1      -1.297  51.379 -26.519  1.00  0.00     0.027 C 
HETATM   35  C4  UNL     1      -1.276  52.771 -27.155  1.00  0.00     0.038 C 
HETATM   36  C7  UNL     1      -0.687  51.393 -25.113  1.00  0.00     0.185 C 
HETATM   37  C5  UNL     1       0.118  53.380 -26.983  1.00  0.00     0.273 C 
HETATM   38  N1  UNL     1       0.458  53.623 -25.592  1.00  0.00     0.114 N 
HETATM   39  C6  UNL     1      -0.243  52.801 -24.630  1.00  0.00     0.383 C 
HETATM   40  H10 UNL     1       1.455  53.531 -25.421  1.00  0.00     0.319 HD
HETATM   41  O2  UNL     1      -1.723  50.902 -24.230  1.00  0.00    -0.373 OA
BRANCH  39  42
HETATM   42  O1  UNL     1       0.608  52.644 -23.502  1.00  0.00    -0.366 OA
HETATM   43  H12 UNL     1       0.076  52.130 -22.863  1.00  0.00     0.212 HD
ENDBRANCH  39  42
ENDBRANCH  30  31
BRANCH  30  44
HETATM   44  O3  UNL     1      -4.961  49.791 -25.084  1.00  0.00    -0.390 OA
HETATM   45  H16 UNL     1      -5.446  49.099 -24.595  1.00  0.00     0.210 HD
ENDBRANCH  30  44
ENDBRANCH  28  30
BRANCH  28  46
HETATM   46  O4  UNL     1      -3.150  50.178 -21.953  1.00  0.00    -0.387 OA
HETATM   47  H20 UNL     1      -2.327  50.575 -22.296  1.00  0.00     0.210 HD
ENDBRANCH  28  46
ENDBRANCH   1  28
BRANCH   9  48
HETATM   48  C20 UNL     1     -12.638  47.685 -18.302  1.00  0.00    -0.040 A 
HETATM   49  C21 UNL     1     -13.704  47.332 -17.456  1.00  0.00     0.008 A 
HETATM   50  C22 UNL     1     -15.029  47.514 -17.865  1.00  0.00     0.001 A 
HETATM   51  C23 UNL     1     -15.303  48.045 -19.121  1.00  0.00     0.000 A 
HETATM   52  C24 UNL     1     -14.258  48.388 -19.977  1.00  0.00     0.001 A 
HETATM   53  C25 UNL     1     -12.932  48.206 -19.571  1.00  0.00     0.008 A 
ENDBRANCH   9  48
TORSDOF 7
ENDMDL
MODEL 9
REMARK minimizedAffinity -10.9604597
REMARK CNNscore 0.331282914
REMARK CNNaffinity 7.10939169
REMARK  7 active torsions:
REMARK  status: ('A' for Active; 'I' for Inactive)
REMARK    1  A    between atoms: C6_7  and  O1_8 
REMARK    2  A    between atoms: C8_11  and  C9_12 
REMARK    3  A    between atoms: C9_12  and  O3_13 
REMARK    4  A    between atoms: C9_12  and  C10_14 
REMARK    5  A    between atoms: C10_14  and  O4_16 
REMARK    6  A    between atoms: C10_14  and  C12_17 
REMARK    7  A    between atoms: C19_25  and  C20_26 
ROOT
HETATM    1  C12 UNL     1      -3.786  49.749 -21.562  1.00  0.00     0.034 C 
HETATM    2  C13 UNL     1      -4.650  49.555 -22.840  1.00  0.00     0.012 C 
HETATM    3  C14 UNL     1      -5.365  48.199 -22.691  1.00  0.00     0.044 C 
HETATM    4  C15 UNL     1      -5.294  47.875 -21.186  1.00  0.00     0.093 C 
HETATM    5  O5  UNL     1      -6.159  48.739 -20.410  1.00  0.00    -0.363 OA
HETATM    6  C16 UNL     1      -7.525  48.915 -20.780  1.00  0.00     0.263 C 
HETATM    7  C17 UNL     1      -8.446  48.258 -19.841  1.00  0.00    -0.080 C 
HETATM    8  C18 UNL     1      -9.258  47.771 -19.097  1.00  0.00    -0.093 C 
HETATM    9  C19 UNL     1     -10.249  47.185 -18.160  1.00  0.00     0.121 C 
HETATM   10  C26 UNL     1     -10.183  45.635 -18.125  1.00  0.00     0.190 C 
HETATM   11  O6  UNL     1      -9.146  45.129 -17.268  1.00  0.00    -0.384 OA
HETATM   12  C27 UNL     1      -7.855  45.090 -17.868  1.00  0.00     0.122 C 
HETATM   13  C28 UNL     1      -6.793  45.117 -16.766  1.00  0.00     0.033 C 
HETATM   14  C29 UNL     1      -5.419  44.602 -17.220  1.00  0.00     0.013 C 
HETATM   15  C30 UNL     1      -5.182  44.702 -18.753  1.00  0.00    -0.026 C 
HETATM   16  C31 UNL     1      -3.838  43.990 -19.071  1.00  0.00     0.016 C 
HETATM   17  C32 UNL     1      -6.299  43.867 -19.457  1.00  0.00     0.071 C 
HETATM   18  C33 UNL     1      -7.675  43.878 -18.767  1.00  0.00     0.045 C 
HETATM   19  C34 UNL     1      -6.449  44.182 -20.931  1.00  0.00     0.154 C 
HETATM   20  O7  UNL     1      -6.931  43.366 -21.718  1.00  0.00    -0.293 OA
HETATM   21  C35 UNL     1      -6.080  45.513 -21.442  1.00  0.00     0.057 C 
HETATM   22  C36 UNL     1      -5.517  46.458 -20.674  1.00  0.00    -0.036 C 
HETATM   23  C37 UNL     1      -5.136  46.225 -19.207  1.00  0.00     0.026 C 
HETATM   24  C38 UNL     1      -3.813  46.930 -18.778  1.00  0.00     0.011 C 
HETATM   25  C39 UNL     1      -3.608  48.331 -19.364  1.00  0.00     0.014 C 
HETATM   26  C40 UNL     1      -3.806  48.321 -20.895  1.00  0.00    -0.002 C 
HETATM   27  C41 UNL     1      -2.756  47.380 -21.549  1.00  0.00     0.019 C 
ENDROOT
BRANCH   1  28
HETATM   28  C10 UNL     1      -2.437  50.530 -21.760  1.00  0.00     0.087 C 
HETATM   29  C11 UNL     1      -1.215  49.655 -22.051  1.00  0.00     0.049 C 
BRANCH  28  30
HETATM   30  C9  UNL     1      -2.570  51.712 -22.794  1.00  0.00     0.181 C 
BRANCH  30  31
HETATM   31  C8  UNL     1      -1.674  51.711 -24.048  1.00  0.00     0.158 C 
HETATM   32  C2  UNL     1      -0.152  51.789 -23.910  1.00  0.00     0.020 C 
HETATM   33  C1  UNL     1       0.320  52.873 -22.930  1.00  0.00     0.013 C 
HETATM   34  C3  UNL     1       0.263  52.198 -25.331  1.00  0.00     0.027 C 
HETATM   35  C4  UNL     1       0.666  51.027 -26.231  1.00  0.00     0.038 C 
HETATM   36  C7  UNL     1      -0.951  52.947 -25.892  1.00  0.00     0.185 C 
HETATM   37  C5  UNL     1       0.726  51.509 -27.683  1.00  0.00     0.273 C 
HETATM   38  N1  UNL     1      -0.571  51.917 -28.195  1.00  0.00     0.114 N 
HETATM   39  C6  UNL     1      -1.530  52.330 -27.194  1.00  0.00     0.383 C 
HETATM   40  H10 UNL     1      -0.493  52.659 -28.885  1.00  0.00     0.319 HD
HETATM   41  O2  UNL     1      -1.962  52.886 -24.857  1.00  0.00    -0.373 OA
BRANCH  39  42
HETATM   42  O1  UNL     1      -2.396  53.282 -27.799  1.00  0.00    -0.366 OA
HETATM   43  H12 UNL     1      -3.053  53.490 -27.107  1.00  0.00     0.212 HD
ENDBRANCH  39  42
ENDBRANCH  30  31
BRANCH  30  44
HETATM   44  O3  UNL     1      -3.950  51.697 -23.256  1.00  0.00    -0.390 OA
HETATM   45  H16 UNL     1      -4.482  51.362 -22.509  1.00  0.00     0.210 HD
ENDBRANCH  30  44
ENDBRANCH  28  30
BRANCH  28  46
HETATM   46  O4  UNL     1      -2.144  51.199 -20.508  1.00  0.00    -0.387 OA
HETATM   47  H20 UNL     1      -1.280  51.644 -20.589  1.00  0.00     0.210 HD
ENDBRANCH  28  46
ENDBRANCH   1  28
BRANCH   9  48
HETATM   48  C20 UNL     1     -11.658  47.648 -18.508  1.00  0.00    -0.040 A 
HETATM   49  C21 UNL     1     -11.944  48.270 -19.736  1.00  0.00     0.008 A 
HETATM   50  C22 UNL     1     -13.253  48.638 -20.062  1.00  0.00     0.001 A 
HETATM   51  C23 UNL     1     -14.289  48.392 -19.166  1.00  0.00     0.000 A 
HETATM   52  C24 UNL     1     -14.021  47.788 -17.939  1.00  0.00     0.001 A 
HETATM   53  C25 UNL     1     -12.713  47.420 -17.610  1.00  0.00     0.008 A 
ENDBRANCH   9  48
TORSDOF 7
ENDMDL
