MODEL 1
REMARK minimizedAffinity -7.22237635
REMARK CNNscore 0.909360111
REMARK CNNaffinity 7.48157549
REMARK  8 active torsions:
REMARK  status: ('A' for Active; 'I' for Inactive)
REMARK    1  A    between atoms: C2_2  and  C30_33 
REMARK    2  A    between atoms: C3_3  and  C4_4 
REMARK    3  A    between atoms: C4_4  and  C5_5 
REMARK    4  A    between atoms: C5_5  and  C6_6 
REMARK    5  A    between atoms: C6_6  and  C8_8 
REMARK    6  A    between atoms: C15_15  and  O1_16 
REMARK    7  A    between atoms: C23_24  and  O2_25 
REMARK    8  A    between atoms: C30_33  and  O4_34 
ROOT
HETATM    1  C8  UNL     1       4.542  54.902  -8.387  1.00  0.00    -0.002 C 
HETATM    2  C9  UNL     1       3.917  56.263  -8.007  1.00  0.00     0.007 C 
HETATM    3  C10 UNL     1       2.416  56.173  -8.365  1.00  0.00     0.015 C 
HETATM    4  C11 UNL     1       2.134  54.669  -8.576  1.00  0.00    -0.005 C 
HETATM    5  C12 UNL     1       1.911  54.046  -7.163  1.00  0.00     0.021 C 
HETATM    6  C13 UNL     1       0.939  54.184  -9.389  1.00  0.00     0.002 C 
HETATM    7  C14 UNL     1       0.990  53.012 -10.082  1.00  0.00    -0.032 C 
HETATM    8  C15 UNL     1       2.264  52.161 -10.102  1.00  0.00     0.149 C 
HETATM    9  C16 UNL     1       3.515  52.732  -9.393  1.00  0.00     0.047 C 
HETATM   10  C17 UNL     1       3.471  54.258  -9.312  1.00  0.00    -0.026 C 
HETATM   11  C18 UNL     1       3.557  54.832 -10.757  1.00  0.00     0.016 C 
HETATM   12  C19 UNL     1      -0.200  52.565 -10.983  1.00  0.00    -0.013 C 
HETATM   13  C20 UNL     1       0.046  53.303 -12.324  1.00  0.00     0.021 C 
HETATM   14  C21 UNL     1      -0.283  51.047 -11.246  1.00  0.00     0.017 C 
HETATM   15  C22 UNL     1      -1.463  50.610 -12.117  1.00  0.00     0.033 C 
HETATM   16  C23 UNL     1      -2.734  51.455 -11.988  1.00  0.00     0.126 C 
HETATM   17  C24 UNL     1      -2.859  52.257 -10.667  1.00  0.00    -0.017 C 
HETATM   18  C25 UNL     1      -4.049  53.239 -10.772  1.00  0.00     0.018 C 
HETATM   19  C26 UNL     1      -3.252  51.240  -9.555  1.00  0.00     0.018 C 
HETATM   20  C27 UNL     1      -1.509  52.966 -10.223  1.00  0.00     0.015 C 
HETATM   21  C28 UNL     1      -1.563  54.486 -10.063  1.00  0.00     0.090 C 
HETATM   22  C29 UNL     1      -0.310  55.020  -9.400  1.00  0.00     0.157 C 
HETATM   23  O3  UNL     1      -0.329  56.139  -8.886  1.00  0.00    -0.293 OA
ENDROOT
BRANCH   1  24
HETATM   24  C6  UNL     1       6.056  54.865  -8.739  1.00  0.00    -0.014 C 
HETATM   25  C7  UNL     1       6.484  53.412  -9.017  1.00  0.00     0.010 C 
BRANCH  24  26
HETATM   26  C5  UNL     1       7.112  55.597  -7.875  1.00  0.00     0.008 C 
BRANCH  26  27
HETATM   27  C4  UNL     1       7.042  55.586  -6.344  1.00  0.00     0.028 C 
BRANCH  27  28
HETATM   28  C3  UNL     1       8.368  55.577  -5.638  1.00  0.00    -0.022 C 
HETATM   29  C2  UNL     1       8.963  56.607  -5.003  1.00  0.00    -0.064 C 
HETATM   30  C1  UNL     1       8.403  58.002  -4.933  1.00  0.00     0.045 C 
BRANCH  29  31
HETATM   31  C30 UNL     1      10.295  56.426  -4.321  1.00  0.00     0.197 C 
BRANCH  31  32
HETATM   32  O4  UNL     1      11.328  56.582  -5.281  1.00  0.00    -0.397 OA
HETATM   33  H48 UNL     1      12.167  56.558  -4.792  1.00  0.00     0.209 HD
ENDBRANCH  31  32
ENDBRANCH  29  31
ENDBRANCH  27  28
ENDBRANCH  26  27
ENDBRANCH  24  26
ENDBRANCH   1  24
BRANCH   8  34
HETATM   34  O1  UNL     1       1.976  50.906  -9.493  1.00  0.00    -0.391 OA
HETATM   35  H22 UNL     1       2.760  50.343  -9.610  1.00  0.00     0.210 HD
ENDBRANCH   8  34
BRANCH  16  36
HETATM   36  O2  UNL     1      -2.814  52.318 -13.121  1.00  0.00    -0.395 OA
HETATM   37  H36 UNL     1      -3.748  52.557 -13.252  1.00  0.00     0.210 HD
ENDBRANCH  16  36
TORSDOF 8
ENDMDL
MODEL 2
REMARK minimizedAffinity -7.51289988
REMARK CNNscore 0.871393144
REMARK CNNaffinity 6.9149766
REMARK  8 active torsions:
REMARK  status: ('A' for Active; 'I' for Inactive)
REMARK    1  A    between atoms: C2_2  and  C30_33 
REMARK    2  A    between atoms: C3_3  and  C4_4 
REMARK    3  A    between atoms: C4_4  and  C5_5 
REMARK    4  A    between atoms: C5_5  and  C6_6 
REMARK    5  A    between atoms: C6_6  and  C8_8 
REMARK    6  A    between atoms: C15_15  and  O1_16 
REMARK    7  A    between atoms: C23_24  and  O2_25 
REMARK    8  A    between atoms: C30_33  and  O4_34 
ROOT
HETATM    1  C8  UNL     1       4.232  56.918  -6.532  1.00  0.00    -0.002 C 
HETATM    2  C9  UNL     1       3.285  58.114  -6.285  1.00  0.00     0.007 C 
HETATM    3  C10 UNL     1       1.913  57.720  -6.881  1.00  0.00     0.015 C 
HETATM    4  C11 UNL     1       1.987  56.193  -7.106  1.00  0.00    -0.005 C 
HETATM    5  C12 UNL     1       1.671  55.516  -5.736  1.00  0.00     0.021 C 
HETATM    6  C13 UNL     1       1.068  55.484  -8.093  1.00  0.00     0.002 C 
HETATM    7  C14 UNL     1       1.473  54.358  -8.745  1.00  0.00    -0.032 C 
HETATM    8  C15 UNL     1       2.882  53.790  -8.542  1.00  0.00     0.149 C 
HETATM    9  C16 UNL     1       3.854  54.598  -7.650  1.00  0.00     0.047 C 
HETATM   10  C17 UNL     1       3.482  56.080  -7.607  1.00  0.00    -0.026 C 
HETATM   11  C18 UNL     1       3.682  56.681  -9.029  1.00  0.00     0.016 C 
HETATM   12  C19 UNL     1       0.565  53.687  -9.819  1.00  0.00    -0.013 C 
HETATM   13  C20 UNL     1       0.867  54.481 -11.116  1.00  0.00     0.021 C 
HETATM   14  C21 UNL     1       0.842  52.189 -10.063  1.00  0.00     0.017 C 
HETATM   15  C22 UNL     1      -0.064  51.530 -11.105  1.00  0.00     0.033 C 
HETATM   16  C23 UNL     1      -1.486  52.091 -11.200  1.00  0.00     0.126 C 
HETATM   17  C24 UNL     1      -1.988  52.829  -9.933  1.00  0.00    -0.017 C 
HETATM   18  C25 UNL     1      -3.322  53.545 -10.249  1.00  0.00     0.018 C 
HETATM   19  C26 UNL     1      -2.338  51.736  -8.881  1.00  0.00     0.018 C 
HETATM   20  C27 UNL     1      -0.905  53.797  -9.289  1.00  0.00     0.015 C 
HETATM   21  C28 UNL     1      -1.298  55.270  -9.169  1.00  0.00     0.090 C 
HETATM   22  C29 UNL     1      -0.308  56.042  -8.323  1.00  0.00     0.157 C 
HETATM   23  O3  UNL     1      -0.642  57.125  -7.840  1.00  0.00    -0.293 OA
ENDROOT
BRANCH   1  24
HETATM   24  C6  UNL     1       5.757  57.202  -6.633  1.00  0.00    -0.014 C 
HETATM   25  C7  UNL     1       6.520  55.870  -6.764  1.00  0.00     0.010 C 
BRANCH  24  26
HETATM   26  C5  UNL     1       6.475  58.157  -5.649  1.00  0.00     0.008 C 
BRANCH  26  27
HETATM   27  C4  UNL     1       7.654  57.685  -4.791  1.00  0.00     0.028 C 
BRANCH  27  28
HETATM   28  C3  UNL     1       8.812  58.638  -4.705  1.00  0.00    -0.022 C 
HETATM   29  C2  UNL     1      10.124  58.342  -4.809  1.00  0.00    -0.064 C 
HETATM   30  C1  UNL     1      10.672  56.952  -4.986  1.00  0.00     0.045 C 
BRANCH  29  31
HETATM   31  C30 UNL     1      11.167  59.426  -4.721  1.00  0.00     0.197 C 
BRANCH  31  32
HETATM   32  O4  UNL     1      10.883  60.249  -3.601  1.00  0.00    -0.397 OA
HETATM   33  H48 UNL     1      11.624  60.871  -3.517  1.00  0.00     0.209 HD
ENDBRANCH  31  32
ENDBRANCH  29  31
ENDBRANCH  27  28
ENDBRANCH  26  27
ENDBRANCH  24  26
ENDBRANCH   1  24
BRANCH   8  34
HETATM   34  O1  UNL     1       2.765  52.494  -7.964  1.00  0.00    -0.391 OA
HETATM   35  H22 UNL     1       3.657  52.108  -7.941  1.00  0.00     0.210 HD
ENDBRANCH   8  34
BRANCH  16  36
HETATM   36  O2  UNL     1      -1.558  52.936 -12.348  1.00  0.00    -0.395 OA
HETATM   37  H36 UNL     1      -2.487  52.978 -12.633  1.00  0.00     0.210 HD
ENDBRANCH  16  36
TORSDOF 8
ENDMDL
MODEL 3
REMARK minimizedAffinity -8.42831039
REMARK CNNscore 0.581182837
REMARK CNNaffinity 6.10660601
REMARK  8 active torsions:
REMARK  status: ('A' for Active; 'I' for Inactive)
REMARK    1  A    between atoms: C2_2  and  C30_33 
REMARK    2  A    between atoms: C3_3  and  C4_4 
REMARK    3  A    between atoms: C4_4  and  C5_5 
REMARK    4  A    between atoms: C5_5  and  C6_6 
REMARK    5  A    between atoms: C6_6  and  C8_8 
REMARK    6  A    between atoms: C15_15  and  O1_16 
REMARK    7  A    between atoms: C23_24  and  O2_25 
REMARK    8  A    between atoms: C30_33  and  O4_34 
ROOT
HETATM    1  C8  UNL     1       3.753  66.958 -37.324  1.00  0.00    -0.002 C 
HETATM    2  C9  UNL     1       2.779  66.980 -36.125  1.00  0.00     0.007 C 
HETATM    3  C10 UNL     1       1.462  67.607 -36.637  1.00  0.00     0.015 C 
HETATM    4  C11 UNL     1       1.566  67.575 -38.179  1.00  0.00    -0.005 C 
HETATM    5  C12 UNL     1       1.149  66.142 -38.633  1.00  0.00     0.021 C 
HETATM    6  C13 UNL     1       0.733  68.501 -39.057  1.00  0.00     0.002 C 
HETATM    7  C14 UNL     1       1.196  68.930 -40.264  1.00  0.00    -0.032 C 
HETATM    8  C15 UNL     1       2.590  68.531 -40.762  1.00  0.00     0.149 C 
HETATM    9  C16 UNL     1       3.483  67.711 -39.802  1.00  0.00     0.047 C 
HETATM   10  C17 UNL     1       3.096  67.936 -38.340  1.00  0.00    -0.026 C 
HETATM   11  C18 UNL     1       3.402  69.418 -37.971  1.00  0.00     0.016 C 
HETATM   12  C19 UNL     1       0.381  69.948 -41.117  1.00  0.00    -0.013 C 
HETATM   13  C20 UNL     1       0.777  71.329 -40.536  1.00  0.00     0.021 C 
HETATM   14  C21 UNL     1       0.688  69.924 -42.629  1.00  0.00     0.017 C 
HETATM   15  C22 UNL     1      -0.127  70.911 -43.466  1.00  0.00     0.033 C 
HETATM   16  C23 UNL     1      -1.542  71.204 -42.957  1.00  0.00     0.126 C 
HETATM   17  C24 UNL     1      -2.148  70.115 -42.035  1.00  0.00    -0.017 C 
HETATM   18  C25 UNL     1      -3.459  70.643 -41.408  1.00  0.00     0.018 C 
HETATM   19  C26 UNL     1      -2.570  68.929 -42.952  1.00  0.00     0.018 C 
HETATM   20  C27 UNL     1      -1.126  69.556 -40.955  1.00  0.00     0.015 C 
HETATM   21  C28 UNL     1      -1.540  69.706 -39.490  1.00  0.00     0.090 C 
HETATM   22  C29 UNL     1      -0.626  68.923 -38.571  1.00  0.00     0.157 C 
HETATM   23  O3  UNL     1      -1.005  68.649 -37.432  1.00  0.00    -0.293 OA
ENDROOT
BRANCH   1  24
HETATM   24  C6  UNL     1       5.279  66.987 -37.029  1.00  0.00    -0.014 C 
HETATM   25  C7  UNL     1       6.055  66.560 -38.289  1.00  0.00     0.010 C 
BRANCH  24  26
HETATM   26  C5  UNL     1       5.876  66.329 -35.762  1.00  0.00     0.008 C 
BRANCH  26  27
HETATM   27  C4  UNL     1       5.009  66.009 -34.540  1.00  0.00     0.028 C 
BRANCH  27  28
HETATM   28  C3  UNL     1       4.716  64.552 -34.320  1.00  0.00    -0.022 C 
HETATM   29  C2  UNL     1       4.339  63.959 -33.169  1.00  0.00    -0.064 C 
HETATM   30  C1  UNL     1       4.190  64.672 -31.852  1.00  0.00     0.045 C 
BRANCH  29  31
HETATM   31  C30 UNL     1       4.061  62.478 -33.121  1.00  0.00     0.197 C 
BRANCH  31  32
HETATM   32  O4  UNL     1       3.016  62.236 -32.194  1.00  0.00    -0.397 OA
HETATM   33  H48 UNL     1       2.797  61.292 -32.261  1.00  0.00     0.209 HD
ENDBRANCH  31  32
ENDBRANCH  29  31
ENDBRANCH  27  28
ENDBRANCH  26  27
ENDBRANCH  24  26
ENDBRANCH   1  24
BRANCH   8  34
HETATM   34  O1  UNL     1       2.439  67.762 -41.950  1.00  0.00    -0.391 OA
HETATM   35  H22 UNL     1       3.329  67.609 -42.309  1.00  0.00     0.210 HD
ENDBRANCH   8  34
BRANCH  16  36
HETATM   36  O2  UNL     1      -1.531  72.476 -42.309  1.00  0.00    -0.395 OA
HETATM   37  H36 UNL     1      -2.435  72.833 -42.333  1.00  0.00     0.210 HD
ENDBRANCH  16  36
TORSDOF 8
ENDMDL
MODEL 4
REMARK minimizedAffinity -7.41167831
REMARK CNNscore 0.566124201
REMARK CNNaffinity 6.0692482
REMARK  8 active torsions:
REMARK  status: ('A' for Active; 'I' for Inactive)
REMARK    1  A    between atoms: C2_2  and  C30_33 
REMARK    2  A    between atoms: C3_3  and  C4_4 
REMARK    3  A    between atoms: C4_4  and  C5_5 
REMARK    4  A    between atoms: C5_5  and  C6_6 
REMARK    5  A    between atoms: C6_6  and  C8_8 
REMARK    6  A    between atoms: C15_15  and  O1_16 
REMARK    7  A    between atoms: C23_24  and  O2_25 
REMARK    8  A    between atoms: C30_33  and  O4_34 
ROOT
HETATM    1  C8  UNL     1     -12.927  45.813 -26.573  1.00  0.00    -0.002 C 
HETATM    2  C9  UNL     1     -12.284  44.558 -25.943  1.00  0.00     0.007 C 
HETATM    3  C10 UNL     1     -10.987  44.281 -26.738  1.00  0.00     0.015 C 
HETATM    4  C11 UNL     1     -10.713  45.574 -27.537  1.00  0.00    -0.005 C 
HETATM    5  C12 UNL     1      -9.996  46.565 -26.568  1.00  0.00     0.021 C 
HETATM    6  C13 UNL     1      -9.837  45.574 -28.784  1.00  0.00     0.002 C 
HETATM    7  C14 UNL     1     -10.054  46.460 -29.796  1.00  0.00    -0.032 C 
HETATM    8  C15 UNL     1     -11.214  47.459 -29.736  1.00  0.00     0.149 C 
HETATM    9  C16 UNL     1     -12.183  47.355 -28.534  1.00  0.00     0.047 C 
HETATM   10  C17 UNL     1     -12.195  45.947 -27.939  1.00  0.00    -0.026 C 
HETATM   11  C18 UNL     1     -12.792  44.970 -28.994  1.00  0.00     0.016 C 
HETATM   12  C19 UNL     1      -9.214  46.397 -31.107  1.00  0.00    -0.013 C 
HETATM   13  C20 UNL     1      -9.933  45.325 -31.965  1.00  0.00     0.021 C 
HETATM   14  C21 UNL     1      -9.143  47.719 -31.899  1.00  0.00     0.017 C 
HETATM   15  C22 UNL     1      -8.302  47.659 -33.176  1.00  0.00     0.033 C 
HETATM   16  C23 UNL     1      -7.108  46.700 -33.141  1.00  0.00     0.126 C 
HETATM   17  C24 UNL     1      -6.590  46.346 -31.723  1.00  0.00    -0.017 C 
HETATM   18  C25 UNL     1      -5.558  45.198 -31.825  1.00  0.00     0.018 C 
HETATM   19  C26 UNL     1      -5.793  47.582 -31.211  1.00  0.00     0.018 C 
HETATM   20  C27 UNL     1      -7.749  46.046 -30.679  1.00  0.00     0.015 C 
HETATM   21  C28 UNL     1      -7.725  44.666 -30.019  1.00  0.00     0.090 C 
HETATM   22  C29 UNL     1      -8.710  44.582 -28.871  1.00  0.00     0.157 C 
HETATM   23  O3  UNL     1      -8.579  43.696 -28.027  1.00  0.00    -0.293 OA
ENDROOT
BRANCH   1  24
HETATM   24  C6  UNL     1     -14.467  45.987 -26.449  1.00  0.00    -0.014 C 
HETATM   25  C7  UNL     1     -14.788  46.891 -25.244  1.00  0.00     0.010 C 
BRANCH  24  26
HETATM   26  C5  UNL     1     -15.431  44.777 -26.506  1.00  0.00     0.008 C 
BRANCH  26  27
HETATM   27  C4  UNL     1     -16.778  44.859 -27.232  1.00  0.00     0.028 C 
BRANCH  27  28
HETATM   28  C3  UNL     1     -17.885  45.526 -26.466  1.00  0.00    -0.022 C 
HETATM   29  C2  UNL     1     -18.961  44.938 -25.905  1.00  0.00    -0.064 C 
HETATM   30  C1  UNL     1     -19.272  43.468 -25.996  1.00  0.00     0.045 C 
BRANCH  29  31
HETATM   31  C30 UNL     1     -19.976  45.752 -25.146  1.00  0.00     0.197 C 
BRANCH  31  32
HETATM   32  O4  UNL     1     -19.496  47.080 -25.015  1.00  0.00    -0.397 OA
HETATM   33  H48 UNL     1     -20.213  47.598 -24.612  1.00  0.00     0.209 HD
ENDBRANCH  31  32
ENDBRANCH  29  31
ENDBRANCH  27  28
ENDBRANCH  26  27
ENDBRANCH  24  26
ENDBRANCH   1  24
BRANCH   8  34
HETATM   34  O1  UNL     1     -10.672  48.776 -29.721  1.00  0.00    -0.391 OA
HETATM   35  H22 UNL     1     -11.419  49.394 -29.791  1.00  0.00     0.210 HD
ENDBRANCH   8  34
BRANCH  16  36
HETATM   36  O2  UNL     1      -7.458  45.523 -33.868  1.00  0.00    -0.395 OA
HETATM   37  H36 UNL     1      -6.637  45.104 -34.176  1.00  0.00     0.210 HD
ENDBRANCH  16  36
TORSDOF 8
ENDMDL
MODEL 5
REMARK minimizedAffinity -7.48842525
REMARK CNNscore 0.535634756
REMARK CNNaffinity 6.13545465
REMARK  8 active torsions:
REMARK  status: ('A' for Active; 'I' for Inactive)
REMARK    1  A    between atoms: C2_2  and  C30_33 
REMARK    2  A    between atoms: C3_3  and  C4_4 
REMARK    3  A    between atoms: C4_4  and  C5_5 
REMARK    4  A    between atoms: C5_5  and  C6_6 
REMARK    5  A    between atoms: C6_6  and  C8_8 
REMARK    6  A    between atoms: C15_15  and  O1_16 
REMARK    7  A    between atoms: C23_24  and  O2_25 
REMARK    8  A    between atoms: C30_33  and  O4_34 
ROOT
HETATM    1  C8  UNL     1      -7.236  46.989 -30.010  1.00  0.00    -0.002 C 
HETATM    2  C9  UNL     1      -6.821  45.531 -30.309  1.00  0.00     0.007 C 
HETATM    3  C10 UNL     1      -8.008  44.638 -29.879  1.00  0.00     0.015 C 
HETATM    4  C11 UNL     1      -9.204  45.601 -29.707  1.00  0.00    -0.005 C 
HETATM    5  C12 UNL     1      -9.802  45.840 -31.129  1.00  0.00     0.021 C 
HETATM    6  C13 UNL     1     -10.411  45.233 -28.852  1.00  0.00     0.002 C 
HETATM    7  C14 UNL     1     -11.132  46.192 -28.205  1.00  0.00    -0.032 C 
HETATM    8  C15 UNL     1     -10.728  47.668 -28.279  1.00  0.00     0.149 C 
HETATM    9  C16 UNL     1      -9.420  48.013 -29.030  1.00  0.00     0.047 C 
HETATM   10  C17 UNL     1      -8.453  46.829 -29.055  1.00  0.00    -0.026 C 
HETATM   11  C18 UNL     1      -7.990  46.539 -27.597  1.00  0.00     0.016 C 
HETATM   12  C19 UNL     1     -12.309  45.805 -27.261  1.00  0.00    -0.013 C 
HETATM   13  C20 UNL     1     -11.619  45.489 -25.909  1.00  0.00     0.021 C 
HETATM   14  C21 UNL     1     -13.363  46.910 -27.048  1.00  0.00     0.017 C 
HETATM   15  C22 UNL     1     -14.528  46.520 -26.135  1.00  0.00     0.033 C 
HETATM   16  C23 UNL     1     -14.934  45.044 -26.169  1.00  0.00     0.126 C 
HETATM   17  C24 UNL     1     -14.522  44.279 -27.453  1.00  0.00    -0.017 C 
HETATM   18  C25 UNL     1     -14.774  42.766 -27.253  1.00  0.00     0.018 C 
HETATM   19  C26 UNL     1     -15.503  44.722 -28.578  1.00  0.00     0.018 C 
HETATM   20  C27 UNL     1     -13.045  44.600 -27.939  1.00  0.00     0.015 C 
HETATM   21  C28 UNL     1     -12.091  43.409 -28.043  1.00  0.00     0.090 C 
HETATM   22  C29 UNL     1     -10.805  43.786 -28.748  1.00  0.00     0.157 C 
HETATM   23  O3  UNL     1     -10.093  42.900 -29.221  1.00  0.00    -0.293 OA
ENDROOT
BRANCH   1  24
HETATM   24  C6  UNL     1      -6.113  48.028 -29.736  1.00  0.00    -0.014 C 
HETATM   25  C7  UNL     1      -5.697  48.697 -31.060  1.00  0.00     0.010 C 
BRANCH  24  26
HETATM   26  C5  UNL     1      -4.872  47.681 -28.879  1.00  0.00     0.008 C 
BRANCH  26  27
HETATM   27  C4  UNL     1      -4.683  48.258 -27.472  1.00  0.00     0.028 C 
BRANCH  27  28
HETATM   28  C3  UNL     1      -3.474  49.131 -27.290  1.00  0.00    -0.022 C 
HETATM   29  C2  UNL     1      -2.760  49.314 -26.161  1.00  0.00    -0.064 C 
HETATM   30  C1  UNL     1      -3.094  48.691 -24.832  1.00  0.00     0.045 C 
BRANCH  29  31
HETATM   31  C30 UNL     1      -1.551  50.214 -26.151  1.00  0.00     0.197 C 
BRANCH  31  32
HETATM   32  O4  UNL     1      -1.317  50.655 -24.823  1.00  0.00    -0.397 OA
HETATM   33  H48 UNL     1      -0.480  51.148 -24.837  1.00  0.00     0.209 HD
ENDBRANCH  31  32
ENDBRANCH  29  31
ENDBRANCH  27  28
ENDBRANCH  26  27
ENDBRANCH  24  26
ENDBRANCH   1  24
BRANCH   8  34
HETATM   34  O1  UNL     1     -11.777  48.389 -28.917  1.00  0.00    -0.391 OA
HETATM   35  H22 UNL     1     -11.553  49.334 -28.860  1.00  0.00     0.210 HD
ENDBRANCH   8  34
BRANCH  16  36
HETATM   36  O2  UNL     1     -14.411  44.408 -25.003  1.00  0.00    -0.395 OA
HETATM   37  H36 UNL     1     -14.957  43.625 -24.817  1.00  0.00     0.210 HD
ENDBRANCH  16  36
TORSDOF 8
ENDMDL
MODEL 6
REMARK minimizedAffinity -7.49419308
REMARK CNNscore 0.524986327
REMARK CNNaffinity 6.39450502
REMARK  8 active torsions:
REMARK  status: ('A' for Active; 'I' for Inactive)
REMARK    1  A    between atoms: C2_2  and  C30_33 
REMARK    2  A    between atoms: C3_3  and  C4_4 
REMARK    3  A    between atoms: C4_4  and  C5_5 
REMARK    4  A    between atoms: C5_5  and  C6_6 
REMARK    5  A    between atoms: C6_6  and  C8_8 
REMARK    6  A    between atoms: C15_15  and  O1_16 
REMARK    7  A    between atoms: C23_24  and  O2_25 
REMARK    8  A    between atoms: C30_33  and  O4_34 
ROOT
HETATM    1  C8  UNL     1      -6.275  47.911 -29.515  1.00  0.00    -0.002 C 
HETATM    2  C9  UNL     1      -5.396  48.623 -30.567  1.00  0.00     0.007 C 
HETATM    3  C10 UNL     1      -5.999  48.283 -31.949  1.00  0.00     0.015 C 
HETATM    4  C11 UNL     1      -7.407  47.719 -31.654  1.00  0.00    -0.005 C 
HETATM    5  C12 UNL     1      -8.355  48.942 -31.456  1.00  0.00     0.021 C 
HETATM    6  C13 UNL     1      -8.142  46.836 -32.655  1.00  0.00     0.002 C 
HETATM    7  C14 UNL     1      -9.017  45.878 -32.238  1.00  0.00    -0.032 C 
HETATM    8  C15 UNL     1      -9.260  45.627 -30.746  1.00  0.00     0.149 C 
HETATM    9  C16 UNL     1      -8.403  46.428 -29.738  1.00  0.00     0.047 C 
HETATM   10  C17 UNL     1      -7.079  46.879 -30.356  1.00  0.00    -0.026 C 
HETATM   11  C18 UNL     1      -6.223  45.616 -30.663  1.00  0.00     0.016 C 
HETATM   12  C19 UNL     1      -9.698  44.918 -33.259  1.00  0.00    -0.013 C 
HETATM   13  C20 UNL     1      -8.653  43.793 -33.472  1.00  0.00     0.021 C 
HETATM   14  C21 UNL     1     -11.027  44.297 -32.783  1.00  0.00     0.017 C 
HETATM   15  C22 UNL     1     -11.702  43.369 -33.796  1.00  0.00     0.033 C 
HETATM   16  C23 UNL     1     -11.485  43.724 -35.270  1.00  0.00     0.126 C 
HETATM   17  C24 UNL     1     -11.105  45.203 -35.540  1.00  0.00    -0.017 C 
HETATM   18  C25 UNL     1     -10.684  45.363 -37.020  1.00  0.00     0.018 C 
HETATM   19  C26 UNL     1     -12.408  46.041 -35.382  1.00  0.00     0.018 C 
HETATM   20  C27 UNL     1     -10.028  45.779 -34.525  1.00  0.00     0.015 C 
HETATM   21  C28 UNL     1      -8.730  46.305 -35.141  1.00  0.00     0.090 C 
HETATM   22  C29 UNL     1      -7.895  47.053 -34.122  1.00  0.00     0.157 C 
HETATM   23  O3  UNL     1      -7.017  47.823 -34.510  1.00  0.00    -0.293 OA
ENDROOT
BRANCH   1  24
HETATM   24  C6  UNL     1      -5.626  47.532 -28.154  1.00  0.00    -0.014 C 
HETATM   25  C7  UNL     1      -6.655  47.720 -27.023  1.00  0.00     0.010 C 
BRANCH  24  26
HETATM   26  C5  UNL     1      -4.238  48.071 -27.735  1.00  0.00     0.008 C 
BRANCH  26  27
HETATM   27  C4  UNL     1      -4.093  49.198 -26.707  1.00  0.00     0.028 C 
BRANCH  27  28
HETATM   28  C3  UNL     1      -3.283  48.860 -25.488  1.00  0.00    -0.022 C 
HETATM   29  C2  UNL     1      -3.741  48.622 -24.242  1.00  0.00    -0.064 C 
HETATM   30  C1  UNL     1      -5.187  48.706 -23.835  1.00  0.00     0.045 C 
BRANCH  29  31
HETATM   31  C30 UNL     1      -2.790  48.272 -23.126  1.00  0.00     0.197 C 
BRANCH  31  32
HETATM   32  O4  UNL     1      -2.769  49.337 -22.189  1.00  0.00    -0.397 OA
HETATM   33  H48 UNL     1      -2.227  49.038 -21.440  1.00  0.00     0.209 HD
ENDBRANCH  31  32
ENDBRANCH  29  31
ENDBRANCH  27  28
ENDBRANCH  26  27
ENDBRANCH  24  26
ENDBRANCH   1  24
BRANCH   8  34
HETATM   34  O1  UNL     1     -10.624  45.918 -30.458  1.00  0.00    -0.391 OA
HETATM   35  H22 UNL     1     -10.786  45.652 -29.536  1.00  0.00     0.210 HD
ENDBRANCH   8  34
BRANCH  16  36
HETATM   36  O2  UNL     1     -10.505  42.837 -35.805  1.00  0.00    -0.395 OA
HETATM   37  H36 UNL     1     -10.638  42.786 -36.767  1.00  0.00     0.210 HD
ENDBRANCH  16  36
TORSDOF 8
ENDMDL
MODEL 7
REMARK minimizedAffinity -7.52109337
REMARK CNNscore 0.404826611
REMARK CNNaffinity 6.41748762
REMARK  8 active torsions:
REMARK  status: ('A' for Active; 'I' for Inactive)
REMARK    1  A    between atoms: C2_2  and  C30_33 
REMARK    2  A    between atoms: C3_3  and  C4_4 
REMARK    3  A    between atoms: C4_4  and  C5_5 
REMARK    4  A    between atoms: C5_5  and  C6_6 
REMARK    5  A    between atoms: C6_6  and  C8_8 
REMARK    6  A    between atoms: C15_15  and  O1_16 
REMARK    7  A    between atoms: C23_24  and  O2_25 
REMARK    8  A    between atoms: C30_33  and  O4_34 
ROOT
HETATM    1  C8  UNL     1      -1.533  52.562 -11.336  1.00  0.00    -0.002 C 
HETATM    2  C9  UNL     1      -2.570  52.354 -10.209  1.00  0.00     0.007 C 
HETATM    3  C10 UNL     1      -2.008  53.067  -8.957  1.00  0.00     0.015 C 
HETATM    4  C11 UNL     1      -0.875  53.979  -9.478  1.00  0.00    -0.005 C 
HETATM    5  C12 UNL     1      -1.549  55.282 -10.010  1.00  0.00     0.021 C 
HETATM    6  C13 UNL     1       0.234  54.481  -8.562  1.00  0.00     0.002 C 
HETATM    7  C14 UNL     1       1.484  54.732  -9.044  1.00  0.00    -0.032 C 
HETATM    8  C15 UNL     1       1.829  54.477 -10.515  1.00  0.00     0.149 C 
HETATM    9  C16 UNL     1       0.738  53.832 -11.402  1.00  0.00     0.047 C 
HETATM   10  C17 UNL     1      -0.258  53.021 -10.573  1.00  0.00    -0.026 C 
HETATM   11  C18 UNL     1       0.492  51.807  -9.950  1.00  0.00     0.016 C 
HETATM   12  C19 UNL     1       2.638  55.158  -8.088  1.00  0.00    -0.013 C 
HETATM   13  C20 UNL     1       3.182  53.817  -7.532  1.00  0.00     0.021 C 
HETATM   14  C21 UNL     1       3.789  55.934  -8.762  1.00  0.00     0.017 C 
HETATM   15  C22 UNL     1       4.912  56.367  -7.816  1.00  0.00     0.033 C 
HETATM   16  C23 UNL     1       4.486  56.686  -6.380  1.00  0.00     0.126 C 
HETATM   17  C24 UNL     1       2.990  57.054  -6.205  1.00  0.00    -0.017 C 
HETATM   18  C25 UNL     1       2.648  57.112  -4.697  1.00  0.00     0.018 C 
HETATM   19  C26 UNL     1       2.818  58.510  -6.729  1.00  0.00     0.018 C 
HETATM   20  C27 UNL     1       2.004  56.119  -7.027  1.00  0.00     0.015 C 
HETATM   21  C28 UNL     1       0.952  55.363  -6.214  1.00  0.00     0.090 C 
HETATM   22  C29 UNL     1      -0.081  54.712  -7.110  1.00  0.00     0.157 C 
HETATM   23  O3  UNL     1      -1.164  54.371  -6.635  1.00  0.00    -0.293 OA
ENDROOT
BRANCH   1  24
HETATM   24  C6  UNL     1      -1.470  51.507 -12.476  1.00  0.00    -0.014 C 
HETATM   25  C7  UNL     1      -1.027  50.150 -11.897  1.00  0.00     0.010 C 
BRANCH  24  26
HETATM   26  C5  UNL     1      -0.753  51.797 -13.817  1.00  0.00     0.008 C 
BRANCH  26  27
HETATM   27  C4  UNL     1       0.341  50.870 -14.358  1.00  0.00     0.028 C 
BRANCH  27  28
HETATM   28  C3  UNL     1       1.552  51.559 -14.917  1.00  0.00    -0.022 C 
HETATM   29  C2  UNL     1       1.753  51.954 -16.191  1.00  0.00    -0.064 C 
HETATM   30  C1  UNL     1       0.783  51.719 -17.318  1.00  0.00     0.045 C 
BRANCH  29  31
HETATM   31  C30 UNL     1       3.025  52.658 -16.589  1.00  0.00     0.197 C 
BRANCH  31  32
HETATM   32  O4  UNL     1       3.746  53.001 -15.417  1.00  0.00    -0.397 OA
HETATM   33  H48 UNL     1       4.599  53.361 -15.711  1.00  0.00     0.209 HD
ENDBRANCH  31  32
ENDBRANCH  29  31
ENDBRANCH  27  28
ENDBRANCH  26  27
ENDBRANCH  24  26
ENDBRANCH   1  24
BRANCH   8  34
HETATM   34  O1  UNL     1       2.175  55.720 -11.117  1.00  0.00    -0.391 OA
HETATM   35  H22 UNL     1       2.493  55.526 -12.015  1.00  0.00     0.210 HD
ENDBRANCH   8  34
BRANCH  16  36
HETATM   36  O2  UNL     1       4.842  55.579  -5.552  1.00  0.00    -0.395 OA
HETATM   37  H36 UNL     1       4.938  55.905  -4.640  1.00  0.00     0.210 HD
ENDBRANCH  16  36
TORSDOF 8
ENDMDL
MODEL 8
REMARK minimizedAffinity -7.22644043
REMARK CNNscore 0.400048256
REMARK CNNaffinity 5.7447238
REMARK  8 active torsions:
REMARK  status: ('A' for Active; 'I' for Inactive)
REMARK    1  A    between atoms: C2_2  and  C30_33 
REMARK    2  A    between atoms: C3_3  and  C4_4 
REMARK    3  A    between atoms: C4_4  and  C5_5 
REMARK    4  A    between atoms: C5_5  and  C6_6 
REMARK    5  A    between atoms: C6_6  and  C8_8 
REMARK    6  A    between atoms: C15_15  and  O1_16 
REMARK    7  A    between atoms: C23_24  and  O2_25 
REMARK    8  A    between atoms: C30_33  and  O4_34 
ROOT
HETATM    1  C8  UNL     1     -15.091  45.492 -25.594  1.00  0.00    -0.002 C 
HETATM    2  C9  UNL     1     -14.881  43.968 -25.453  1.00  0.00     0.007 C 
HETATM    3  C10 UNL     1     -13.553  43.638 -26.173  1.00  0.00     0.015 C 
HETATM    4  C11 UNL     1     -12.846  44.997 -26.371  1.00  0.00    -0.005 C 
HETATM    5  C12 UNL     1     -12.123  45.334 -25.030  1.00  0.00     0.021 C 
HETATM    6  C13 UNL     1     -11.770  45.193 -27.433  1.00  0.00     0.002 C 
HETATM    7  C14 UNL     1     -11.584  46.403 -28.031  1.00  0.00    -0.032 C 
HETATM    8  C15 UNL     1     -12.478  47.599 -27.687  1.00  0.00     0.149 C 
HETATM    9  C16 UNL     1     -13.657  47.353 -26.716  1.00  0.00     0.047 C 
HETATM   10  C17 UNL     1     -14.101  45.890 -26.725  1.00  0.00    -0.026 C 
HETATM   11  C18 UNL     1     -14.690  45.562 -28.129  1.00  0.00     0.016 C 
HETATM   12  C19 UNL     1     -10.545  46.576 -29.179  1.00  0.00    -0.013 C 
HETATM   13  C20 UNL     1     -11.311  46.128 -30.450  1.00  0.00     0.021 C 
HETATM   14  C21 UNL     1     -10.028  48.016 -29.377  1.00  0.00     0.017 C 
HETATM   15  C22 UNL     1      -8.994  48.179 -30.493  1.00  0.00     0.033 C 
HETATM   16  C23 UNL     1      -8.077  46.975 -30.731  1.00  0.00     0.126 C 
HETATM   17  C24 UNL     1      -7.933  46.010 -29.526  1.00  0.00    -0.017 C 
HETATM   18  C25 UNL     1      -7.187  44.732 -29.977  1.00  0.00     0.018 C 
HETATM   19  C26 UNL     1      -6.991  46.705 -28.500  1.00  0.00     0.018 C 
HETATM   20  C27 UNL     1      -9.307  45.698 -28.794  1.00  0.00     0.015 C 
HETATM   21  C28 UNL     1      -9.722  44.227 -28.729  1.00  0.00     0.090 C 
HETATM   22  C29 UNL     1     -10.901  44.022 -27.801  1.00  0.00     0.157 C 
HETATM   23  O3  UNL     1     -11.138  42.895 -27.365  1.00  0.00    -0.293 OA
ENDROOT
BRANCH   1  24
HETATM   24  C6  UNL     1     -16.547  46.037 -25.551  1.00  0.00    -0.014 C 
HETATM   25  C7  UNL     1     -16.662  47.111 -24.454  1.00  0.00     0.010 C 
BRANCH  24  26
HETATM   26  C5  UNL     1     -17.771  45.090 -25.530  1.00  0.00     0.008 C 
BRANCH  26  27
HETATM   27  C4  UNL     1     -19.112  45.528 -24.932  1.00  0.00     0.028 C 
BRANCH  27  28
HETATM   28  C3  UNL     1     -19.905  44.443 -24.261  1.00  0.00    -0.022 C 
HETATM   29  C2  UNL     1     -20.060  44.245 -22.936  1.00  0.00    -0.064 C 
HETATM   30  C1  UNL     1     -19.404  45.076 -21.867  1.00  0.00     0.045 C 
BRANCH  29  31
HETATM   31  C30 UNL     1     -20.912  43.113 -22.421  1.00  0.00     0.197 C 
BRANCH  31  32
HETATM   32  O4  UNL     1     -22.278  43.475 -22.539  1.00  0.00    -0.397 OA
HETATM   33  H48 UNL     1     -22.796  42.690 -22.293  1.00  0.00     0.209 HD
ENDBRANCH  31  32
ENDBRANCH  29  31
ENDBRANCH  27  28
ENDBRANCH  26  27
ENDBRANCH  24  26
ENDBRANCH   1  24
BRANCH   8  34
HETATM   34  O1  UNL     1     -11.666  48.615 -27.107  1.00  0.00    -0.391 OA
HETATM   35  H22 UNL     1     -12.227  49.402 -26.994  1.00  0.00     0.210 HD
ENDBRANCH   8  34
BRANCH  16  36
HETATM   36  O2  UNL     1      -8.539  46.283 -31.891  1.00  0.00    -0.395 OA
HETATM   37  H36 UNL     1      -7.789  45.788 -32.264  1.00  0.00     0.210 HD
ENDBRANCH  16  36
TORSDOF 8
ENDMDL
MODEL 9
REMARK minimizedAffinity -8.04999352
REMARK CNNscore 0.392903835
REMARK CNNaffinity 5.6161952
REMARK  8 active torsions:
REMARK  status: ('A' for Active; 'I' for Inactive)
REMARK    1  A    between atoms: C2_2  and  C30_33 
REMARK    2  A    between atoms: C3_3  and  C4_4 
REMARK    3  A    between atoms: C4_4  and  C5_5 
REMARK    4  A    between atoms: C5_5  and  C6_6 
REMARK    5  A    between atoms: C6_6  and  C8_8 
REMARK    6  A    between atoms: C15_15  and  O1_16 
REMARK    7  A    between atoms: C23_24  and  O2_25 
REMARK    8  A    between atoms: C30_33  and  O4_34 
ROOT
HETATM    1  C8  UNL     1       4.510  66.876 -35.939  1.00  0.00    -0.002 C 
HETATM    2  C9  UNL     1       5.283  68.199 -35.740  1.00  0.00     0.007 C 
HETATM    3  C10 UNL     1       4.650  69.229 -36.704  1.00  0.00     0.015 C 
HETATM    4  C11 UNL     1       3.307  68.605 -37.145  1.00  0.00    -0.005 C 
HETATM    5  C12 UNL     1       2.271  68.911 -36.018  1.00  0.00     0.021 C 
HETATM    6  C13 UNL     1       2.603  69.041 -38.425  1.00  0.00     0.002 C 
HETATM    7  C14 UNL     1       1.828  68.172 -39.132  1.00  0.00    -0.032 C 
HETATM    8  C15 UNL     1       1.671  66.713 -38.688  1.00  0.00     0.149 C 
HETATM    9  C16 UNL     1       2.502  66.244 -37.471  1.00  0.00     0.047 C 
HETATM   10  C17 UNL     1       3.757  67.097 -37.282  1.00  0.00    -0.026 C 
HETATM   11  C18 UNL     1       4.700  66.863 -38.499  1.00  0.00     0.016 C 
HETATM   12  C19 UNL     1       1.184  68.595 -40.486  1.00  0.00    -0.013 C 
HETATM   13  C20 UNL     1       2.307  68.354 -41.528  1.00  0.00     0.021 C 
HETATM   14  C21 UNL     1      -0.068  67.790 -40.892  1.00  0.00     0.017 C 
HETATM   15  C22 UNL     1      -0.708  68.221 -42.213  1.00  0.00     0.033 C 
HETATM   16  C23 UNL     1      -0.585  69.708 -42.558  1.00  0.00     0.126 C 
HETATM   17  C24 UNL     1      -0.339  70.645 -41.348  1.00  0.00    -0.017 C 
HETATM   18  C25 UNL     1       0.004  72.065 -41.858  1.00  0.00     0.018 C 
HETATM   19  C26 UNL     1      -1.697  70.785 -40.600  1.00  0.00     0.018 C 
HETATM   20  C27 UNL     1       0.731  70.084 -40.316  1.00  0.00     0.015 C 
HETATM   21  C28 UNL     1       1.954  70.967 -40.061  1.00  0.00     0.090 C 
HETATM   22  C29 UNL     1       2.768  70.462 -38.888  1.00  0.00     0.157 C 
HETATM   23  O3  UNL     1       3.563  71.221 -38.334  1.00  0.00    -0.293 OA
ENDROOT
BRANCH   1  24
HETATM   24  C6  UNL     1       5.246  65.544 -35.622  1.00  0.00    -0.014 C 
HETATM   25  C7  UNL     1       5.671  64.865 -36.937  1.00  0.00     0.010 C 
BRANCH  24  26
HETATM   26  C5  UNL     1       4.665  64.509 -34.628  1.00  0.00     0.008 C 
BRANCH  26  27
HETATM   27  C4  UNL     1       5.164  63.060 -34.598  1.00  0.00     0.028 C 
BRANCH  27  28
HETATM   28  C3  UNL     1       6.586  62.876 -34.151  1.00  0.00    -0.022 C 
HETATM   29  C2  UNL     1       7.339  61.762 -34.257  1.00  0.00    -0.064 C 
HETATM   30  C1  UNL     1       6.850  60.453 -34.815  1.00  0.00     0.045 C 
BRANCH  29  31
HETATM   31  C30 UNL     1       8.767  61.749 -33.775  1.00  0.00     0.197 C 
BRANCH  31  32
HETATM   32  O4  UNL     1       8.794  61.310 -32.427  1.00  0.00    -0.397 OA
HETATM   33  H48 UNL     1       9.729  61.219 -32.182  1.00  0.00     0.209 HD
ENDBRANCH  31  32
ENDBRANCH  29  31
ENDBRANCH  27  28
ENDBRANCH  26  27
ENDBRANCH  24  26
ENDBRANCH   1  24
BRANCH   8  34
HETATM   34  O1  UNL     1       0.301  66.486 -38.370  1.00  0.00    -0.391 OA
HETATM   35  H22 UNL     1       0.201  65.535 -38.195  1.00  0.00     0.210 HD
ENDBRANCH   8  34
BRANCH  16  36
HETATM   36  O2  UNL     1       0.441  69.857 -43.539  1.00  0.00    -0.395 OA
HETATM   37  H36 UNL     1       0.271  70.680 -44.029  1.00  0.00     0.210 HD
ENDBRANCH  16  36
TORSDOF 8
ENDMDL
