MODEL 1
REMARK minimizedAffinity -8.29194069
REMARK CNNscore 0.889709175
REMARK CNNaffinity 6.80239868
REMARK  8 active torsions:
REMARK  status: ('A' for Active; 'I' for Inactive)
REMARK    1  A    between atoms: C2_2  and  C30_35 
REMARK    2  A    between atoms: C3_3  and  C4_4 
REMARK    3  A    between atoms: C4_4  and  O1_5 
REMARK    4  A    between atoms: C4_4  and  C5_6 
REMARK    5  A    between atoms: C5_6  and  C6_7 
REMARK    6  A    between atoms: C6_7  and  C8_9 
REMARK    7  A    between atoms: C10_11  and  O2_12 
REMARK    8  A    between atoms: C30_35  and  O7_37 
ROOT
HETATM    1  C8  UNL     1       5.002  56.016  -8.366  1.00  0.00     0.001 C 
HETATM    2  C9  UNL     1       5.809  55.071  -9.301  1.00  0.00     0.038 C 
HETATM    3  C10 UNL     1       4.799  54.290 -10.165  1.00  0.00     0.132 C 
HETATM    4  C11 UNL     1       3.428  54.964  -9.890  1.00  0.00     0.021 C 
HETATM    5  C12 UNL     1       3.342  56.170 -10.882  1.00  0.00     0.024 C 
HETATM    6  C13 UNL     1       2.109  54.225 -10.078  1.00  0.00     0.010 C 
HETATM    7  C14 UNL     1       0.972  54.576  -9.427  1.00  0.00     0.007 C 
HETATM    8  C15 UNL     1       1.072  55.693  -8.395  1.00  0.00     0.157 C 
HETATM    9  O3  UNL     1       0.060  56.132  -7.848  1.00  0.00    -0.293 OA
HETATM   10  C16 UNL     1       2.421  56.298  -8.025  1.00  0.00     0.094 C 
HETATM   11  C17 UNL     1       3.582  55.368  -8.375  1.00  0.00    -0.019 C 
HETATM   12  C18 UNL     1       3.547  54.163  -7.386  1.00  0.00     0.017 C 
HETATM   13  C19 UNL     1      -0.415  53.918  -9.650  1.00  0.00    -0.007 C 
HETATM   14  C20 UNL     1      -0.689  53.039  -8.407  1.00  0.00     0.021 C 
HETATM   15  C21 UNL     1      -1.557  54.981  -9.781  1.00  0.00     0.022 C 
HETATM   16  C22 UNL     1      -2.735  54.603 -10.674  1.00  0.00     0.080 C 
HETATM   17  C23 UNL     1      -2.920  53.110 -10.761  1.00  0.00     0.135 C 
HETATM   18  O4  UNL     1      -3.995  52.587 -10.476  1.00  0.00    -0.297 OA
HETATM   19  C24 UNL     1      -1.730  52.310 -11.301  1.00  0.00     0.018 C 
HETATM   20  C25 UNL     1      -1.772  50.877 -10.735  1.00  0.00     0.023 C 
HETATM   21  C26 UNL     1      -1.924  52.209 -12.830  1.00  0.00     0.023 C 
HETATM   22  C27 UNL     1      -0.407  53.090 -10.985  1.00  0.00     0.021 C 
HETATM   23  C28 UNL     1       0.842  52.219 -11.086  1.00  0.00     0.090 C 
HETATM   24  C29 UNL     1       2.071  53.084 -11.044  1.00  0.00     0.157 C 
HETATM   25  O5  UNL     1       3.042  52.819 -11.751  1.00  0.00    -0.293 OA
ENDROOT
BRANCH   1  26
HETATM   26  C6  UNL     1       5.732  56.266  -7.016  1.00  0.00    -0.011 C 
HETATM   27  C7  UNL     1       5.636  57.722  -6.548  1.00  0.00     0.010 C 
BRANCH  26  28
HETATM   28  C5  UNL     1       7.224  55.811  -7.013  1.00  0.00     0.040 C 
BRANCH  28  29
HETATM   29  C4  UNL     1       7.890  55.633  -5.636  1.00  0.00     0.142 C 
BRANCH  29  30
HETATM   30  C3  UNL     1       8.869  56.741  -5.366  1.00  0.00     0.018 C 
HETATM   31  C2  UNL     1      10.172  56.635  -5.033  1.00  0.00     0.010 C 
HETATM   32  C1  UNL     1      10.945  55.364  -4.859  1.00  0.00     0.055 C 
BRANCH  31  33
HETATM   33  C30 UNL     1      10.890  57.914  -4.795  1.00  0.00     0.171 C 
HETATM   34  O6  UNL     1      11.966  58.052  -4.239  1.00  0.00    -0.646 OA
BRANCH  33  35
HETATM   35  O7  UNL     1      10.226  58.973  -5.281  1.00  0.00    -0.773 OA
HETATM   36  H42 UNL     1      10.810  59.730  -5.066  1.00  0.00     0.167 HD
ENDBRANCH  33  35
ENDBRANCH  31  33
ENDBRANCH  29  30
BRANCH  29  37
HETATM   37  O1  UNL     1       6.914  55.679  -4.601  1.00  0.00    -0.392 OA
HETATM   38  H6  UNL     1       6.642  56.605  -4.488  1.00  0.00     0.210 HD
ENDBRANCH  29  37
ENDBRANCH  28  29
ENDBRANCH  26  28
ENDBRANCH   1  26
BRANCH   3  39
HETATM   39  O2  UNL     1       4.828  52.922  -9.774  1.00  0.00    -0.394 OA
HETATM   40  H17 UNL     1       4.472  52.430 -10.542  1.00  0.00     0.210 HD
ENDBRANCH   3  39
TORSDOF 8
ENDMDL
MODEL 2
REMARK minimizedAffinity -7.96183395
REMARK CNNscore 0.864082515
REMARK CNNaffinity 6.71107817
REMARK  8 active torsions:
REMARK  status: ('A' for Active; 'I' for Inactive)
REMARK    1  A    between atoms: C2_2  and  C30_35 
REMARK    2  A    between atoms: C3_3  and  C4_4 
REMARK    3  A    between atoms: C4_4  and  O1_5 
REMARK    4  A    between atoms: C4_4  and  C5_6 
REMARK    5  A    between atoms: C5_6  and  C6_7 
REMARK    6  A    between atoms: C6_7  and  C8_9 
REMARK    7  A    between atoms: C10_11  and  O2_12 
REMARK    8  A    between atoms: C30_35  and  O7_37 
ROOT
HETATM    1  C8  UNL     1       5.112  56.172  -8.386  1.00  0.00     0.001 C 
HETATM    2  C9  UNL     1       5.915  55.188  -9.284  1.00  0.00     0.038 C 
HETATM    3  C10 UNL     1       4.900  54.375 -10.113  1.00  0.00     0.132 C 
HETATM    4  C11 UNL     1       3.531  55.063  -9.861  1.00  0.00     0.021 C 
HETATM    5  C12 UNL     1       3.444  56.228 -10.901  1.00  0.00     0.024 C 
HETATM    6  C13 UNL     1       2.210  54.319 -10.015  1.00  0.00     0.010 C 
HETATM    7  C14 UNL     1       1.076  54.699  -9.374  1.00  0.00     0.007 C 
HETATM    8  C15 UNL     1       1.181  55.856  -8.388  1.00  0.00     0.157 C 
HETATM    9  O3  UNL     1       0.172  56.319  -7.856  1.00  0.00    -0.293 OA
HETATM   10  C16 UNL     1       2.532  56.472  -8.048  1.00  0.00     0.094 C 
HETATM   11  C17 UNL     1       3.691  55.528  -8.364  1.00  0.00    -0.019 C 
HETATM   12  C18 UNL     1       3.657  54.363  -7.327  1.00  0.00     0.017 C 
HETATM   13  C19 UNL     1      -0.314  54.034  -9.566  1.00  0.00    -0.007 C 
HETATM   14  C20 UNL     1      -0.585  53.207  -8.287  1.00  0.00     0.021 C 
HETATM   15  C21 UNL     1      -1.453  55.094  -9.736  1.00  0.00     0.022 C 
HETATM   16  C22 UNL     1      -2.636  54.683 -10.609  1.00  0.00     0.080 C 
HETATM   17  C23 UNL     1      -2.824  53.188 -10.635  1.00  0.00     0.135 C 
HETATM   18  O4  UNL     1      -3.898  52.679 -10.325  1.00  0.00    -0.297 OA
HETATM   19  C24 UNL     1      -1.637  52.364 -11.146  1.00  0.00     0.018 C 
HETATM   20  C25 UNL     1      -1.679  50.955 -10.522  1.00  0.00     0.023 C 
HETATM   21  C26 UNL     1      -1.836  52.201 -12.669  1.00  0.00     0.023 C 
HETATM   22  C27 UNL     1      -0.311  53.153 -10.866  1.00  0.00     0.021 C 
HETATM   23  C28 UNL     1       0.936  52.276 -10.936  1.00  0.00     0.090 C 
HETATM   24  C29 UNL     1       2.167  53.140 -10.933  1.00  0.00     0.157 C 
HETATM   25  O5  UNL     1       3.134  52.845 -11.632  1.00  0.00    -0.293 OA
ENDROOT
BRANCH   1  26
HETATM   26  C6  UNL     1       5.848  56.475  -7.050  1.00  0.00    -0.011 C 
HETATM   27  C7  UNL     1       6.139  55.211  -6.232  1.00  0.00     0.010 C 
BRANCH  26  28
HETATM   28  C5  UNL     1       5.120  57.524  -6.154  1.00  0.00     0.040 C 
BRANCH  28  29
HETATM   29  C4  UNL     1       5.750  57.813  -4.778  1.00  0.00     0.142 C 
BRANCH  29  30
HETATM   30  C3  UNL     1       6.795  58.888  -4.881  1.00  0.00     0.018 C 
HETATM   31  C2  UNL     1       8.133  58.739  -4.973  1.00  0.00     0.010 C 
HETATM   32  C1  UNL     1       8.885  57.444  -4.996  1.00  0.00     0.055 C 
BRANCH  31  33
HETATM   33  C30 UNL     1       8.925  59.994  -5.032  1.00  0.00     0.171 C 
HETATM   34  O6  UNL     1       9.871  60.225  -5.766  1.00  0.00    -0.646 OA
BRANCH  33  35
HETATM   35  O7  UNL     1       8.485  60.920  -4.166  1.00  0.00    -0.773 OA
HETATM   36  H42 UNL     1       9.082  61.682  -4.320  1.00  0.00     0.167 HD
ENDBRANCH  33  35
ENDBRANCH  31  33
ENDBRANCH  29  30
BRANCH  29  37
HETATM   37  O1  UNL     1       4.762  58.280  -3.866  1.00  0.00    -0.392 OA
HETATM   38  H6  UNL     1       4.549  59.199  -4.101  1.00  0.00     0.210 HD
ENDBRANCH  29  37
ENDBRANCH  28  29
ENDBRANCH  26  28
ENDBRANCH   1  26
BRANCH   3  39
HETATM   39  O2  UNL     1       4.928  53.024  -9.667  1.00  0.00    -0.394 OA
HETATM   40  H17 UNL     1       4.568  52.502 -10.414  1.00  0.00     0.210 HD
ENDBRANCH   3  39
TORSDOF 8
ENDMDL
MODEL 3
REMARK minimizedAffinity -9.29637241
REMARK CNNscore 0.819387078
REMARK CNNaffinity 6.77302217
REMARK  8 active torsions:
REMARK  status: ('A' for Active; 'I' for Inactive)
REMARK    1  A    between atoms: C2_2  and  C30_35 
REMARK    2  A    between atoms: C3_3  and  C4_4 
REMARK    3  A    between atoms: C4_4  and  O1_5 
REMARK    4  A    between atoms: C4_4  and  C5_6 
REMARK    5  A    between atoms: C5_6  and  C6_7 
REMARK    6  A    between atoms: C6_7  and  C8_9 
REMARK    7  A    between atoms: C10_11  and  O2_12 
REMARK    8  A    between atoms: C30_35  and  O7_37 
ROOT
HETATM    1  C8  UNL     1      -0.494  50.362 -18.978  1.00  0.00     0.001 C 
HETATM    2  C9  UNL     1      -0.813  49.318 -17.871  1.00  0.00     0.038 C 
HETATM    3  C10 UNL     1      -1.969  48.433 -18.379  1.00  0.00     0.132 C 
HETATM    4  C11 UNL     1      -2.147  48.821 -19.872  1.00  0.00     0.021 C 
HETATM    5  C12 UNL     1      -1.127  47.940 -20.664  1.00  0.00     0.024 C 
HETATM    6  C13 UNL     1      -3.467  48.626 -20.608  1.00  0.00     0.010 C 
HETATM    7  C14 UNL     1      -3.811  49.353 -21.701  1.00  0.00     0.007 C 
HETATM    8  C15 UNL     1      -2.867  50.471 -22.126  1.00  0.00     0.157 C 
HETATM    9  O3  UNL     1      -3.065  51.095 -23.168  1.00  0.00    -0.293 OA
HETATM   10  C16 UNL     1      -1.654  50.834 -21.278  1.00  0.00     0.094 C 
HETATM   11  C17 UNL     1      -1.799  50.358 -19.834  1.00  0.00    -0.019 C 
HETATM   12  C18 UNL     1      -2.883  51.241 -19.144  1.00  0.00     0.017 C 
HETATM   13  C19 UNL     1      -5.098  49.133 -22.541  1.00  0.00    -0.007 C 
HETATM   14  C20 UNL     1      -6.047  50.307 -22.205  1.00  0.00     0.021 C 
HETATM   15  C21 UNL     1      -4.805  49.140 -24.078  1.00  0.00     0.022 C 
HETATM   16  C22 UNL     1      -5.710  48.269 -24.944  1.00  0.00     0.080 C 
HETATM   17  C23 UNL     1      -7.064  48.063 -24.316  1.00  0.00     0.135 C 
HETATM   18  O4  UNL     1      -8.094  48.347 -24.922  1.00  0.00    -0.297 OA
HETATM   19  C24 UNL     1      -7.075  47.407 -22.931  1.00  0.00     0.018 C 
HETATM   20  C25 UNL     1      -8.334  47.850 -22.160  1.00  0.00     0.023 C 
HETATM   21  C26 UNL     1      -7.188  45.885 -23.164  1.00  0.00     0.023 C 
HETATM   22  C27 UNL     1      -5.725  47.733 -22.202  1.00  0.00     0.021 C 
HETATM   23  C28 UNL     1      -5.787  47.506 -20.694  1.00  0.00     0.090 C 
HETATM   24  C29 UNL     1      -4.402  47.570 -20.113  1.00  0.00     0.157 C 
HETATM   25  O5  UNL     1      -4.071  46.803 -19.210  1.00  0.00    -0.293 OA
ENDROOT
BRANCH   1  26
HETATM   26  C6  UNL     1       0.041  51.697 -18.385  1.00  0.00    -0.011 C 
HETATM   27  C7  UNL     1       0.410  52.721 -19.464  1.00  0.00     0.010 C 
BRANCH  26  28
HETATM   28  C5  UNL     1       1.237  51.515 -17.402  1.00  0.00     0.040 C 
BRANCH  28  29
HETATM   29  C4  UNL     1       1.029  52.016 -15.961  1.00  0.00     0.142 C 
BRANCH  29  30
HETATM   30  C3  UNL     1       1.885  51.244 -14.995  1.00  0.00     0.018 C 
HETATM   31  C2  UNL     1       3.228  51.265 -14.876  1.00  0.00     0.010 C 
HETATM   32  C1  UNL     1       4.182  52.079 -15.695  1.00  0.00     0.055 C 
BRANCH  31  33
HETATM   33  C30 UNL     1       3.804  50.367 -13.842  1.00  0.00     0.171 C 
HETATM   34  O6  UNL     1       4.883  49.801 -13.888  1.00  0.00    -0.646 OA
BRANCH  33  35
HETATM   35  O7  UNL     1       2.999  50.225 -12.778  1.00  0.00    -0.773 OA
HETATM   36  H42 UNL     1       3.502  49.629 -12.186  1.00  0.00     0.167 HD
ENDBRANCH  33  35
ENDBRANCH  31  33
ENDBRANCH  29  30
BRANCH  29  37
HETATM   37  O1  UNL     1       1.407  53.383 -15.849  1.00  0.00    -0.392 OA
HETATM   38  H6  UNL     1       2.378  53.427 -15.857  1.00  0.00     0.210 HD
ENDBRANCH  29  37
ENDBRANCH  28  29
ENDBRANCH  26  28
ENDBRANCH   1  26
BRANCH   3  39
HETATM   39  O2  UNL     1      -3.127  48.705 -17.597  1.00  0.00    -0.394 OA
HETATM   40  H17 UNL     1      -3.694  47.913 -17.699  1.00  0.00     0.210 HD
ENDBRANCH   3  39
TORSDOF 8
ENDMDL
MODEL 4
REMARK minimizedAffinity -8.5089426
REMARK CNNscore 0.580822289
REMARK CNNaffinity 6.58447123
REMARK  8 active torsions:
REMARK  status: ('A' for Active; 'I' for Inactive)
REMARK    1  A    between atoms: C2_2  and  C30_35 
REMARK    2  A    between atoms: C3_3  and  C4_4 
REMARK    3  A    between atoms: C4_4  and  O1_5 
REMARK    4  A    between atoms: C4_4  and  C5_6 
REMARK    5  A    between atoms: C5_6  and  C6_7 
REMARK    6  A    between atoms: C6_7  and  C8_9 
REMARK    7  A    between atoms: C10_11  and  O2_12 
REMARK    8  A    between atoms: C30_35  and  O7_37 
ROOT
HETATM    1  C8  UNL     1      -3.901  48.813 -24.124  1.00  0.00     0.001 C 
HETATM    2  C9  UNL     1      -3.109  49.762 -23.179  1.00  0.00     0.038 C 
HETATM    3  C10 UNL     1      -3.668  49.578 -21.753  1.00  0.00     0.132 C 
HETATM    4  C11 UNL     1      -4.614  48.351 -21.847  1.00  0.00     0.021 C 
HETATM    5  C12 UNL     1      -3.702  47.096 -21.649  1.00  0.00     0.024 C 
HETATM    6  C13 UNL     1      -5.765  48.140 -20.871  1.00  0.00     0.010 C 
HETATM    7  C14 UNL     1      -6.858  47.397 -21.177  1.00  0.00     0.007 C 
HETATM    8  C15 UNL     1      -6.960  46.850 -22.595  1.00  0.00     0.157 C 
HETATM    9  O3  UNL     1      -7.870  46.081 -22.906  1.00  0.00    -0.293 OA
HETATM   10  C16 UNL     1      -5.935  47.231 -23.656  1.00  0.00     0.094 C 
HETATM   11  C17 UNL     1      -5.195  48.521 -23.302  1.00  0.00    -0.019 C 
HETATM   12  C18 UNL     1      -6.196  49.707 -23.456  1.00  0.00     0.017 C 
HETATM   13  C19 UNL     1      -8.013  47.074 -20.192  1.00  0.00    -0.007 C 
HETATM   14  C20 UNL     1      -9.220  47.937 -20.631  1.00  0.00     0.021 C 
HETATM   15  C21 UNL     1      -8.424  45.565 -20.241  1.00  0.00     0.022 C 
HETATM   16  C22 UNL     1      -8.951  44.963 -18.942  1.00  0.00     0.080 C 
HETATM   17  C23 UNL     1      -9.570  46.006 -18.048  1.00  0.00     0.135 C 
HETATM   18  O4  UNL     1     -10.723  45.887 -17.640  1.00  0.00    -0.297 OA
HETATM   19  C24 UNL     1      -8.657  47.160 -17.619  1.00  0.00     0.018 C 
HETATM   20  C25 UNL     1      -9.510  48.409 -17.321  1.00  0.00     0.023 C 
HETATM   21  C26 UNL     1      -7.992  46.728 -16.295  1.00  0.00     0.023 C 
HETATM   22  C27 UNL     1      -7.560  47.376 -18.718  1.00  0.00     0.021 C 
HETATM   23  C28 UNL     1      -6.871  48.735 -18.620  1.00  0.00     0.090 C 
HETATM   24  C29 UNL     1      -5.663  48.758 -19.514  1.00  0.00     0.157 C 
HETATM   25  O5  UNL     1      -4.633  49.325 -19.152  1.00  0.00    -0.293 OA
ENDROOT
BRANCH   1  26
HETATM   26  C6  UNL     1      -4.010  49.384 -25.566  1.00  0.00    -0.011 C 
HETATM   27  C7  UNL     1      -4.315  48.305 -26.611  1.00  0.00     0.010 C 
BRANCH  26  28
HETATM   28  C5  UNL     1      -2.766  50.211 -26.012  1.00  0.00     0.040 C 
BRANCH  28  29
HETATM   29  C4  UNL     1      -2.993  51.260 -27.117  1.00  0.00     0.142 C 
BRANCH  29  30
HETATM   30  C3  UNL     1      -2.072  52.435 -26.941  1.00  0.00     0.018 C 
HETATM   31  C2  UNL     1      -0.730  52.465 -27.077  1.00  0.00     0.010 C 
HETATM   32  C1  UNL     1       0.154  51.313 -27.444  1.00  0.00     0.055 C 
BRANCH  31  33
HETATM   33  C30 UNL     1      -0.078  53.773 -26.809  1.00  0.00     0.171 C 
HETATM   34  O6  UNL     1       0.715  54.023 -25.918  1.00  0.00    -0.646 OA
BRANCH  33  35
HETATM   35  O7  UNL     1      -0.445  54.719 -27.688  1.00  0.00    -0.773 OA
HETATM   36  H42 UNL     1       0.061  55.508 -27.401  1.00  0.00     0.167 HD
ENDBRANCH  33  35
ENDBRANCH  31  33
ENDBRANCH  29  30
BRANCH  29  37
HETATM   37  O1  UNL     1      -2.715  50.703 -28.397  1.00  0.00    -0.392 OA
HETATM   38  H6  UNL     1      -1.750  50.632 -28.489  1.00  0.00     0.210 HD
ENDBRANCH  29  37
ENDBRANCH  28  29
ENDBRANCH  26  28
ENDBRANCH   1  26
BRANCH   3  39
HETATM   39  O2  UNL     1      -4.347  50.770 -21.374  1.00  0.00    -0.394 OA
HETATM   40  H17 UNL     1      -4.364  50.753 -20.395  1.00  0.00     0.210 HD
ENDBRANCH   3  39
TORSDOF 8
ENDMDL
MODEL 5
REMARK minimizedAffinity -7.87873363
REMARK CNNscore 0.580461323
REMARK CNNaffinity 6.28488731
REMARK  8 active torsions:
REMARK  status: ('A' for Active; 'I' for Inactive)
REMARK    1  A    between atoms: C2_2  and  C30_35 
REMARK    2  A    between atoms: C3_3  and  C4_4 
REMARK    3  A    between atoms: C4_4  and  O1_5 
REMARK    4  A    between atoms: C4_4  and  C5_6 
REMARK    5  A    between atoms: C5_6  and  C6_7 
REMARK    6  A    between atoms: C6_7  and  C8_9 
REMARK    7  A    between atoms: C10_11  and  O2_12 
REMARK    8  A    between atoms: C30_35  and  O7_37 
ROOT
HETATM    1  C8  UNL     1     -12.841  44.864 -27.063  1.00  0.00     0.001 C 
HETATM    2  C9  UNL     1     -12.991  43.739 -28.127  1.00  0.00     0.038 C 
HETATM    3  C10 UNL     1     -11.742  43.777 -29.030  1.00  0.00     0.132 C 
HETATM    4  C11 UNL     1     -10.771  44.767 -28.333  1.00  0.00     0.021 C 
HETATM    5  C12 UNL     1      -9.983  43.920 -27.282  1.00  0.00     0.024 C 
HETATM    6  C13 UNL     1      -9.691  45.519 -29.101  1.00  0.00     0.010 C 
HETATM    7  C14 UNL     1      -9.164  46.692 -28.668  1.00  0.00     0.007 C 
HETATM    8  C15 UNL     1      -9.770  47.312 -27.415  1.00  0.00     0.157 C 
HETATM    9  O3  UNL     1      -9.269  48.317 -26.909  1.00  0.00    -0.293 OA
HETATM   10  C16 UNL     1     -10.998  46.698 -26.754  1.00  0.00     0.094 C 
HETATM   11  C17 UNL     1     -11.783  45.807 -27.716  1.00  0.00    -0.019 C 
HETATM   12  C18 UNL     1     -12.474  46.727 -28.768  1.00  0.00     0.017 C 
HETATM   13  C19 UNL     1      -8.001  47.449 -29.362  1.00  0.00    -0.007 C 
HETATM   14  C20 UNL     1      -8.630  48.680 -30.056  1.00  0.00     0.021 C 
HETATM   15  C21 UNL     1      -6.925  47.940 -28.336  1.00  0.00     0.022 C 
HETATM   16  C22 UNL     1      -5.488  48.017 -28.846  1.00  0.00     0.080 C 
HETATM   17  C23 UNL     1      -5.430  48.225 -30.337  1.00  0.00     0.135 C 
HETATM   18  O4  UNL     1      -4.811  49.169 -30.822  1.00  0.00    -0.297 OA
HETATM   19  C24 UNL     1      -6.109  47.154 -31.198  1.00  0.00     0.018 C 
HETATM   20  C25 UNL     1      -6.557  47.774 -32.535  1.00  0.00     0.023 C 
HETATM   21  C26 UNL     1      -5.030  46.096 -31.518  1.00  0.00     0.023 C 
HETATM   22  C27 UNL     1      -7.267  46.495 -30.372  1.00  0.00     0.021 C 
HETATM   23  C28 UNL     1      -8.268  45.737 -31.240  1.00  0.00     0.090 C 
HETATM   24  C29 UNL     1      -9.176  44.915 -30.368  1.00  0.00     0.157 C 
HETATM   25  O5  UNL     1      -9.530  43.792 -30.725  1.00  0.00    -0.293 OA
ENDROOT
BRANCH   1  26
HETATM   26  C6  UNL     1     -14.218  45.434 -26.618  1.00  0.00    -0.011 C 
HETATM   27  C7  UNL     1     -15.207  45.573 -27.780  1.00  0.00     0.010 C 
BRANCH  26  28
HETATM   28  C5  UNL     1     -14.120  46.786 -25.847  1.00  0.00     0.040 C 
BRANCH  28  29
HETATM   29  C4  UNL     1     -14.766  46.832 -24.449  1.00  0.00     0.142 C 
BRANCH  29  30
HETATM   30  C3  UNL     1     -16.266  46.806 -24.549  1.00  0.00     0.018 C 
HETATM   31  C2  UNL     1     -17.160  46.608 -23.559  1.00  0.00     0.010 C 
HETATM   32  C1  UNL     1     -16.849  46.369 -22.113  1.00  0.00     0.055 C 
BRANCH  31  33
HETATM   33  C30 UNL     1     -18.589  46.606 -23.963  1.00  0.00     0.171 C 
HETATM   34  O6  UNL     1     -19.463  45.865 -23.546  1.00  0.00    -0.646 OA
BRANCH  33  35
HETATM   35  O7  UNL     1     -18.867  47.551 -24.873  1.00  0.00    -0.773 OA
HETATM   36  H42 UNL     1     -19.827  47.442 -25.034  1.00  0.00     0.167 HD
ENDBRANCH  33  35
ENDBRANCH  31  33
ENDBRANCH  29  30
BRANCH  29  37
HETATM   37  O1  UNL     1     -14.381  45.696 -23.684  1.00  0.00    -0.392 OA
HETATM   38  H6  UNL     1     -14.871  44.928 -24.022  1.00  0.00     0.210 HD
ENDBRANCH  29  37
ENDBRANCH  28  29
ENDBRANCH  26  28
ENDBRANCH   1  26
BRANCH   3  39
HETATM   39  O2  UNL     1     -12.133  44.211 -30.329  1.00  0.00    -0.394 OA
HETATM   40  H17 UNL     1     -11.430  43.888 -30.928  1.00  0.00     0.210 HD
ENDBRANCH   3  39
TORSDOF 8
ENDMDL
MODEL 6
REMARK minimizedAffinity -8.72130966
REMARK CNNscore 0.45612368
REMARK CNNaffinity 6.44649935
REMARK  8 active torsions:
REMARK  status: ('A' for Active; 'I' for Inactive)
REMARK    1  A    between atoms: C2_2  and  C30_35 
REMARK    2  A    between atoms: C3_3  and  C4_4 
REMARK    3  A    between atoms: C4_4  and  O1_5 
REMARK    4  A    between atoms: C4_4  and  C5_6 
REMARK    5  A    between atoms: C5_6  and  C6_7 
REMARK    6  A    between atoms: C6_7  and  C8_9 
REMARK    7  A    between atoms: C10_11  and  O2_12 
REMARK    8  A    between atoms: C30_35  and  O7_37 
ROOT
HETATM    1  C8  UNL     1       5.504  63.823 -35.074  1.00  0.00     0.001 C 
HETATM    2  C9  UNL     1       5.591  64.301 -33.597  1.00  0.00     0.038 C 
HETATM    3  C10 UNL     1       5.922  65.807 -33.609  1.00  0.00     0.132 C 
HETATM    4  C11 UNL     1       5.787  66.236 -35.094  1.00  0.00     0.021 C 
HETATM    5  C12 UNL     1       4.274  66.570 -35.305  1.00  0.00     0.024 C 
HETATM    6  C13 UNL     1       6.523  67.446 -35.658  1.00  0.00     0.010 C 
HETATM    7  C14 UNL     1       6.817  67.577 -36.976  1.00  0.00     0.007 C 
HETATM    8  C15 UNL     1       6.479  66.406 -37.890  1.00  0.00     0.157 C 
HETATM    9  O3  UNL     1       6.620  66.502 -39.109  1.00  0.00    -0.293 OA
HETATM   10  C16 UNL     1       5.948  65.097 -37.319  1.00  0.00     0.094 C 
HETATM   11  C17 UNL     1       6.285  64.938 -35.837  1.00  0.00    -0.019 C 
HETATM   12  C18 UNL     1       7.819  64.682 -35.717  1.00  0.00     0.017 C 
HETATM   13  C19 UNL     1       7.481  68.826 -37.615  1.00  0.00    -0.007 C 
HETATM   14  C20 UNL     1       8.939  68.429 -37.945  1.00  0.00     0.021 C 
HETATM   15  C21 UNL     1       6.763  69.264 -38.935  1.00  0.00     0.022 C 
HETATM   16  C22 UNL     1       6.784  70.755 -39.256  1.00  0.00     0.080 C 
HETATM   17  C23 UNL     1       7.973  71.447 -38.640  1.00  0.00     0.135 C 
HETATM   18  O4  UNL     1       8.755  72.098 -39.330  1.00  0.00    -0.297 OA
HETATM   19  C24 UNL     1       8.093  71.359 -37.115  1.00  0.00     0.018 C 
HETATM   20  C25 UNL     1       9.574  71.482 -36.706  1.00  0.00     0.023 C 
HETATM   21  C26 UNL     1       7.352  72.587 -36.543  1.00  0.00     0.023 C 
HETATM   22  C27 UNL     1       7.396  70.043 -36.624  1.00  0.00     0.021 C 
HETATM   23  C28 UNL     1       7.810  69.635 -35.213  1.00  0.00     0.090 C 
HETATM   24  C29 UNL     1       6.907  68.541 -34.715  1.00  0.00     0.157 C 
HETATM   25  O5  UNL     1       6.543  68.522 -33.540  1.00  0.00    -0.293 OA
ENDROOT
BRANCH   1  26
HETATM   26  C6  UNL     1       5.925  62.334 -35.232  1.00  0.00    -0.011 C 
HETATM   27  C7  UNL     1       5.357  61.435 -34.129  1.00  0.00     0.010 C 
BRANCH  26  28
HETATM   28  C5  UNL     1       7.467  62.125 -35.339  1.00  0.00     0.040 C 
BRANCH  28  29
HETATM   29  C4  UNL     1       8.039  60.858 -34.675  1.00  0.00     0.142 C 
BRANCH  29  30
HETATM   30  C3  UNL     1       8.881  61.210 -33.481  1.00  0.00     0.018 C 
HETATM   31  C2  UNL     1      10.012  61.945 -33.450  1.00  0.00     0.010 C 
HETATM   32  C1  UNL     1      10.689  62.586 -34.623  1.00  0.00     0.055 C 
BRANCH  31  33
HETATM   33  C30 UNL     1      10.650  62.103 -32.118  1.00  0.00     0.171 C 
HETATM   34  O6  UNL     1      11.395  63.003 -31.769  1.00  0.00    -0.646 OA
BRANCH  33  35
HETATM   35  O7  UNL     1      10.312  61.122 -31.267  1.00  0.00    -0.773 OA
HETATM   36  H42 UNL     1      10.787  61.358 -30.443  1.00  0.00     0.167 HD
ENDBRANCH  33  35
ENDBRANCH  31  33
ENDBRANCH  29  30
BRANCH  29  37
HETATM   37  O1  UNL     1       6.987  60.020 -34.209  1.00  0.00    -0.392 OA
HETATM   38  H6  UNL     1       6.617  60.424 -33.406  1.00  0.00     0.210 HD
ENDBRANCH  29  37
ENDBRANCH  28  29
ENDBRANCH  26  28
ENDBRANCH   1  26
BRANCH   3  39
HETATM   39  O2  UNL     1       7.239  65.986 -33.101  1.00  0.00    -0.394 OA
HETATM   40  H17 UNL     1       7.271  66.917 -32.797  1.00  0.00     0.210 HD
ENDBRANCH   3  39
TORSDOF 8
ENDMDL
MODEL 7
REMARK minimizedAffinity -9.8886385
REMARK CNNscore 0.437663496
REMARK CNNaffinity 6.42145777
REMARK  8 active torsions:
REMARK  status: ('A' for Active; 'I' for Inactive)
REMARK    1  A    between atoms: C2_2  and  C30_35 
REMARK    2  A    between atoms: C3_3  and  C4_4 
REMARK    3  A    between atoms: C4_4  and  O1_5 
REMARK    4  A    between atoms: C4_4  and  C5_6 
REMARK    5  A    between atoms: C5_6  and  C6_7 
REMARK    6  A    between atoms: C6_7  and  C8_9 
REMARK    7  A    between atoms: C10_11  and  O2_12 
REMARK    8  A    between atoms: C30_35  and  O7_37 
ROOT
HETATM    1  C8  UNL     1       0.020  51.038 -21.246  1.00  0.00     0.001 C 
HETATM    2  C9  UNL     1       0.084  51.009 -19.692  1.00  0.00     0.038 C 
HETATM    3  C10 UNL     1      -1.149  50.233 -19.187  1.00  0.00     0.132 C 
HETATM    4  C11 UNL     1      -1.787  49.616 -20.461  1.00  0.00     0.021 C 
HETATM    5  C12 UNL     1      -1.038  48.265 -20.699  1.00  0.00     0.024 C 
HETATM    6  C13 UNL     1      -3.264  49.247 -20.530  1.00  0.00     0.010 C 
HETATM    7  C14 UNL     1      -3.946  49.168 -21.700  1.00  0.00     0.007 C 
HETATM    8  C15 UNL     1      -3.207  49.569 -22.971  1.00  0.00     0.157 C 
HETATM    9  O3  UNL     1      -3.732  49.417 -24.074  1.00  0.00    -0.293 OA
HETATM   10  C16 UNL     1      -1.803  50.155 -22.906  1.00  0.00     0.094 C 
HETATM   11  C17 UNL     1      -1.484  50.735 -21.529  1.00  0.00    -0.019 C 
HETATM   12  C18 UNL     1      -2.327  52.035 -21.349  1.00  0.00     0.017 C 
HETATM   13  C19 UNL     1      -5.422  48.708 -21.834  1.00  0.00    -0.007 C 
HETATM   14  C20 UNL     1      -6.253  49.979 -22.131  1.00  0.00     0.021 C 
HETATM   15  C21 UNL     1      -5.617  47.689 -23.007  1.00  0.00     0.022 C 
HETATM   16  C22 UNL     1      -6.721  46.652 -22.827  1.00  0.00     0.080 C 
HETATM   17  C23 UNL     1      -7.810  47.141 -21.908  1.00  0.00     0.135 C 
HETATM   18  O4  UNL     1      -8.984  47.162 -22.272  1.00  0.00    -0.297 OA
HETATM   19  C24 UNL     1      -7.378  47.524 -20.489  1.00  0.00     0.018 C 
HETATM   20  C25 UNL     1      -8.351  48.575 -19.919  1.00  0.00     0.023 C 
HETATM   21  C26 UNL     1      -7.519  46.251 -19.627  1.00  0.00     0.023 C 
HETATM   22  C27 UNL     1      -5.879  47.982 -20.518  1.00  0.00     0.021 C 
HETATM   23  C28 UNL     1      -5.469  48.774 -19.280  1.00  0.00     0.090 C 
HETATM   24  C29 UNL     1      -3.974  48.935 -19.252  1.00  0.00     0.157 C 
HETATM   25  O5  UNL     1      -3.362  48.866 -18.187  1.00  0.00    -0.293 OA
ENDROOT
BRANCH   1  26
HETATM   26  C6  UNL     1       0.676  52.320 -21.833  1.00  0.00    -0.011 C 
HETATM   27  C7  UNL     1       0.802  53.448 -20.803  1.00  0.00     0.010 C 
BRANCH  26  28
HETATM   28  C5  UNL     1      -0.028  52.857 -23.117  1.00  0.00     0.040 C 
BRANCH  28  29
HETATM   29  C4  UNL     1       0.884  53.442 -24.212  1.00  0.00     0.142 C 
BRANCH  29  30
HETATM   30  C3  UNL     1       0.132  53.613 -25.502  1.00  0.00     0.018 C 
HETATM   31  C2  UNL     1      -0.078  52.696 -26.468  1.00  0.00     0.010 C 
HETATM   32  C1  UNL     1       0.400  51.276 -26.467  1.00  0.00     0.055 C 
BRANCH  31  33
HETATM   33  C30 UNL     1      -0.838  53.163 -27.656  1.00  0.00     0.171 C 
HETATM   34  O6  UNL     1      -1.987  53.572 -27.672  1.00  0.00    -0.646 OA
BRANCH  33  35
HETATM   35  O7  UNL     1      -0.113  53.109 -28.784  1.00  0.00    -0.773 OA
HETATM   36  H42 UNL     1      -0.725  53.450 -29.468  1.00  0.00     0.167 HD
ENDBRANCH  33  35
ENDBRANCH  31  33
ENDBRANCH  29  30
BRANCH  29  37
HETATM   37  O1  UNL     1       1.355  54.730 -23.832  1.00  0.00    -0.392 OA
HETATM   38  H6  UNL     1       0.621  55.359 -23.933  1.00  0.00     0.210 HD
ENDBRANCH  29  37
ENDBRANCH  28  29
ENDBRANCH  26  28
ENDBRANCH   1  26
BRANCH   3  39
HETATM   39  O2  UNL     1      -2.018  51.144 -18.522  1.00  0.00    -0.394 OA
HETATM   40  H17 UNL     1      -2.568  50.587 -17.933  1.00  0.00     0.210 HD
ENDBRANCH   3  39
TORSDOF 8
ENDMDL
MODEL 8
REMARK minimizedAffinity -8.35189915
REMARK CNNscore 0.433532864
REMARK CNNaffinity 6.18203974
REMARK  8 active torsions:
REMARK  status: ('A' for Active; 'I' for Inactive)
REMARK    1  A    between atoms: C2_2  and  C30_35 
REMARK    2  A    between atoms: C3_3  and  C4_4 
REMARK    3  A    between atoms: C4_4  and  O1_5 
REMARK    4  A    between atoms: C4_4  and  C5_6 
REMARK    5  A    between atoms: C5_6  and  C6_7 
REMARK    6  A    between atoms: C6_7  and  C8_9 
REMARK    7  A    between atoms: C10_11  and  O2_12 
REMARK    8  A    between atoms: C30_35  and  O7_37 
ROOT
HETATM    1  C8  UNL     1      -4.422  48.193 -21.095  1.00  0.00     0.001 C 
HETATM    2  C9  UNL     1      -3.593  48.771 -19.912  1.00  0.00     0.038 C 
HETATM    3  C10 UNL     1      -2.699  49.897 -20.471  1.00  0.00     0.132 C 
HETATM    4  C11 UNL     1      -3.194  50.119 -21.925  1.00  0.00     0.021 C 
HETATM    5  C12 UNL     1      -4.387  51.123 -21.819  1.00  0.00     0.024 C 
HETATM    6  C13 UNL     1      -2.296  50.712 -23.005  1.00  0.00     0.010 C 
HETATM    7  C14 UNL     1      -2.497  50.490 -24.328  1.00  0.00     0.007 C 
HETATM    8  C15 UNL     1      -3.608  49.523 -24.717  1.00  0.00     0.157 C 
HETATM    9  O3  UNL     1      -3.912  49.361 -25.899  1.00  0.00    -0.293 OA
HETATM   10  C16 UNL     1      -4.374  48.745 -23.655  1.00  0.00     0.094 C 
HETATM   11  C17 UNL     1      -3.601  48.654 -22.340  1.00  0.00    -0.019 C 
HETATM   12  C18 UNL     1      -2.392  47.693 -22.559  1.00  0.00     0.017 C 
HETATM   13  C19 UNL     1      -1.671  51.142 -25.470  1.00  0.00    -0.007 C 
HETATM   14  C20 UNL     1      -0.754  50.032 -26.037  1.00  0.00     0.021 C 
HETATM   15  C21 UNL     1      -2.584  51.683 -26.620  1.00  0.00     0.022 C 
HETATM   16  C22 UNL     1      -2.069  52.905 -27.375  1.00  0.00     0.080 C 
HETATM   17  C23 UNL     1      -0.565  52.998 -27.338  1.00  0.00     0.135 C 
HETATM   18  O4  UNL     1       0.091  53.071 -28.375  1.00  0.00    -0.297 OA
HETATM   19  C24 UNL     1       0.074  53.081 -25.948  1.00  0.00     0.018 C 
HETATM   20  C25 UNL     1       1.506  52.513 -26.004  1.00  0.00     0.023 C 
HETATM   21  C26 UNL     1       0.187  54.582 -25.604  1.00  0.00     0.023 C 
HETATM   22  C27 UNL     1      -0.862  52.368 -24.913  1.00  0.00     0.021 C 
HETATM   23  C28 UNL     1      -0.155  52.015 -23.607  1.00  0.00     0.090 C 
HETATM   24  C29 UNL     1      -1.168  51.595 -22.578  1.00  0.00     0.157 C 
HETATM   25  O5  UNL     1      -1.033  51.927 -21.402  1.00  0.00    -0.293 OA
ENDROOT
BRANCH   1  26
HETATM   26  C6  UNL     1      -4.749  46.686 -20.896  1.00  0.00    -0.011 C 
HETATM   27  C7  UNL     1      -6.128  46.301 -21.443  1.00  0.00     0.010 C 
BRANCH  26  28
HETATM   28  C5  UNL     1      -4.615  46.202 -19.420  1.00  0.00     0.040 C 
BRANCH  28  29
HETATM   29  C4  UNL     1      -5.406  44.938 -19.033  1.00  0.00     0.142 C 
BRANCH  29  30
HETATM   30  C3  UNL     1      -4.495  43.746 -18.924  1.00  0.00     0.018 C 
HETATM   31  C2  UNL     1      -3.482  43.553 -18.055  1.00  0.00     0.010 C 
HETATM   32  C1  UNL     1      -3.035  44.500 -16.984  1.00  0.00     0.055 C 
BRANCH  31  33
HETATM   33  C30 UNL     1      -2.731  42.280 -18.204  1.00  0.00     0.171 C 
HETATM   34  O6  UNL     1      -1.912  41.822 -17.425  1.00  0.00    -0.646 OA
BRANCH  33  35
HETATM   35  O7  UNL     1      -3.052  41.623 -19.329  1.00  0.00    -0.773 OA
HETATM   36  H42 UNL     1      -2.499  40.815 -19.289  1.00  0.00     0.167 HD
ENDBRANCH  33  35
ENDBRANCH  31  33
ENDBRANCH  29  30
BRANCH  29  37
HETATM   37  O1  UNL     1      -6.024  45.106 -17.762  1.00  0.00    -0.392 OA
HETATM   38  H6  UNL     1      -5.333  45.033 -17.082  1.00  0.00     0.210 HD
ENDBRANCH  29  37
ENDBRANCH  28  29
ENDBRANCH  26  28
ENDBRANCH   1  26
BRANCH   3  39
HETATM   39  O2  UNL     1      -1.342  49.472 -20.410  1.00  0.00    -0.394 OA
HETATM   40  H17 UNL     1      -0.815  50.297 -20.425  1.00  0.00     0.210 HD
ENDBRANCH   3  39
TORSDOF 8
ENDMDL
MODEL 9
REMARK minimizedAffinity -9.36684895
REMARK CNNscore 0.388332993
REMARK CNNaffinity 6.26074791
REMARK  8 active torsions:
REMARK  status: ('A' for Active; 'I' for Inactive)
REMARK    1  A    between atoms: C2_2  and  C30_35 
REMARK    2  A    between atoms: C3_3  and  C4_4 
REMARK    3  A    between atoms: C4_4  and  O1_5 
REMARK    4  A    between atoms: C4_4  and  C5_6 
REMARK    5  A    between atoms: C5_6  and  C6_7 
REMARK    6  A    between atoms: C6_7  and  C8_9 
REMARK    7  A    between atoms: C10_11  and  O2_12 
REMARK    8  A    between atoms: C30_35  and  O7_37 
ROOT
HETATM    1  C8  UNL     1      -4.284  48.172 -20.169  1.00  0.00     0.001 C 
HETATM    2  C9  UNL     1      -4.960  47.254 -21.227  1.00  0.00     0.038 C 
HETATM    3  C10 UNL     1      -4.373  47.615 -22.606  1.00  0.00     0.132 C 
HETATM    4  C11 UNL     1      -3.190  48.573 -22.302  1.00  0.00     0.021 C 
HETATM    5  C12 UNL     1      -1.958  47.651 -22.021  1.00  0.00     0.024 C 
HETATM    6  C13 UNL     1      -2.681  49.582 -23.323  1.00  0.00     0.010 C 
HETATM    7  C14 UNL     1      -2.017  50.711 -22.971  1.00  0.00     0.007 C 
HETATM    8  C15 UNL     1      -1.879  51.008 -21.483  1.00  0.00     0.157 C 
HETATM    9  O3  UNL     1      -1.197  51.957 -21.094  1.00  0.00    -0.293 OA
HETATM   10  C16 UNL     1      -2.571  50.134 -20.444  1.00  0.00     0.094 C 
HETATM   11  C17 UNL     1      -3.735  49.345 -21.041  1.00  0.00    -0.019 C 
HETATM   12  C18 UNL     1      -4.885  50.350 -21.356  1.00  0.00     0.017 C 
HETATM   13  C19 UNL     1      -1.399  51.724 -23.972  1.00  0.00    -0.007 C 
HETATM   14  C20 UNL     1      -2.310  52.973 -23.952  1.00  0.00     0.021 C 
HETATM   15  C21 UNL     1       0.051  52.147 -23.560  1.00  0.00     0.022 C 
HETATM   16  C22 UNL     1       1.004  52.496 -24.699  1.00  0.00     0.080 C 
HETATM   17  C23 UNL     1       0.268  52.982 -25.921  1.00  0.00     0.135 C 
HETATM   18  O4  UNL     1       0.531  54.070 -26.429  1.00  0.00    -0.297 OA
HETATM   19  C24 UNL     1      -0.751  52.012 -26.528  1.00  0.00     0.018 C 
HETATM   20  C25 UNL     1      -1.842  52.808 -27.271  1.00  0.00     0.023 C 
HETATM   21  C26 UNL     1       0.008  51.176 -27.581  1.00  0.00     0.023 C 
HETATM   22  C27 UNL     1      -1.297  51.073 -25.398  1.00  0.00     0.021 C 
HETATM   23  C28 UNL     1      -2.597  50.369 -25.777  1.00  0.00     0.090 C 
HETATM   24  C29 UNL     1      -2.904  49.292 -24.773  1.00  0.00     0.157 C 
HETATM   25  O5  UNL     1      -3.382  48.220 -25.139  1.00  0.00    -0.293 OA
ENDROOT
BRANCH   1  26
HETATM   26  C6  UNL     1      -5.227  48.473 -18.969  1.00  0.00    -0.011 C 
HETATM   27  C7  UNL     1      -4.496  48.463 -17.622  1.00  0.00     0.010 C 
BRANCH  26  28
HETATM   28  C5  UNL     1      -6.473  47.539 -18.898  1.00  0.00     0.040 C 
BRANCH  28  29
HETATM   29  C4  UNL     1      -7.840  48.187 -19.185  1.00  0.00     0.142 C 
BRANCH  29  30
HETATM   30  C3  UNL     1      -8.805  47.928 -18.062  1.00  0.00     0.018 C 
HETATM   31  C2  UNL     1     -10.152  47.890 -18.116  1.00  0.00     0.010 C 
HETATM   32  C1  UNL     1     -11.000  48.099 -19.334  1.00  0.00     0.055 C 
BRANCH  31  33
HETATM   33  C30 UNL     1     -10.849  47.639 -16.829  1.00  0.00     0.171 C 
HETATM   34  O6  UNL     1     -12.003  47.273 -16.684  1.00  0.00    -0.646 OA
BRANCH  33  35
HETATM   35  O7  UNL     1     -10.056  47.848 -15.767  1.00  0.00    -0.773 OA
HETATM   36  H42 UNL     1     -10.633  47.638 -15.003  1.00  0.00     0.167 HD
ENDBRANCH  33  35
ENDBRANCH  31  33
ENDBRANCH  29  30
BRANCH  29  37
HETATM   37  O1  UNL     1      -7.708  49.599 -19.302  1.00  0.00    -0.392 OA
HETATM   38  H6  UNL     1      -7.584  49.962 -18.409  1.00  0.00     0.210 HD
ENDBRANCH  29  37
ENDBRANCH  28  29
ENDBRANCH  26  28
ENDBRANCH   1  26
BRANCH   3  39
HETATM   39  O2  UNL     1      -5.392  48.229 -23.388  1.00  0.00    -0.394 OA
HETATM   40  H17 UNL     1      -5.105  48.113 -24.317  1.00  0.00     0.210 HD
ENDBRANCH   3  39
TORSDOF 8
ENDMDL
