MODEL 1
REMARK minimizedAffinity -8.45888805
REMARK  6 active torsions:
REMARK  status: ('A' for Active; 'I' for Inactive)
REMARK    1  A    between atoms: C9_10  and  C10_11 
REMARK    2  A    between atoms: C11_13  and  O3_14 
REMARK    3  A    between atoms: C12_15  and  C13_16 
REMARK    4  A    between atoms: C14_18  and  O5_19 
REMARK    5  A    between atoms: C16_21  and  C17_22 
REMARK    6  A    between atoms: C17_22  and  C18_23 
ROOT
HETATM    1  C1  UNL     1      -6.652   5.418  15.288  1.00  0.00     0.043 C 
HETATM    2  C2  UNL     1      -5.828   5.925  14.119  1.00  0.00    -0.087 C 
HETATM    3  C3  UNL     1      -5.635   7.255  14.012  1.00  0.00    -0.024 C 
HETATM    4  C4  UNL     1      -4.935   8.068  12.970  1.00  0.00     0.030 C 
HETATM    5  C5  UNL     1      -3.730   8.855  13.494  1.00  0.00     0.042 C 
HETATM    6  C6  UNL     1      -2.482   8.083  14.016  1.00  0.00     0.069 C 
HETATM    7  C7  UNL     1      -2.815   7.314  15.315  1.00  0.00     0.047 C 
HETATM    8  O1  UNL     1      -1.613   9.185  14.466  1.00  0.00    -0.338 OA
HETATM    9  C8  UNL     1      -0.308   8.818  14.677  1.00  0.00     0.095 A 
HETATM   10  C9  UNL     1       0.336   9.193  15.859  1.00  0.00     0.070 A 
HETATM   11  C11 UNL     1       1.646   8.760  16.096  1.00  0.00     0.097 A 
HETATM   12  C12 UNL     1       2.291   7.962  15.146  1.00  0.00     0.069 A 
HETATM   13  C14 UNL     1       1.638   7.620  13.942  1.00  0.00     0.091 A 
HETATM   14  C15 UNL     1       0.345   8.085  13.675  1.00  0.00     0.015 A 
HETATM   15  C16 UNL     1      -0.487   7.901  12.419  1.00  0.00     0.032 C 
HETATM   16  C21 UNL     1      -1.829   7.214  12.839  1.00  0.00     0.034 C 
HETATM   17  C22 UNL     1      -1.660   5.753  13.230  1.00  0.00     0.006 A 
HETATM   18  C23 UNL     1      -2.797   4.729  13.128  1.00  0.00    -0.001 A 
HETATM   19  C24 UNL     1      -4.093   4.867  12.366  1.00  0.00     0.010 C 
HETATM   20  C25 UNL     1      -5.371   4.800  13.210  1.00  0.00     0.034 C 
HETATM   21  C26 UNL     1      -1.522   4.540  12.308  1.00  0.00    -0.039 A 
HETATM   22  C27 UNL     1      -0.570   3.452  12.757  1.00  0.00     0.015 C 
HETATM   23  C28 UNL     1      -1.613   4.633  10.803  1.00  0.00     0.015 C 
ENDROOT
BRANCH  15  24
HETATM   24  C17 UNL     1       0.163   7.321  11.151  1.00  0.00     0.014 C 
BRANCH  24  25
HETATM   25  C18 UNL     1       0.663   8.367  10.124  1.00  0.00    -0.022 C 
HETATM   26  C19 UNL     1      -0.371   8.650   9.030  1.00  0.00     0.009 C 
HETATM   27  C20 UNL     1       1.960   7.869   9.478  1.00  0.00     0.009 C 
ENDBRANCH  24  25
ENDBRANCH  15  24
BRANCH  13  28
HETATM   28  O5  UNL     1       2.246   6.806  13.025  1.00  0.00    -0.359 OA
HETATM   29  H15 UNL     1       3.154   6.587  13.337  1.00  0.00     0.217 HD
ENDBRANCH  13  28
BRANCH  10  30
HETATM   30  C10 UNL     1      -0.384  10.014  16.851  1.00  0.00     0.275 C 
HETATM   31  O2  UNL     1      -1.323   9.535  17.483  1.00  0.00    -0.301 OA
ENDBRANCH  10  30
BRANCH  12  32
HETATM   32  C13 UNL     1       3.661   7.480  15.424  1.00  0.00     0.275 C 
HETATM   33  O4  UNL     1       4.562   8.275  15.685  1.00  0.00    -0.301 OA
ENDBRANCH  12  32
BRANCH  11  34
HETATM   34  O3  UNL     1       2.315   9.084  17.250  1.00  0.00    -0.359 OA
HETATM   35  H13 UNL     1       1.722   9.635  17.816  1.00  0.00     0.217 HD
ENDBRANCH  11  34
TORSDOF 6
ENDMDL
MODEL 2
REMARK minimizedAffinity -7.0211134
REMARK  6 active torsions:
REMARK  status: ('A' for Active; 'I' for Inactive)
REMARK    1  A    between atoms: C9_10  and  C10_11 
REMARK    2  A    between atoms: C11_13  and  O3_14 
REMARK    3  A    between atoms: C12_15  and  C13_16 
REMARK    4  A    between atoms: C14_18  and  O5_19 
REMARK    5  A    between atoms: C16_21  and  C17_22 
REMARK    6  A    between atoms: C17_22  and  C18_23 
ROOT
HETATM    1  C1  UNL     1       5.889  18.762  22.938  1.00  0.00     0.043 C 
HETATM    2  C2  UNL     1       5.649  17.377  23.513  1.00  0.00    -0.087 C 
HETATM    3  C3  UNL     1       4.414  17.088  23.966  1.00  0.00    -0.024 C 
HETATM    4  C4  UNL     1       3.871  15.862  24.629  1.00  0.00     0.030 C 
HETATM    5  C5  UNL     1       2.755  15.166  23.843  1.00  0.00     0.042 C 
HETATM    6  C6  UNL     1       3.082  14.518  22.465  1.00  0.00     0.069 C 
HETATM    7  C7  UNL     1       3.436  15.600  21.419  1.00  0.00     0.047 C 
HETATM    8  O1  UNL     1       1.758  14.030  22.040  1.00  0.00    -0.338 OA
HETATM    9  C8  UNL     1       1.799  13.129  21.007  1.00  0.00     0.095 A 
HETATM   10  C9  UNL     1       0.954  13.297  19.907  1.00  0.00     0.070 A 
HETATM   11  C11 UNL     1       1.047  12.412  18.826  1.00  0.00     0.097 A 
HETATM   12  C12 UNL     1       1.982  11.372  18.865  1.00  0.00     0.069 A 
HETATM   13  C14 UNL     1       2.805  11.196  19.999  1.00  0.00     0.091 A 
HETATM   14  C15 UNL     1       2.689  12.049  21.103  1.00  0.00     0.015 A 
HETATM   15  C16 UNL     1       3.413  11.978  22.434  1.00  0.00     0.032 C 
HETATM   16  C21 UNL     1       4.154  13.340  22.641  1.00  0.00     0.034 C 
HETATM   17  C22 UNL     1       5.356  13.517  21.724  1.00  0.00     0.006 A 
HETATM   18  C23 UNL     1       6.543  14.423  22.074  1.00  0.00    -0.001 A 
HETATM   19  C24 UNL     1       6.891  15.000  23.425  1.00  0.00     0.010 C 
HETATM   20  C25 UNL     1       6.908  16.530  23.509  1.00  0.00     0.034 C 
HETATM   21  C26 UNL     1       6.757  12.922  21.880  1.00  0.00    -0.039 A 
HETATM   22  C27 UNL     1       7.454  12.486  20.609  1.00  0.00     0.015 C 
HETATM   23  C28 UNL     1       7.174  12.094  23.073  1.00  0.00     0.015 C 
ENDROOT
BRANCH  15  24
HETATM   24  C17 UNL     1       4.247  10.733  22.784  1.00  0.00     0.014 C 
BRANCH  24  25
HETATM   25  C18 UNL     1       3.537   9.690  23.682  1.00  0.00    -0.022 C 
HETATM   26  C19 UNL     1       2.770   8.644  22.866  1.00  0.00     0.009 C 
HETATM   27  C20 UNL     1       2.566  10.406  24.627  1.00  0.00     0.009 C 
ENDBRANCH  24  25
ENDBRANCH  15  24
BRANCH  13  28
HETATM   28  O5  UNL     1       3.750  10.207  20.029  1.00  0.00    -0.359 OA
HETATM   29  H15 UNL     1       3.690   9.677  19.200  1.00  0.00     0.217 HD
ENDBRANCH  13  28
BRANCH  10  30
HETATM   30  C10 UNL     1      -0.002  14.420  19.888  1.00  0.00     0.275 C 
HETATM   31  O2  UNL     1      -0.122  15.145  20.874  1.00  0.00    -0.301 OA
ENDBRANCH  10  30
BRANCH  12  32
HETATM   32  C13 UNL     1       2.096  10.465  17.702  1.00  0.00     0.275 C 
HETATM   33  O4  UNL     1       2.199   9.251  17.864  1.00  0.00    -0.301 OA
ENDBRANCH  12  32
BRANCH  11  34
HETATM   34  O3  UNL     1       0.253  12.545  17.714  1.00  0.00    -0.359 OA
HETATM   35  H13 UNL     1      -0.336  13.328  17.837  1.00  0.00     0.217 HD
ENDBRANCH  11  34
TORSDOF 6
ENDMDL
MODEL 3
REMARK minimizedAffinity -6.70523548
REMARK  6 active torsions:
REMARK  status: ('A' for Active; 'I' for Inactive)
REMARK    1  A    between atoms: C9_10  and  C10_11 
REMARK    2  A    between atoms: C11_13  and  O3_14 
REMARK    3  A    between atoms: C12_15  and  C13_16 
REMARK    4  A    between atoms: C14_18  and  O5_19 
REMARK    5  A    between atoms: C16_21  and  C17_22 
REMARK    6  A    between atoms: C17_22  and  C18_23 
ROOT
HETATM    1  C1  UNL     1      15.167  -8.749   0.937  1.00  0.00     0.043 C 
HETATM    2  C2  UNL     1      14.231  -8.272   2.032  1.00  0.00    -0.087 C 
HETATM    3  C3  UNL     1      13.956  -9.120   3.043  1.00  0.00    -0.024 C 
HETATM    4  C4  UNL     1      13.048  -8.983   4.223  1.00  0.00     0.030 C 
HETATM    5  C5  UNL     1      13.764  -9.046   5.576  1.00  0.00     0.042 C 
HETATM    6  C6  UNL     1      14.765  -7.916   5.963  1.00  0.00     0.069 C 
HETATM    7  C7  UNL     1      16.016  -7.956   5.057  1.00  0.00     0.047 C 
HETATM    8  O1  UNL     1      15.255  -8.384   7.271  1.00  0.00    -0.338 OA
HETATM    9  C8  UNL     1      15.910  -7.423   7.999  1.00  0.00     0.095 A 
HETATM   10  C9  UNL     1      17.146  -7.716   8.581  1.00  0.00     0.070 A 
HETATM   11  C11 UNL     1      17.839  -6.712   9.267  1.00  0.00     0.097 A 
HETATM   12  C12 UNL     1      17.282  -5.432   9.363  1.00  0.00     0.069 A 
HETATM   13  C14 UNL     1      16.016  -5.162   8.799  1.00  0.00     0.091 A 
HETATM   14  C15 UNL     1      15.295  -6.171   8.149  1.00  0.00     0.015 A 
HETATM   15  C16 UNL     1      13.900  -6.107   7.557  1.00  0.00     0.032 C 
HETATM   16  C21 UNL     1      14.010  -6.505   6.048  1.00  0.00     0.034 C 
HETATM   17  C22 UNL     1      14.683  -5.442   5.191  1.00  0.00     0.006 A 
HETATM   18  C23 UNL     1      14.424  -5.301   3.686  1.00  0.00    -0.001 A 
HETATM   19  C24 UNL     1      13.295  -5.906   2.887  1.00  0.00     0.010 C 
HETATM   20  C25 UNL     1      13.714  -6.869   1.771  1.00  0.00     0.034 C 
HETATM   21  C26 UNL     1      14.072  -4.155   4.634  1.00  0.00    -0.039 A 
HETATM   22  C27 UNL     1      14.970  -2.937   4.603  1.00  0.00     0.015 C 
HETATM   23  C28 UNL     1      12.618  -3.787   4.811  1.00  0.00     0.015 C 
ENDROOT
BRANCH  15  24
HETATM   24  C17 UNL     1      13.009  -4.883   7.835  1.00  0.00     0.014 C 
BRANCH  24  25
HETATM   25  C18 UNL     1      11.611  -5.202   8.424  1.00  0.00    -0.022 C 
HETATM   26  C19 UNL     1      11.672  -6.261   9.529  1.00  0.00     0.009 C 
HETATM   27  C20 UNL     1      10.685  -5.690   7.305  1.00  0.00     0.009 C 
ENDBRANCH  24  25
ENDBRANCH  15  24
BRANCH  13  28
HETATM   28  O5  UNL     1      15.482  -3.903   8.852  1.00  0.00    -0.359 OA
HETATM   29  H15 UNL     1      16.087  -3.316   9.362  1.00  0.00     0.217 HD
ENDBRANCH  13  28
BRANCH  10  30
HETATM   30  C10 UNL     1      17.715  -9.070   8.438  1.00  0.00     0.275 C 
HETATM   31  O2  UNL     1      18.180  -9.649   9.417  1.00  0.00    -0.301 OA
ENDBRANCH  10  30
BRANCH  12  32
HETATM   32  C13 UNL     1      18.040  -4.370  10.059  1.00  0.00     0.275 C 
HETATM   33  O4  UNL     1      18.263  -4.449  11.266  1.00  0.00    -0.301 OA
ENDBRANCH  12  32
BRANCH  11  34
HETATM   34  O3  UNL     1      19.065  -6.943   9.839  1.00  0.00    -0.359 OA
HETATM   35  H13 UNL     1      19.321  -7.882   9.672  1.00  0.00     0.217 HD
ENDBRANCH  11  34
TORSDOF 6
ENDMDL
MODEL 4
REMARK minimizedAffinity -6.6405201
REMARK  6 active torsions:
REMARK  status: ('A' for Active; 'I' for Inactive)
REMARK    1  A    between atoms: C9_10  and  C10_11 
REMARK    2  A    between atoms: C11_13  and  O3_14 
REMARK    3  A    between atoms: C12_15  and  C13_16 
REMARK    4  A    between atoms: C14_18  and  O5_19 
REMARK    5  A    between atoms: C16_21  and  C17_22 
REMARK    6  A    between atoms: C17_22  and  C18_23 
ROOT
HETATM    1  C1  UNL     1       3.137  10.521  20.199  1.00  0.00     0.043 C 
HETATM    2  C2  UNL     1       2.242  11.440  19.388  1.00  0.00    -0.087 C 
HETATM    3  C3  UNL     1       2.639  11.772  18.143  1.00  0.00    -0.024 C 
HETATM    4  C4  UNL     1       2.030  12.683  17.126  1.00  0.00     0.030 C 
HETATM    5  C5  UNL     1       1.618  11.985  15.826  1.00  0.00     0.042 C 
HETATM    6  C6  UNL     1       0.474  10.927  15.857  1.00  0.00     0.069 C 
HETATM    7  C7  UNL     1       0.909   9.671  16.645  1.00  0.00     0.047 C 
HETATM    8  O1  UNL     1       0.444  10.477  14.454  1.00  0.00    -0.338 OA
HETATM    9  C8  UNL     1      -0.686   9.778  14.115  1.00  0.00     0.095 A 
HETATM   10  C9  UNL     1      -0.573   8.565  13.430  1.00  0.00     0.070 A 
HETATM   11  C11 UNL     1      -1.726   7.825  13.145  1.00  0.00     0.097 A 
HETATM   12  C12 UNL     1      -2.975   8.311  13.548  1.00  0.00     0.069 A 
HETATM   13  C14 UNL     1      -3.075   9.554  14.210  1.00  0.00     0.091 A 
HETATM   14  C15 UNL     1      -1.932  10.323  14.460  1.00  0.00     0.015 A 
HETATM   15  C16 UNL     1      -1.838  11.707  15.075  1.00  0.00     0.032 C 
HETATM   16  C21 UNL     1      -0.901  11.604  16.324  1.00  0.00     0.034 C 
HETATM   17  C22 UNL     1      -1.535  10.865  17.494  1.00  0.00     0.006 A 
HETATM   18  C23 UNL     1      -1.118  11.100  18.951  1.00  0.00    -0.001 A 
HETATM   19  C24 UNL     1      -0.313  12.252  19.501  1.00  0.00     0.010 C 
HETATM   20  C25 UNL     1       1.015  11.876  20.167  1.00  0.00     0.034 C 
HETATM   21  C26 UNL     1      -2.550  11.397  18.507  1.00  0.00    -0.039 A 
HETATM   22  C27 UNL     1      -3.624  10.433  18.961  1.00  0.00     0.015 C 
HETATM   23  C28 UNL     1      -3.026  12.831  18.523  1.00  0.00     0.015 C 
ENDROOT
BRANCH  15  24
HETATM   24  C17 UNL     1      -3.117  12.532  15.298  1.00  0.00     0.014 C 
BRANCH  24  25
HETATM   25  C18 UNL     1      -3.002  14.039  14.957  1.00  0.00    -0.022 C 
HETATM   26  C19 UNL     1      -4.310  14.613  14.404  1.00  0.00     0.009 C 
HETATM   27  C20 UNL     1      -1.884  14.246  13.931  1.00  0.00     0.009 C 
ENDBRANCH  24  25
ENDBRANCH  15  24
BRANCH  13  28
HETATM   28  O5  UNL     1      -4.287  10.018  14.644  1.00  0.00    -0.359 OA
HETATM   29  H15 UNL     1      -4.992   9.387  14.370  1.00  0.00     0.217 HD
ENDBRANCH  13  28
BRANCH  10  30
HETATM   30  C10 UNL     1       0.762   8.070  13.042  1.00  0.00     0.275 C 
HETATM   31  O2  UNL     1       1.157   6.980  13.449  1.00  0.00    -0.301 OA
ENDBRANCH  10  30
BRANCH  12  32
HETATM   32  C13 UNL     1      -4.182   7.503  13.274  1.00  0.00     0.275 C 
HETATM   33  O4  UNL     1      -5.249   8.047  12.996  1.00  0.00    -0.301 OA
ENDBRANCH  12  32
BRANCH  11  34
HETATM   34  O3  UNL     1      -1.667   6.619  12.492  1.00  0.00    -0.359 OA
HETATM   35  H13 UNL     1      -0.722   6.414  12.290  1.00  0.00     0.217 HD
ENDBRANCH  11  34
TORSDOF 6
ENDMDL
MODEL 5
REMARK minimizedAffinity -6.63028812
REMARK  6 active torsions:
REMARK  status: ('A' for Active; 'I' for Inactive)
REMARK    1  A    between atoms: C9_10  and  C10_11 
REMARK    2  A    between atoms: C11_13  and  O3_14 
REMARK    3  A    between atoms: C12_15  and  C13_16 
REMARK    4  A    between atoms: C14_18  and  O5_19 
REMARK    5  A    between atoms: C16_21  and  C17_22 
REMARK    6  A    between atoms: C17_22  and  C18_23 
ROOT
HETATM    1  C1  UNL     1       9.599  12.486  21.965  1.00  0.00     0.043 C 
HETATM    2  C2  UNL     1       8.185  13.038  21.945  1.00  0.00    -0.087 C 
HETATM    3  C3  UNL     1       7.862  13.914  20.973  1.00  0.00    -0.024 C 
HETATM    4  C4  UNL     1       6.599  14.671  20.710  1.00  0.00     0.030 C 
HETATM    5  C5  UNL     1       5.935  14.336  19.370  1.00  0.00     0.042 C 
HETATM    6  C6  UNL     1       5.362  12.907  19.139  1.00  0.00     0.069 C 
HETATM    7  C7  UNL     1       6.500  11.861  19.079  1.00  0.00     0.047 C 
HETATM    8  O1  UNL     1       4.886  12.996  17.747  1.00  0.00    -0.338 OA
HETATM    9  C8  UNL     1       4.040  11.980  17.379  1.00  0.00     0.095 A 
HETATM   10  C9  UNL     1       4.257  11.297  16.180  1.00  0.00     0.070 A 
HETATM   11  C11 UNL     1       3.430  10.219  15.842  1.00  0.00     0.097 A 
HETATM   12  C12 UNL     1       2.397   9.845  16.708  1.00  0.00     0.069 A 
HETATM   13  C14 UNL     1       2.170  10.568  17.899  1.00  0.00     0.091 A 
HETATM   14  C15 UNL     1       2.964  11.674  18.224  1.00  0.00     0.015 A 
HETATM   15  C16 UNL     1       2.830  12.623  19.401  1.00  0.00     0.032 C 
HETATM   16  C21 UNL     1       4.186  12.599  20.182  1.00  0.00     0.034 C 
HETATM   17  C22 UNL     1       4.419  11.303  20.944  1.00  0.00     0.006 A 
HETATM   18  C23 UNL     1       5.316  11.218  22.186  1.00  0.00    -0.001 A 
HETATM   19  C24 UNL     1       5.825  12.361  23.030  1.00  0.00     0.010 C 
HETATM   20  C25 UNL     1       7.350  12.510  23.097  1.00  0.00     0.034 C 
HETATM   21  C26 UNL     1       3.829  10.882  22.291  1.00  0.00    -0.039 A 
HETATM   22  C27 UNL     1       3.464   9.420  22.444  1.00  0.00     0.015 C 
HETATM   23  C28 UNL     1       2.943  11.780  23.122  1.00  0.00     0.015 C 
ENDROOT
BRANCH  15  24
HETATM   24  C17 UNL     1       1.576  12.563  20.291  1.00  0.00     0.014 C 
BRANCH  24  25
HETATM   25  C18 UNL     1       0.517  13.661  20.019  1.00  0.00    -0.022 C 
HETATM   26  C19 UNL     1      -0.694  13.125  19.248  1.00  0.00     0.009 C 
HETATM   27  C20 UNL     1       1.159  14.802  19.223  1.00  0.00     0.009 C 
ENDBRANCH  24  25
ENDBRANCH  15  24
BRANCH  13  28
HETATM   28  O5  UNL     1       1.188  10.184  18.772  1.00  0.00    -0.359 OA
HETATM   29  H15 UNL     1       0.701   9.416  18.394  1.00  0.00     0.217 HD
ENDBRANCH  13  28
BRANCH  10  30
HETATM   30  C10 UNL     1       5.372  11.702  15.303  1.00  0.00     0.275 C 
HETATM   31  O2  UNL     1       6.350  10.969  15.169  1.00  0.00    -0.301 OA
ENDBRANCH  10  30
BRANCH  12  32
HETATM   32  C13 UNL     1       1.553   8.683  16.358  1.00  0.00     0.275 C 
HETATM   33  O4  UNL     1       1.850   7.555  16.747  1.00  0.00    -0.301 OA
ENDBRANCH  12  32
BRANCH  11  34
HETATM   34  O3  UNL     1       3.614   9.504  14.685  1.00  0.00    -0.359 OA
HETATM   35  H13 UNL     1       4.385   9.882  14.197  1.00  0.00     0.217 HD
ENDBRANCH  11  34
TORSDOF 6
ENDMDL
MODEL 6
REMARK minimizedAffinity -6.50096416
REMARK  6 active torsions:
REMARK  status: ('A' for Active; 'I' for Inactive)
REMARK    1  A    between atoms: C9_10  and  C10_11 
REMARK    2  A    between atoms: C11_13  and  O3_14 
REMARK    3  A    between atoms: C12_15  and  C13_16 
REMARK    4  A    between atoms: C14_18  and  O5_19 
REMARK    5  A    between atoms: C16_21  and  C17_22 
REMARK    6  A    between atoms: C17_22  and  C18_23 
ROOT
HETATM    1  C1  UNL     1     -16.663  -5.779   6.918  1.00  0.00     0.043 C 
HETATM    2  C2  UNL     1     -15.407  -5.615   7.754  1.00  0.00    -0.087 C 
HETATM    3  C3  UNL     1     -14.849  -4.391   7.823  1.00  0.00    -0.024 C 
HETATM    4  C4  UNL     1     -13.604  -3.912   8.499  1.00  0.00     0.030 C 
HETATM    5  C5  UNL     1     -13.846  -2.863   9.589  1.00  0.00     0.042 C 
HETATM    6  C6  UNL     1     -14.629  -3.266  10.874  1.00  0.00     0.069 C 
HETATM    7  C7  UNL     1     -16.107  -3.574  10.544  1.00  0.00     0.047 C 
HETATM    8  O1  UNL     1     -14.685  -1.987  11.604  1.00  0.00    -0.338 OA
HETATM    9  C8  UNL     1     -15.036  -2.111  12.925  1.00  0.00     0.095 A 
HETATM   10  C9  UNL     1     -16.027  -1.284  13.460  1.00  0.00     0.070 A 
HETATM   11  C11 UNL     1     -16.426  -1.460  14.790  1.00  0.00     0.097 A 
HETATM   12  C12 UNL     1     -15.826  -2.459  15.564  1.00  0.00     0.069 A 
HETATM   13  C14 UNL     1     -14.802  -3.264  15.017  1.00  0.00     0.091 A 
HETATM   14  C15 UNL     1     -14.365  -3.066  13.702  1.00  0.00     0.015 A 
HETATM   15  C16 UNL     1     -13.235  -3.761  12.966  1.00  0.00     0.032 C 
HETATM   16  C21 UNL     1     -13.840  -4.407  11.676  1.00  0.00     0.034 C 
HETATM   17  C22 UNL     1     -14.718  -5.617  11.963  1.00  0.00     0.006 A 
HETATM   18  C23 UNL     1     -14.955  -6.734  10.940  1.00  0.00    -0.001 A 
HETATM   19  C24 UNL     1     -14.167  -7.010   9.682  1.00  0.00     0.010 C 
HETATM   20  C25 UNL     1     -14.956  -6.926   8.371  1.00  0.00     0.034 C 
HETATM   21  C26 UNL     1     -14.277  -7.049  12.273  1.00  0.00    -0.039 A 
HETATM   22  C27 UNL     1     -15.096  -7.803  13.298  1.00  0.00     0.015 C 
HETATM   23  C28 UNL     1     -12.833  -7.490  12.259  1.00  0.00     0.015 C 
ENDROOT
BRANCH  15  24
HETATM   24  C17 UNL     1     -12.261  -4.665  13.741  1.00  0.00     0.014 C 
BRANCH  24  25
HETATM   25  C18 UNL     1     -12.860  -6.000  14.253  1.00  0.00    -0.022 C 
HETATM   26  C19 UNL     1     -13.474  -5.865  15.650  1.00  0.00     0.009 C 
HETATM   27  C20 UNL     1     -11.767  -7.072  14.282  1.00  0.00     0.009 C 
ENDBRANCH  24  25
ENDBRANCH  15  24
BRANCH  13  28
HETATM   28  O5  UNL     1     -14.238  -4.270  15.754  1.00  0.00    -0.359 OA
HETATM   29  H15 UNL     1     -14.625  -4.265  16.660  1.00  0.00     0.217 HD
ENDBRANCH  13  28
BRANCH  10  30
HETATM   30  C10 UNL     1     -16.657  -0.258  12.608  1.00  0.00     0.275 C 
HETATM   31  O2  UNL     1     -16.161   0.864  12.524  1.00  0.00    -0.301 OA
ENDBRANCH  10  30
BRANCH  12  32
HETATM   32  C13 UNL     1     -16.282  -2.660  16.956  1.00  0.00     0.275 C 
HETATM   33  O4  UNL     1     -16.072  -3.724  17.535  1.00  0.00    -0.301 OA
ENDBRANCH  12  32
BRANCH  11  34
HETATM   34  O3  UNL     1     -17.409  -0.687  15.357  1.00  0.00    -0.359 OA
HETATM   35  H13 UNL     1     -17.736  -0.045  14.681  1.00  0.00     0.217 HD
ENDBRANCH  11  34
TORSDOF 6
ENDMDL
MODEL 7
REMARK minimizedAffinity -6.4662447
REMARK  6 active torsions:
REMARK  status: ('A' for Active; 'I' for Inactive)
REMARK    1  A    between atoms: C9_10  and  C10_11 
REMARK    2  A    between atoms: C11_13  and  O3_14 
REMARK    3  A    between atoms: C12_15  and  C13_16 
REMARK    4  A    between atoms: C14_18  and  O5_19 
REMARK    5  A    between atoms: C16_21  and  C17_22 
REMARK    6  A    between atoms: C17_22  and  C18_23 
ROOT
HETATM    1  C1  UNL     1      -4.183  13.306  15.370  1.00  0.00     0.043 C 
HETATM    2  C2  UNL     1      -3.173  12.193  15.577  1.00  0.00    -0.087 C 
HETATM    3  C3  UNL     1      -3.409  11.300  16.559  1.00  0.00    -0.024 C 
HETATM    4  C4  UNL     1      -2.602  10.142  17.052  1.00  0.00     0.030 C 
HETATM    5  C5  UNL     1      -3.294   8.784  16.898  1.00  0.00     0.042 C 
HETATM    6  C6  UNL     1      -3.583   8.233  15.470  1.00  0.00     0.069 C 
HETATM    7  C7  UNL     1      -4.645   9.096  14.751  1.00  0.00     0.047 C 
HETATM    8  O1  UNL     1      -4.289   6.975  15.771  1.00  0.00    -0.338 OA
HETATM    9  C8  UNL     1      -4.380   6.116  14.705  1.00  0.00     0.095 A 
HETATM   10  C9  UNL     1      -5.610   5.534  14.386  1.00  0.00     0.070 A 
HETATM   11  C11 UNL     1      -5.710   4.710  13.258  1.00  0.00     0.097 A 
HETATM   12  C12 UNL     1      -4.578   4.479  12.470  1.00  0.00     0.069 A 
HETATM   13  C14 UNL     1      -3.335   5.048  12.826  1.00  0.00     0.091 A 
HETATM   14  C15 UNL     1      -3.215   5.837  13.976  1.00  0.00     0.015 A 
HETATM   15  C16 UNL     1      -1.966   6.462  14.569  1.00  0.00     0.032 C 
HETATM   16  C21 UNL     1      -2.213   8.003  14.671  1.00  0.00     0.034 C 
HETATM   17  C22 UNL     1      -2.212   8.704  13.320  1.00  0.00     0.006 A 
HETATM   18  C23 UNL     1      -1.866  10.189  13.153  1.00  0.00    -0.001 A 
HETATM   19  C24 UNL     1      -1.183  11.090  14.153  1.00  0.00     0.010 C 
HETATM   20  C25 UNL     1      -1.999  12.300  14.622  1.00  0.00     0.034 C 
HETATM   21  C26 UNL     1      -1.008   9.122  12.475  1.00  0.00    -0.039 A 
HETATM   22  C27 UNL     1      -1.149   8.978  10.975  1.00  0.00     0.015 C 
HETATM   23  C28 UNL     1       0.422   8.949  12.932  1.00  0.00     0.015 C 
ENDROOT
BRANCH  15  24
HETATM   24  C17 UNL     1      -0.582   6.068  14.023  1.00  0.00     0.014 C 
BRANCH  24  25
HETATM   25  C18 UNL     1       0.592   6.214  15.023  1.00  0.00    -0.022 C 
HETATM   26  C19 UNL     1       0.325   7.289  16.081  1.00  0.00     0.009 C 
HETATM   27  C20 UNL     1       1.873   6.563  14.259  1.00  0.00     0.009 C 
ENDBRANCH  24  25
ENDBRANCH  15  24
BRANCH  13  28
HETATM   28  O5  UNL     1      -2.231   4.861  12.038  1.00  0.00    -0.359 OA
HETATM   29  H15 UNL     1      -2.465   4.265  11.289  1.00  0.00     0.217 HD
ENDBRANCH  13  28
BRANCH  10  30
HETATM   30  C10 UNL     1      -6.790   5.820  15.225  1.00  0.00     0.275 C 
HETATM   31  O2  UNL     1      -6.747   5.621  16.437  1.00  0.00    -0.301 OA
ENDBRANCH  10  30
BRANCH  12  32
HETATM   32  C13 UNL     1      -4.704   3.637  11.261  1.00  0.00     0.275 C 
HETATM   33  O4  UNL     1      -5.351   2.592  11.292  1.00  0.00    -0.301 OA
ENDBRANCH  12  32
BRANCH  11  34
HETATM   34  O3  UNL     1      -6.899   4.131  12.892  1.00  0.00    -0.359 OA
HETATM   35  H13 UNL     1      -7.596   4.401  13.537  1.00  0.00     0.217 HD
ENDBRANCH  11  34
TORSDOF 6
ENDMDL
MODEL 8
REMARK minimizedAffinity -6.38470078
REMARK  6 active torsions:
REMARK  status: ('A' for Active; 'I' for Inactive)
REMARK    1  A    between atoms: C9_10  and  C10_11 
REMARK    2  A    between atoms: C11_13  and  O3_14 
REMARK    3  A    between atoms: C12_15  and  C13_16 
REMARK    4  A    between atoms: C14_18  and  O5_19 
REMARK    5  A    between atoms: C16_21  and  C17_22 
REMARK    6  A    between atoms: C17_22  and  C18_23 
ROOT
HETATM    1  C1  UNL     1      -4.713   7.483  13.227  1.00  0.00     0.043 C 
HETATM    2  C2  UNL     1      -3.517   7.281  14.139  1.00  0.00    -0.087 C 
HETATM    3  C3  UNL     1      -2.841   6.119  14.047  1.00  0.00    -0.024 C 
HETATM    4  C4  UNL     1      -1.677   5.592  14.825  1.00  0.00     0.030 C 
HETATM    5  C5  UNL     1      -0.424   5.334  13.981  1.00  0.00     0.042 C 
HETATM    6  C6  UNL     1       0.308   6.537  13.316  1.00  0.00     0.069 C 
HETATM    7  C7  UNL     1      -0.567   7.170  12.210  1.00  0.00     0.047 C 
HETATM    8  O1  UNL     1       1.386   5.859  12.574  1.00  0.00    -0.338 OA
HETATM    9  C8  UNL     1       2.387   6.697  12.152  1.00  0.00     0.095 A 
HETATM   10  C9  UNL     1       2.833   6.633  10.829  1.00  0.00     0.070 A 
HETATM   11  C11 UNL     1       3.809   7.535  10.388  1.00  0.00     0.097 A 
HETATM   12  C12 UNL     1       4.325   8.483  11.278  1.00  0.00     0.069 A 
HETATM   13  C14 UNL     1       3.888   8.511  12.620  1.00  0.00     0.091 A 
HETATM   14  C15 UNL     1       2.945   7.586  13.083  1.00  0.00     0.015 A 
HETATM   15  C16 UNL     1       2.415   7.398  14.492  1.00  0.00     0.032 C 
HETATM   16  C21 UNL     1       0.858   7.545  14.433  1.00  0.00     0.034 C 
HETATM   17  C22 UNL     1       0.397   8.976  14.192  1.00  0.00     0.006 A 
HETATM   18  C23 UNL     1      -0.976   9.493  14.639  1.00  0.00    -0.001 A 
HETATM   19  C24 UNL     1      -1.924   8.851  15.623  1.00  0.00     0.010 C 
HETATM   20  C25 UNL     1      -3.298   8.463  15.065  1.00  0.00     0.034 C 
HETATM   21  C26 UNL     1       0.299  10.118  15.204  1.00  0.00    -0.039 A 
HETATM   22  C27 UNL     1       0.667  11.499  14.706  1.00  0.00     0.015 C 
HETATM   23  C28 UNL     1       0.595   9.945  16.675  1.00  0.00     0.015 C 
ENDROOT
BRANCH  15  24
HETATM   24  C17 UNL     1       3.086   8.136  15.664  1.00  0.00     0.014 C 
BRANCH  24  25
HETATM   25  C18 UNL     1       4.405   8.870  15.317  1.00  0.00    -0.022 C 
HETATM   26  C19 UNL     1       5.641   8.008  15.591  1.00  0.00     0.009 C 
HETATM   27  C20 UNL     1       4.499  10.164  16.133  1.00  0.00     0.009 C 
ENDBRANCH  24  25
ENDBRANCH  15  24
BRANCH  13  28
HETATM   28  O5  UNL     1       4.356   9.461  13.487  1.00  0.00    -0.359 OA
HETATM   29  H15 UNL     1       5.028  10.016  13.027  1.00  0.00     0.217 HD
ENDBRANCH  13  28
BRANCH  10  30
HETATM   30  C10 UNL     1       2.248   5.637   9.911  1.00  0.00     0.275 C 
HETATM   31  O2  UNL     1       1.900   5.971   8.781  1.00  0.00    -0.301 OA
ENDBRANCH  10  30
BRANCH  12  32
HETATM   32  C13 UNL     1       5.328   9.453  10.790  1.00  0.00     0.275 C 
HETATM   33  O4  UNL     1       5.285   9.869   9.633  1.00  0.00    -0.301 OA
ENDBRANCH  12  32
BRANCH  11  34
HETATM   34  O3  UNL     1       4.266   7.526   9.094  1.00  0.00    -0.359 OA
HETATM   35  H13 UNL     1       3.797   6.814   8.596  1.00  0.00     0.217 HD
ENDBRANCH  11  34
TORSDOF 6
ENDMDL
MODEL 9
REMARK minimizedAffinity -6.36111403
REMARK  6 active torsions:
REMARK  status: ('A' for Active; 'I' for Inactive)
REMARK    1  A    between atoms: C9_10  and  C10_11 
REMARK    2  A    between atoms: C11_13  and  O3_14 
REMARK    3  A    between atoms: C12_15  and  C13_16 
REMARK    4  A    between atoms: C14_18  and  O5_19 
REMARK    5  A    between atoms: C16_21  and  C17_22 
REMARK    6  A    between atoms: C17_22  and  C18_23 
ROOT
HETATM    1  C1  UNL     1      17.106  -4.085  10.032  1.00  0.00     0.043 C 
HETATM    2  C2  UNL     1      16.188  -5.152   9.463  1.00  0.00    -0.087 C 
HETATM    3  C3  UNL     1      14.899  -4.825   9.244  1.00  0.00    -0.024 C 
HETATM    4  C4  UNL     1      13.745  -5.642   8.756  1.00  0.00     0.030 C 
HETATM    5  C5  UNL     1      13.144  -5.152   7.435  1.00  0.00     0.042 C 
HETATM    6  C6  UNL     1      14.001  -5.220   6.136  1.00  0.00     0.069 C 
HETATM    7  C7  UNL     1      15.189  -4.234   6.208  1.00  0.00     0.047 C 
HETATM    8  O1  UNL     1      13.093  -4.614   5.146  1.00  0.00    -0.338 OA
HETATM    9  C8  UNL     1      13.458  -4.836   3.842  1.00  0.00     0.095 A 
HETATM   10  C9  UNL     1      13.496  -3.769   2.941  1.00  0.00     0.070 A 
HETATM   11  C11 UNL     1      13.933  -3.990   1.629  1.00  0.00     0.097 A 
HETATM   12  C12 UNL     1      14.321  -5.276   1.240  1.00  0.00     0.069 A 
HETATM   13  C14 UNL     1      14.244  -6.350   2.153  1.00  0.00     0.091 A 
HETATM   14  C15 UNL     1      13.767  -6.148   3.454  1.00  0.00     0.015 A 
HETATM   15  C16 UNL     1      13.532  -7.174   4.546  1.00  0.00     0.032 C 
HETATM   16  C21 UNL     1      14.375  -6.739   5.791  1.00  0.00     0.034 C 
HETATM   17  C22 UNL     1      15.873  -6.932   5.600  1.00  0.00     0.006 A 
HETATM   18  C23 UNL     1      16.841  -7.136   6.772  1.00  0.00    -0.001 A 
HETATM   19  C24 UNL     1      16.495  -7.498   8.197  1.00  0.00     0.010 C 
HETATM   20  C25 UNL     1      16.905  -6.474   9.261  1.00  0.00     0.034 C 
HETATM   21  C26 UNL     1      16.679  -8.227   5.715  1.00  0.00    -0.039 A 
HETATM   22  C27 UNL     1      17.817  -8.407   4.734  1.00  0.00     0.015 C 
HETATM   23  C28 UNL     1      16.068  -9.546   6.129  1.00  0.00     0.015 C 
ENDROOT
BRANCH  15  24
HETATM   24  C17 UNL     1      13.605  -8.674   4.213  1.00  0.00     0.014 C 
BRANCH  24  25
HETATM   25  C18 UNL     1      12.432  -9.531   4.752  1.00  0.00    -0.022 C 
HETATM   26  C19 UNL     1      12.855 -10.971   5.060  1.00  0.00     0.009 C 
HETATM   27  C20 UNL     1      11.297  -9.547   3.722  1.00  0.00     0.009 C 
ENDBRANCH  24  25
ENDBRANCH  15  24
BRANCH  13  28
HETATM   28  O5  UNL     1      14.661  -7.604   1.794  1.00  0.00    -0.359 OA
HETATM   29  H15 UNL     1      14.939  -7.594   0.848  1.00  0.00     0.217 HD
ENDBRANCH  13  28
BRANCH  10  30
HETATM   30  C10 UNL     1      13.104  -2.420   3.393  1.00  0.00     0.275 C 
HETATM   31  O2  UNL     1      11.967  -2.218   3.815  1.00  0.00    -0.301 OA
ENDBRANCH  10  30
BRANCH  12  32
HETATM   32  C13 UNL     1      14.815  -5.491  -0.137  1.00  0.00     0.275 C 
HETATM   33  O4  UNL     1      14.054  -5.388  -1.098  1.00  0.00    -0.301 OA
ENDBRANCH  12  32
BRANCH  11  34
HETATM   34  O3  UNL     1      14.007  -2.972   0.712  1.00  0.00    -0.359 OA
HETATM   35  H13 UNL     1      13.714  -2.134   1.144  1.00  0.00     0.217 HD
ENDBRANCH  11  34
TORSDOF 6
ENDMDL
