MODEL 1
REMARK minimizedAffinity -7.49624538
REMARK CNNscore 0.78207761
REMARK CNNaffinity 7.14046812
REMARK  7 active torsions:
REMARK  status: ('A' for Active; 'I' for Inactive)
REMARK    1  A    between atoms: C2_2  and  C4_4 
REMARK    2  A    between atoms: C7_7  and  C8_8 
REMARK    3  A    between atoms: C8_8  and  O2_10 
REMARK    4  A    between atoms: C15_17  and  O3_18 
REMARK    5  A    between atoms: C21_24  and  O4_25 
REMARK    6  A    between atoms: C22_26  and  C24_28 
REMARK    7  A    between atoms: C24_28  and  O5_29 
ROOT
HETATM    1  C4  UNL     1      -2.515  52.267 -12.370  1.00  0.00     0.019 C 
HETATM    2  C5  UNL     1      -3.189  51.190 -13.264  1.00  0.00     0.011 C 
HETATM    3  C6  UNL     1      -2.194  50.023 -13.378  1.00  0.00     0.021 C 
HETATM    4  C7  UNL     1      -0.836  50.665 -13.080  1.00  0.00     0.050 C 
HETATM    5  C9  UNL     1       0.262  49.702 -12.620  1.00  0.00     0.022 C 
HETATM    6  C10 UNL     1       1.498  50.500 -12.163  1.00  0.00     0.011 C 
HETATM    7  C11 UNL     1       1.235  51.563 -11.027  1.00  0.00    -0.032 C 
HETATM    8  C12 UNL     1       0.928  50.705  -9.756  1.00  0.00     0.016 C 
HETATM    9  C13 UNL     1      -0.017  52.435 -11.402  1.00  0.00     0.003 C 
HETATM   10  C14 UNL     1      -0.414  53.342 -10.231  1.00  0.00     0.038 C 
HETATM   11  C15 UNL     1       0.756  54.073  -9.563  1.00  0.00     0.124 C 
HETATM   12  C16 UNL     1       2.076  54.058 -10.373  1.00  0.00     0.032 C 
HETATM   13  C17 UNL     1       3.246  54.994  -9.740  1.00  0.00    -0.033 C 
HETATM   14  C18 UNL     1       4.101  55.556 -10.918  1.00  0.00     0.016 C 
HETATM   15  C19 UNL     1       2.647  56.245  -9.021  1.00  0.00     0.012 C 
HETATM   16  C20 UNL     1       3.664  57.093  -8.253  1.00  0.00     0.033 C 
HETATM   17  C21 UNL     1       4.463  56.269  -7.247  1.00  0.00     0.128 C 
HETATM   18  C22 UNL     1       5.163  55.016  -7.860  1.00  0.00     0.007 C 
HETATM   19  C23 UNL     1       6.377  55.471  -8.698  1.00  0.00     0.020 C 
HETATM   20  C25 UNL     1       4.103  54.183  -8.696  1.00  0.00     0.007 C 
HETATM   21  C26 UNL     1       4.647  52.888  -9.323  1.00  0.00     0.007 C 
HETATM   22  C27 UNL     1       3.500  51.976  -9.750  1.00  0.00     0.011 C 
HETATM   23  C28 UNL     1       2.522  52.573 -10.794  1.00  0.00    -0.030 C 
HETATM   24  C29 UNL     1       3.313  52.691 -12.133  1.00  0.00     0.016 C 
HETATM   25  C30 UNL     1      -1.212  51.576 -11.891  1.00  0.00     0.017 C 
ENDROOT
BRANCH   4  26
HETATM   26  C8  UNL     1      -0.382  51.396 -14.353  1.00  0.00     0.149 C 
HETATM   27  O1  UNL     1      -0.467  51.010 -15.506  1.00  0.00    -0.649 OA
BRANCH  26  28
HETATM   28  O2  UNL     1       0.185  52.594 -14.096  1.00  0.00    -0.776 OA
HETATM   29  H11 UNL     1       0.425  52.937 -14.982  1.00  0.00     0.167 HD
ENDBRANCH  26  28
ENDBRANCH   4  26
BRANCH   1  30
HETATM   30  C2  UNL     1      -3.501  52.792 -11.339  1.00  0.00    -0.088 C 
HETATM   31  C1  UNL     1      -3.755  54.094 -11.116  1.00  0.00     0.014 C 
HETATM   32  C3  UNL     1      -4.189  51.731 -10.520  1.00  0.00     0.043 C 
ENDBRANCH   1  30
BRANCH  11  33
HETATM   33  O3  UNL     1       0.968  53.589  -8.240  1.00  0.00    -0.395 OA
HETATM   34  H23 UNL     1       0.112  53.612  -7.778  1.00  0.00     0.210 HD
ENDBRANCH  11  33
BRANCH  18  35
HETATM   35  C24 UNL     1       5.702  54.173  -6.656  1.00  0.00     0.176 C 
BRANCH  35  36
HETATM   36  O5  UNL     1       7.061  53.774  -6.801  1.00  0.00    -0.400 OA
HETATM   37  H39 UNL     1       7.617  54.542  -6.587  1.00  0.00     0.209 HD
ENDBRANCH  35  36
ENDBRANCH  18  35
BRANCH  17  38
HETATM   38  O4  UNL     1       3.593  55.903  -6.170  1.00  0.00    -0.395 OA
HETATM   39  H33 UNL     1       2.901  55.309  -6.513  1.00  0.00     0.210 HD
ENDBRANCH  17  38
TORSDOF 7
ENDMDL
MODEL 2
REMARK minimizedAffinity -6.69737244
REMARK CNNscore 0.551083624
REMARK CNNaffinity 6.19726562
REMARK  7 active torsions:
REMARK  status: ('A' for Active; 'I' for Inactive)
REMARK    1  A    between atoms: C2_2  and  C4_4 
REMARK    2  A    between atoms: C7_7  and  C8_8 
REMARK    3  A    between atoms: C8_8  and  O2_10 
REMARK    4  A    between atoms: C15_17  and  O3_18 
REMARK    5  A    between atoms: C21_24  and  O4_25 
REMARK    6  A    between atoms: C22_26  and  C24_28 
REMARK    7  A    between atoms: C24_28  and  O5_29 
ROOT
HETATM    1  C4  UNL     1     -11.773  47.168 -25.597  1.00  0.00     0.019 C 
HETATM    2  C5  UNL     1     -11.946  47.088 -27.138  1.00  0.00     0.011 C 
HETATM    3  C6  UNL     1     -10.555  46.792 -27.725  1.00  0.00     0.021 C 
HETATM    4  C7  UNL     1      -9.587  47.280 -26.643  1.00  0.00     0.050 C 
HETATM    5  C9  UNL     1      -8.181  46.675 -26.694  1.00  0.00     0.022 C 
HETATM    6  C10 UNL     1      -7.388  47.091 -25.442  1.00  0.00     0.011 C 
HETATM    7  C11 UNL     1      -8.057  46.723 -24.063  1.00  0.00    -0.032 C 
HETATM    8  C12 UNL     1      -7.963  45.163 -23.988  1.00  0.00     0.016 C 
HETATM    9  C13 UNL     1      -9.564  47.169 -24.072  1.00  0.00     0.003 C 
HETATM   10  C14 UNL     1     -10.290  46.650 -22.826  1.00  0.00     0.038 C 
HETATM   11  C15 UNL     1      -9.525  46.846 -21.511  1.00  0.00     0.124 C 
HETATM   12  C16 UNL     1      -8.329  47.827 -21.599  1.00  0.00     0.032 C 
HETATM   13  C17 UNL     1      -7.651  48.166 -20.160  1.00  0.00    -0.033 C 
HETATM   14  C18 UNL     1      -7.123  49.633 -20.212  1.00  0.00     0.016 C 
HETATM   15  C19 UNL     1      -8.710  48.139 -19.012  1.00  0.00     0.012 C 
HETATM   16  C20 UNL     1      -8.132  48.281 -17.601  1.00  0.00     0.033 C 
HETATM   17  C21 UNL     1      -7.049  47.245 -17.312  1.00  0.00     0.128 C 
HETATM   18  C22 UNL     1      -5.897  47.214 -18.363  1.00  0.00     0.007 C 
HETATM   19  C23 UNL     1      -4.995  48.451 -18.165  1.00  0.00     0.020 C 
HETATM   20  C25 UNL     1      -6.521  47.121 -19.819  1.00  0.00     0.007 C 
HETATM   21  C26 UNL     1      -5.492  47.036 -20.959  1.00  0.00     0.007 C 
HETATM   22  C27 UNL     1      -6.158  46.556 -22.246  1.00  0.00     0.011 C 
HETATM   23  C28 UNL     1      -7.308  47.448 -22.780  1.00  0.00    -0.030 C 
HETATM   24  C29 UNL     1      -6.655  48.776 -23.270  1.00  0.00     0.016 C 
HETATM   25  C30 UNL     1     -10.296  46.754 -25.376  1.00  0.00     0.017 C 
ENDROOT
BRANCH   4  26
HETATM   26  C8  UNL     1      -9.495  48.809 -26.761  1.00  0.00     0.149 C 
HETATM   27  O1  UNL     1      -9.799  49.643 -25.925  1.00  0.00    -0.649 OA
BRANCH  26  28
HETATM   28  O2  UNL     1      -9.033  49.215 -27.963  1.00  0.00    -0.776 OA
HETATM   29  H11 UNL     1      -9.032  50.193 -27.898  1.00  0.00     0.167 HD
ENDBRANCH  26  28
ENDBRANCH   4  26
BRANCH   1  30
HETATM   30  C2  UNL     1     -12.876  46.388 -24.899  1.00  0.00    -0.088 C 
HETATM   31  C1  UNL     1     -13.862  46.940 -24.170  1.00  0.00     0.014 C 
HETATM   32  C3  UNL     1     -12.788  44.891 -25.049  1.00  0.00     0.043 C 
ENDBRANCH   1  30
BRANCH  11  33
HETATM   33  O3  UNL     1      -9.115  45.594 -20.972  1.00  0.00    -0.395 OA
HETATM   34  H23 UNL     1      -9.896  45.015 -20.945  1.00  0.00     0.210 HD
ENDBRANCH  11  33
BRANCH  18  35
HETATM   35  C24 UNL     1      -5.041  45.941 -18.049  1.00  0.00     0.176 C 
BRANCH  35  36
HETATM   36  O5  UNL     1      -3.638  46.188 -18.024  1.00  0.00    -0.400 OA
HETATM   37  H39 UNL     1      -3.429  46.610 -17.174  1.00  0.00     0.209 HD
ENDBRANCH  35  36
ENDBRANCH  18  35
BRANCH  17  38
HETATM   38  O4  UNL     1      -7.674  45.962 -17.187  1.00  0.00    -0.395 OA
HETATM   39  H33 UNL     1      -8.058  45.715 -18.048  1.00  0.00     0.210 HD
ENDBRANCH  17  38
TORSDOF 7
ENDMDL
MODEL 3
REMARK minimizedAffinity -7.49962711
REMARK CNNscore 0.521859169
REMARK CNNaffinity 6.48870993
REMARK  7 active torsions:
REMARK  status: ('A' for Active; 'I' for Inactive)
REMARK    1  A    between atoms: C2_2  and  C4_4 
REMARK    2  A    between atoms: C7_7  and  C8_8 
REMARK    3  A    between atoms: C8_8  and  O2_10 
REMARK    4  A    between atoms: C15_17  and  O3_18 
REMARK    5  A    between atoms: C21_24  and  O4_25 
REMARK    6  A    between atoms: C22_26  and  C24_28 
REMARK    7  A    between atoms: C24_28  and  O5_29 
ROOT
HETATM    1  C4  UNL     1       4.157  55.119  -8.464  1.00  0.00     0.019 C 
HETATM    2  C5  UNL     1       5.639  54.982  -8.022  1.00  0.00     0.011 C 
HETATM    3  C6  UNL     1       6.126  53.613  -8.527  1.00  0.00     0.021 C 
HETATM    4  C7  UNL     1       4.838  52.803  -8.697  1.00  0.00     0.050 C 
HETATM    5  C9  UNL     1       4.933  51.605  -9.646  1.00  0.00     0.022 C 
HETATM    6  C10 UNL     1       3.531  51.013  -9.880  1.00  0.00     0.011 C 
HETATM    7  C11 UNL     1       2.452  52.023 -10.430  1.00  0.00    -0.032 C 
HETATM    8  C12 UNL     1       2.912  52.325 -11.894  1.00  0.00     0.016 C 
HETATM    9  C13 UNL     1       2.481  53.342  -9.576  1.00  0.00     0.003 C 
HETATM   10  C14 UNL     1       1.585  54.414 -10.206  1.00  0.00     0.038 C 
HETATM   11  C15 UNL     1       0.204  53.915 -10.649  1.00  0.00     0.124 C 
HETATM   12  C16 UNL     1      -0.192  52.527 -10.089  1.00  0.00     0.032 C 
HETATM   13  C17 UNL     1      -1.728  52.100 -10.415  1.00  0.00    -0.033 C 
HETATM   14  C18 UNL     1      -2.249  51.236  -9.225  1.00  0.00     0.016 C 
HETATM   15  C19 UNL     1      -2.664  53.350 -10.470  1.00  0.00     0.012 C 
HETATM   16  C20 UNL     1      -4.094  53.061 -10.936  1.00  0.00     0.033 C 
HETATM   17  C21 UNL     1      -4.130  52.344 -12.283  1.00  0.00     0.128 C 
HETATM   18  C22 UNL     1      -3.275  51.041 -12.337  1.00  0.00     0.007 C 
HETATM   19  C23 UNL     1      -3.992  49.928 -11.543  1.00  0.00     0.020 C 
HETATM   20  C25 UNL     1      -1.815  51.352 -11.799  1.00  0.00     0.007 C 
HETATM   21  C26 UNL     1      -0.843  50.161 -11.838  1.00  0.00     0.007 C 
HETATM   22  C27 UNL     1       0.599  50.640 -11.689  1.00  0.00     0.011 C 
HETATM   23  C28 UNL     1       0.920  51.405 -10.380  1.00  0.00    -0.030 C 
HETATM   24  C29 UNL     1       0.840  50.363  -9.222  1.00  0.00     0.016 C 
HETATM   25  C30 UNL     1       3.923  53.865  -9.343  1.00  0.00     0.017 C 
ENDROOT
BRANCH   4  26
HETATM   26  C8  UNL     1       4.408  52.322  -7.301  1.00  0.00     0.149 C 
HETATM   27  O1  UNL     1       3.317  52.446  -6.773  1.00  0.00    -0.649 OA
BRANCH  26  28
HETATM   28  O2  UNL     1       5.406  51.716  -6.625  1.00  0.00    -0.776 OA
HETATM   29  H11 UNL     1       4.997  51.471  -5.769  1.00  0.00     0.167 HD
ENDBRANCH  26  28
ENDBRANCH   4  26
BRANCH   1  30
HETATM   30  C2  UNL     1       3.906  56.498  -9.054  1.00  0.00    -0.088 C 
HETATM   31  C1  UNL     1       3.763  56.756 -10.366  1.00  0.00     0.014 C 
HETATM   32  C3  UNL     1       3.853  57.619  -8.048  1.00  0.00     0.043 C 
ENDBRANCH   1  30
BRANCH  11  33
HETATM   33  O3  UNL     1       0.088  53.940 -12.068  1.00  0.00    -0.395 OA
HETATM   34  H23 UNL     1       0.354  54.826 -12.370  1.00  0.00     0.210 HD
ENDBRANCH  11  33
BRANCH  18  35
HETATM   35  C24 UNL     1      -3.226  50.601 -13.839  1.00  0.00     0.176 C 
BRANCH  35  36
HETATM   36  O5  UNL     1      -3.547  51.648 -14.751  1.00  0.00    -0.400 OA
HETATM   37  H39 UNL     1      -2.764  52.218 -14.832  1.00  0.00     0.209 HD
ENDBRANCH  35  36
ENDBRANCH  18  35
BRANCH  17  38
HETATM   38  O4  UNL     1      -3.730  53.272 -13.298  1.00  0.00    -0.395 OA
HETATM   39  H33 UNL     1      -2.798  53.517 -13.150  1.00  0.00     0.210 HD
ENDBRANCH  17  38
TORSDOF 7
ENDMDL
MODEL 4
REMARK minimizedAffinity -7.26392269
REMARK CNNscore 0.495901078
REMARK CNNaffinity 6.13801527
REMARK  7 active torsions:
REMARK  status: ('A' for Active; 'I' for Inactive)
REMARK    1  A    between atoms: C2_2  and  C4_4 
REMARK    2  A    between atoms: C7_7  and  C8_8 
REMARK    3  A    between atoms: C8_8  and  O2_10 
REMARK    4  A    between atoms: C15_17  and  O3_18 
REMARK    5  A    between atoms: C21_24  and  O4_25 
REMARK    6  A    between atoms: C22_26  and  C24_28 
REMARK    7  A    between atoms: C24_28  and  O5_29 
ROOT
HETATM    1  C4  UNL     1     -12.984  43.766 -26.120  1.00  0.00     0.019 C 
HETATM    2  C5  UNL     1     -14.148  44.073 -25.138  1.00  0.00     0.011 C 
HETATM    3  C6  UNL     1     -14.514  45.554 -25.335  1.00  0.00     0.021 C 
HETATM    4  C7  UNL     1     -13.246  46.171 -25.933  1.00  0.00     0.050 C 
HETATM    5  C9  UNL     1     -13.448  47.480 -26.700  1.00  0.00     0.022 C 
HETATM    6  C10 UNL     1     -12.141  47.874 -27.414  1.00  0.00     0.011 C 
HETATM    7  C11 UNL     1     -11.552  46.788 -28.394  1.00  0.00    -0.032 C 
HETATM    8  C12 UNL     1     -12.562  46.752 -29.588  1.00  0.00     0.016 C 
HETATM    9  C13 UNL     1     -11.521  45.391 -27.675  1.00  0.00     0.003 C 
HETATM   10  C14 UNL     1     -11.138  44.283 -28.663  1.00  0.00     0.038 C 
HETATM   11  C15 UNL     1      -9.945  44.615 -29.568  1.00  0.00     0.124 C 
HETATM   12  C16 UNL     1      -9.114  45.842 -29.117  1.00  0.00     0.032 C 
HETATM   13  C17 UNL     1      -7.751  46.064 -29.977  1.00  0.00    -0.033 C 
HETATM   14  C18 UNL     1      -6.677  46.677 -29.026  1.00  0.00     0.016 C 
HETATM   15  C19 UNL     1      -7.157  44.702 -30.461  1.00  0.00     0.012 C 
HETATM   16  C20 UNL     1      -5.968  44.824 -31.418  1.00  0.00     0.033 C 
HETATM   17  C21 UNL     1      -6.288  45.693 -32.632  1.00  0.00     0.128 C 
HETATM   18  C22 UNL     1      -6.838  47.109 -32.276  1.00  0.00     0.007 C 
HETATM   19  C23 UNL     1      -5.681  47.986 -31.748  1.00  0.00     0.020 C 
HETATM   20  C25 UNL     1      -8.032  46.961 -31.242  1.00  0.00     0.007 C 
HETATM   21  C26 UNL     1      -8.704  48.284 -30.835  1.00  0.00     0.007 C 
HETATM   22  C27 UNL     1     -10.055  48.018 -30.178  1.00  0.00     0.011 C 
HETATM   23  C28 UNL     1     -10.018  47.150 -28.894  1.00  0.00    -0.030 C 
HETATM   24  C29 UNL     1      -9.325  48.009 -27.793  1.00  0.00     0.016 C 
HETATM   25  C30 UNL     1     -12.850  45.072 -26.943  1.00  0.00     0.017 C 
ENDROOT
BRANCH   4  26
HETATM   26  C8  UNL     1     -12.254  46.395 -24.781  1.00  0.00     0.149 C 
HETATM   27  O1  UNL     1     -12.412  47.073 -23.780  1.00  0.00    -0.649 OA
BRANCH  26  28
HETATM   28  O2  UNL     1     -11.081  45.753 -24.966  1.00  0.00    -0.776 OA
HETATM   29  H11 UNL     1     -10.556  45.985 -24.172  1.00  0.00     0.167 HD
ENDBRANCH  26  28
ENDBRANCH   4  26
BRANCH   1  30
HETATM   30  C2  UNL     1     -13.234  42.452 -26.843  1.00  0.00    -0.088 C 
HETATM   31  C1  UNL     1     -12.572  41.307 -26.602  1.00  0.00     0.014 C 
HETATM   32  C3  UNL     1     -14.290  42.509 -27.917  1.00  0.00     0.043 C 
ENDBRANCH   1  30
BRANCH  11  33
HETATM   33  O3  UNL     1     -10.361  44.755 -30.923  1.00  0.00    -0.395 OA
HETATM   34  H23 UNL     1     -10.883  43.968 -31.154  1.00  0.00     0.210 HD
ENDBRANCH  11  33
BRANCH  18  35
HETATM   35  C24 UNL     1      -7.344  47.741 -33.616  1.00  0.00     0.176 C 
BRANCH  35  36
HETATM   36  O5  UNL     1      -6.393  47.676 -34.673  1.00  0.00    -0.400 OA
HETATM   37  H39 UNL     1      -6.407  46.771 -35.027  1.00  0.00     0.209 HD
ENDBRANCH  35  36
ENDBRANCH  18  35
BRANCH  17  38
HETATM   38  O4  UNL     1      -7.200  44.977 -33.472  1.00  0.00    -0.395 OA
HETATM   39  H33 UNL     1      -8.042  44.863 -32.995  1.00  0.00     0.210 HD
ENDBRANCH  17  38
TORSDOF 7
ENDMDL
MODEL 5
REMARK minimizedAffinity -6.87179947
REMARK CNNscore 0.452600777
REMARK CNNaffinity 6.01674128
REMARK  7 active torsions:
REMARK  status: ('A' for Active; 'I' for Inactive)
REMARK    1  A    between atoms: C2_2  and  C4_4 
REMARK    2  A    between atoms: C7_7  and  C8_8 
REMARK    3  A    between atoms: C8_8  and  O2_10 
REMARK    4  A    between atoms: C15_17  and  O3_18 
REMARK    5  A    between atoms: C21_24  and  O4_25 
REMARK    6  A    between atoms: C22_26  and  C24_28 
REMARK    7  A    between atoms: C24_28  and  O5_29 
ROOT
HETATM    1  C4  UNL     1      -7.906  40.027 -34.603  1.00  0.00     0.019 C 
HETATM    2  C5  UNL     1      -8.654  38.969 -35.459  1.00  0.00     0.011 C 
HETATM    3  C6  UNL     1     -10.014  39.585 -35.832  1.00  0.00     0.021 C 
HETATM    4  C7  UNL     1     -10.246  40.648 -34.755  1.00  0.00     0.050 C 
HETATM    5  C9  UNL     1     -11.235  41.757 -35.126  1.00  0.00     0.022 C 
HETATM    6  C10 UNL     1     -11.215  42.856 -34.047  1.00  0.00     0.011 C 
HETATM    7  C11 UNL     1      -9.804  43.498 -33.761  1.00  0.00    -0.032 C 
HETATM    8  C12 UNL     1      -9.482  44.321 -35.052  1.00  0.00     0.016 C 
HETATM    9  C13 UNL     1      -8.736  42.361 -33.570  1.00  0.00     0.003 C 
HETATM   10  C14 UNL     1      -7.324  42.953 -33.486  1.00  0.00     0.038 C 
HETATM   11  C15 UNL     1      -7.196  44.176 -32.569  1.00  0.00     0.124 C 
HETATM   12  C16 UNL     1      -8.400  44.403 -31.622  1.00  0.00     0.032 C 
HETATM   13  C17 UNL     1      -8.164  45.587 -30.532  1.00  0.00    -0.033 C 
HETATM   14  C18 UNL     1      -8.936  45.203 -29.232  1.00  0.00     0.016 C 
HETATM   15  C19 UNL     1      -6.662  45.684 -30.116  1.00  0.00     0.012 C 
HETATM   16  C20 UNL     1      -6.319  46.878 -29.220  1.00  0.00     0.033 C 
HETATM   17  C21 UNL     1      -6.759  48.206 -29.832  1.00  0.00     0.128 C 
HETATM   18  C22 UNL     1      -8.265  48.254 -30.238  1.00  0.00     0.007 C 
HETATM   19  C23 UNL     1      -9.132  48.366 -28.965  1.00  0.00     0.020 C 
HETATM   20  C25 UNL     1      -8.609  46.980 -31.119  1.00  0.00     0.007 C 
HETATM   21  C26 UNL     1     -10.059  46.919 -31.631  1.00  0.00     0.007 C 
HETATM   22  C27 UNL     1     -10.184  45.906 -32.765  1.00  0.00     0.011 C 
HETATM   23  C28 UNL     1      -9.801  44.448 -32.408  1.00  0.00    -0.030 C 
HETATM   24  C29 UNL     1     -10.896  43.924 -31.429  1.00  0.00     0.016 C 
HETATM   25  C30 UNL     1      -8.834  41.267 -34.664  1.00  0.00     0.017 C 
ENDROOT
BRANCH   4  26
HETATM   26  C8  UNL     1     -10.732  39.925 -33.489  1.00  0.00     0.149 C 
HETATM   27  O1  UNL     1     -11.691  39.182 -33.375  1.00  0.00    -0.649 OA
BRANCH  26  28
HETATM   28  O2  UNL     1      -9.976  40.200 -32.405  1.00  0.00    -0.776 OA
HETATM   29  H11 UNL     1     -10.396  39.685 -31.686  1.00  0.00     0.167 HD
ENDBRANCH  26  28
ENDBRANCH   4  26
BRANCH   1  30
HETATM   30  C2  UNL     1      -6.462  40.156 -35.063  1.00  0.00    -0.088 C 
HETATM   31  C1  UNL     1      -5.396  39.713 -34.373  1.00  0.00     0.014 C 
HETATM   32  C3  UNL     1      -6.276  40.864 -36.380  1.00  0.00     0.043 C 
ENDBRANCH   1  30
BRANCH  11  33
HETATM   33  O3  UNL     1      -6.917  45.350 -33.325  1.00  0.00    -0.395 OA
HETATM   34  H23 UNL     1      -6.162  45.153 -33.906  1.00  0.00     0.210 HD
ENDBRANCH  11  33
BRANCH  18  35
HETATM   35  C24 UNL     1      -8.461  49.567 -31.068  1.00  0.00     0.176 C 
BRANCH  35  36
HETATM   36  O5  UNL     1      -8.976  50.654 -30.305  1.00  0.00    -0.400 OA
HETATM   37  H39 UNL     1      -8.241  51.022 -29.786  1.00  0.00     0.209 HD
ENDBRANCH  35  36
ENDBRANCH  18  35
BRANCH  17  38
HETATM   38  O4  UNL     1      -5.910  48.492 -30.949  1.00  0.00    -0.395 OA
HETATM   39  H33 UNL     1      -6.059  47.818 -31.637  1.00  0.00     0.210 HD
ENDBRANCH  17  38
TORSDOF 7
ENDMDL
MODEL 6
REMARK minimizedAffinity -6.34077454
REMARK CNNscore 0.410331905
REMARK CNNaffinity 6.06322479
REMARK  7 active torsions:
REMARK  status: ('A' for Active; 'I' for Inactive)
REMARK    1  A    between atoms: C2_2  and  C4_4 
REMARK    2  A    between atoms: C7_7  and  C8_8 
REMARK    3  A    between atoms: C8_8  and  O2_10 
REMARK    4  A    between atoms: C15_17  and  O3_18 
REMARK    5  A    between atoms: C21_24  and  O4_25 
REMARK    6  A    between atoms: C22_26  and  C24_28 
REMARK    7  A    between atoms: C24_28  and  O5_29 
ROOT
HETATM    1  C4  UNL     1      -5.518  48.391 -22.642  1.00  0.00     0.019 C 
HETATM    2  C5  UNL     1      -5.048  48.251 -21.168  1.00  0.00     0.011 C 
HETATM    3  C6  UNL     1      -5.856  47.095 -20.553  1.00  0.00     0.021 C 
HETATM    4  C7  UNL     1      -7.106  47.010 -21.434  1.00  0.00     0.050 C 
HETATM    5  C9  UNL     1      -7.843  45.669 -21.404  1.00  0.00     0.022 C 
HETATM    6  C10 UNL     1      -8.945  45.654 -22.480  1.00  0.00     0.011 C 
HETATM    7  C11 UNL     1      -8.459  45.943 -23.952  1.00  0.00    -0.032 C 
HETATM    8  C12 UNL     1      -7.626  44.678 -24.341  1.00  0.00     0.016 C 
HETATM    9  C13 UNL     1      -7.537  47.216 -23.962  1.00  0.00     0.003 C 
HETATM   10  C14 UNL     1      -6.893  47.405 -25.341  1.00  0.00     0.038 C 
HETATM   11  C15 UNL     1      -7.855  47.245 -26.524  1.00  0.00     0.124 C 
HETATM   12  C16 UNL     1      -9.356  47.265 -26.145  1.00  0.00     0.032 C 
HETATM   13  C17 UNL     1     -10.357  47.283 -27.427  1.00  0.00    -0.033 C 
HETATM   14  C18 UNL     1     -11.628  48.097 -27.032  1.00  0.00     0.016 C 
HETATM   15  C19 UNL     1      -9.723  48.050 -28.631  1.00  0.00     0.012 C 
HETATM   16  C20 UNL     1     -10.524  47.974 -29.935  1.00  0.00     0.033 C 
HETATM   17  C21 UNL     1     -10.816  46.535 -30.351  1.00  0.00     0.128 C 
HETATM   18  C22 UNL     1     -11.507  45.677 -29.246  1.00  0.00     0.007 C 
HETATM   19  C23 UNL     1     -12.983  46.111 -29.114  1.00  0.00     0.020 C 
HETATM   20  C25 UNL     1     -10.691  45.815 -27.892  1.00  0.00     0.007 C 
HETATM   21  C26 UNL     1     -11.237  44.981 -26.720  1.00  0.00     0.007 C 
HETATM   22  C27 UNL     1     -10.191  44.862 -25.615  1.00  0.00     0.011 C 
HETATM   23  C28 UNL     1      -9.714  46.201 -24.996  1.00  0.00    -0.030 C 
HETATM   24  C29 UNL     1     -10.920  46.777 -24.192  1.00  0.00     0.016 C 
HETATM   25  C30 UNL     1      -6.475  47.187 -22.832  1.00  0.00     0.017 C 
ENDROOT
BRANCH   4  26
HETATM   26  C8  UNL     1      -8.059  48.133 -20.994  1.00  0.00     0.149 C 
HETATM   27  O1  UNL     1      -8.606  48.267 -19.913  1.00  0.00    -0.649 OA
BRANCH  26  28
HETATM   28  O2  UNL     1      -8.291  49.036 -21.969  1.00  0.00    -0.776 OA
HETATM   29  H11 UNL     1      -8.906  49.677 -21.556  1.00  0.00     0.167 HD
ENDBRANCH  26  28
ENDBRANCH   4  26
BRANCH   1  30
HETATM   30  C2  UNL     1      -4.321  48.543 -23.567  1.00  0.00    -0.088 C 
HETATM   31  C1  UNL     1      -3.080  48.104 -23.293  1.00  0.00     0.014 C 
HETATM   32  C3  UNL     1      -4.602  49.274 -24.854  1.00  0.00     0.043 C 
ENDBRANCH   1  30
BRANCH  11  33
HETATM   33  O3  UNL     1      -7.538  46.081 -27.280  1.00  0.00    -0.395 OA
HETATM   34  H23 UNL     1      -6.588  46.112 -27.485  1.00  0.00     0.210 HD
ENDBRANCH  11  33
BRANCH  18  35
HETATM   35  C24 UNL     1     -11.487  44.196 -29.753  1.00  0.00     0.176 C 
BRANCH  35  36
HETATM   36  O5  UNL     1     -11.518  44.078 -31.172  1.00  0.00    -0.400 OA
HETATM   37  H39 UNL     1     -10.623  44.265 -31.502  1.00  0.00     0.209 HD
ENDBRANCH  35  36
ENDBRANCH  18  35
BRANCH  17  38
HETATM   38  O4  UNL     1      -9.592  45.933 -30.787  1.00  0.00    -0.395 OA
HETATM   39  H33 UNL     1      -8.984  45.874 -30.027  1.00  0.00     0.210 HD
ENDBRANCH  17  38
TORSDOF 7
ENDMDL
MODEL 7
REMARK minimizedAffinity -7.61766291
REMARK CNNscore 0.360842586
REMARK CNNaffinity 6.368505
REMARK  7 active torsions:
REMARK  status: ('A' for Active; 'I' for Inactive)
REMARK    1  A    between atoms: C2_2  and  C4_4 
REMARK    2  A    between atoms: C7_7  and  C8_8 
REMARK    3  A    between atoms: C8_8  and  O2_10 
REMARK    4  A    between atoms: C15_17  and  O3_18 
REMARK    5  A    between atoms: C21_24  and  O4_25 
REMARK    6  A    between atoms: C22_26  and  C24_28 
REMARK    7  A    between atoms: C24_28  and  O5_29 
ROOT
HETATM    1  C4  UNL     1      -3.695  49.774 -25.457  1.00  0.00     0.019 C 
HETATM    2  C5  UNL     1      -2.538  50.576 -26.114  1.00  0.00     0.011 C 
HETATM    3  C6  UNL     1      -1.444  50.732 -25.044  1.00  0.00     0.021 C 
HETATM    4  C7  UNL     1      -2.197  50.565 -23.720  1.00  0.00     0.050 C 
HETATM    5  C9  UNL     1      -1.336  50.166 -22.519  1.00  0.00     0.022 C 
HETATM    6  C10 UNL     1      -2.240  49.835 -21.317  1.00  0.00     0.011 C 
HETATM    7  C11 UNL     1      -3.322  48.716 -21.571  1.00  0.00    -0.032 C 
HETATM    8  C12 UNL     1      -2.493  47.397 -21.711  1.00  0.00     0.016 C 
HETATM    9  C13 UNL     1      -4.084  49.016 -22.912  1.00  0.00     0.003 C 
HETATM   10  C14 UNL     1      -5.003  47.846 -23.285  1.00  0.00     0.038 C 
HETATM   11  C15 UNL     1      -5.844  47.298 -22.125  1.00  0.00     0.124 C 
HETATM   12  C16 UNL     1      -5.895  48.211 -20.875  1.00  0.00     0.032 C 
HETATM   13  C17 UNL     1      -6.939  47.705 -19.735  1.00  0.00    -0.033 C 
HETATM   14  C18 UNL     1      -7.518  48.965 -19.021  1.00  0.00     0.016 C 
HETATM   15  C19 UNL     1      -8.168  46.980 -20.371  1.00  0.00     0.012 C 
HETATM   16  C20 UNL     1      -9.118  46.323 -19.365  1.00  0.00     0.033 C 
HETATM   17  C21 UNL     1      -8.393  45.359 -18.429  1.00  0.00     0.128 C 
HETATM   18  C22 UNL     1      -7.174  45.987 -17.685  1.00  0.00     0.007 C 
HETATM   19  C23 UNL     1      -7.686  46.934 -16.578  1.00  0.00     0.020 C 
HETATM   20  C25 UNL     1      -6.233  46.708 -18.740  1.00  0.00     0.007 C 
HETATM   21  C26 UNL     1      -4.960  47.335 -18.148  1.00  0.00     0.007 C 
HETATM   22  C27 UNL     1      -3.950  47.640 -19.252  1.00  0.00     0.011 C 
HETATM   23  C28 UNL     1      -4.433  48.620 -20.351  1.00  0.00    -0.030 C 
HETATM   24  C29 UNL     1      -4.558  50.021 -19.679  1.00  0.00     0.016 C 
HETATM   25  C30 UNL     1      -3.121  49.380 -24.072  1.00  0.00     0.017 C 
ENDROOT
BRANCH   4  26
HETATM   26  C8  UNL     1      -2.911  51.894 -23.425  1.00  0.00     0.149 C 
HETATM   27  O1  UNL     1      -4.010  52.056 -22.924  1.00  0.00    -0.649 OA
BRANCH  26  28
HETATM   28  O2  UNL     1      -2.192  52.971 -23.804  1.00  0.00    -0.776 OA
HETATM   29  H11 UNL     1      -2.761  53.732 -23.564  1.00  0.00     0.167 HD
ENDBRANCH  26  28
ENDBRANCH   4  26
BRANCH   1  30
HETATM   30  C2  UNL     1      -4.184  48.684 -26.397  1.00  0.00    -0.088 C 
HETATM   31  C1  UNL     1      -3.467  48.168 -27.411  1.00  0.00     0.014 C 
HETATM   32  C3  UNL     1      -5.591  48.209 -26.141  1.00  0.00     0.043 C 
ENDBRANCH   1  30
BRANCH  11  33
HETATM   33  O3  UNL     1      -5.426  45.982 -21.775  1.00  0.00    -0.395 OA
HETATM   34  H23 UNL     1      -5.403  45.453 -22.591  1.00  0.00     0.210 HD
ENDBRANCH  11  33
BRANCH  18  35
HETATM   35  C24 UNL     1      -6.419  44.804 -16.990  1.00  0.00     0.176 C 
BRANCH  35  36
HETATM   36  O5  UNL     1      -6.934  44.474 -15.704  1.00  0.00    -0.400 OA
HETATM   37  H39 UNL     1      -7.745  43.955 -15.837  1.00  0.00     0.209 HD
ENDBRANCH  35  36
ENDBRANCH  18  35
BRANCH  17  38
HETATM   38  O4  UNL     1      -8.006  44.205 -19.181  1.00  0.00    -0.395 OA
HETATM   39  H33 UNL     1      -7.349  44.472 -19.850  1.00  0.00     0.210 HD
ENDBRANCH  17  38
TORSDOF 7
ENDMDL
MODEL 8
REMARK minimizedAffinity -7.80205297
REMARK CNNscore 0.352511108
REMARK CNNaffinity 6.09931707
REMARK  7 active torsions:
REMARK  status: ('A' for Active; 'I' for Inactive)
REMARK    1  A    between atoms: C2_2  and  C4_4 
REMARK    2  A    between atoms: C7_7  and  C8_8 
REMARK    3  A    between atoms: C8_8  and  O2_10 
REMARK    4  A    between atoms: C15_17  and  O3_18 
REMARK    5  A    between atoms: C21_24  and  O4_25 
REMARK    6  A    between atoms: C22_26  and  C24_28 
REMARK    7  A    between atoms: C24_28  and  O5_29 
ROOT
HETATM    1  C4  UNL     1       3.409  55.523  -6.575  1.00  0.00     0.019 C 
HETATM    2  C5  UNL     1       4.873  56.019  -6.411  1.00  0.00     0.011 C 
HETATM    3  C6  UNL     1       5.530  55.923  -7.798  1.00  0.00     0.021 C 
HETATM    4  C7  UNL     1       4.685  54.881  -8.536  1.00  0.00     0.050 C 
HETATM    5  C9  UNL     1       4.760  54.933 -10.064  1.00  0.00     0.022 C 
HETATM    6  C10 UNL     1       3.716  53.978 -10.671  1.00  0.00     0.011 C 
HETATM    7  C11 UNL     1       2.226  54.228 -10.219  1.00  0.00    -0.032 C 
HETATM    8  C12 UNL     1       1.837  55.585 -10.893  1.00  0.00     0.016 C 
HETATM    9  C13 UNL     1       2.166  54.370  -8.655  1.00  0.00     0.003 C 
HETATM   10  C14 UNL     1       0.768  54.808  -8.204  1.00  0.00     0.038 C 
HETATM   11  C15 UNL     1      -0.386  54.046  -8.868  1.00  0.00     0.124 C 
HETATM   12  C16 UNL     1       0.033  52.751  -9.607  1.00  0.00     0.032 C 
HETATM   13  C17 UNL     1      -1.221  51.864 -10.140  1.00  0.00    -0.033 C 
HETATM   14  C18 UNL     1      -0.807  50.361 -10.078  1.00  0.00     0.016 C 
HETATM   15  C19 UNL     1      -2.456  52.000  -9.194  1.00  0.00     0.012 C 
HETATM   16  C20 UNL     1      -3.736  51.332  -9.707  1.00  0.00     0.033 C 
HETATM   17  C21 UNL     1      -4.117  51.811 -11.105  1.00  0.00     0.128 C 
HETATM   18  C22 UNL     1      -2.978  51.670 -12.162  1.00  0.00     0.007 C 
HETATM   19  C23 UNL     1      -2.814  50.182 -12.538  1.00  0.00     0.020 C 
HETATM   20  C25 UNL     1      -1.649  52.320 -11.586  1.00  0.00     0.007 C 
HETATM   21  C26 UNL     1      -0.448  52.294 -12.546  1.00  0.00     0.007 C 
HETATM   22  C27 UNL     1       0.631  53.269 -12.081  1.00  0.00     0.011 C 
HETATM   23  C28 UNL     1       1.212  53.003 -10.669  1.00  0.00    -0.030 C 
HETATM   24  C29 UNL     1       2.037  51.683 -10.766  1.00  0.00     0.016 C 
HETATM   25  C30 UNL     1       3.267  55.313  -8.104  1.00  0.00     0.017 C 
ENDROOT
BRANCH   4  26
HETATM   26  C8  UNL     1       5.130  53.494  -8.044  1.00  0.00     0.149 C 
HETATM   27  O1  UNL     1       4.458  52.652  -7.476  1.00  0.00    -0.649 OA
BRANCH  26  28
HETATM   28  O2  UNL     1       6.436  53.247  -8.284  1.00  0.00    -0.776 OA
HETATM   29  H11 UNL     1       6.577  52.348  -7.921  1.00  0.00     0.167 HD
ENDBRANCH  26  28
ENDBRANCH   4  26
BRANCH   1  30
HETATM   30  C2  UNL     1       2.450  56.461  -5.860  1.00  0.00    -0.088 C 
HETATM   31  C1  UNL     1       1.757  56.149  -4.751  1.00  0.00     0.014 C 
HETATM   32  C3  UNL     1       2.283  57.813  -6.506  1.00  0.00     0.043 C 
ENDBRANCH   1  30
BRANCH  11  33
HETATM   33  O3  UNL     1      -1.128  54.903  -9.730  1.00  0.00    -0.395 OA
HETATM   34  H23 UNL     1      -1.360  55.701  -9.224  1.00  0.00     0.210 HD
ENDBRANCH  11  33
BRANCH  18  35
HETATM   35  C24 UNL     1      -3.458  52.438 -13.440  1.00  0.00     0.176 C 
BRANCH  35  36
HETATM   36  O5  UNL     1      -4.079  53.687 -13.155  1.00  0.00    -0.400 OA
HETATM   37  H39 UNL     1      -3.376  54.329 -12.963  1.00  0.00     0.209 HD
ENDBRANCH  35  36
ENDBRANCH  18  35
BRANCH  17  38
HETATM   38  O4  UNL     1      -4.575  53.165 -11.010  1.00  0.00    -0.395 OA
HETATM   39  H33 UNL     1      -3.831  53.728 -10.728  1.00  0.00     0.210 HD
ENDBRANCH  17  38
TORSDOF 7
ENDMDL
MODEL 9
REMARK minimizedAffinity -8.58201504
REMARK CNNscore 0.338399887
REMARK CNNaffinity 6.00770569
REMARK  7 active torsions:
REMARK  status: ('A' for Active; 'I' for Inactive)
REMARK    1  A    between atoms: C2_2  and  C4_4 
REMARK    2  A    between atoms: C7_7  and  C8_8 
REMARK    3  A    between atoms: C8_8  and  O2_10 
REMARK    4  A    between atoms: C15_17  and  O3_18 
REMARK    5  A    between atoms: C21_24  and  O4_25 
REMARK    6  A    between atoms: C22_26  and  C24_28 
REMARK    7  A    between atoms: C24_28  and  O5_29 
ROOT
HETATM    1  C4  UNL     1      -6.018  48.345 -26.112  1.00  0.00     0.019 C 
HETATM    2  C5  UNL     1      -5.946  48.526 -24.571  1.00  0.00     0.011 C 
HETATM    3  C6  UNL     1      -6.916  47.501 -23.959  1.00  0.00     0.021 C 
HETATM    4  C7  UNL     1      -7.900  47.200 -25.094  1.00  0.00     0.050 C 
HETATM    5  C9  UNL     1      -8.656  45.875 -24.977  1.00  0.00     0.022 C 
HETATM    6  C10 UNL     1      -9.445  45.608 -26.272  1.00  0.00     0.011 C 
HETATM    7  C11 UNL     1      -8.589  45.599 -27.597  1.00  0.00    -0.032 C 
HETATM    8  C12 UNL     1      -7.719  44.303 -27.489  1.00  0.00     0.016 C 
HETATM    9  C13 UNL     1      -7.661  46.866 -27.634  1.00  0.00     0.003 C 
HETATM   10  C14 UNL     1      -6.679  46.784 -28.809  1.00  0.00     0.038 C 
HETATM   11  C15 UNL     1      -7.309  46.356 -30.140  1.00  0.00     0.124 C 
HETATM   12  C16 UNL     1      -8.856  46.412 -30.171  1.00  0.00     0.032 C 
HETATM   13  C17 UNL     1      -9.494  46.137 -31.642  1.00  0.00    -0.033 C 
HETATM   14  C18 UNL     1     -10.801  46.980 -31.765  1.00  0.00     0.016 C 
HETATM   15  C19 UNL     1      -8.551  46.656 -32.776  1.00  0.00     0.012 C 
HETATM   16  C20 UNL     1      -8.992  46.289 -34.196  1.00  0.00     0.033 C 
HETATM   17  C21 UNL     1      -9.206  44.787 -34.366  1.00  0.00     0.128 C 
HETATM   18  C22 UNL     1     -10.181  44.159 -33.323  1.00  0.00     0.007 C 
HETATM   19  C23 UNL     1     -11.629  44.569 -33.667  1.00  0.00     0.020 C 
HETATM   20  C25 UNL     1      -9.737  44.596 -31.864  1.00  0.00     0.007 C 
HETATM   21  C26 UNL     1     -10.587  44.008 -30.725  1.00  0.00     0.007 C 
HETATM   22  C27 UNL     1      -9.864  44.150 -29.388  1.00  0.00     0.011 C 
HETATM   23  C28 UNL     1      -9.526  45.600 -28.958  1.00  0.00    -0.030 C 
HETATM   24  C29 UNL     1     -10.882  46.297 -28.629  1.00  0.00     0.016 C 
HETATM   25  C30 UNL     1      -6.926  47.101 -26.288  1.00  0.00     0.017 C 
ENDROOT
BRANCH   4  26
HETATM   26  C8  UNL     1      -8.903  48.363 -25.155  1.00  0.00     0.149 C 
HETATM   27  O1  UNL     1     -10.049  48.340 -25.569  1.00  0.00    -0.649 OA
BRANCH  26  28
HETATM   28  O2  UNL     1      -8.388  49.525 -24.699  1.00  0.00    -0.776 OA
HETATM   29  H11 UNL     1      -9.122  50.165 -24.800  1.00  0.00     0.167 HD
ENDBRANCH  26  28
ENDBRANCH   4  26
BRANCH   1  30
HETATM   30  C2  UNL     1      -4.620  48.336 -26.709  1.00  0.00    -0.088 C 
HETATM   31  C1  UNL     1      -4.349  48.265 -28.024  1.00  0.00     0.014 C 
HETATM   32  C3  UNL     1      -3.499  48.381 -25.703  1.00  0.00     0.043 C 
ENDBRANCH   1  30
BRANCH  11  33
HETATM   33  O3  UNL     1      -6.841  45.070 -30.531  1.00  0.00    -0.395 OA
HETATM   34  H23 UNL     1      -5.869  45.084 -30.487  1.00  0.00     0.210 HD
ENDBRANCH  11  33
BRANCH  18  35
HETATM   35  C24 UNL     1     -10.071  42.606 -33.490  1.00  0.00     0.176 C 
BRANCH  35  36
HETATM   36  O5  UNL     1     -10.912  42.080 -34.512  1.00  0.00    -0.400 OA
HETATM   37  H39 UNL     1     -10.484  42.261 -35.366  1.00  0.00     0.209 HD
ENDBRANCH  35  36
ENDBRANCH  18  35
BRANCH  17  38
HETATM   38  O4  UNL     1      -7.928  44.143 -34.338  1.00  0.00    -0.395 OA
HETATM   39  H33 UNL     1      -7.537  44.259 -33.453  1.00  0.00     0.210 HD
ENDBRANCH  17  38
TORSDOF 7
ENDMDL
