MODEL 1
REMARK minimizedAffinity -7.25805998
REMARK CNNscore 0.517097473
REMARK CNNaffinity 6.20279837
REMARK  5 active torsions:
REMARK  status: ('A' for Active; 'I' for Inactive)
REMARK    1  A    between atoms: C2_2  and  C3_3 
REMARK    2  A    between atoms: C6_6  and  O1_7 
REMARK    3  A    between atoms: C7_8  and  C8_9 
REMARK    4  A    between atoms: C8_9  and  C9_10 
REMARK    5  A    between atoms: C26_32  and  O6_33 
ROOT
HETATM    1  C3  UNL     1       2.508  49.135 -10.836  1.00  0.00     0.008 C 
HETATM    2  C4  UNL     1       3.891  49.739 -10.722  1.00  0.00    -0.023 C 
HETATM    3  C5  UNL     1       4.453  50.375  -9.678  1.00  0.00     0.003 C 
HETATM    4  C6  UNL     1       3.937  50.687  -8.293  1.00  0.00     0.170 C 
HETATM    5  C7  UNL     1       4.450  52.045  -7.738  1.00  0.00     0.164 C 
HETATM    6  O2  UNL     1       3.790  53.164  -8.393  1.00  0.00    -0.312 OA
HETATM    7  C12 UNL     1       4.523  53.872  -9.304  1.00  0.00     0.276 C 
HETATM    8  O3  UNL     1       5.578  53.480  -9.791  1.00  0.00    -0.264 OA
HETATM    9  C13 UNL     1       3.973  55.322  -9.444  1.00  0.00     0.095 A 
HETATM   10  C14 UNL     1       4.493  55.977 -10.750  1.00  0.00     0.036 C 
HETATM   11  C15 UNL     1       4.731  56.032  -8.334  1.00  0.00     0.003 A 
HETATM   12  C16 UNL     1       4.355  56.757  -7.282  1.00  0.00     0.072 A 
HETATM   13  C17 UNL     1       3.019  57.142  -6.831  1.00  0.00     0.245 A 
HETATM   14  O4  UNL     1       2.924  57.856  -5.833  1.00  0.00    -0.268 OA
HETATM   15  N1  UNL     1       1.907  56.730  -7.463  1.00  0.00    -0.320 N 
HETATM   16  C18 UNL     1       1.606  55.934  -8.540  1.00  0.00     0.098 A 
HETATM   17  C19 UNL     1       2.438  55.317  -9.396  1.00  0.00     0.045 A 
HETATM   18  C20 UNL     1       1.810  54.501 -10.502  1.00  0.00     0.194 C 
HETATM   19  O5  UNL     1       2.477  54.157 -11.468  1.00  0.00    -0.287 OA
HETATM   20  C21 UNL     1       0.379  54.145 -10.481  1.00  0.00     0.046 A 
HETATM   21  C22 UNL     1      -0.453  54.867  -9.639  1.00  0.00     0.032 A 
HETATM   22  C23 UNL     1      -1.847  54.698  -9.674  1.00  0.00     0.026 A 
HETATM   23  C24 UNL     1      -2.434  53.809 -10.578  1.00  0.00    -0.027 A 
HETATM   24  C25 UNL     1      -3.926  53.642 -10.612  1.00  0.00     0.051 C 
HETATM   25  C26 UNL     1      -1.599  53.060 -11.409  1.00  0.00     0.086 A 
HETATM   26  C27 UNL     1      -0.195  53.192 -11.347  1.00  0.00     0.059 A 
HETATM   27  C28 UNL     1       0.585  52.232 -12.176  1.00  0.00     0.163 C 
HETATM   28  O7  UNL     1       0.190  52.006 -13.320  1.00  0.00    -0.292 OA
HETATM   29  C29 UNL     1       1.720  51.469 -11.532  1.00  0.00     0.084 C 
HETATM   30  C30 UNL     1       1.619  49.964 -11.789  1.00  0.00     0.016 C 
HETATM   31  C31 UNL     1       0.113  55.826  -8.690  1.00  0.00     0.210 C 
HETATM   32  O8  UNL     1      -0.623  56.518  -7.989  1.00  0.00    -0.285 OA
HETATM   33  H26 UNL     1       1.079  57.107  -6.993  1.00  0.00     0.169 HD
ENDROOT
BRANCH   5  34
HETATM   34  C8  UNL     1       4.129  52.248  -6.240  1.00  0.00     0.039 C 
BRANCH  34  35
HETATM   35  C9  UNL     1       5.219  52.918  -5.384  1.00  0.00    -0.020 C 
HETATM   36  C10 UNL     1       4.656  54.187  -4.737  1.00  0.00     0.009 C 
HETATM   37  C11 UNL     1       6.470  53.265  -6.192  1.00  0.00     0.009 C 
ENDBRANCH  34  35
ENDBRANCH   5  34
BRANCH   4  38
HETATM   38  O1  UNL     1       2.514  50.656  -8.237  1.00  0.00    -0.389 OA
HETATM   39  H10 UNL     1       2.269  50.411  -7.330  1.00  0.00     0.210 HD
ENDBRANCH   4  38
BRANCH   1  40
HETATM   40  C2  UNL     1       2.634  47.667 -11.293  1.00  0.00     0.004 C 
HETATM   41  C1  UNL     1       2.614  47.499 -12.806  1.00  0.00     0.006 C 
ENDBRANCH   1  40
BRANCH  25  42
HETATM   42  O6  UNL     1      -2.208  52.187 -12.277  1.00  0.00    -0.359 OA
HETATM   43  H31 UNL     1      -1.562  51.941 -12.978  1.00  0.00     0.217 HD
ENDBRANCH  25  42
TORSDOF 5
ENDMDL
MODEL 2
REMARK minimizedAffinity -6.65038729
REMARK CNNscore 0.47637856
REMARK CNNaffinity 6.14608049
REMARK  5 active torsions:
REMARK  status: ('A' for Active; 'I' for Inactive)
REMARK    1  A    between atoms: C2_2  and  C3_3 
REMARK    2  A    between atoms: C6_6  and  O1_7 
REMARK    3  A    between atoms: C7_8  and  C8_9 
REMARK    4  A    between atoms: C8_9  and  C9_10 
REMARK    5  A    between atoms: C26_32  and  O6_33 
ROOT
HETATM    1  C3  UNL     1       3.838  58.232  -4.460  1.00  0.00     0.008 C 
HETATM    2  C4  UNL     1       3.203  58.571  -5.791  1.00  0.00    -0.023 C 
HETATM    3  C5  UNL     1       2.344  57.844  -6.529  1.00  0.00     0.003 C 
HETATM    4  C6  UNL     1       1.715  56.490  -6.296  1.00  0.00     0.170 C 
HETATM    5  C7  UNL     1       1.511  55.675  -7.604  1.00  0.00     0.164 C 
HETATM    6  O2  UNL     1       2.777  55.162  -8.105  1.00  0.00    -0.312 OA
HETATM    7  C12 UNL     1       3.305  55.775  -9.206  1.00  0.00     0.276 C 
HETATM    8  O3  UNL     1       2.936  56.866  -9.629  1.00  0.00    -0.264 OA
HETATM    9  C13 UNL     1       4.247  54.805  -9.978  1.00  0.00     0.095 A 
HETATM   10  C14 UNL     1       5.169  55.593 -10.943  1.00  0.00     0.036 C 
HETATM   11  C15 UNL     1       3.256  54.098 -10.890  1.00  0.00     0.003 A 
HETATM   12  C16 UNL     1       2.948  52.819 -11.096  1.00  0.00     0.072 A 
HETATM   13  C17 UNL     1       3.498  51.607 -10.494  1.00  0.00     0.245 A 
HETATM   14  O4  UNL     1       3.068  50.519 -10.876  1.00  0.00    -0.268 OA
HETATM   15  N1  UNL     1       4.438  51.651  -9.535  1.00  0.00    -0.320 N 
HETATM   16  C18 UNL     1       5.118  52.624  -8.845  1.00  0.00     0.098 A 
HETATM   17  C19 UNL     1       5.065  53.959  -8.991  1.00  0.00     0.045 A 
HETATM   18  C20 UNL     1       5.941  54.788  -8.081  1.00  0.00     0.194 C 
HETATM   19  O5  UNL     1       6.163  55.963  -8.341  1.00  0.00    -0.287 OA
HETATM   20  C21 UNL     1       6.594  54.203  -6.895  1.00  0.00     0.046 A 
HETATM   21  C22 UNL     1       6.695  52.821  -6.830  1.00  0.00     0.032 A 
HETATM   22  C23 UNL     1       7.437  52.193  -5.817  1.00  0.00     0.026 A 
HETATM   23  C24 UNL     1       8.113  52.949  -4.856  1.00  0.00    -0.027 A 
HETATM   24  C25 UNL     1       8.910  52.267  -3.781  1.00  0.00     0.051 C 
HETATM   25  C26 UNL     1       7.992  54.339  -4.901  1.00  0.00     0.086 A 
HETATM   26  C27 UNL     1       7.211  54.975  -5.890  1.00  0.00     0.059 A 
HETATM   27  C28 UNL     1       7.042  56.446  -5.738  1.00  0.00     0.163 C 
HETATM   28  O7  UNL     1       8.033  57.111  -5.430  1.00  0.00    -0.292 OA
HETATM   29  C29 UNL     1       5.651  57.032  -5.813  1.00  0.00     0.084 C 
HETATM   30  C30 UNL     1       5.348  57.947  -4.625  1.00  0.00     0.016 C 
HETATM   31  C31 UNL     1       6.023  51.987  -7.826  1.00  0.00     0.210 C 
HETATM   32  O8  UNL     1       6.165  50.766  -7.815  1.00  0.00    -0.285 OA
HETATM   33  H26 UNL     1       4.688  50.700  -9.247  1.00  0.00     0.169 HD
ENDROOT
BRANCH   5  34
HETATM   34  C8  UNL     1       0.649  54.409  -7.402  1.00  0.00     0.039 C 
BRANCH  34  35
HETATM   35  C9  UNL     1      -0.435  54.135  -8.459  1.00  0.00    -0.020 C 
HETATM   36  C10 UNL     1      -0.191  52.766  -9.102  1.00  0.00     0.009 C 
HETATM   37  C11 UNL     1      -0.483  55.212  -9.545  1.00  0.00     0.009 C 
ENDBRANCH  34  35
ENDBRANCH   5  34
BRANCH   4  38
HETATM   38  O1  UNL     1       2.456  55.714  -5.360  1.00  0.00    -0.389 OA
HETATM   39  H10 UNL     1       1.826  55.116  -4.925  1.00  0.00     0.210 HD
ENDBRANCH   4  38
BRANCH   1  40
HETATM   40  C2  UNL     1       3.572  59.382  -3.466  1.00  0.00     0.004 C 
HETATM   41  C1  UNL     1       4.366  60.644  -3.771  1.00  0.00     0.006 C 
ENDBRANCH   1  40
BRANCH  25  42
HETATM   42  O6  UNL     1       8.659  55.052  -3.935  1.00  0.00    -0.359 OA
HETATM   43  H31 UNL     1       8.731  55.989  -4.229  1.00  0.00     0.217 HD
ENDBRANCH  25  42
TORSDOF 5
ENDMDL
MODEL 3
REMARK minimizedAffinity -7.05644941
REMARK CNNscore 0.446984559
REMARK CNNaffinity 5.44995832
REMARK  5 active torsions:
REMARK  status: ('A' for Active; 'I' for Inactive)
REMARK    1  A    between atoms: C2_2  and  C3_3 
REMARK    2  A    between atoms: C6_6  and  O1_7 
REMARK    3  A    between atoms: C7_8  and  C8_9 
REMARK    4  A    between atoms: C8_9  and  C9_10 
REMARK    5  A    between atoms: C26_32  and  O6_33 
ROOT
HETATM    1  C3  UNL     1     -17.499  42.216 -27.300  1.00  0.00     0.008 C 
HETATM    2  C4  UNL     1     -16.384  42.528 -28.275  1.00  0.00    -0.023 C 
HETATM    3  C5  UNL     1     -15.054  42.422 -28.103  1.00  0.00     0.003 C 
HETATM    4  C6  UNL     1     -14.226  41.956 -26.928  1.00  0.00     0.170 C 
HETATM    5  C7  UNL     1     -12.882  42.722 -26.781  1.00  0.00     0.164 C 
HETATM    6  O2  UNL     1     -13.098  44.070 -26.278  1.00  0.00    -0.312 OA
HETATM    7  C12 UNL     1     -12.966  45.096 -27.172  1.00  0.00     0.276 C 
HETATM    8  O3  UNL     1     -12.944  44.949 -28.389  1.00  0.00    -0.264 OA
HETATM    9  C13 UNL     1     -12.605  46.421 -26.438  1.00  0.00     0.095 A 
HETATM   10  C14 UNL     1     -12.881  47.642 -27.353  1.00  0.00     0.036 C 
HETATM   11  C15 UNL     1     -11.089  46.321 -26.382  1.00  0.00     0.003 A 
HETATM   12  C16 UNL     1     -10.201  46.368 -25.390  1.00  0.00     0.072 A 
HETATM   13  C17 UNL     1     -10.399  46.555 -23.955  1.00  0.00     0.245 A 
HETATM   14  O4  UNL     1      -9.405  46.597 -23.230  1.00  0.00    -0.268 OA
HETATM   15  N1  UNL     1     -11.623  46.666 -23.413  1.00  0.00    -0.320 N 
HETATM   16  C18 UNL     1     -12.921  46.635 -23.859  1.00  0.00     0.098 A 
HETATM   17  C19 UNL     1     -13.381  46.527 -25.117  1.00  0.00     0.045 A 
HETATM   18  C20 UNL     1     -14.880  46.525 -25.306  1.00  0.00     0.194 C 
HETATM   19  O5  UNL     1     -15.362  46.718 -26.413  1.00  0.00    -0.287 OA
HETATM   20  C21 UNL     1     -15.801  46.347 -24.167  1.00  0.00     0.046 A 
HETATM   21  C22 UNL     1     -15.296  46.550 -22.892  1.00  0.00     0.032 A 
HETATM   22  C23 UNL     1     -16.139  46.554 -21.768  1.00  0.00     0.026 A 
HETATM   23  C24 UNL     1     -17.517  46.376 -21.911  1.00  0.00    -0.027 A 
HETATM   24  C25 UNL     1     -18.410  46.391 -20.703  1.00  0.00     0.051 C 
HETATM   25  C26 UNL     1     -18.027  46.145 -23.190  1.00  0.00     0.086 A 
HETATM   26  C27 UNL     1     -17.180  46.094 -24.318  1.00  0.00     0.059 A 
HETATM   27  C28 UNL     1     -17.825  45.693 -25.598  1.00  0.00     0.163 C 
HETATM   28  O7  UNL     1     -18.925  46.178 -25.865  1.00  0.00    -0.292 OA
HETATM   29  C29 UNL     1     -17.185  44.603 -26.426  1.00  0.00     0.084 C 
HETATM   30  C30 UNL     1     -18.186  43.511 -26.813  1.00  0.00     0.016 C 
HETATM   31  C31 UNL     1     -13.863  46.763 -22.693  1.00  0.00     0.210 C 
HETATM   32  O8  UNL     1     -13.418  47.011 -21.574  1.00  0.00    -0.285 OA
HETATM   33  H26 UNL     1     -11.546  46.790 -22.399  1.00  0.00     0.169 HD
ENDROOT
BRANCH   5  34
HETATM   34  C8  UNL     1     -11.931  42.085 -25.744  1.00  0.00     0.039 C 
BRANCH  34  35
HETATM   35  C9  UNL     1     -10.453  41.947 -26.154  1.00  0.00    -0.020 C 
HETATM   36  C10 UNL     1      -9.555  42.406 -25.001  1.00  0.00     0.009 C 
HETATM   37  C11 UNL     1     -10.117  42.742 -27.416  1.00  0.00     0.009 C 
ENDBRANCH  34  35
ENDBRANCH   5  34
BRANCH   4  38
HETATM   38  O1  UNL     1     -14.952  42.026 -25.705  1.00  0.00    -0.389 OA
HETATM   39  H10 UNL     1     -14.591  41.340 -25.119  1.00  0.00     0.210 HD
ENDBRANCH   4  38
BRANCH   1  40
HETATM   40  C2  UNL     1     -18.497  41.248 -27.966  1.00  0.00     0.004 C 
HETATM   41  C1  UNL     1     -19.802  41.912 -28.383  1.00  0.00     0.006 C 
ENDBRANCH   1  40
BRANCH  25  42
HETATM   42  O6  UNL     1     -19.384  45.962 -23.294  1.00  0.00    -0.359 OA
HETATM   43  H31 UNL     1     -19.647  46.091 -24.234  1.00  0.00     0.217 HD
ENDBRANCH  25  42
TORSDOF 5
ENDMDL
MODEL 4
REMARK minimizedAffinity -6.99134874
REMARK CNNscore 0.445054442
REMARK CNNaffinity 5.50934029
REMARK  5 active torsions:
REMARK  status: ('A' for Active; 'I' for Inactive)
REMARK    1  A    between atoms: C2_2  and  C3_3 
REMARK    2  A    between atoms: C6_6  and  O1_7 
REMARK    3  A    between atoms: C7_8  and  C8_9 
REMARK    4  A    between atoms: C8_9  and  C9_10 
REMARK    5  A    between atoms: C26_32  and  O6_33 
ROOT
HETATM    1  C3  UNL     1     -19.186  39.519 -22.085  1.00  0.00     0.008 C 
HETATM    2  C4  UNL     1     -19.295  39.139 -23.545  1.00  0.00    -0.023 C 
HETATM    3  C5  UNL     1     -18.365  39.222 -24.514  1.00  0.00     0.003 C 
HETATM    4  C6  UNL     1     -16.929  39.690 -24.491  1.00  0.00     0.170 C 
HETATM    5  C7  UNL     1     -16.495  40.406 -25.801  1.00  0.00     0.164 C 
HETATM    6  O2  UNL     1     -17.077  41.736 -25.890  1.00  0.00    -0.312 OA
HETATM    7  C12 UNL     1     -18.107  41.906 -26.773  1.00  0.00     0.276 C 
HETATM    8  O3  UNL     1     -18.733  40.985 -27.285  1.00  0.00    -0.264 OA
HETATM    9  C13 UNL     1     -18.206  43.394 -27.222  1.00  0.00     0.095 A 
HETATM   10  C14 UNL     1     -19.593  43.681 -27.853  1.00  0.00     0.036 C 
HETATM   11  C15 UNL     1     -17.241  43.412 -28.397  1.00  0.00     0.003 A 
HETATM   12  C16 UNL     1     -16.166  44.141 -28.692  1.00  0.00     0.072 A 
HETATM   13  C17 UNL     1     -15.534  45.232 -27.954  1.00  0.00     0.245 A 
HETATM   14  O4  UNL     1     -14.554  45.783 -28.454  1.00  0.00    -0.268 OA
HETATM   15  N1  UNL     1     -15.982  45.633 -26.752  1.00  0.00    -0.320 N 
HETATM   16  C18 UNL     1     -16.979  45.265 -25.883  1.00  0.00     0.098 A 
HETATM   17  C19 UNL     1     -17.931  44.328 -26.034  1.00  0.00     0.045 A 
HETATM   18  C20 UNL     1     -18.907  44.147 -24.895  1.00  0.00     0.194 C 
HETATM   19  O5  UNL     1     -19.951  43.533 -25.071  1.00  0.00    -0.287 OA
HETATM   20  C21 UNL     1     -18.665  44.742 -23.568  1.00  0.00     0.046 A 
HETATM   21  C22 UNL     1     -17.730  45.763 -23.480  1.00  0.00     0.032 A 
HETATM   22  C23 UNL     1     -17.553  46.487 -22.290  1.00  0.00     0.026 A 
HETATM   23  C24 UNL     1     -18.334  46.210 -21.165  1.00  0.00    -0.027 A 
HETATM   24  C25 UNL     1     -18.142  46.996 -19.900  1.00  0.00     0.051 C 
HETATM   25  C26 UNL     1     -19.258  45.165 -21.240  1.00  0.00     0.086 A 
HETATM   26  C27 UNL     1     -19.409  44.404 -22.419  1.00  0.00     0.059 A 
HETATM   27  C28 UNL     1     -20.315  43.227 -22.322  1.00  0.00     0.163 C 
HETATM   28  O7  UNL     1     -21.382  43.371 -21.722  1.00  0.00    -0.292 OA
HETATM   29  C29 UNL     1     -19.825  41.887 -22.818  1.00  0.00     0.084 C 
HETATM   30  C30 UNL     1     -20.021  40.782 -21.778  1.00  0.00     0.016 C 
HETATM   31  C31 UNL     1     -16.903  46.106 -24.638  1.00  0.00     0.210 C 
HETATM   32  O8  UNL     1     -16.122  47.053 -24.588  1.00  0.00    -0.285 OA
HETATM   33  H26 UNL     1     -15.406  46.405 -26.405  1.00  0.00     0.169 HD
ENDROOT
BRANCH   5  34
HETATM   34  C8  UNL     1     -14.973  40.660 -25.878  1.00  0.00     0.039 C 
BRANCH  34  35
HETATM   35  C9  UNL     1     -14.502  41.748 -26.860  1.00  0.00    -0.020 C 
HETATM   36  C10 UNL     1     -13.994  41.093 -28.148  1.00  0.00     0.009 C 
HETATM   37  C11 UNL     1     -13.407  42.638 -26.269  1.00  0.00     0.009 C 
ENDBRANCH  34  35
ENDBRANCH   5  34
BRANCH   4  38
HETATM   38  O1  UNL     1     -16.662  40.534 -23.375  1.00  0.00    -0.389 OA
HETATM   39  H10 UNL     1     -15.722  40.428 -23.157  1.00  0.00     0.210 HD
ENDBRANCH   4  38
BRANCH   1  40
HETATM   40  C2  UNL     1     -19.614  38.318 -21.217  1.00  0.00     0.004 C 
HETATM   41  C1  UNL     1     -20.592  38.687 -20.110  1.00  0.00     0.006 C 
ENDBRANCH   1  40
BRANCH  25  42
HETATM   42  O6  UNL     1     -20.000  44.911 -20.113  1.00  0.00    -0.359 OA
HETATM   43  H31 UNL     1     -20.782  44.370 -20.368  1.00  0.00     0.217 HD
ENDBRANCH  25  42
TORSDOF 5
ENDMDL
MODEL 5
REMARK minimizedAffinity -7.12017441
REMARK CNNscore 0.425285727
REMARK CNNaffinity 6.04218435
REMARK  5 active torsions:
REMARK  status: ('A' for Active; 'I' for Inactive)
REMARK    1  A    between atoms: C2_2  and  C3_3 
REMARK    2  A    between atoms: C6_6  and  O1_7 
REMARK    3  A    between atoms: C7_8  and  C8_9 
REMARK    4  A    between atoms: C8_9  and  C9_10 
REMARK    5  A    between atoms: C26_32  and  O6_33 
ROOT
HETATM    1  C3  UNL     1       6.127  49.809  -9.480  1.00  0.00     0.008 C 
HETATM    2  C4  UNL     1       6.875  51.095  -9.758  1.00  0.00    -0.023 C 
HETATM    3  C5  UNL     1       7.026  52.175  -8.970  1.00  0.00     0.003 C 
HETATM    4  C6  UNL     1       6.539  52.475  -7.572  1.00  0.00     0.170 C 
HETATM    5  C7  UNL     1       6.178  53.971  -7.355  1.00  0.00     0.164 C 
HETATM    6  O2  UNL     1       4.929  54.312  -8.019  1.00  0.00    -0.312 OA
HETATM    7  C12 UNL     1       5.015  55.054  -9.163  1.00  0.00     0.276 C 
HETATM    8  O3  UNL     1       6.051  55.221  -9.798  1.00  0.00    -0.264 OA
HETATM    9  C13 UNL     1       3.696  55.847  -9.405  1.00  0.00     0.095 A 
HETATM   10  C14 UNL     1       3.612  56.327 -10.876  1.00  0.00     0.036 C 
HETATM   11  C15 UNL     1       3.964  57.112  -8.605  1.00  0.00     0.003 A 
HETATM   12  C16 UNL     1       3.314  57.732  -7.621  1.00  0.00     0.072 A 
HETATM   13  C17 UNL     1       2.057  57.392  -6.960  1.00  0.00     0.245 A 
HETATM   14  O4  UNL     1       1.634  58.149  -6.087  1.00  0.00    -0.268 OA
HETATM   15  N1  UNL     1       1.367  56.280  -7.268  1.00  0.00    -0.320 N 
HETATM   16  C18 UNL     1       1.518  55.214  -8.120  1.00  0.00     0.098 A 
HETATM   17  C19 UNL     1       2.481  54.986  -9.029  1.00  0.00     0.045 A 
HETATM   18  C20 UNL     1       2.381  53.712  -9.835  1.00  0.00     0.194 C 
HETATM   19  O5  UNL     1       3.041  53.577 -10.856  1.00  0.00    -0.287 OA
HETATM   20  C21 UNL     1       1.457  52.628  -9.454  1.00  0.00     0.046 A 
HETATM   21  C22 UNL     1       0.429  52.935  -8.575  1.00  0.00     0.032 A 
HETATM   22  C23 UNL     1      -0.582  52.005  -8.284  1.00  0.00     0.026 A 
HETATM   23  C24 UNL     1      -0.589  50.748  -8.894  1.00  0.00    -0.027 A 
HETATM   24  C25 UNL     1      -1.680  49.764  -8.582  1.00  0.00     0.051 C 
HETATM   25  C26 UNL     1       0.458  50.423  -9.758  1.00  0.00     0.086 A 
HETATM   26  C27 UNL     1       1.501  51.337 -10.020  1.00  0.00     0.059 A 
HETATM   27  C28 UNL     1       2.631  50.817 -10.838  1.00  0.00     0.163 C 
HETATM   28  O7  UNL     1       2.359  50.128 -11.822  1.00  0.00    -0.292 OA
HETATM   29  C29 UNL     1       4.044  51.021 -10.343  1.00  0.00     0.084 C 
HETATM   30  C30 UNL     1       4.846  49.718 -10.337  1.00  0.00     0.016 C 
HETATM   31  C31 UNL     1       0.382  54.246  -7.928  1.00  0.00     0.210 C 
HETATM   32  O8  UNL     1      -0.563  54.550  -7.202  1.00  0.00    -0.285 OA
HETATM   33  H26 UNL     1       0.520  56.226  -6.696  1.00  0.00     0.169 HD
ENDROOT
BRANCH   5  34
HETATM   34  C8  UNL     1       5.922  54.325  -5.874  1.00  0.00     0.039 C 
BRANCH  34  35
HETATM   35  C9  UNL     1       6.810  55.423  -5.261  1.00  0.00    -0.020 C 
HETATM   36  C10 UNL     1       6.601  56.736  -6.021  1.00  0.00     0.009 C 
HETATM   37  C11 UNL     1       8.294  55.053  -5.273  1.00  0.00     0.009 C 
ENDBRANCH  34  35
ENDBRANCH   5  34
BRANCH   4  38
HETATM   38  O1  UNL     1       5.430  51.659  -7.209  1.00  0.00    -0.389 OA
HETATM   39  H10 UNL     1       5.455  51.556  -6.243  1.00  0.00     0.210 HD
ENDBRANCH   4  38
BRANCH   1  40
HETATM   40  C2  UNL     1       7.071  48.613  -9.722  1.00  0.00     0.004 C 
HETATM   41  C1  UNL     1       8.317  48.635  -8.847  1.00  0.00     0.006 C 
ENDBRANCH   1  40
BRANCH  25  42
HETATM   42  O6  UNL     1       0.426  49.176 -10.331  1.00  0.00    -0.359 OA
HETATM   43  H31 UNL     1       1.031  49.171 -11.107  1.00  0.00     0.217 HD
ENDBRANCH  25  42
TORSDOF 5
ENDMDL
MODEL 6
REMARK minimizedAffinity -6.75847816
REMARK CNNscore 0.400450587
REMARK CNNaffinity 6.30521631
REMARK  5 active torsions:
REMARK  status: ('A' for Active; 'I' for Inactive)
REMARK    1  A    between atoms: C2_2  and  C3_3 
REMARK    2  A    between atoms: C6_6  and  O1_7 
REMARK    3  A    between atoms: C7_8  and  C8_9 
REMARK    4  A    between atoms: C8_9  and  C9_10 
REMARK    5  A    between atoms: C26_32  and  O6_33 
ROOT
HETATM    1  C3  UNL     1       4.840  49.538  -9.411  1.00  0.00     0.008 C 
HETATM    2  C4  UNL     1       5.610  50.676  -8.776  1.00  0.00    -0.023 C 
HETATM    3  C5  UNL     1       5.254  51.471  -7.751  1.00  0.00     0.003 C 
HETATM    4  C6  UNL     1       4.017  51.504  -6.886  1.00  0.00     0.170 C 
HETATM    5  C7  UNL     1       3.608  52.939  -6.452  1.00  0.00     0.164 C 
HETATM    6  O2  UNL     1       3.027  53.679  -7.562  1.00  0.00    -0.312 OA
HETATM    7  C12 UNL     1       3.799  54.651  -8.134  1.00  0.00     0.276 C 
HETATM    8  O3  UNL     1       5.008  54.760  -7.960  1.00  0.00    -0.264 OA
HETATM    9  C13 UNL     1       2.908  55.726  -8.823  1.00  0.00     0.095 A 
HETATM   10  C14 UNL     1       3.743  56.567  -9.823  1.00  0.00     0.036 C 
HETATM   11  C15 UNL     1       2.639  56.671  -7.663  1.00  0.00     0.003 A 
HETATM   12  C16 UNL     1       1.527  57.143  -7.100  1.00  0.00     0.072 A 
HETATM   13  C17 UNL     1       0.125  56.907  -7.439  1.00  0.00     0.245 A 
HETATM   14  O4  UNL     1      -0.738  57.491  -6.785  1.00  0.00    -0.268 OA
HETATM   15  N1  UNL     1      -0.239  56.070  -8.424  1.00  0.00    -0.320 N 
HETATM   16  C18 UNL     1       0.394  55.243  -9.319  1.00  0.00     0.098 A 
HETATM   17  C19 UNL     1       1.711  55.061  -9.518  1.00  0.00     0.045 A 
HETATM   18  C20 UNL     1       2.117  54.076 -10.590  1.00  0.00     0.194 C 
HETATM   19  O5  UNL     1       3.262  54.071 -11.019  1.00  0.00    -0.287 OA
HETATM   20  C21 UNL     1       1.145  53.139 -11.185  1.00  0.00     0.046 A 
HETATM   21  C22 UNL     1      -0.203  53.416 -11.019  1.00  0.00     0.032 A 
HETATM   22  C23 UNL     1      -1.187  52.665 -11.683  1.00  0.00     0.026 A 
HETATM   23  C24 UNL     1      -0.829  51.629 -12.548  1.00  0.00    -0.027 A 
HETATM   24  C25 UNL     1      -1.889  50.837 -13.259  1.00  0.00     0.051 C 
HETATM   25  C26 UNL     1       0.527  51.328 -12.697  1.00  0.00     0.086 A 
HETATM   26  C27 UNL     1       1.518  52.049 -11.998  1.00  0.00     0.059 A 
HETATM   27  C28 UNL     1       2.909  51.534 -12.127  1.00  0.00     0.163 C 
HETATM   28  O7  UNL     1       3.291  51.182 -13.244  1.00  0.00    -0.292 OA
HETATM   29  C29 UNL     1       3.726  51.321 -10.873  1.00  0.00     0.084 C 
HETATM   30  C30 UNL     1       4.349  49.924 -10.824  1.00  0.00     0.016 C 
HETATM   31  C31 UNL     1      -0.628  54.506 -10.141  1.00  0.00     0.210 C 
HETATM   32  O8  UNL     1      -1.817  54.802 -10.043  1.00  0.00    -0.285 OA
HETATM   33  H26 UNL     1      -1.260  56.045  -8.502  1.00  0.00     0.169 HD
ENDROOT
BRANCH   5  34
HETATM   34  C8  UNL     1       2.502  52.955  -5.374  1.00  0.00     0.039 C 
BRANCH  34  35
HETATM   35  C9  UNL     1       2.621  54.028  -4.276  1.00  0.00    -0.020 C 
HETATM   36  C10 UNL     1       1.355  54.889  -4.259  1.00  0.00     0.009 C 
HETATM   37  C11 UNL     1       3.849  54.922  -4.459  1.00  0.00     0.009 C 
ENDBRANCH  34  35
ENDBRANCH   5  34
BRANCH   4  38
HETATM   38  O1  UNL     1       2.911  50.863  -7.515  1.00  0.00    -0.389 OA
HETATM   39  H10 UNL     1       2.341  50.519  -6.809  1.00  0.00     0.210 HD
ENDBRANCH   4  38
BRANCH   1  40
HETATM   40  C2  UNL     1       5.727  48.277  -9.432  1.00  0.00     0.004 C 
HETATM   41  C1  UNL     1       5.768  47.541  -8.100  1.00  0.00     0.006 C 
ENDBRANCH   1  40
BRANCH  25  42
HETATM   42  O6  UNL     1       0.844  50.295 -13.545  1.00  0.00    -0.359 OA
HETATM   43  H31 UNL     1       1.797  50.364 -13.780  1.00  0.00     0.217 HD
ENDBRANCH  25  42
TORSDOF 5
ENDMDL
MODEL 7
REMARK minimizedAffinity -6.73459482
REMARK CNNscore 0.383952141
REMARK CNNaffinity 5.2571969
REMARK  5 active torsions:
REMARK  status: ('A' for Active; 'I' for Inactive)
REMARK    1  A    between atoms: C2_2  and  C3_3 
REMARK    2  A    between atoms: C6_6  and  O1_7 
REMARK    3  A    between atoms: C7_8  and  C8_9 
REMARK    4  A    between atoms: C8_9  and  C9_10 
REMARK    5  A    between atoms: C26_32  and  O6_33 
ROOT
HETATM    1  C3  UNL     1      -8.918  45.554 -23.628  1.00  0.00     0.008 C 
HETATM    2  C4  UNL     1      -9.888  45.436 -22.473  1.00  0.00    -0.023 C 
HETATM    3  C5  UNL     1     -10.863  44.530 -22.275  1.00  0.00     0.003 C 
HETATM    4  C6  UNL     1     -11.312  43.341 -23.092  1.00  0.00     0.170 C 
HETATM    5  C7  UNL     1     -12.844  43.093 -23.025  1.00  0.00     0.164 C 
HETATM    6  O2  UNL     1     -13.571  44.084 -23.803  1.00  0.00    -0.312 OA
HETATM    7  C12 UNL     1     -14.240  45.053 -23.107  1.00  0.00     0.276 C 
HETATM    8  O3  UNL     1     -14.057  45.296 -21.920  1.00  0.00    -0.264 OA
HETATM    9  C13 UNL     1     -15.419  45.621 -23.952  1.00  0.00     0.095 A 
HETATM   10  C14 UNL     1     -15.895  46.980 -23.377  1.00  0.00     0.036 C 
HETATM   11  C15 UNL     1     -16.531  44.647 -23.597  1.00  0.00     0.003 A 
HETATM   12  C16 UNL     1     -17.333  43.865 -24.318  1.00  0.00     0.072 A 
HETATM   13  C17 UNL     1     -17.425  43.688 -25.766  1.00  0.00     0.245 A 
HETATM   14  O4  UNL     1     -18.282  42.922 -26.206  1.00  0.00    -0.268 OA
HETATM   15  N1  UNL     1     -16.598  44.320 -26.615  1.00  0.00    -0.320 N 
HETATM   16  C18 UNL     1     -15.538  45.186 -26.520  1.00  0.00     0.098 A 
HETATM   17  C19 UNL     1     -15.004  45.753 -25.425  1.00  0.00     0.045 A 
HETATM   18  C20 UNL     1     -13.829  46.681 -25.631  1.00  0.00     0.194 C 
HETATM   19  O5  UNL     1     -13.481  47.442 -24.739  1.00  0.00    -0.287 OA
HETATM   20  C21 UNL     1     -13.107  46.739 -26.916  1.00  0.00     0.046 A 
HETATM   21  C22 UNL     1     -13.737  46.212 -28.034  1.00  0.00     0.032 A 
HETATM   22  C23 UNL     1     -13.189  46.366 -29.317  1.00  0.00     0.026 A 
HETATM   23  C24 UNL     1     -12.001  47.077 -29.504  1.00  0.00    -0.027 A 
HETATM   24  C25 UNL     1     -11.428  47.242 -30.882  1.00  0.00     0.051 C 
HETATM   25  C26 UNL     1     -11.349  47.586 -28.379  1.00  0.00     0.086 A 
HETATM   26  C27 UNL     1     -11.871  47.395 -27.082  1.00  0.00     0.059 A 
HETATM   27  C28 UNL     1     -11.007  47.855 -25.960  1.00  0.00     0.163 C 
HETATM   28  O7  UNL     1     -10.440  48.942 -26.077  1.00  0.00    -0.292 OA
HETATM   29  C29 UNL     1     -10.741  46.910 -24.810  1.00  0.00     0.084 C 
HETATM   30  C30 UNL     1      -9.247  46.785 -24.502  1.00  0.00     0.016 C 
HETATM   31  C31 UNL     1     -14.995  45.478 -27.892  1.00  0.00     0.210 C 
HETATM   32  O8  UNL     1     -15.593  45.069 -28.885  1.00  0.00    -0.285 OA
HETATM   33  H26 UNL     1     -16.826  44.062 -27.580  1.00  0.00     0.169 HD
ENDROOT
BRANCH   5  34
HETATM   34  C8  UNL     1     -13.269  41.745 -23.649  1.00  0.00     0.039 C 
BRANCH  34  35
HETATM   35  C9  UNL     1     -13.374  41.696 -25.184  1.00  0.00    -0.020 C 
HETATM   36  C10 UNL     1     -12.941  43.042 -25.772  1.00  0.00     0.009 C 
HETATM   37  C11 UNL     1     -14.786  41.354 -25.665  1.00  0.00     0.009 C 
ENDBRANCH  34  35
ENDBRANCH   5  34
BRANCH   4  38
HETATM   38  O1  UNL     1     -10.904  43.446 -24.452  1.00  0.00    -0.389 OA
HETATM   39  H10 UNL     1     -10.803  42.542 -24.790  1.00  0.00     0.210 HD
ENDBRANCH   4  38
BRANCH   1  40
HETATM   40  C2  UNL     1      -7.479  45.606 -23.077  1.00  0.00     0.004 C 
HETATM   41  C1  UNL     1      -6.865  46.998 -23.109  1.00  0.00     0.006 C 
ENDBRANCH   1  40
BRANCH  25  42
HETATM   42  O6  UNL     1     -10.177  48.268 -28.596  1.00  0.00    -0.359 OA
HETATM   43  H31 UNL     1      -9.972  48.803 -27.795  1.00  0.00     0.217 HD
ENDBRANCH  25  42
TORSDOF 5
ENDMDL
MODEL 8
REMARK minimizedAffinity -6.81401491
REMARK CNNscore 0.381800681
REMARK CNNaffinity 5.22963715
REMARK  5 active torsions:
REMARK  status: ('A' for Active; 'I' for Inactive)
REMARK    1  A    between atoms: C2_2  and  C3_3 
REMARK    2  A    between atoms: C6_6  and  O1_7 
REMARK    3  A    between atoms: C7_8  and  C8_9 
REMARK    4  A    between atoms: C8_9  and  C9_10 
REMARK    5  A    between atoms: C26_32  and  O6_33 
ROOT
HETATM    1  C3  UNL     1      -9.876  43.953 -22.170  1.00  0.00     0.008 C 
HETATM    2  C4  UNL     1     -10.134  44.466 -20.770  1.00  0.00    -0.023 C 
HETATM    3  C5  UNL     1     -11.162  44.194 -19.945  1.00  0.00     0.003 C 
HETATM    4  C6  UNL     1     -12.370  43.301 -20.104  1.00  0.00     0.170 C 
HETATM    5  C7  UNL     1     -13.642  43.857 -19.405  1.00  0.00     0.164 C 
HETATM    6  O2  UNL     1     -14.197  44.982 -20.142  1.00  0.00    -0.312 OA
HETATM    7  C12 UNL     1     -14.013  46.227 -19.608  1.00  0.00     0.276 C 
HETATM    8  O3  UNL     1     -13.207  46.482 -18.720  1.00  0.00    -0.264 OA
HETATM    9  C13 UNL     1     -15.120  47.205 -20.100  1.00  0.00     0.095 A 
HETATM   10  C14 UNL     1     -14.689  48.676 -19.869  1.00  0.00     0.036 C 
HETATM   11  C15 UNL     1     -16.208  46.961 -19.066  1.00  0.00     0.003 A 
HETATM   12  C16 UNL     1     -17.489  46.605 -19.146  1.00  0.00     0.072 A 
HETATM   13  C17 UNL     1     -18.321  46.332 -20.316  1.00  0.00     0.245 A 
HETATM   14  O4  UNL     1     -19.505  46.050 -20.136  1.00  0.00    -0.268 OA
HETATM   15  N1  UNL     1     -17.827  46.367 -21.565  1.00  0.00    -0.320 N 
HETATM   16  C18 UNL     1     -16.608  46.597 -22.153  1.00  0.00     0.098 A 
HETATM   17  C19 UNL     1     -15.444  46.944 -21.578  1.00  0.00     0.045 A 
HETATM   18  C20 UNL     1     -14.254  47.134 -22.490  1.00  0.00     0.194 C 
HETATM   19  O5  UNL     1     -13.257  47.719 -22.089  1.00  0.00    -0.287 OA
HETATM   20  C21 UNL     1     -14.276  46.678 -23.893  1.00  0.00     0.046 A 
HETATM   21  C22 UNL     1     -15.511  46.411 -24.465  1.00  0.00     0.032 A 
HETATM   22  C23 UNL     1     -15.631  46.123 -25.834  1.00  0.00     0.026 A 
HETATM   23  C24 UNL     1     -14.506  46.123 -26.663  1.00  0.00    -0.027 A 
HETATM   24  C25 UNL     1     -14.648  45.823 -28.128  1.00  0.00     0.051 C 
HETATM   25  C26 UNL     1     -13.258  46.365 -26.087  1.00  0.00     0.086 A 
HETATM   26  C27 UNL     1     -13.125  46.609 -24.704  1.00  0.00     0.059 A 
HETATM   27  C28 UNL     1     -11.730  46.703 -24.191  1.00  0.00     0.163 C 
HETATM   28  O7  UNL     1     -10.914  47.344 -24.856  1.00  0.00    -0.292 OA
HETATM   29  C29 UNL     1     -11.343  45.890 -22.978  1.00  0.00     0.084 C 
HETATM   30  C30 UNL     1     -10.069  45.075 -23.214  1.00  0.00     0.016 C 
HETATM   31  C31 UNL     1     -16.720  46.421 -23.643  1.00  0.00     0.210 C 
HETATM   32  O8  UNL     1     -17.825  46.252 -24.155  1.00  0.00    -0.285 OA
HETATM   33  H26 UNL     1     -18.567  46.149 -22.239  1.00  0.00     0.169 HD
ENDROOT
BRANCH   5  34
HETATM   34  C8  UNL     1     -14.801  42.837 -19.353  1.00  0.00     0.039 C 
BRANCH  34  35
HETATM   35  C9  UNL     1     -15.637  42.806 -18.061  1.00  0.00    -0.020 C 
HETATM   36  C10 UNL     1     -17.104  43.096 -18.391  1.00  0.00     0.009 C 
HETATM   37  C11 UNL     1     -15.138  43.803 -17.014  1.00  0.00     0.009 C 
ENDBRANCH  34  35
ENDBRANCH   5  34
BRANCH   4  38
HETATM   38  O1  UNL     1     -12.656  43.033 -21.473  1.00  0.00    -0.389 OA
HETATM   39  H10 UNL     1     -13.092  42.166 -21.509  1.00  0.00     0.210 HD
ENDBRANCH   4  38
BRANCH   1  40
HETATM   40  C2  UNL     1      -8.459  43.345 -22.231  1.00  0.00     0.004 C 
HETATM   41  C1  UNL     1      -8.386  41.922 -21.696  1.00  0.00     0.006 C 
ENDBRANCH   1  40
BRANCH  25  42
HETATM   42  O6  UNL     1     -12.172  46.345 -26.928  1.00  0.00    -0.359 OA
HETATM   43  H31 UNL     1     -11.420  46.795 -26.479  1.00  0.00     0.217 HD
ENDBRANCH  25  42
TORSDOF 5
ENDMDL
MODEL 9
REMARK minimizedAffinity -7.13537025
REMARK CNNscore 0.311846018
REMARK CNNaffinity 5.96148491
REMARK  5 active torsions:
REMARK  status: ('A' for Active; 'I' for Inactive)
REMARK    1  A    between atoms: C2_2  and  C3_3 
REMARK    2  A    between atoms: C6_6  and  O1_7 
REMARK    3  A    between atoms: C7_8  and  C8_9 
REMARK    4  A    between atoms: C8_9  and  C9_10 
REMARK    5  A    between atoms: C26_32  and  O6_33 
ROOT
HETATM    1  C3  UNL     1      -1.757  54.062 -10.073  1.00  0.00     0.008 C 
HETATM    2  C4  UNL     1      -0.723  53.965 -11.174  1.00  0.00    -0.023 C 
HETATM    3  C5  UNL     1       0.275  53.075 -11.323  1.00  0.00     0.003 C 
HETATM    4  C6  UNL     1       0.696  51.888 -10.489  1.00  0.00     0.170 C 
HETATM    5  C7  UNL     1       2.234  51.664 -10.472  1.00  0.00     0.164 C 
HETATM    6  O2  UNL     1       2.902  52.661  -9.651  1.00  0.00    -0.312 OA
HETATM    7  C12 UNL     1       3.593  53.643 -10.304  1.00  0.00     0.276 C 
HETATM    8  O3  UNL     1       3.472  53.891 -11.498  1.00  0.00    -0.264 OA
HETATM    9  C13 UNL     1       4.715  54.224  -9.393  1.00  0.00     0.095 A 
HETATM   10  C14 UNL     1       5.200  55.593  -9.934  1.00  0.00     0.036 C 
HETATM   11  C15 UNL     1       5.859  53.269  -9.691  1.00  0.00     0.003 A 
HETATM   12  C16 UNL     1       6.633  52.495  -8.930  1.00  0.00     0.072 A 
HETATM   13  C17 UNL     1       6.648  52.311  -7.481  1.00  0.00     0.245 A 
HETATM   14  O4  UNL     1       7.491  51.556  -6.999  1.00  0.00    -0.268 OA
HETATM   15  N1  UNL     1       5.766  52.926  -6.675  1.00  0.00    -0.320 N 
HETATM   16  C18 UNL     1       4.699  53.777  -6.824  1.00  0.00     0.098 A 
HETATM   17  C19 UNL     1       4.217  54.342  -7.944  1.00  0.00     0.045 A 
HETATM   18  C20 UNL     1       3.019  55.251  -7.798  1.00  0.00     0.194 C 
HETATM   19  O5  UNL     1       2.709  56.012  -8.704  1.00  0.00    -0.287 OA
HETATM   20  C21 UNL     1       2.227  55.290  -6.555  1.00  0.00     0.046 A 
HETATM   21  C22 UNL     1       2.803  54.766  -5.407  1.00  0.00     0.032 A 
HETATM   22  C23 UNL     1       2.183  54.905  -4.154  1.00  0.00     0.026 A 
HETATM   23  C24 UNL     1       0.975  55.596  -4.030  1.00  0.00    -0.027 A 
HETATM   24  C25 UNL     1       0.325  55.746  -2.684  1.00  0.00     0.051 C 
HETATM   25  C26 UNL     1       0.378  56.102  -5.186  1.00  0.00     0.086 A 
HETATM   26  C27 UNL     1       0.973  55.927  -6.454  1.00  0.00     0.059 A 
HETATM   27  C28 UNL     1       0.165  56.380  -7.619  1.00  0.00     0.163 C 
HETATM   28  O7  UNL     1      -0.423  57.458  -7.527  1.00  0.00    -0.292 OA
HETATM   29  C29 UNL     1      -0.023  55.438  -8.786  1.00  0.00     0.084 C 
HETATM   30  C30 UNL     1      -1.495  55.293  -9.176  1.00  0.00     0.016 C 
HETATM   31  C31 UNL     1       4.077  54.053  -5.482  1.00  0.00     0.210 C 
HETATM   32  O8  UNL     1       4.627  53.646  -4.460  1.00  0.00    -0.285 OA
HETATM   33  H26 UNL     1       5.944  52.666  -5.700  1.00  0.00     0.169 HD
ENDROOT
BRANCH   5  34
HETATM   34  C8  UNL     1       2.644  50.318  -9.833  1.00  0.00     0.039 C 
BRANCH  34  35
HETATM   35  C9  UNL     1       3.619  49.439 -10.636  1.00  0.00    -0.020 C 
HETATM   36  C10 UNL     1       5.006  49.486  -9.989  1.00  0.00     0.009 C 
HETATM   37  C11 UNL     1       3.721  49.864 -12.103  1.00  0.00     0.009 C 
ENDBRANCH  34  35
ENDBRANCH   5  34
BRANCH   4  38
HETATM   38  O1  UNL     1       0.213  51.980  -9.152  1.00  0.00    -0.389 OA
HETATM   39  H10 UNL     1       0.107  51.072  -8.824  1.00  0.00     0.210 HD
ENDBRANCH   4  38
BRANCH   1  40
HETATM   40  C2  UNL     1      -3.165  54.095 -10.703  1.00  0.00     0.004 C 
HETATM   41  C1  UNL     1      -3.681  52.721 -11.108  1.00  0.00     0.006 C 
ENDBRANCH   1  40
BRANCH  25  42
HETATM   42  O6  UNL     1      -0.814  56.766  -5.030  1.00  0.00    -0.359 OA
HETATM   43  H31 UNL     1      -0.982  57.302  -5.838  1.00  0.00     0.217 HD
ENDBRANCH  25  42
TORSDOF 5
ENDMDL
