MODEL 1
REMARK minimizedAffinity -7.50489235
REMARK CNNscore 0.807336569
REMARK CNNaffinity 6.97478724
REMARK  4 active torsions:
REMARK  status: ('A' for Active; 'I' for Inactive)
REMARK    1  A    between atoms: C4_4  and  C5_5 
REMARK    2  A    between atoms: C5_5  and  C6_7 
REMARK    3  A    between atoms: C6_7  and  C7_8 
REMARK    4  A    between atoms: C7_8  and  C9_10 
ROOT
HETATM    1  C9  UNL     1      -1.134  52.817 -10.362  1.00  0.00    -0.002 C 
HETATM    2  C10 UNL     1      -0.450  52.826 -11.763  1.00  0.00     0.006 C 
HETATM    3  C11 UNL     1       0.713  53.838 -11.707  1.00  0.00     0.011 C 
HETATM    4  C12 UNL     1       0.881  54.159 -10.215  1.00  0.00    -0.032 C 
HETATM    5  C13 UNL     1       1.737  52.995  -9.602  1.00  0.00     0.016 C 
HETATM    6  C14 UNL     1       1.566  55.525  -9.869  1.00  0.00     0.004 C 
HETATM    7  C15 UNL     1       2.962  55.662 -10.526  1.00  0.00     0.007 C 
HETATM    8  C16 UNL     1       4.155  56.005  -9.635  1.00  0.00     0.007 C 
HETATM    9  C17 UNL     1       4.101  55.302  -8.274  1.00  0.00     0.010 C 
HETATM   10  C18 UNL     1       5.347  55.567  -7.366  1.00  0.00     0.018 C 
HETATM   11  C19 UNL     1       5.515  57.045  -6.978  1.00  0.00     0.023 C 
HETATM   12  C20 UNL     1       6.638  55.081  -8.055  1.00  0.00     0.023 C 
HETATM   13  C21 UNL     1       5.198  54.765  -6.065  1.00  0.00     0.135 C 
HETATM   14  O2  UNL     1       6.123  54.650  -5.258  1.00  0.00    -0.297 OA
HETATM   15  C22 UNL     1       3.882  54.075  -5.811  1.00  0.00     0.080 C 
HETATM   16  C23 UNL     1       2.732  55.019  -6.116  1.00  0.00     0.018 C 
HETATM   17  C24 UNL     1       2.794  55.606  -7.523  1.00  0.00    -0.026 A 
HETATM   18  C25 UNL     1       2.156  56.967  -7.735  1.00  0.00     0.021 A 
HETATM   19  C26 UNL     1       1.493  55.749  -8.338  1.00  0.00    -0.027 A 
HETATM   20  C27 UNL     1       0.098  55.525  -7.731  1.00  0.00     0.011 C 
HETATM   21  C28 UNL     1      -0.624  54.257  -8.205  1.00  0.00     0.011 C 
HETATM   22  C29 UNL     1      -0.627  54.155  -9.739  1.00  0.00    -0.032 C 
HETATM   23  C30 UNL     1      -1.483  55.324 -10.315  1.00  0.00     0.016 C 
ENDROOT
BRANCH   1  24
HETATM   24  C7  UNL     1      -2.656  52.513 -10.456  1.00  0.00    -0.007 C 
HETATM   25  C8  UNL     1      -3.529  53.708 -10.060  1.00  0.00     0.011 C 
BRANCH  24  26
HETATM   26  C6  UNL     1      -3.073  51.271  -9.631  1.00  0.00     0.087 C 
BRANCH  26  27
HETATM   27  C5  UNL     1      -3.879  50.240 -10.407  1.00  0.00     0.149 C 
HETATM   28  O1  UNL     1      -3.352  49.290 -10.982  1.00  0.00    -0.293 OA
BRANCH  27  29
HETATM   29  C4  UNL     1      -5.362  50.318 -10.380  1.00  0.00     0.052 C 
HETATM   30  C2  UNL     1      -6.186  49.433  -9.793  1.00  0.00    -0.084 C 
HETATM   31  C1  UNL     1      -7.675  49.639  -9.844  1.00  0.00     0.043 C 
HETATM   32  C3  UNL     1      -5.750  48.221  -9.019  1.00  0.00     0.043 C 
ENDBRANCH  27  29
ENDBRANCH  26  27
ENDBRANCH  24  26
ENDBRANCH   1  24
TORSDOF 4
ENDMDL
MODEL 2
REMARK minimizedAffinity -7.59027243
REMARK CNNscore 0.697462857
REMARK CNNaffinity 6.8948493
REMARK  4 active torsions:
REMARK  status: ('A' for Active; 'I' for Inactive)
REMARK    1  A    between atoms: C4_4  and  C5_5 
REMARK    2  A    between atoms: C5_5  and  C6_7 
REMARK    3  A    between atoms: C6_7  and  C7_8 
REMARK    4  A    between atoms: C7_8  and  C9_10 
ROOT
HETATM    1  C9  UNL     1       2.320  54.837  -9.387  1.00  0.00    -0.002 C 
HETATM    2  C10 UNL     1       2.674  54.057  -8.084  1.00  0.00     0.006 C 
HETATM    3  C11 UNL     1       1.412  53.290  -7.642  1.00  0.00     0.011 C 
HETATM    4  C12 UNL     1       0.459  53.381  -8.843  1.00  0.00    -0.032 C 
HETATM    5  C13 UNL     1       0.904  52.262  -9.850  1.00  0.00     0.016 C 
HETATM    6  C14 UNL     1      -1.068  53.205  -8.536  1.00  0.00     0.004 C 
HETATM    7  C15 UNL     1      -1.369  51.868  -7.814  1.00  0.00     0.007 C 
HETATM    8  C16 UNL     1      -2.426  50.941  -8.410  1.00  0.00     0.007 C 
HETATM    9  C17 UNL     1      -2.384  50.901  -9.943  1.00  0.00     0.010 C 
HETATM   10  C18 UNL     1      -3.401  49.901 -10.585  1.00  0.00     0.018 C 
HETATM   11  C19 UNL     1      -4.869  50.252 -10.294  1.00  0.00     0.023 C 
HETATM   12  C20 UNL     1      -3.126  48.461 -10.105  1.00  0.00     0.023 C 
HETATM   13  C21 UNL     1      -3.219  49.912 -12.110  1.00  0.00     0.135 C 
HETATM   14  O2  UNL     1      -3.766  49.083 -12.840  1.00  0.00    -0.297 OA
HETATM   15  C22 UNL     1      -2.307  50.958 -12.701  1.00  0.00     0.080 C 
HETATM   16  C23 UNL     1      -2.599  52.313 -12.080  1.00  0.00     0.018 C 
HETATM   17  C24 UNL     1      -2.526  52.304 -10.556  1.00  0.00    -0.026 A 
HETATM   18  C25 UNL     1      -3.377  53.318  -9.815  1.00  0.00     0.021 A 
HETATM   19  C26 UNL     1      -1.875  53.496  -9.826  1.00  0.00    -0.027 A 
HETATM   20  C27 UNL     1      -1.480  54.799 -10.540  1.00  0.00     0.011 C 
HETATM   21  C28 UNL     1       0.030  55.028 -10.692  1.00  0.00     0.011 C 
HETATM   22  C29 UNL     1       0.761  54.848  -9.351  1.00  0.00    -0.032 C 
HETATM   23  C30 UNL     1       0.295  55.971  -8.374  1.00  0.00     0.016 C 
ENDROOT
BRANCH   1  24
HETATM   24  C7  UNL     1       3.119  56.165  -9.509  1.00  0.00    -0.007 C 
HETATM   25  C8  UNL     1       3.520  56.491 -10.951  1.00  0.00     0.011 C 
BRANCH  24  26
HETATM   26  C6  UNL     1       4.375  56.197  -8.603  1.00  0.00     0.087 C 
BRANCH  26  27
HETATM   27  C5  UNL     1       4.346  57.265  -7.521  1.00  0.00     0.149 C 
HETATM   28  O1  UNL     1       3.350  57.954  -7.303  1.00  0.00    -0.293 OA
BRANCH  27  29
HETATM   29  C4  UNL     1       5.519  57.412  -6.622  1.00  0.00     0.052 C 
HETATM   30  C2  UNL     1       6.549  56.554  -6.528  1.00  0.00    -0.084 C 
HETATM   31  C1  UNL     1       7.676  56.830  -5.570  1.00  0.00     0.043 C 
HETATM   32  C3  UNL     1       6.721  55.307  -7.350  1.00  0.00     0.043 C 
ENDBRANCH  27  29
ENDBRANCH  26  27
ENDBRANCH  24  26
ENDBRANCH   1  24
TORSDOF 4
ENDMDL
MODEL 3
REMARK minimizedAffinity -7.2661624
REMARK CNNscore 0.659248233
REMARK CNNaffinity 6.58121634
REMARK  4 active torsions:
REMARK  status: ('A' for Active; 'I' for Inactive)
REMARK    1  A    between atoms: C4_4  and  C5_5 
REMARK    2  A    between atoms: C5_5  and  C6_7 
REMARK    3  A    between atoms: C6_7  and  C7_8 
REMARK    4  A    between atoms: C7_8  and  C9_10 
ROOT
HETATM    1  C9  UNL     1       4.504  54.421  -8.028  1.00  0.00    -0.002 C 
HETATM    2  C10 UNL     1       4.099  54.152  -6.546  1.00  0.00     0.006 C 
HETATM    3  C11 UNL     1       2.560  54.178  -6.471  1.00  0.00     0.011 C 
HETATM    4  C12 UNL     1       2.096  54.145  -7.935  1.00  0.00    -0.032 C 
HETATM    5  C13 UNL     1       2.146  52.643  -8.385  1.00  0.00     0.016 C 
HETATM    6  C14 UNL     1       0.665  54.712  -8.225  1.00  0.00     0.004 C 
HETATM    7  C15 UNL     1      -0.427  54.003  -7.385  1.00  0.00     0.007 C 
HETATM    8  C16 UNL     1      -1.630  53.404  -8.111  1.00  0.00     0.007 C 
HETATM    9  C17 UNL     1      -1.252  52.747  -9.444  1.00  0.00     0.010 C 
HETATM   10  C18 UNL     1      -2.447  52.053 -10.177  1.00  0.00     0.018 C 
HETATM   11  C19 UNL     1      -3.562  53.029 -10.584  1.00  0.00     0.023 C 
HETATM   12  C20 UNL     1      -3.052  50.939  -9.299  1.00  0.00     0.023 C 
HETATM   13  C21 UNL     1      -1.928  51.386 -11.460  1.00  0.00     0.135 C 
HETATM   14  O2  UNL     1      -2.625  50.618 -12.126  1.00  0.00    -0.297 OA
HETATM   15  C22 UNL     1      -0.505  51.669 -11.872  1.00  0.00     0.080 C 
HETATM   16  C23 UNL     1      -0.217  53.156 -11.761  1.00  0.00     0.018 C 
HETATM   17  C24 UNL     1      -0.522  53.725 -10.379  1.00  0.00    -0.026 A 
HETATM   18  C25 UNL     1      -0.898  55.193 -10.301  1.00  0.00     0.021 A 
HETATM   19  C26 UNL     1       0.443  54.755  -9.758  1.00  0.00    -0.027 A 
HETATM   20  C27 UNL     1       1.594  55.403 -10.545  1.00  0.00     0.011 C 
HETATM   21  C28 UNL     1       3.002  54.948 -10.137  1.00  0.00     0.011 C 
HETATM   22  C29 UNL     1       3.202  55.048  -8.616  1.00  0.00    -0.032 C 
HETATM   23  C30 UNL     1       3.146  56.550  -8.202  1.00  0.00     0.016 C 
ENDROOT
BRANCH   1  24
HETATM   24  C7  UNL     1       5.863  55.168  -8.137  1.00  0.00    -0.007 C 
HETATM   25  C8  UNL     1       6.630  54.829  -9.419  1.00  0.00     0.011 C 
BRANCH  24  26
HETATM   26  C6  UNL     1       6.778  54.935  -6.909  1.00  0.00     0.087 C 
BRANCH  26  27
HETATM   27  C5  UNL     1       7.162  56.201  -6.159  1.00  0.00     0.149 C 
HETATM   28  O1  UNL     1       6.339  57.067  -5.866  1.00  0.00    -0.293 OA
BRANCH  27  29
HETATM   29  C4  UNL     1       8.555  56.350  -5.665  1.00  0.00     0.052 C 
HETATM   30  C2  UNL     1       9.086  57.466  -5.137  1.00  0.00    -0.084 C 
HETATM   31  C1  UNL     1      10.517  57.474  -4.675  1.00  0.00     0.043 C 
HETATM   32  C3  UNL     1       8.351  58.757  -4.913  1.00  0.00     0.043 C 
ENDBRANCH  27  29
ENDBRANCH  26  27
ENDBRANCH  24  26
ENDBRANCH   1  24
TORSDOF 4
ENDMDL
MODEL 4
REMARK minimizedAffinity -7.32826328
REMARK CNNscore 0.630473673
REMARK CNNaffinity 5.95234537
REMARK  4 active torsions:
REMARK  status: ('A' for Active; 'I' for Inactive)
REMARK    1  A    between atoms: C4_4  and  C5_5 
REMARK    2  A    between atoms: C5_5  and  C6_7 
REMARK    3  A    between atoms: C6_7  and  C7_8 
REMARK    4  A    between atoms: C7_8  and  C9_10 
ROOT
HETATM    1  C9  UNL     1       5.993  68.249 -36.172  1.00  0.00    -0.002 C 
HETATM    2  C10 UNL     1       6.872  68.753 -37.358  1.00  0.00     0.006 C 
HETATM    3  C11 UNL     1       6.062  68.556 -38.655  1.00  0.00     0.011 C 
HETATM    4  C12 UNL     1       4.634  68.245 -38.180  1.00  0.00    -0.032 C 
HETATM    5  C13 UNL     1       3.961  69.624 -37.855  1.00  0.00     0.016 C 
HETATM    6  C14 UNL     1       3.721  67.463 -39.186  1.00  0.00     0.004 C 
HETATM    7  C15 UNL     1       3.602  68.186 -40.551  1.00  0.00     0.007 C 
HETATM    8  C16 UNL     1       2.206  68.481 -41.098  1.00  0.00     0.007 C 
HETATM    9  C17 UNL     1       1.217  68.905 -40.005  1.00  0.00     0.010 C 
HETATM   10  C18 UNL     1      -0.200  69.292 -40.541  1.00  0.00     0.018 C 
HETATM   11  C19 UNL     1      -0.932  68.127 -41.227  1.00  0.00     0.023 C 
HETATM   12  C20 UNL     1      -0.108  70.475 -41.525  1.00  0.00     0.023 C 
HETATM   13  C21 UNL     1      -1.073  69.751 -39.362  1.00  0.00     0.135 C 
HETATM   14  O2  UNL     1      -2.171  70.284 -39.530  1.00  0.00    -0.297 OA
HETATM   15  C22 UNL     1      -0.524  69.567 -37.969  1.00  0.00     0.080 C 
HETATM   16  C23 UNL     1       0.070  68.177 -37.823  1.00  0.00     0.018 C 
HETATM   17  C24 UNL     1       1.119  67.858 -38.884  1.00  0.00    -0.026 A 
HETATM   18  C25 UNL     1       1.304  66.399 -39.259  1.00  0.00     0.021 A 
HETATM   19  C26 UNL     1       2.394  67.094 -38.476  1.00  0.00    -0.027 A 
HETATM   20  C27 UNL     1       2.576  66.448 -37.092  1.00  0.00     0.011 C 
HETATM   21  C28 UNL     1       3.594  67.141 -36.177  1.00  0.00     0.011 C 
HETATM   22  C29 UNL     1       4.932  67.367 -36.899  1.00  0.00    -0.032 C 
HETATM   23  C30 UNL     1       5.572  65.979 -37.210  1.00  0.00     0.016 C 
ENDROOT
BRANCH   1  24
HETATM   24  C7  UNL     1       6.852  67.665 -35.015  1.00  0.00    -0.007 C 
HETATM   25  C8  UNL     1       7.586  66.379 -35.407  1.00  0.00     0.011 C 
BRANCH  24  26
HETATM   26  C6  UNL     1       6.033  67.420 -33.723  1.00  0.00     0.087 C 
BRANCH  26  27
HETATM   27  C5  UNL     1       6.295  66.080 -33.055  1.00  0.00     0.149 C 
HETATM   28  O1  UNL     1       6.965  65.976 -32.029  1.00  0.00    -0.293 OA
BRANCH  27  29
HETATM   29  C4  UNL     1       5.630  64.865 -33.593  1.00  0.00     0.052 C 
HETATM   30  C2  UNL     1       4.629  64.190 -33.002  1.00  0.00    -0.084 C 
HETATM   31  C1  UNL     1       4.047  62.971 -33.665  1.00  0.00     0.043 C 
HETATM   32  C3  UNL     1       3.971  64.568 -31.705  1.00  0.00     0.043 C 
ENDBRANCH  27  29
ENDBRANCH  26  27
ENDBRANCH  24  26
ENDBRANCH   1  24
TORSDOF 4
ENDMDL
MODEL 5
REMARK minimizedAffinity -7.23803425
REMARK CNNscore 0.579926372
REMARK CNNaffinity 6.35205412
REMARK  4 active torsions:
REMARK  status: ('A' for Active; 'I' for Inactive)
REMARK    1  A    between atoms: C4_4  and  C5_5 
REMARK    2  A    between atoms: C5_5  and  C6_7 
REMARK    3  A    between atoms: C6_7  and  C7_8 
REMARK    4  A    between atoms: C7_8  and  C9_10 
ROOT
HETATM    1  C9  UNL     1       1.811  54.188 -10.068  1.00  0.00    -0.002 C 
HETATM    2  C10 UNL     1       2.811  53.279 -10.845  1.00  0.00     0.006 C 
HETATM    3  C11 UNL     1       4.237  53.681 -10.417  1.00  0.00     0.011 C 
HETATM    4  C12 UNL     1       4.037  54.580  -9.188  1.00  0.00    -0.032 C 
HETATM    5  C13 UNL     1       3.835  53.621  -7.962  1.00  0.00     0.016 C 
HETATM    6  C14 UNL     1       5.198  55.580  -8.860  1.00  0.00     0.004 C 
HETATM    7  C15 UNL     1       6.558  54.860  -8.683  1.00  0.00     0.007 C 
HETATM    8  C16 UNL     1       7.353  55.111  -7.403  1.00  0.00     0.007 C 
HETATM    9  C17 UNL     1       6.460  55.213  -6.160  1.00  0.00     0.010 C 
HETATM   10  C18 UNL     1       7.247  55.390  -4.820  1.00  0.00     0.018 C 
HETATM   11  C19 UNL     1       8.063  56.692  -4.759  1.00  0.00     0.023 C 
HETATM   12  C20 UNL     1       8.192  54.195  -4.580  1.00  0.00     0.023 C 
HETATM   13  C21 UNL     1       6.248  55.419  -3.653  1.00  0.00     0.135 C 
HETATM   14  O2  UNL     1       6.614  55.365  -2.477  1.00  0.00    -0.297 OA
HETATM   15  C22 UNL     1       4.779  55.478  -3.987  1.00  0.00     0.080 C 
HETATM   16  C23 UNL     1       4.532  56.516  -5.068  1.00  0.00     0.018 C 
HETATM   17  C24 UNL     1       5.381  56.297  -6.316  1.00  0.00    -0.026 A 
HETATM   18  C25 UNL     1       5.723  57.521  -7.146  1.00  0.00     0.021 A 
HETATM   19  C26 UNL     1       4.748  56.510  -7.706  1.00  0.00    -0.027 A 
HETATM   20  C27 UNL     1       3.358  57.137  -7.903  1.00  0.00     0.011 C 
HETATM   21  C28 UNL     1       2.266  56.168  -8.378  1.00  0.00     0.011 C 
HETATM   22  C29 UNL     1       2.727  55.363  -9.603  1.00  0.00    -0.032 C 
HETATM   23  C30 UNL     1       2.920  56.344 -10.800  1.00  0.00     0.016 C 
ENDROOT
BRANCH   1  24
HETATM   24  C7  UNL     1       0.518  54.467 -10.885  1.00  0.00    -0.007 C 
HETATM   25  C8  UNL     1      -0.475  55.367 -10.142  1.00  0.00     0.011 C 
BRANCH  24  26
HETATM   26  C6  UNL     1      -0.198  53.171 -11.339  1.00  0.00     0.087 C 
BRANCH  26  27
HETATM   27  C5  UNL     1      -0.872  52.396 -10.218  1.00  0.00     0.149 C 
HETATM   28  O1  UNL     1      -0.453  52.414  -9.062  1.00  0.00    -0.293 OA
BRANCH  27  29
HETATM   29  C4  UNL     1      -2.143  51.682 -10.500  1.00  0.00     0.052 C 
HETATM   30  C2  UNL     1      -3.357  52.249 -10.605  1.00  0.00    -0.084 C 
HETATM   31  C1  UNL     1      -4.564  51.399 -10.896  1.00  0.00     0.043 C 
HETATM   32  C3  UNL     1      -3.642  53.720 -10.495  1.00  0.00     0.043 C 
ENDBRANCH  27  29
ENDBRANCH  26  27
ENDBRANCH  24  26
ENDBRANCH   1  24
TORSDOF 4
ENDMDL
MODEL 6
REMARK minimizedAffinity -7.3597436
REMARK CNNscore 0.54149586
REMARK CNNaffinity 6.87199926
REMARK  4 active torsions:
REMARK  status: ('A' for Active; 'I' for Inactive)
REMARK    1  A    between atoms: C4_4  and  C5_5 
REMARK    2  A    between atoms: C5_5  and  C6_7 
REMARK    3  A    between atoms: C6_7  and  C7_8 
REMARK    4  A    between atoms: C7_8  and  C9_10 
ROOT
HETATM    1  C9  UNL     1       2.742  55.366  -8.027  1.00  0.00    -0.002 C 
HETATM    2  C10 UNL     1       1.648  56.381  -7.573  1.00  0.00     0.006 C 
HETATM    3  C11 UNL     1       0.395  56.133  -8.436  1.00  0.00     0.011 C 
HETATM    4  C12 UNL     1       0.666  54.797  -9.144  1.00  0.00    -0.032 C 
HETATM    5  C13 UNL     1       0.302  53.667  -8.119  1.00  0.00     0.016 C 
HETATM    6  C14 UNL     1      -0.120  54.543 -10.476  1.00  0.00     0.004 C 
HETATM    7  C15 UNL     1      -1.653  54.654 -10.281  1.00  0.00     0.007 C 
HETATM    8  C16 UNL     1      -2.531  53.490 -10.737  1.00  0.00     0.007 C 
HETATM    9  C17 UNL     1      -1.897  52.122 -10.454  1.00  0.00     0.010 C 
HETATM   10  C18 UNL     1      -2.803  50.906 -10.836  1.00  0.00     0.018 C 
HETATM   11  C19 UNL     1      -3.119  50.829 -12.339  1.00  0.00     0.023 C 
HETATM   12  C20 UNL     1      -4.128  50.943 -10.047  1.00  0.00     0.023 C 
HETATM   13  C21 UNL     1      -2.084  49.605 -10.451  1.00  0.00     0.135 C 
HETATM   14  O2  UNL     1      -2.652  48.511 -10.474  1.00  0.00    -0.297 OA
HETATM   15  C22 UNL     1      -0.649  49.704  -9.997  1.00  0.00     0.080 C 
HETATM   16  C23 UNL     1       0.131  50.615 -10.930  1.00  0.00     0.018 C 
HETATM   17  C24 UNL     1      -0.502  51.994 -11.088  1.00  0.00    -0.026 A 
HETATM   18  C25 UNL     1      -0.247  52.728 -12.392  1.00  0.00     0.021 A 
HETATM   19  C26 UNL     1       0.406  53.239 -11.128  1.00  0.00    -0.027 A 
HETATM   20  C27 UNL     1       1.938  53.154 -11.225  1.00  0.00     0.011 C 
HETATM   21  C28 UNL     1       2.697  53.559  -9.955  1.00  0.00     0.011 C 
HETATM   22  C29 UNL     1       2.217  54.921  -9.427  1.00  0.00    -0.032 C 
HETATM   23  C30 UNL     1       2.592  56.020 -10.468  1.00  0.00     0.016 C 
ENDROOT
BRANCH   1  24
HETATM   24  C7  UNL     1       4.177  55.942  -7.865  1.00  0.00    -0.007 C 
HETATM   25  C8  UNL     1       4.188  57.448  -7.584  1.00  0.00     0.011 C 
BRANCH  24  26
HETATM   26  C6  UNL     1       5.089  55.634  -9.078  1.00  0.00     0.087 C 
BRANCH  26  27
HETATM   27  C5  UNL     1       6.431  55.018  -8.719  1.00  0.00     0.149 C 
HETATM   28  O1  UNL     1       7.193  55.533  -7.901  1.00  0.00    -0.293 OA
BRANCH  27  29
HETATM   29  C4  UNL     1       6.792  53.695  -9.288  1.00  0.00     0.052 C 
HETATM   30  C2  UNL     1       6.392  52.501  -8.817  1.00  0.00    -0.084 C 
HETATM   31  C1  UNL     1       6.836  51.235  -9.497  1.00  0.00     0.043 C 
HETATM   32  C3  UNL     1       5.471  52.292  -7.648  1.00  0.00     0.043 C 
ENDBRANCH  27  29
ENDBRANCH  26  27
ENDBRANCH  24  26
ENDBRANCH   1  24
TORSDOF 4
ENDMDL
MODEL 7
REMARK minimizedAffinity -7.59295225
REMARK CNNscore 0.46224755
REMARK CNNaffinity 6.61735725
REMARK  4 active torsions:
REMARK  status: ('A' for Active; 'I' for Inactive)
REMARK    1  A    between atoms: C4_4  and  C5_5 
REMARK    2  A    between atoms: C5_5  and  C6_7 
REMARK    3  A    between atoms: C6_7  and  C7_8 
REMARK    4  A    between atoms: C7_8  and  C9_10 
ROOT
HETATM    1  C9  UNL     1      -0.967  52.550 -10.150  1.00  0.00    -0.002 C 
HETATM    2  C10 UNL     1      -0.325  52.601 -11.570  1.00  0.00     0.006 C 
HETATM    3  C11 UNL     1       0.748  53.707 -11.557  1.00  0.00     0.011 C 
HETATM    4  C12 UNL     1       0.930  54.058 -10.073  1.00  0.00    -0.032 C 
HETATM    5  C13 UNL     1       1.898  52.978  -9.475  1.00  0.00     0.016 C 
HETATM    6  C14 UNL     1       1.506  55.481  -9.760  1.00  0.00     0.004 C 
HETATM    7  C15 UNL     1       2.867  55.728 -10.457  1.00  0.00     0.007 C 
HETATM    8  C16 UNL     1       4.051  56.181  -9.605  1.00  0.00     0.007 C 
HETATM    9  C17 UNL     1       4.094  55.491  -8.235  1.00  0.00     0.010 C 
HETATM   10  C18 UNL     1       5.338  55.871  -7.366  1.00  0.00     0.018 C 
HETATM   11  C19 UNL     1       5.391  57.362  -6.997  1.00  0.00     0.023 C 
HETATM   12  C20 UNL     1       6.646  55.487  -8.088  1.00  0.00     0.023 C 
HETATM   13  C21 UNL     1       5.294  55.074  -6.054  1.00  0.00     0.135 C 
HETATM   14  O2  UNL     1       6.248  55.047  -5.273  1.00  0.00    -0.297 OA
HETATM   15  C22 UNL     1       4.048  54.279  -5.757  1.00  0.00     0.080 C 
HETATM   16  C23 UNL     1       2.814  55.119  -6.037  1.00  0.00     0.018 C 
HETATM   17  C24 UNL     1       2.788  55.693  -7.450  1.00  0.00    -0.026 A 
HETATM   18  C25 UNL     1       2.032  56.992  -7.657  1.00  0.00     0.021 A 
HETATM   19  C26 UNL     1       1.457  55.716  -8.229  1.00  0.00    -0.027 A 
HETATM   20  C27 UNL     1       0.103  55.382  -7.581  1.00  0.00     0.011 C 
HETATM   21  C28 UNL     1      -0.521  54.052  -8.022  1.00  0.00     0.011 C 
HETATM   22  C29 UNL     1      -0.558  53.932  -9.554  1.00  0.00    -0.032 C 
HETATM   23  C30 UNL     1      -1.526  55.019 -10.116  1.00  0.00     0.016 C 
ENDROOT
BRANCH   1  24
HETATM   24  C7  UNL     1      -2.460  52.118 -10.198  1.00  0.00    -0.007 C 
HETATM   25  C8  UNL     1      -2.854  51.203  -9.035  1.00  0.00     0.011 C 
BRANCH  24  26
HETATM   26  C6  UNL     1      -2.849  51.447 -11.539  1.00  0.00     0.087 C 
BRANCH  26  27
HETATM   27  C5  UNL     1      -3.542  52.371 -12.529  1.00  0.00     0.149 C 
HETATM   28  O1  UNL     1      -4.181  53.358 -12.170  1.00  0.00    -0.293 OA
BRANCH  27  29
HETATM   29  C4  UNL     1      -3.351  52.140 -13.983  1.00  0.00     0.052 C 
HETATM   30  C2  UNL     1      -3.010  50.973 -14.556  1.00  0.00    -0.084 C 
HETATM   31  C1  UNL     1      -2.852  50.883 -16.049  1.00  0.00     0.043 C 
HETATM   32  C3  UNL     1      -2.800  49.675 -13.828  1.00  0.00     0.043 C 
ENDBRANCH  27  29
ENDBRANCH  26  27
ENDBRANCH  24  26
ENDBRANCH   1  24
TORSDOF 4
ENDMDL
MODEL 8
REMARK minimizedAffinity -7.53535366
REMARK CNNscore 0.446376741
REMARK CNNaffinity 5.56322145
REMARK  4 active torsions:
REMARK  status: ('A' for Active; 'I' for Inactive)
REMARK    1  A    between atoms: C4_4  and  C5_5 
REMARK    2  A    between atoms: C5_5  and  C6_7 
REMARK    3  A    between atoms: C6_7  and  C7_8 
REMARK    4  A    between atoms: C7_8  and  C9_10 
ROOT
HETATM    1  C9  UNL     1       5.704  66.685 -36.368  1.00  0.00    -0.002 C 
HETATM    2  C10 UNL     1       5.216  67.491 -35.126  1.00  0.00     0.006 C 
HETATM    3  C11 UNL     1       4.329  68.644 -35.637  1.00  0.00     0.011 C 
HETATM    4  C12 UNL     1       4.061  68.307 -37.112  1.00  0.00    -0.032 C 
HETATM    5  C13 UNL     1       2.886  67.267 -37.126  1.00  0.00     0.016 C 
HETATM    6  C14 UNL     1       3.683  69.509 -38.043  1.00  0.00     0.004 C 
HETATM    7  C15 UNL     1       2.449  70.287 -37.521  1.00  0.00     0.007 C 
HETATM    8  C16 UNL     1       1.272  70.507 -38.470  1.00  0.00     0.007 C 
HETATM    9  C17 UNL     1       0.993  69.290 -39.361  1.00  0.00     0.010 C 
HETATM   10  C18 UNL     1      -0.255  69.450 -40.290  1.00  0.00     0.018 C 
HETATM   11  C19 UNL     1      -0.114  70.592 -41.310  1.00  0.00     0.023 C 
HETATM   12  C20 UNL     1      -1.531  69.680 -39.455  1.00  0.00     0.023 C 
HETATM   13  C21 UNL     1      -0.460  68.150 -41.082  1.00  0.00     0.135 C 
HETATM   14  O2  UNL     1      -1.477  67.943 -41.747  1.00  0.00    -0.297 OA
HETATM   15  C22 UNL     1       0.615  67.096 -40.992  1.00  0.00     0.080 C 
HETATM   16  C23 UNL     1       1.984  67.734 -41.152  1.00  0.00     0.018 C 
HETATM   17  C24 UNL     1       2.234  68.873 -40.168  1.00  0.00    -0.026 A 
HETATM   18  C25 UNL     1       3.196  69.964 -40.599  1.00  0.00     0.021 A 
HETATM   19  C26 UNL     1       3.620  69.008 -39.508  1.00  0.00    -0.027 A 
HETATM   20  C27 UNL     1       4.839  68.178 -39.945  1.00  0.00     0.011 C 
HETATM   21  C28 UNL     1       5.291  67.106 -38.944  1.00  0.00     0.011 C 
HETATM   22  C29 UNL     1       5.456  67.693 -37.533  1.00  0.00    -0.032 C 
HETATM   23  C30 UNL     1       6.628  68.722 -37.554  1.00  0.00     0.016 C 
ENDROOT
BRANCH   1  24
HETATM   24  C7  UNL     1       7.110  66.061 -36.145  1.00  0.00    -0.007 C 
HETATM   25  C8  UNL     1       8.097  66.398 -37.267  1.00  0.00     0.011 C 
BRANCH  24  26
HETATM   26  C6  UNL     1       7.062  64.526 -35.942  1.00  0.00     0.087 C 
BRANCH  26  27
HETATM   27  C5  UNL     1       7.039  64.082 -34.488  1.00  0.00     0.149 C 
HETATM   28  O1  UNL     1       7.821  64.531 -33.651  1.00  0.00    -0.293 OA
BRANCH  27  29
HETATM   29  C4  UNL     1       5.969  63.158 -34.034  1.00  0.00     0.052 C 
HETATM   30  C2  UNL     1       4.906  63.495 -33.283  1.00  0.00    -0.084 C 
HETATM   31  C1  UNL     1       3.894  62.451 -32.896  1.00  0.00     0.043 C 
HETATM   32  C3  UNL     1       4.586  64.881 -32.800  1.00  0.00     0.043 C 
ENDBRANCH  27  29
ENDBRANCH  26  27
ENDBRANCH  24  26
ENDBRANCH   1  24
TORSDOF 4
ENDMDL
MODEL 9
REMARK minimizedAffinity -7.84740639
REMARK CNNscore 0.265830189
REMARK CNNaffinity 6.55193853
REMARK  4 active torsions:
REMARK  status: ('A' for Active; 'I' for Inactive)
REMARK    1  A    between atoms: C4_4  and  C5_5 
REMARK    2  A    between atoms: C5_5  and  C6_7 
REMARK    3  A    between atoms: C6_7  and  C7_8 
REMARK    4  A    between atoms: C7_8  and  C9_10 
ROOT
HETATM    1  C9  UNL     1      -2.812  50.572 -22.974  1.00  0.00    -0.002 C 
HETATM    2  C10 UNL     1      -2.286  49.341 -23.772  1.00  0.00     0.006 C 
HETATM    3  C11 UNL     1      -2.634  48.076 -22.963  1.00  0.00     0.011 C 
HETATM    4  C12 UNL     1      -3.618  48.559 -21.886  1.00  0.00    -0.032 C 
HETATM    5  C13 UNL     1      -5.028  48.628 -22.569  1.00  0.00     0.016 C 
HETATM    6  C14 UNL     1      -3.725  47.678 -20.595  1.00  0.00     0.004 C 
HETATM    7  C15 UNL     1      -4.089  46.207 -20.919  1.00  0.00     0.007 C 
HETATM    8  C16 UNL     1      -5.290  45.582 -20.211  1.00  0.00     0.007 C 
HETATM    9  C17 UNL     1      -6.459  46.562 -20.048  1.00  0.00     0.010 C 
HETATM   10  C18 UNL     1      -7.735  45.933 -19.399  1.00  0.00     0.018 C 
HETATM   11  C19 UNL     1      -7.507  45.436 -17.963  1.00  0.00     0.023 C 
HETATM   12  C20 UNL     1      -8.264  44.764 -20.255  1.00  0.00     0.023 C 
HETATM   13  C21 UNL     1      -8.846  46.993 -19.347  1.00  0.00     0.135 C 
HETATM   14  O2  UNL     1     -10.009  46.709 -19.052  1.00  0.00    -0.297 OA
HETATM   15  C22 UNL     1      -8.480  48.411 -19.710  1.00  0.00     0.080 C 
HETATM   16  C23 UNL     1      -7.184  48.806 -19.025  1.00  0.00     0.018 C 
HETATM   17  C24 UNL     1      -6.036  47.842 -19.310  1.00  0.00    -0.026 A 
HETATM   18  C25 UNL     1      -4.951  47.725 -18.255  1.00  0.00     0.021 A 
HETATM   19  C26 UNL     1      -4.624  48.406 -19.564  1.00  0.00    -0.027 A 
HETATM   20  C27 UNL     1      -4.261  49.884 -19.341  1.00  0.00     0.011 C 
HETATM   21  C28 UNL     1      -4.005  50.694 -20.619  1.00  0.00     0.011 C 
HETATM   22  C29 UNL     1      -3.008  49.978 -21.544  1.00  0.00    -0.032 C 
HETATM   23  C30 UNL     1      -1.620  49.924 -20.836  1.00  0.00     0.016 C 
ENDROOT
BRANCH   1  24
HETATM   24  C7  UNL     1      -1.930  51.833 -23.194  1.00  0.00    -0.007 C 
HETATM   25  C8  UNL     1      -2.580  52.861 -24.124  1.00  0.00     0.011 C 
BRANCH  24  26
HETATM   26  C6  UNL     1      -0.511  51.491 -23.711  1.00  0.00     0.087 C 
BRANCH  26  27
HETATM   27  C5  UNL     1       0.113  52.559 -24.595  1.00  0.00     0.149 C 
HETATM   28  O1  UNL     1       0.715  53.527 -24.133  1.00  0.00    -0.293 OA
BRANCH  27  29
HETATM   29  C4  UNL     1       0.091  52.376 -26.069  1.00  0.00     0.052 C 
HETATM   30  C2  UNL     1       1.079  51.845 -26.810  1.00  0.00    -0.084 C 
HETATM   31  C1  UNL     1       0.920  51.718 -28.300  1.00  0.00     0.043 C 
HETATM   32  C3  UNL     1       2.373  51.301 -26.273  1.00  0.00     0.043 C 
ENDBRANCH  27  29
ENDBRANCH  26  27
ENDBRANCH  24  26
ENDBRANCH   1  24
TORSDOF 4
ENDMDL
