MODEL 1
REMARK minimizedAffinity -9.56031704
REMARK  8 active torsions:
REMARK  status: ('A' for Active; 'I' for Inactive)
REMARK    1  A    between atoms: C12_14  and  C13_15 
REMARK    2  A    between atoms: C13_15  and  C15_17 
REMARK    3  A    between atoms: C15_17  and  C16_18 
REMARK    4  A    between atoms: C16_18  and  C17_19 
REMARK    5  A    between atoms: C26_28  and  C27_29 
REMARK    6  A    between atoms: C27_29  and  C28_30 
REMARK    7  A    between atoms: C28_30  and  C29_31 
REMARK    8  A    between atoms: C29_31  and  O4_33 
ROOT
HETATM    1  C1  UNL     1       1.428  53.976 -21.507  1.00  0.00     0.025 C 
HETATM    2  C2  UNL     1       0.673  52.972 -21.047  1.00  0.00     0.015 C 
HETATM    3  C3  UNL     1      -0.074  53.046 -19.765  1.00  0.00     0.289 C 
HETATM    4  O1  UNL     1      -0.280  54.049 -19.105  1.00  0.00    -0.260 OA
HETATM    5  O2  UNL     1      -0.514  51.785 -19.469  1.00  0.00    -0.311 OA
HETATM    6  C4  UNL     1       0.155  50.866 -20.336  1.00  0.00     0.142 C 
HETATM    7  C5  UNL     1      -0.617  49.578 -20.559  1.00  0.00     0.039 C 
HETATM    8  C6  UNL     1      -1.996  49.773 -21.222  1.00  0.00     0.006 C 
HETATM    9  C7  UNL     1      -1.889  50.596 -22.537  1.00  0.00    -0.027 A 
HETATM   10  C8  UNL     1      -2.694  50.130 -23.783  1.00  0.00     0.011 C 
HETATM   11  C9  UNL     1      -3.646  48.934 -23.666  1.00  0.00     0.011 C 
HETATM   12  C10 UNL     1      -4.063  48.640 -22.229  1.00  0.00    -0.032 C 
HETATM   13  C11 UNL     1      -4.941  49.808 -21.717  1.00  0.00     0.016 C 
HETATM   14  C12 UNL     1      -4.796  47.277 -22.030  1.00  0.00    -0.002 C 
HETATM   15  C21 UNL     1      -4.437  46.868 -20.585  1.00  0.00     0.006 C 
HETATM   16  C22 UNL     1      -3.307  47.808 -20.120  1.00  0.00     0.011 C 
HETATM   17  C23 UNL     1      -2.742  48.422 -21.414  1.00  0.00    -0.032 C 
HETATM   18  C24 UNL     1      -1.771  47.369 -22.041  1.00  0.00     0.016 C 
HETATM   19  C25 UNL     1      -1.984  52.108 -22.354  1.00  0.00     0.022 A 
HETATM   20  C26 UNL     1      -0.641  51.525 -22.706  1.00  0.00    -0.021 A 
HETATM   21  C31 UNL     1       0.457  51.612 -21.626  1.00  0.00     0.063 C 
ENDROOT
BRANCH  14  22
HETATM   22  C13 UNL     1      -6.263  47.069 -22.513  1.00  0.00    -0.014 C 
HETATM   23  C14 UNL     1      -7.184  46.946 -21.282  1.00  0.00     0.010 C 
BRANCH  22  24
HETATM   24  C15 UNL     1      -6.905  47.978 -23.594  1.00  0.00     0.008 C 
BRANCH  24  25
HETATM   25  C16 UNL     1      -6.848  47.629 -25.089  1.00  0.00     0.028 C 
BRANCH  25  26
HETATM   26  C17 UNL     1      -5.606  48.103 -25.783  1.00  0.00    -0.025 C 
HETATM   27  C18 UNL     1      -5.308  48.036 -27.095  1.00  0.00    -0.091 C 
HETATM   28  C19 UNL     1      -6.227  47.526 -28.169  1.00  0.00     0.042 C 
HETATM   29  C20 UNL     1      -3.960  48.494 -27.589  1.00  0.00     0.042 C 
ENDBRANCH  25  26
ENDBRANCH  24  25
ENDBRANCH  22  24
ENDBRANCH  14  22
BRANCH  20  30
HETATM   30  C27 UNL     1      -0.121  51.807 -24.120  1.00  0.00     0.021 C 
BRANCH  30  31
HETATM   31  C28 UNL     1      -0.780  53.035 -24.748  1.00  0.00     0.112 C 
BRANCH  31  32
HETATM   32  C29 UNL     1       0.224  53.827 -25.545  1.00  0.00     0.258 C 
HETATM   33  O3  UNL     1       0.304  55.050 -25.527  1.00  0.00    -0.265 OA
BRANCH  32  34
HETATM   34  O4  UNL     1       1.013  52.997 -26.280  1.00  0.00    -0.326 OA
HETATM   35  C30 UNL     1       0.510  52.733 -27.594  1.00  0.00     0.213 C 
ENDBRANCH  32  34
ENDBRANCH  31  32
ENDBRANCH  30  31
ENDBRANCH  20  30
TORSDOF 8
ENDMDL
MODEL 2
REMARK minimizedAffinity -9.05100441
REMARK  8 active torsions:
REMARK  status: ('A' for Active; 'I' for Inactive)
REMARK    1  A    between atoms: C12_14  and  C13_15 
REMARK    2  A    between atoms: C13_15  and  C15_17 
REMARK    3  A    between atoms: C15_17  and  C16_18 
REMARK    4  A    between atoms: C16_18  and  C17_19 
REMARK    5  A    between atoms: C26_28  and  C27_29 
REMARK    6  A    between atoms: C27_29  and  C28_30 
REMARK    7  A    between atoms: C28_30  and  C29_31 
REMARK    8  A    between atoms: C29_31  and  O4_33 
ROOT
HETATM    1  C1  UNL     1       1.400  53.892 -21.614  1.00  0.00     0.025 C 
HETATM    2  C2  UNL     1       0.615  52.909 -21.155  1.00  0.00     0.015 C 
HETATM    3  C3  UNL     1      -0.156  53.016 -19.890  1.00  0.00     0.289 C 
HETATM    4  O1  UNL     1      -0.355  54.032 -19.249  1.00  0.00    -0.260 OA
HETATM    5  O2  UNL     1      -0.627  51.768 -19.586  1.00  0.00    -0.311 OA
HETATM    6  C4  UNL     1       0.041  50.824 -20.427  1.00  0.00     0.142 C 
HETATM    7  C5  UNL     1      -0.751  49.548 -20.648  1.00  0.00     0.039 C 
HETATM    8  C6  UNL     1      -2.112  49.761 -21.342  1.00  0.00     0.006 C 
HETATM    9  C7  UNL     1      -1.962  50.562 -22.665  1.00  0.00    -0.027 A 
HETATM   10  C8  UNL     1      -2.750  50.094 -23.922  1.00  0.00     0.011 C 
HETATM   11  C9  UNL     1      -3.728  48.919 -23.808  1.00  0.00     0.011 C 
HETATM   12  C10 UNL     1      -4.181  48.654 -22.376  1.00  0.00    -0.032 C 
HETATM   13  C11 UNL     1      -5.045  49.846 -21.899  1.00  0.00     0.016 C 
HETATM   14  C12 UNL     1      -4.945  47.309 -22.173  1.00  0.00    -0.002 C 
HETATM   15  C21 UNL     1      -4.623  46.914 -20.716  1.00  0.00     0.006 C 
HETATM   16  C22 UNL     1      -3.484  47.838 -20.240  1.00  0.00     0.011 C 
HETATM   17  C23 UNL     1      -2.881  48.422 -21.531  1.00  0.00    -0.032 C 
HETATM   18  C24 UNL     1      -1.919  47.341 -22.122  1.00  0.00     0.016 C 
HETATM   19  C25 UNL     1      -2.031  52.079 -22.506  1.00  0.00     0.022 A 
HETATM   20  C26 UNL     1      -0.693  51.465 -22.822  1.00  0.00    -0.021 A 
HETATM   21  C31 UNL     1       0.384  51.545 -21.720  1.00  0.00     0.063 C 
ENDROOT
BRANCH  14  22
HETATM   22  C13 UNL     1      -6.405  47.123 -22.685  1.00  0.00    -0.014 C 
HETATM   23  C14 UNL     1      -6.843  45.666 -22.432  1.00  0.00     0.010 C 
BRANCH  22  24
HETATM   24  C15 UNL     1      -7.537  48.114 -22.306  1.00  0.00     0.008 C 
BRANCH  24  25
HETATM   25  C16 UNL     1      -8.648  47.740 -21.314  1.00  0.00     0.028 C 
BRANCH  25  26
HETATM   26  C17 UNL     1      -8.476  48.331 -19.947  1.00  0.00    -0.025 C 
HETATM   27  C18 UNL     1      -9.420  48.562 -19.014  1.00  0.00    -0.091 C 
HETATM   28  C19 UNL     1     -10.871  48.188 -19.136  1.00  0.00     0.042 C 
HETATM   29  C20 UNL     1      -9.057  49.249 -17.723  1.00  0.00     0.042 C 
ENDBRANCH  25  26
ENDBRANCH  24  25
ENDBRANCH  22  24
ENDBRANCH  14  22
BRANCH  20  30
HETATM   30  C27 UNL     1      -0.138  51.716 -24.228  1.00  0.00     0.021 C 
BRANCH  30  31
HETATM   31  C28 UNL     1      -0.831  52.886 -24.927  1.00  0.00     0.112 C 
BRANCH  31  32
HETATM   32  C29 UNL     1       0.175  53.750 -25.640  1.00  0.00     0.258 C 
HETATM   33  O3  UNL     1       0.240  54.969 -25.524  1.00  0.00    -0.265 OA
BRANCH  32  34
HETATM   34  O4  UNL     1       0.986  52.990 -26.427  1.00  0.00    -0.326 OA
HETATM   35  C30 UNL     1       0.417  52.666 -27.700  1.00  0.00     0.213 C 
ENDBRANCH  32  34
ENDBRANCH  31  32
ENDBRANCH  30  31
ENDBRANCH  20  30
TORSDOF 8
ENDMDL
MODEL 3
REMARK minimizedAffinity -8.94512081
REMARK  8 active torsions:
REMARK  status: ('A' for Active; 'I' for Inactive)
REMARK    1  A    between atoms: C12_14  and  C13_15 
REMARK    2  A    between atoms: C13_15  and  C15_17 
REMARK    3  A    between atoms: C15_17  and  C16_18 
REMARK    4  A    between atoms: C16_18  and  C17_19 
REMARK    5  A    between atoms: C26_28  and  C27_29 
REMARK    6  A    between atoms: C27_29  and  C28_30 
REMARK    7  A    between atoms: C28_30  and  C29_31 
REMARK    8  A    between atoms: C29_31  and  O4_33 
ROOT
HETATM    1  C1  UNL     1      -2.723  51.016 -27.751  1.00  0.00     0.025 C 
HETATM    2  C2  UNL     1      -3.041  50.521 -26.548  1.00  0.00     0.015 C 
HETATM    3  C3  UNL     1      -3.156  49.064 -26.281  1.00  0.00     0.289 C 
HETATM    4  O1  UNL     1      -2.777  48.163 -27.008  1.00  0.00    -0.260 OA
HETATM    5  O2  UNL     1      -3.743  48.914 -25.054  1.00  0.00    -0.311 OA
HETATM    6  C4  UNL     1      -4.271  50.182 -24.656  1.00  0.00     0.142 C 
HETATM    7  C5  UNL     1      -4.399  50.335 -23.152  1.00  0.00     0.039 C 
HETATM    8  C6  UNL     1      -3.062  50.236 -22.389  1.00  0.00     0.006 C 
HETATM    9  C7  UNL     1      -2.001  51.217 -22.962  1.00  0.00    -0.027 A 
HETATM   10  C8  UNL     1      -1.124  52.037 -21.974  1.00  0.00     0.011 C 
HETATM   11  C9  UNL     1      -1.253  51.794 -20.465  1.00  0.00     0.011 C 
HETATM   12  C10 UNL     1      -1.870  50.441 -20.128  1.00  0.00    -0.032 C 
HETATM   13  C11 UNL     1      -0.887  49.325 -20.557  1.00  0.00     0.016 C 
HETATM   14  C12 UNL     1      -2.278  50.266 -18.633  1.00  0.00    -0.002 C 
HETATM   15  C21 UNL     1      -3.469  49.284 -18.683  1.00  0.00     0.006 C 
HETATM   16  C22 UNL     1      -3.893  49.168 -20.161  1.00  0.00     0.011 C 
HETATM   17  C23 UNL     1      -3.259  50.388 -20.853  1.00  0.00    -0.032 C 
HETATM   18  C24 UNL     1      -4.180  51.618 -20.561  1.00  0.00     0.016 C 
HETATM   19  C25 UNL     1      -1.162  50.653 -24.106  1.00  0.00     0.022 A 
HETATM   20  C26 UNL     1      -2.191  51.702 -24.438  1.00  0.00    -0.021 A 
HETATM   21  C31 UNL     1      -3.393  51.247 -25.292  1.00  0.00     0.063 C 
ENDROOT
BRANCH  14  22
HETATM   22  C13 UNL     1      -1.205  50.070 -17.519  1.00  0.00    -0.014 C 
HETATM   23  C14 UNL     1      -1.080  48.566 -17.203  1.00  0.00     0.010 C 
BRANCH  22  24
HETATM   24  C15 UNL     1       0.194  50.735 -17.605  1.00  0.00     0.008 C 
BRANCH  24  25
HETATM   25  C16 UNL     1       0.645  51.815 -16.610  1.00  0.00     0.028 C 
BRANCH  25  26
HETATM   26  C17 UNL     1       2.082  52.218 -16.752  1.00  0.00    -0.025 C 
HETATM   27  C18 UNL     1       3.067  52.128 -15.837  1.00  0.00    -0.091 C 
HETATM   28  C19 UNL     1       2.930  51.512 -14.474  1.00  0.00     0.042 C 
HETATM   29  C20 UNL     1       4.438  52.671 -16.146  1.00  0.00     0.042 C 
ENDBRANCH  25  26
ENDBRANCH  24  25
ENDBRANCH  22  24
ENDBRANCH  14  22
BRANCH  20  30
HETATM   30  C27 UNL     1      -1.659  53.084 -24.831  1.00  0.00     0.021 C 
BRANCH  30  31
HETATM   31  C28 UNL     1      -0.136  53.106 -24.964  1.00  0.00     0.112 C 
BRANCH  31  32
HETATM   32  C29 UNL     1       0.274  53.720 -26.276  1.00  0.00     0.258 C 
HETATM   33  O3  UNL     1      -0.064  54.838 -26.648  1.00  0.00    -0.265 OA
BRANCH  32  34
HETATM   34  O4  UNL     1       1.061  52.861 -26.981  1.00  0.00    -0.326 OA
HETATM   35  C30 UNL     1       0.529  52.507 -28.262  1.00  0.00     0.213 C 
ENDBRANCH  32  34
ENDBRANCH  31  32
ENDBRANCH  30  31
ENDBRANCH  20  30
TORSDOF 8
ENDMDL
MODEL 4
REMARK minimizedAffinity -8.74032402
REMARK  8 active torsions:
REMARK  status: ('A' for Active; 'I' for Inactive)
REMARK    1  A    between atoms: C12_14  and  C13_15 
REMARK    2  A    between atoms: C13_15  and  C15_17 
REMARK    3  A    between atoms: C15_17  and  C16_18 
REMARK    4  A    between atoms: C16_18  and  C17_19 
REMARK    5  A    between atoms: C26_28  and  C27_29 
REMARK    6  A    between atoms: C27_29  and  C28_30 
REMARK    7  A    between atoms: C28_30  and  C29_31 
REMARK    8  A    between atoms: C29_31  and  O4_33 
ROOT
HETATM    1  C1  UNL     1       1.683  53.924 -21.315  1.00  0.00     0.025 C 
HETATM    2  C2  UNL     1       0.796  52.994 -20.940  1.00  0.00     0.015 C 
HETATM    3  C3  UNL     1      -0.118  53.172 -19.783  1.00  0.00     0.289 C 
HETATM    4  O1  UNL     1      -0.339  54.213 -19.189  1.00  0.00    -0.260 OA
HETATM    5  O2  UNL     1      -0.689  51.958 -19.517  1.00  0.00    -0.311 OA
HETATM    6  C4  UNL     1       0.026  50.960 -20.250  1.00  0.00     0.142 C 
HETATM    7  C5  UNL     1      -0.801  49.722 -20.545  1.00  0.00     0.039 C 
HETATM    8  C6  UNL     1      -2.053  49.986 -21.406  1.00  0.00     0.006 C 
HETATM    9  C7  UNL     1      -1.698  50.746 -22.715  1.00  0.00    -0.027 A 
HETATM   10  C8  UNL     1      -2.349  50.288 -24.051  1.00  0.00     0.011 C 
HETATM   11  C9  UNL     1      -3.397  49.168 -24.038  1.00  0.00     0.011 C 
HETATM   12  C10 UNL     1      -4.035  48.961 -22.669  1.00  0.00    -0.032 C 
HETATM   13  C11 UNL     1      -4.886  50.208 -22.324  1.00  0.00     0.016 C 
HETATM   14  C12 UNL     1      -4.889  47.662 -22.538  1.00  0.00    -0.002 C 
HETATM   15  C21 UNL     1      -4.771  47.288 -21.044  1.00  0.00     0.006 C 
HETATM   16  C22 UNL     1      -3.651  48.164 -20.448  1.00  0.00     0.011 C 
HETATM   17  C23 UNL     1      -2.864  48.684 -21.665  1.00  0.00    -0.032 C 
HETATM   18  C24 UNL     1      -1.895  47.541 -22.112  1.00  0.00     0.016 C 
HETATM   19  C25 UNL     1      -1.705  52.268 -22.593  1.00  0.00     0.022 A 
HETATM   20  C26 UNL     1      -0.372  51.578 -22.729  1.00  0.00    -0.021 A 
HETATM   21  C31 UNL     1       0.563  51.631 -21.504  1.00  0.00     0.063 C 
ENDROOT
BRANCH  14  22
HETATM   22  C13 UNL     1      -6.284  47.539 -23.223  1.00  0.00    -0.014 C 
HETATM   23  C14 UNL     1      -7.349  48.180 -22.310  1.00  0.00     0.010 C 
BRANCH  22  24
HETATM   24  C15 UNL     1      -6.507  47.946 -24.703  1.00  0.00     0.008 C 
BRANCH  24  25
HETATM   25  C16 UNL     1      -7.846  47.711 -25.419  1.00  0.00     0.028 C 
BRANCH  25  26
HETATM   26  C17 UNL     1      -7.898  46.446 -26.223  1.00  0.00    -0.025 C 
HETATM   27  C18 UNL     1      -8.170  45.198 -25.796  1.00  0.00    -0.091 C 
HETATM   28  C19 UNL     1      -8.566  44.827 -24.394  1.00  0.00     0.042 C 
HETATM   29  C20 UNL     1      -8.089  44.036 -26.752  1.00  0.00     0.042 C 
ENDBRANCH  25  26
ENDBRANCH  24  25
ENDBRANCH  22  24
ENDBRANCH  14  22
BRANCH  20  30
HETATM   30  C27 UNL     1       0.363  51.766 -24.060  1.00  0.00     0.021 C 
BRANCH  30  31
HETATM   31  C28 UNL     1       0.233  53.189 -24.602  1.00  0.00     0.112 C 
BRANCH  31  32
HETATM   32  C29 UNL     1      -0.311  53.177 -26.006  1.00  0.00     0.258 C 
HETATM   33  O3  UNL     1      -1.500  53.071 -26.282  1.00  0.00    -0.265 OA
BRANCH  32  34
HETATM   34  O4  UNL     1       0.700  53.293 -26.911  1.00  0.00    -0.326 OA
HETATM   35  C30 UNL     1       0.718  52.253 -27.894  1.00  0.00     0.213 C 
ENDBRANCH  32  34
ENDBRANCH  31  32
ENDBRANCH  30  31
ENDBRANCH  20  30
TORSDOF 8
ENDMDL
MODEL 5
REMARK minimizedAffinity -8.3005209
REMARK  8 active torsions:
REMARK  status: ('A' for Active; 'I' for Inactive)
REMARK    1  A    between atoms: C12_14  and  C13_15 
REMARK    2  A    between atoms: C13_15  and  C15_17 
REMARK    3  A    between atoms: C15_17  and  C16_18 
REMARK    4  A    between atoms: C16_18  and  C17_19 
REMARK    5  A    between atoms: C26_28  and  C27_29 
REMARK    6  A    between atoms: C27_29  and  C28_30 
REMARK    7  A    between atoms: C28_30  and  C29_31 
REMARK    8  A    between atoms: C29_31  and  O4_33 
ROOT
HETATM    1  C1  UNL     1      -3.069  50.972 -27.716  1.00  0.00     0.025 C 
HETATM    2  C2  UNL     1      -3.276  50.461 -26.496  1.00  0.00     0.015 C 
HETATM    3  C3  UNL     1      -3.401  49.002 -26.243  1.00  0.00     0.289 C 
HETATM    4  O1  UNL     1      -3.121  48.107 -27.020  1.00  0.00    -0.260 OA
HETATM    5  O2  UNL     1      -3.864  48.842 -24.966  1.00  0.00    -0.311 OA
HETATM    6  C4  UNL     1      -4.316  50.114 -24.494  1.00  0.00     0.142 C 
HETATM    7  C5  UNL     1      -4.287  50.241 -22.982  1.00  0.00     0.039 C 
HETATM    8  C6  UNL     1      -2.883  50.095 -22.361  1.00  0.00     0.006 C 
HETATM    9  C7  UNL     1      -1.860  51.061 -23.023  1.00  0.00    -0.027 A 
HETATM   10  C8  UNL     1      -0.867  51.841 -22.116  1.00  0.00     0.011 C 
HETATM   11  C9  UNL     1      -0.847  51.572 -20.606  1.00  0.00     0.011 C 
HETATM   12  C10 UNL     1      -1.462  50.228 -20.231  1.00  0.00    -0.032 C 
HETATM   13  C11 UNL     1      -0.557  49.097 -20.777  1.00  0.00     0.016 C 
HETATM   14  C12 UNL     1      -1.721  50.033 -18.705  1.00  0.00    -0.002 C 
HETATM   15  C21 UNL     1      -2.935  49.081 -18.650  1.00  0.00     0.006 C 
HETATM   16  C22 UNL     1      -3.510  49.004 -20.079  1.00  0.00     0.011 C 
HETATM   17  C23 UNL     1      -2.918  50.222 -20.811  1.00  0.00    -0.032 C 
HETATM   18  C24 UNL     1      -3.773  51.467 -20.405  1.00  0.00     0.016 C 
HETATM   19  C25 UNL     1      -1.156  50.500 -24.256  1.00  0.00     0.022 A 
HETATM   20  C26 UNL     1      -2.186  51.580 -24.463  1.00  0.00    -0.021 A 
HETATM   21  C31 UNL     1      -3.479  51.171 -25.198  1.00  0.00     0.063 C 
ENDROOT
BRANCH  14  22
HETATM   22  C13 UNL     1      -0.546  49.790 -17.710  1.00  0.00    -0.014 C 
HETATM   23  C14 UNL     1       0.240  51.105 -17.531  1.00  0.00     0.010 C 
BRANCH  22  24
HETATM   24  C15 UNL     1      -0.761  49.085 -16.345  1.00  0.00     0.008 C 
BRANCH  24  25
HETATM   25  C16 UNL     1      -1.723  49.641 -15.285  1.00  0.00     0.028 C 
BRANCH  25  26
HETATM   26  C17 UNL     1      -1.068  50.524 -14.264  1.00  0.00    -0.025 C 
HETATM   27  C18 UNL     1      -1.618  51.530 -13.557  1.00  0.00    -0.091 C 
HETATM   28  C19 UNL     1      -3.066  51.928 -13.597  1.00  0.00     0.042 C 
HETATM   29  C20 UNL     1      -0.764  52.361 -12.634  1.00  0.00     0.042 C 
ENDBRANCH  25  26
ENDBRANCH  24  25
ENDBRANCH  22  24
ENDBRANCH  14  22
BRANCH  20  30
HETATM   30  C27 UNL     1      -1.661  52.956 -24.885  1.00  0.00     0.021 C 
BRANCH  30  31
HETATM   31  C28 UNL     1      -0.288  52.876 -25.552  1.00  0.00     0.112 C 
BRANCH  31  32
HETATM   32  C29 UNL     1      -0.093  54.024 -26.508  1.00  0.00     0.258 C 
HETATM   33  O3  UNL     1       0.309  55.133 -26.178  1.00  0.00    -0.265 OA
BRANCH  32  34
HETATM   34  O4  UNL     1      -0.431  53.653 -27.774  1.00  0.00    -0.326 OA
HETATM   35  C30 UNL     1       0.222  52.460 -28.221  1.00  0.00     0.213 C 
ENDBRANCH  32  34
ENDBRANCH  31  32
ENDBRANCH  30  31
ENDBRANCH  20  30
TORSDOF 8
ENDMDL
MODEL 6
REMARK minimizedAffinity -8.23607159
REMARK  8 active torsions:
REMARK  status: ('A' for Active; 'I' for Inactive)
REMARK    1  A    between atoms: C12_14  and  C13_15 
REMARK    2  A    between atoms: C13_15  and  C15_17 
REMARK    3  A    between atoms: C15_17  and  C16_18 
REMARK    4  A    between atoms: C16_18  and  C17_19 
REMARK    5  A    between atoms: C26_28  and  C27_29 
REMARK    6  A    between atoms: C27_29  and  C28_30 
REMARK    7  A    between atoms: C28_30  and  C29_31 
REMARK    8  A    between atoms: C29_31  and  O4_33 
ROOT
HETATM    1  C1  UNL     1      -2.970  51.148 -27.783  1.00  0.00     0.025 C 
HETATM    2  C2  UNL     1      -3.181  50.684 -26.545  1.00  0.00     0.015 C 
HETATM    3  C3  UNL     1      -3.417  49.247 -26.253  1.00  0.00     0.289 C 
HETATM    4  O1  UNL     1      -3.236  48.314 -27.015  1.00  0.00    -0.260 OA
HETATM    5  O2  UNL     1      -3.852  49.154 -24.959  1.00  0.00    -0.311 OA
HETATM    6  C4  UNL     1      -4.183  50.469 -24.506  1.00  0.00     0.142 C 
HETATM    7  C5  UNL     1      -4.096  50.627 -22.999  1.00  0.00     0.039 C 
HETATM    8  C6  UNL     1      -2.690  50.379 -22.417  1.00  0.00     0.006 C 
HETATM    9  C7  UNL     1      -1.612  51.242 -23.131  1.00  0.00    -0.027 A 
HETATM   10  C8  UNL     1      -0.530  51.956 -22.273  1.00  0.00     0.011 C 
HETATM   11  C9  UNL     1      -0.486  51.719 -20.759  1.00  0.00     0.011 C 
HETATM   12  C10 UNL     1      -1.197  50.440 -20.333  1.00  0.00    -0.032 C 
HETATM   13  C11 UNL     1      -0.405  49.226 -20.876  1.00  0.00     0.016 C 
HETATM   14  C12 UNL     1      -1.423  50.302 -18.795  1.00  0.00    -0.002 C 
HETATM   15  C21 UNL     1      -2.709  49.455 -18.681  1.00  0.00     0.006 C 
HETATM   16  C22 UNL     1      -3.334  49.395 -20.090  1.00  0.00     0.011 C 
HETATM   17  C23 UNL     1      -2.666  50.543 -20.869  1.00  0.00    -0.032 C 
HETATM   18  C24 UNL     1      -3.402  51.863 -20.470  1.00  0.00     0.016 C 
HETATM   19  C25 UNL     1      -0.995  50.597 -24.370  1.00  0.00     0.022 A 
HETATM   20  C26 UNL     1      -1.939  51.753 -24.574  1.00  0.00    -0.021 A 
HETATM   21  C31 UNL     1      -3.284  51.437 -25.260  1.00  0.00     0.063 C 
ENDROOT
BRANCH  14  22
HETATM   22  C13 UNL     1      -0.242  49.984 -17.829  1.00  0.00    -0.014 C 
HETATM   23  C14 UNL     1       0.320  51.307 -17.272  1.00  0.00     0.010 C 
BRANCH  22  24
HETATM   24  C15 UNL     1      -0.365  48.920 -16.707  1.00  0.00     0.008 C 
BRANCH  24  25
HETATM   25  C16 UNL     1       0.329  49.087 -15.347  1.00  0.00     0.028 C 
BRANCH  25  26
HETATM   26  C17 UNL     1       0.080  47.961 -14.389  1.00  0.00    -0.025 C 
HETATM   27  C18 UNL     1       0.839  46.870 -14.169  1.00  0.00    -0.091 C 
HETATM   28  C19 UNL     1       2.172  46.598 -14.808  1.00  0.00     0.042 C 
HETATM   29  C20 UNL     1       0.370  45.800 -13.217  1.00  0.00     0.042 C 
ENDBRANCH  25  26
ENDBRANCH  24  25
ENDBRANCH  22  24
ENDBRANCH  14  22
BRANCH  20  30
HETATM   30  C27 UNL     1      -1.316  53.071 -25.045  1.00  0.00     0.021 C 
BRANCH  30  31
HETATM   31  C28 UNL     1      -0.076  52.852 -25.912  1.00  0.00     0.112 C 
BRANCH  31  32
HETATM   32  C29 UNL     1      -0.086  53.781 -27.098  1.00  0.00     0.258 C 
HETATM   33  O3  UNL     1      -0.168  55.001 -27.016  1.00  0.00    -0.265 OA
BRANCH  32  34
HETATM   34  O4  UNL     1       0.002  53.075 -28.259  1.00  0.00    -0.326 OA
HETATM   35  C30 UNL     1       0.663  51.813 -28.119  1.00  0.00     0.213 C 
ENDBRANCH  32  34
ENDBRANCH  31  32
ENDBRANCH  30  31
ENDBRANCH  20  30
TORSDOF 8
ENDMDL
MODEL 7
REMARK minimizedAffinity -8.22836781
REMARK  8 active torsions:
REMARK  status: ('A' for Active; 'I' for Inactive)
REMARK    1  A    between atoms: C12_14  and  C13_15 
REMARK    2  A    between atoms: C13_15  and  C15_17 
REMARK    3  A    between atoms: C15_17  and  C16_18 
REMARK    4  A    between atoms: C16_18  and  C17_19 
REMARK    5  A    between atoms: C26_28  and  C27_29 
REMARK    6  A    between atoms: C27_29  and  C28_30 
REMARK    7  A    between atoms: C28_30  and  C29_31 
REMARK    8  A    between atoms: C29_31  and  O4_33 
ROOT
HETATM    1  C1  UNL     1      -1.366  49.294 -16.477  1.00  0.00     0.025 C 
HETATM    2  C2  UNL     1      -1.709  49.999 -17.562  1.00  0.00     0.015 C 
HETATM    3  C3  UNL     1      -1.055  51.281 -17.931  1.00  0.00     0.289 C 
HETATM    4  O1  UNL     1      -0.024  51.728 -17.462  1.00  0.00    -0.260 OA
HETATM    5  O2  UNL     1      -1.807  51.860 -18.917  1.00  0.00    -0.311 OA
HETATM    6  C4  UNL     1      -3.054  51.165 -18.991  1.00  0.00     0.142 C 
HETATM    7  C5  UNL     1      -3.719  51.263 -20.352  1.00  0.00     0.039 C 
HETATM    8  C6  UNL     1      -2.892  50.660 -21.505  1.00  0.00     0.006 C 
HETATM    9  C7  UNL     1      -2.460  49.198 -21.198  1.00  0.00    -0.027 A 
HETATM   10  C8  UNL     1      -2.576  48.128 -22.321  1.00  0.00     0.011 C 
HETATM   11  C9  UNL     1      -3.017  48.550 -23.727  1.00  0.00     0.011 C 
HETATM   12  C10 UNL     1      -2.825  50.040 -23.992  1.00  0.00    -0.032 C 
HETATM   13  C11 UNL     1      -1.308  50.349 -24.018  1.00  0.00     0.016 C 
HETATM   14  C12 UNL     1      -3.513  50.564 -25.291  1.00  0.00    -0.002 C 
HETATM   15  C21 UNL     1      -3.842  52.038 -24.969  1.00  0.00     0.006 C 
HETATM   16  C22 UNL     1      -3.627  52.227 -23.454  1.00  0.00     0.011 C 
HETATM   17  C23 UNL     1      -3.618  50.801 -22.874  1.00  0.00    -0.032 C 
HETATM   18  C24 UNL     1      -5.108  50.350 -22.727  1.00  0.00     0.016 C 
HETATM   19  C25 UNL     1      -1.138  49.066 -20.446  1.00  0.00     0.022 A 
HETATM   20  C26 UNL     1      -2.409  48.762 -19.696  1.00  0.00    -0.021 A 
HETATM   21  C31 UNL     1      -2.790  49.731 -18.558  1.00  0.00     0.063 C 
ENDROOT
BRANCH  14  22
HETATM   22  C13 UNL     1      -2.943  50.225 -26.701  1.00  0.00    -0.014 C 
HETATM   23  C14 UNL     1      -3.840  49.158 -27.361  1.00  0.00     0.010 C 
BRANCH  22  24
HETATM   24  C15 UNL     1      -2.563  51.333 -27.718  1.00  0.00     0.008 C 
BRANCH  24  25
HETATM   25  C16 UNL     1      -1.509  52.404 -27.400  1.00  0.00     0.028 C 
BRANCH  25  26
HETATM   26  C17 UNL     1      -0.095  51.965 -27.642  1.00  0.00    -0.025 C 
HETATM   27  C18 UNL     1       0.963  52.070 -26.815  1.00  0.00    -0.091 C 
HETATM   28  C19 UNL     1       0.916  52.594 -25.408  1.00  0.00     0.042 C 
HETATM   29  C20 UNL     1       2.332  51.643 -27.280  1.00  0.00     0.042 C 
ENDBRANCH  25  26
ENDBRANCH  24  25
ENDBRANCH  22  24
ENDBRANCH  14  22
BRANCH  20  30
HETATM   30  C27 UNL     1      -2.664  47.292 -19.348  1.00  0.00     0.021 C 
BRANCH  30  31
HETATM   31  C28 UNL     1      -4.132  46.900 -19.513  1.00  0.00     0.112 C 
BRANCH  31  32
HETATM   32  C29 UNL     1      -4.959  47.447 -18.379  1.00  0.00     0.258 C 
HETATM   33  O3  UNL     1      -4.810  47.131 -17.204  1.00  0.00    -0.265 OA
BRANCH  32  34
HETATM   34  O4  UNL     1      -5.887  48.328 -18.845  1.00  0.00    -0.326 OA
HETATM   35  C30 UNL     1      -7.110  48.327 -18.102  1.00  0.00     0.213 C 
ENDBRANCH  32  34
ENDBRANCH  31  32
ENDBRANCH  30  31
ENDBRANCH  20  30
TORSDOF 8
ENDMDL
MODEL 8
REMARK minimizedAffinity -7.99082851
REMARK  8 active torsions:
REMARK  status: ('A' for Active; 'I' for Inactive)
REMARK    1  A    between atoms: C12_14  and  C13_15 
REMARK    2  A    between atoms: C13_15  and  C15_17 
REMARK    3  A    between atoms: C15_17  and  C16_18 
REMARK    4  A    between atoms: C16_18  and  C17_19 
REMARK    5  A    between atoms: C26_28  and  C27_29 
REMARK    6  A    between atoms: C27_29  and  C28_30 
REMARK    7  A    between atoms: C28_30  and  C29_31 
REMARK    8  A    between atoms: C29_31  and  O4_33 
ROOT
HETATM    1  C1  UNL     1      -8.351  45.282 -20.699  1.00  0.00     0.025 C 
HETATM    2  C2  UNL     1      -7.827  46.313 -21.375  1.00  0.00     0.015 C 
HETATM    3  C3  UNL     1      -8.472  47.650 -21.432  1.00  0.00     0.289 C 
HETATM    4  O1  UNL     1      -9.387  48.043 -20.731  1.00  0.00    -0.260 OA
HETATM    5  O2  UNL     1      -7.833  48.376 -22.400  1.00  0.00    -0.311 OA
HETATM    6  C4  UNL     1      -7.015  47.481 -23.159  1.00  0.00     0.142 C 
HETATM    7  C5  UNL     1      -5.838  48.165 -23.830  1.00  0.00     0.039 C 
HETATM    8  C6  UNL     1      -4.849  48.829 -22.851  1.00  0.00     0.006 C 
HETATM    9  C7  UNL     1      -4.368  47.833 -21.758  1.00  0.00    -0.027 A 
HETATM   10  C8  UNL     1      -2.860  47.804 -21.378  1.00  0.00     0.011 C 
HETATM   11  C9  UNL     1      -1.899  48.818 -22.011  1.00  0.00     0.011 C 
HETATM   12  C10 UNL     1      -2.609  50.046 -22.571  1.00  0.00    -0.032 C 
HETATM   13  C11 UNL     1      -3.207  50.854 -21.393  1.00  0.00     0.016 C 
HETATM   14  C12 UNL     1      -1.718  50.962 -23.466  1.00  0.00    -0.002 C 
HETATM   15  C21 UNL     1      -2.716  51.600 -24.456  1.00  0.00     0.006 C 
HETATM   16  C22 UNL     1      -4.046  50.833 -24.312  1.00  0.00     0.011 C 
HETATM   17  C23 UNL     1      -3.672  49.522 -23.597  1.00  0.00    -0.032 C 
HETATM   18  C24 UNL     1      -3.092  48.553 -24.678  1.00  0.00     0.016 C 
HETATM   19  C25 UNL     1      -5.251  47.774 -20.514  1.00  0.00     0.022 A 
HETATM   20  C26 UNL     1      -5.281  46.599 -21.456  1.00  0.00    -0.021 A 
HETATM   21  C31 UNL     1      -6.598  46.359 -22.222  1.00  0.00     0.063 C 
ENDROOT
BRANCH  14  22
HETATM   22  C13 UNL     1      -0.610  51.866 -22.847  1.00  0.00    -0.014 C 
HETATM   23  C14 UNL     1      -0.141  51.245 -21.516  1.00  0.00     0.010 C 
BRANCH  22  24
HETATM   24  C15 UNL     1       0.600  52.364 -23.681  1.00  0.00     0.008 C 
BRANCH  24  25
HETATM   25  C16 UNL     1       0.454  53.444 -24.763  1.00  0.00     0.028 C 
BRANCH  25  26
HETATM   26  C17 UNL     1       0.240  52.904 -26.145  1.00  0.00    -0.025 C 
HETATM   27  C18 UNL     1       1.058  52.111 -26.865  1.00  0.00    -0.091 C 
HETATM   28  C19 UNL     1       2.353  51.528 -26.375  1.00  0.00     0.042 C 
HETATM   29  C20 UNL     1       0.700  51.742 -28.281  1.00  0.00     0.042 C 
ENDBRANCH  25  26
ENDBRANCH  24  25
ENDBRANCH  22  24
ENDBRANCH  14  22
BRANCH  20  30
HETATM   30  C27 UNL     1      -4.627  45.305 -20.958  1.00  0.00     0.021 C 
BRANCH  30  31
HETATM   31  C28 UNL     1      -4.958  45.011 -19.495  1.00  0.00     0.112 C 
BRANCH  31  32
HETATM   32  C29 UNL     1      -3.808  44.310 -18.821  1.00  0.00     0.258 C 
HETATM   33  O3  UNL     1      -3.514  43.135 -19.005  1.00  0.00    -0.265 OA
BRANCH  32  34
HETATM   34  O4  UNL     1      -3.155  45.163 -17.983  1.00  0.00    -0.326 OA
HETATM   35  C30 UNL     1      -2.904  44.618 -16.683  1.00  0.00     0.213 C 
ENDBRANCH  32  34
ENDBRANCH  31  32
ENDBRANCH  30  31
ENDBRANCH  20  30
TORSDOF 8
ENDMDL
MODEL 9
REMARK minimizedAffinity -7.81984568
REMARK  8 active torsions:
REMARK  status: ('A' for Active; 'I' for Inactive)
REMARK    1  A    between atoms: C12_14  and  C13_15 
REMARK    2  A    between atoms: C13_15  and  C15_17 
REMARK    3  A    between atoms: C15_17  and  C16_18 
REMARK    4  A    between atoms: C16_18  and  C17_19 
REMARK    5  A    between atoms: C26_28  and  C27_29 
REMARK    6  A    between atoms: C27_29  and  C28_30 
REMARK    7  A    between atoms: C28_30  and  C29_31 
REMARK    8  A    between atoms: C29_31  and  O4_33 
ROOT
HETATM    1  C1  UNL     1      -7.521  46.551 -24.595  1.00  0.00     0.025 C 
HETATM    2  C2  UNL     1      -7.002  47.078 -23.479  1.00  0.00     0.015 C 
HETATM    3  C3  UNL     1      -6.801  46.293 -22.234  1.00  0.00     0.289 C 
HETATM    4  O1  UNL     1      -6.858  45.081 -22.126  1.00  0.00    -0.260 OA
HETATM    5  O2  UNL     1      -6.512  47.176 -21.230  1.00  0.00    -0.311 OA
HETATM    6  C4  UNL     1      -6.803  48.495 -21.701  1.00  0.00     0.142 C 
HETATM    7  C5  UNL     1      -6.010  49.577 -20.991  1.00  0.00     0.039 C 
HETATM    8  C6  UNL     1      -4.482  49.455 -21.159  1.00  0.00     0.006 C 
HETATM    9  C7  UNL     1      -4.076  49.355 -22.656  1.00  0.00    -0.027 A 
HETATM   10  C8  UNL     1      -2.858  50.180 -23.161  1.00  0.00     0.011 C 
HETATM   11  C9  UNL     1      -2.027  50.994 -22.162  1.00  0.00     0.011 C 
HETATM   12  C10 UNL     1      -2.191  50.520 -20.722  1.00  0.00    -0.032 C 
HETATM   13  C11 UNL     1      -1.571  49.108 -20.589  1.00  0.00     0.016 C 
HETATM   14  C12 UNL     1      -1.595  51.482 -19.647  1.00  0.00    -0.002 C 
HETATM   15  C21 UNL     1      -2.480  51.247 -18.404  1.00  0.00     0.006 C 
HETATM   16  C22 UNL     1      -3.699  50.424 -18.869  1.00  0.00     0.011 C 
HETATM   17  C23 UNL     1      -3.724  50.582 -20.400  1.00  0.00    -0.032 C 
HETATM   18  C24 UNL     1      -4.387  51.963 -20.713  1.00  0.00     0.016 C 
HETATM   19  C25 UNL     1      -4.051  47.936 -23.219  1.00  0.00     0.022 A 
HETATM   20  C26 UNL     1      -5.160  48.852 -23.666  1.00  0.00    -0.021 A 
HETATM   21  C31 UNL     1      -6.587  48.487 -23.206  1.00  0.00     0.063 C 
ENDROOT
BRANCH  14  22
HETATM   22  C13 UNL     1      -0.056  51.613 -19.444  1.00  0.00    -0.014 C 
HETATM   23  C14 UNL     1       0.415  52.960 -20.031  1.00  0.00     0.010 C 
BRANCH  22  24
HETATM   24  C15 UNL     1       0.614  51.345 -18.071  1.00  0.00     0.008 C 
BRANCH  24  25
HETATM   25  C16 UNL     1       1.369  52.442 -17.306  1.00  0.00     0.028 C 
BRANCH  25  26
HETATM   26  C17 UNL     1       1.790  52.046 -15.922  1.00  0.00    -0.025 C 
HETATM   27  C18 UNL     1       3.038  51.977 -15.419  1.00  0.00    -0.091 C 
HETATM   28  C19 UNL     1       4.291  52.372 -16.148  1.00  0.00     0.042 C 
HETATM   29  C20 UNL     1       3.262  51.470 -14.017  1.00  0.00     0.042 C 
ENDBRANCH  25  26
ENDBRANCH  24  25
ENDBRANCH  22  24
ENDBRANCH  14  22
BRANCH  20  30
HETATM   30  C27 UNL     1      -5.100  49.345 -25.115  1.00  0.00     0.021 C 
BRANCH  30  31
HETATM   31  C28 UNL     1      -4.657  48.250 -26.085  1.00  0.00     0.112 C 
BRANCH  31  32
HETATM   32  C29 UNL     1      -3.470  48.704 -26.894  1.00  0.00     0.258 C 
HETATM   33  O3  UNL     1      -2.318  48.722 -26.476  1.00  0.00    -0.265 OA
BRANCH  32  34
HETATM   34  O4  UNL     1      -3.862  49.092 -28.139  1.00  0.00    -0.326 OA
HETATM   35  C30 UNL     1      -4.873  48.258 -28.713  1.00  0.00     0.213 C 
ENDBRANCH  32  34
ENDBRANCH  31  32
ENDBRANCH  30  31
ENDBRANCH  20  30
TORSDOF 8
ENDMDL
