MODEL 1
REMARK minimizedAffinity -7.01236391
REMARK CNNscore 0.515739739
REMARK CNNaffinity 4.15699816
REMARK  12 active torsions:
REMARK  status: ('A' for Active; 'I' for Inactive)
REMARK    1  A    between atoms: C3_3  and  O1_4 
REMARK    2  A    between atoms: O1_4  and  C4_5 
REMARK    3  A    between atoms: C5_7  and  C6_8 
REMARK    4  A    between atoms: C6_8  and  O3_9 
REMARK    5  A    between atoms: C7_10  and  O4_11 
REMARK    6  A    between atoms: C8_12  and  O5_13 
REMARK    7  A    between atoms: C9_14  and  O6_15 
REMARK    8  A    between atoms: C10_16  and  O7_17 
REMARK    9  A    between atoms: C15_22  and  O8_23 
REMARK   10  A    between atoms: C15_22  and  C16_24 
REMARK   11  A    between atoms: C17_25  and  C18_26 
REMARK   12  A    between atoms: C18_26  and  O9_28 
ROOT
HETATM    1  C1  UNL     1       5.625  69.370 -35.016  1.00  0.00     0.016 C 
HETATM    2  C2  UNL     1       6.031  68.385 -36.123  1.00  0.00     0.052 C 
HETATM    3  C3  UNL     1       5.272  68.652 -37.435  1.00  0.00     0.160 C 
HETATM    4  C10 UNL     1       5.906  67.827 -38.597  1.00  0.00     0.148 C 
HETATM    5  C11 UNL     1       6.733  66.614 -38.146  1.00  0.00     0.046 C 
HETATM    6  C12 UNL     1       6.156  65.875 -36.915  1.00  0.00    -0.010 C 
HETATM    7  C13 UNL     1       7.078  64.659 -36.630  1.00  0.00     0.018 C 
HETATM    8  C14 UNL     1       4.773  65.280 -37.284  1.00  0.00     0.018 C 
HETATM    9  C15 UNL     1       6.105  66.874 -35.680  1.00  0.00     0.088 C 
ENDROOT
BRANCH   3  10
HETATM   10  O1  UNL     1       3.869  68.432 -37.254  1.00  0.00    -0.350 OA
BRANCH  10  11
HETATM   11  C4  UNL     1       3.497  67.053 -37.405  1.00  0.00     0.292 C 
HETATM   12  O2  UNL     1       3.114  66.839 -38.774  1.00  0.00    -0.348 OA
HETATM   13  C5  UNL     1       1.705  66.883 -39.043  1.00  0.00     0.179 C 
HETATM   14  C7  UNL     1       0.979  67.849 -38.099  1.00  0.00     0.180 C 
HETATM   15  C8  UNL     1       1.029  67.240 -36.696  1.00  0.00     0.183 C 
HETATM   16  C9  UNL     1       2.421  66.688 -36.350  1.00  0.00     0.204 C 
BRANCH  13  17
HETATM   17  C6  UNL     1       1.537  67.258 -40.517  1.00  0.00     0.198 C 
BRANCH  17  18
HETATM   18  O3  UNL     1       1.549  68.676 -40.672  1.00  0.00    -0.398 OA
HETATM   19  H10 UNL     1       2.402  68.964 -40.291  1.00  0.00     0.209 HD
ENDBRANCH  17  18
ENDBRANCH  13  17
BRANCH  14  20
HETATM   20  O4  UNL     1      -0.395  68.060 -38.448  1.00  0.00    -0.390 OA
HETATM   21  H12 UNL     1      -0.391  68.624 -39.246  1.00  0.00     0.210 HD
ENDBRANCH  14  20
BRANCH  15  22
HETATM   22  O5  UNL     1       0.601  68.210 -35.729  1.00  0.00    -0.390 OA
HETATM   23  H14 UNL     1      -0.249  68.550 -36.072  1.00  0.00     0.210 HD
ENDBRANCH  15  22
BRANCH  16  24
HETATM   24  O6  UNL     1       2.319  65.249 -36.254  1.00  0.00    -0.388 OA
HETATM   25  H16 UNL     1       1.887  65.066 -35.399  1.00  0.00     0.210 HD
ENDBRANCH  16  24
ENDBRANCH  10  11
ENDBRANCH   3  10
BRANCH   4  26
HETATM   26  O7  UNL     1       4.934  67.426 -39.565  1.00  0.00    -0.393 OA
HETATM   27  H18 UNL     1       5.397  66.925 -40.260  1.00  0.00     0.210 HD
ENDBRANCH   4  26
BRANCH   9  28
HETATM   28  O8  UNL     1       7.412  66.821 -35.040  1.00  0.00    -0.385 OA
HETATM   29  H27 UNL     1       7.310  67.192 -34.146  1.00  0.00     0.211 HD
ENDBRANCH   9  28
BRANCH   9  30
HETATM   30  C16 UNL     1       5.176  66.349 -34.600  1.00  0.00     0.010 C 
HETATM   31  C17 UNL     1       5.420  65.422 -33.658  1.00  0.00     0.003 C 
BRANCH  31  32
HETATM   32  C18 UNL     1       4.463  64.948 -32.598  1.00  0.00     0.136 C 
HETATM   33  C19 UNL     1       4.373  63.428 -32.580  1.00  0.00     0.043 C 
BRANCH  32  34
HETATM   34  O9  UNL     1       4.868  65.412 -31.317  1.00  0.00    -0.392 OA
HETATM   35  H34 UNL     1       4.240  65.054 -30.669  1.00  0.00     0.210 HD
ENDBRANCH  32  34
ENDBRANCH  31  32
ENDBRANCH   9  30
TORSDOF 12
ENDMDL
MODEL 2
REMARK minimizedAffinity -6.33438921
REMARK CNNscore 0.488498956
REMARK CNNaffinity 4.41044092
REMARK  12 active torsions:
REMARK  status: ('A' for Active; 'I' for Inactive)
REMARK    1  A    between atoms: C3_3  and  O1_4 
REMARK    2  A    between atoms: O1_4  and  C4_5 
REMARK    3  A    between atoms: C5_7  and  C6_8 
REMARK    4  A    between atoms: C6_8  and  O3_9 
REMARK    5  A    between atoms: C7_10  and  O4_11 
REMARK    6  A    between atoms: C8_12  and  O5_13 
REMARK    7  A    between atoms: C9_14  and  O6_15 
REMARK    8  A    between atoms: C10_16  and  O7_17 
REMARK    9  A    between atoms: C15_22  and  O8_23 
REMARK   10  A    between atoms: C15_22  and  C16_24 
REMARK   11  A    between atoms: C17_25  and  C18_26 
REMARK   12  A    between atoms: C18_26  and  O9_28 
ROOT
HETATM    1  C1  UNL     1      -4.773  52.395 -23.169  1.00  0.00     0.016 C 
HETATM    2  C2  UNL     1      -4.826  51.047 -23.904  1.00  0.00     0.052 C 
HETATM    3  C3  UNL     1      -5.554  49.971 -23.079  1.00  0.00     0.160 C 
HETATM    4  C10 UNL     1      -5.831  48.716 -23.963  1.00  0.00     0.148 C 
HETATM    5  C11 UNL     1      -4.930  48.590 -25.201  1.00  0.00     0.046 C 
HETATM    6  C12 UNL     1      -3.472  49.054 -24.973  1.00  0.00    -0.010 C 
HETATM    7  C13 UNL     1      -2.697  48.814 -26.297  1.00  0.00     0.018 C 
HETATM    8  C14 UNL     1      -2.806  48.132 -23.920  1.00  0.00     0.018 C 
HETATM    9  C15 UNL     1      -3.467  50.589 -24.562  1.00  0.00     0.088 C 
ENDROOT
BRANCH   3  10
HETATM   10  O1  UNL     1      -4.835  49.695 -21.873  1.00  0.00    -0.350 OA
BRANCH  10  11
HETATM   11  C4  UNL     1      -5.538  50.119 -20.695  1.00  0.00     0.292 C 
HETATM   12  O2  UNL     1      -4.570  50.408 -19.673  1.00  0.00    -0.348 OA
HETATM   13  C5  UNL     1      -4.331  49.359 -18.724  1.00  0.00     0.179 C 
HETATM   14  C7  UNL     1      -4.511  47.973 -19.356  1.00  0.00     0.180 C 
HETATM   15  C8  UNL     1      -6.000  47.804 -19.668  1.00  0.00     0.183 C 
HETATM   16  C9  UNL     1      -6.605  49.058 -20.318  1.00  0.00     0.204 C 
BRANCH  13  17
HETATM   17  C6  UNL     1      -2.925  49.572 -18.158  1.00  0.00     0.198 C 
BRANCH  17  18
HETATM   18  O3  UNL     1      -2.824  48.997 -16.856  1.00  0.00    -0.398 OA
HETATM   19  H10 UNL     1      -3.056  48.055 -16.977  1.00  0.00     0.209 HD
ENDBRANCH  17  18
ENDBRANCH  13  17
BRANCH  14  20
HETATM   20  O4  UNL     1      -4.108  46.900 -18.496  1.00  0.00    -0.390 OA
HETATM   21  H12 UNL     1      -3.131  46.916 -18.478  1.00  0.00     0.210 HD
ENDBRANCH  14  20
BRANCH  15  22
HETATM   22  O5  UNL     1      -6.195  46.646 -20.492  1.00  0.00    -0.390 OA
HETATM   23  H14 UNL     1      -5.719  45.926 -20.034  1.00  0.00     0.210 HD
ENDBRANCH  15  22
BRANCH  16  24
HETATM   24  O6  UNL     1      -7.542  49.638 -19.383  1.00  0.00    -0.388 OA
HETATM   25  H16 UNL     1      -8.337  49.075 -19.414  1.00  0.00     0.210 HD
ENDBRANCH  16  24
ENDBRANCH  10  11
ENDBRANCH   3  10
BRANCH   4  26
HETATM   26  O7  UNL     1      -5.794  47.505 -23.204  1.00  0.00    -0.393 OA
HETATM   27  H18 UNL     1      -5.980  46.768 -23.812  1.00  0.00     0.210 HD
ENDBRANCH   4  26
BRANCH   9  28
HETATM   28  O8  UNL     1      -3.469  51.357 -25.799  1.00  0.00    -0.385 OA
HETATM   29  H27 UNL     1      -3.185  52.261 -25.577  1.00  0.00     0.211 HD
ENDBRANCH   9  28
BRANCH   9  30
HETATM   30  C16 UNL     1      -2.144  50.973 -23.925  1.00  0.00     0.010 C 
HETATM   31  C17 UNL     1      -1.866  51.196 -22.629  1.00  0.00     0.003 C 
BRANCH  31  32
HETATM   32  C18 UNL     1      -0.527  51.561 -22.049  1.00  0.00     0.136 C 
HETATM   33  C19 UNL     1       0.295  52.376 -23.037  1.00  0.00     0.043 C 
BRANCH  32  34
HETATM   34  O9  UNL     1      -0.690  52.301 -20.846  1.00  0.00    -0.392 OA
HETATM   35  H34 UNL     1       0.198  52.537 -20.531  1.00  0.00     0.210 HD
ENDBRANCH  32  34
ENDBRANCH  31  32
ENDBRANCH   9  30
TORSDOF 12
ENDMDL
MODEL 3
REMARK minimizedAffinity -6.75620794
REMARK CNNscore 0.456247926
REMARK CNNaffinity 4.33698416
REMARK  12 active torsions:
REMARK  status: ('A' for Active; 'I' for Inactive)
REMARK    1  A    between atoms: C3_3  and  O1_4 
REMARK    2  A    between atoms: O1_4  and  C4_5 
REMARK    3  A    between atoms: C5_7  and  C6_8 
REMARK    4  A    between atoms: C6_8  and  O3_9 
REMARK    5  A    between atoms: C7_10  and  O4_11 
REMARK    6  A    between atoms: C8_12  and  O5_13 
REMARK    7  A    between atoms: C9_14  and  O6_15 
REMARK    8  A    between atoms: C10_16  and  O7_17 
REMARK    9  A    between atoms: C15_22  and  O8_23 
REMARK   10  A    between atoms: C15_22  and  C16_24 
REMARK   11  A    between atoms: C17_25  and  C18_26 
REMARK   12  A    between atoms: C18_26  and  O9_28 
ROOT
HETATM    1  C1  UNL     1      -5.393  50.372 -20.435  1.00  0.00     0.016 C 
HETATM    2  C2  UNL     1      -3.883  50.569 -20.239  1.00  0.00     0.052 C 
HETATM    3  C3  UNL     1      -3.201  51.091 -21.516  1.00  0.00     0.160 C 
HETATM    4  C10 UNL     1      -1.741  51.540 -21.198  1.00  0.00     0.148 C 
HETATM    5  C11 UNL     1      -1.145  50.927 -19.922  1.00  0.00     0.046 C 
HETATM    6  C12 UNL     1      -1.561  49.458 -19.670  1.00  0.00    -0.010 C 
HETATM    7  C13 UNL     1      -0.836  48.986 -18.381  1.00  0.00     0.018 C 
HETATM    8  C14 UNL     1      -1.010  48.571 -20.815  1.00  0.00     0.018 C 
HETATM    9  C15 UNL     1      -3.141  49.380 -19.514  1.00  0.00     0.088 C 
ENDROOT
BRANCH   3  10
HETATM   10  O1  UNL     1      -3.304  50.125 -22.567  1.00  0.00    -0.350 OA
BRANCH  10  11
HETATM   11  C4  UNL     1      -4.403  50.382 -23.455  1.00  0.00     0.292 C 
HETATM   12  O2  UNL     1      -4.385  49.387 -24.492  1.00  0.00    -0.348 OA
HETATM   13  C5  UNL     1      -3.759  49.780 -25.722  1.00  0.00     0.179 C 
HETATM   14  C7  UNL     1      -2.622  50.780 -25.485  1.00  0.00     0.180 C 
HETATM   15  C8  UNL     1      -3.257  52.088 -25.005  1.00  0.00     0.183 C 
HETATM   16  C9  UNL     1      -4.343  51.852 -23.943  1.00  0.00     0.204 C 
BRANCH  13  17
HETATM   17  C6  UNL     1      -3.287  48.501 -26.418  1.00  0.00     0.198 C 
BRANCH  17  18
HETATM   18  O3  UNL     1      -3.380  48.645 -27.834  1.00  0.00    -0.398 OA
HETATM   19  H10 UNL     1      -2.833  49.427 -28.045  1.00  0.00     0.209 HD
ENDBRANCH  17  18
ENDBRANCH  13  17
BRANCH  14  20
HETATM   20  O4  UNL     1      -1.855  51.059 -26.663  1.00  0.00    -0.390 OA
HETATM   21  H12 UNL     1      -1.308  50.266 -26.828  1.00  0.00     0.210 HD
ENDBRANCH  14  20
BRANCH  15  22
HETATM   22  O5  UNL     1      -2.237  52.973 -24.519  1.00  0.00    -0.390 OA
HETATM   23  H14 UNL     1      -1.566  53.000 -25.229  1.00  0.00     0.210 HD
ENDBRANCH  15  22
BRANCH  16  24
HETATM   24  O6  UNL     1      -5.617  52.215 -24.521  1.00  0.00    -0.388 OA
HETATM   25  H16 UNL     1      -5.644  53.189 -24.525  1.00  0.00     0.210 HD
ENDBRANCH  16  24
ENDBRANCH  10  11
ENDBRANCH   3  10
BRANCH   4  26
HETATM   26  O7  UNL     1      -0.860  51.327 -22.303  1.00  0.00    -0.393 OA
HETATM   27  H18 UNL     1       0.026  51.633 -22.039  1.00  0.00     0.210 HD
ENDBRANCH   4  26
BRANCH   9  28
HETATM   28  O8  UNL     1      -3.442  49.657 -18.117  1.00  0.00    -0.385 OA
HETATM   29  H27 UNL     1      -4.347  49.341 -17.949  1.00  0.00     0.211 HD
ENDBRANCH   9  28
BRANCH   9  30
HETATM   30  C16 UNL     1      -3.631  47.954 -19.692  1.00  0.00     0.010 C 
HETATM   31  C17 UNL     1      -4.326  47.424 -20.712  1.00  0.00     0.003 C 
BRANCH  31  32
HETATM   32  C18 UNL     1      -4.774  45.994 -20.844  1.00  0.00     0.136 C 
HETATM   33  C19 UNL     1      -3.941  45.074 -19.962  1.00  0.00     0.043 C 
BRANCH  32  34
HETATM   34  O9  UNL     1      -6.146  45.867 -20.496  1.00  0.00    -0.392 OA
HETATM   35  H34 UNL     1      -6.376  44.926 -20.566  1.00  0.00     0.210 HD
ENDBRANCH  32  34
ENDBRANCH  31  32
ENDBRANCH   9  30
TORSDOF 12
ENDMDL
MODEL 4
REMARK minimizedAffinity -6.70743513
REMARK CNNscore 0.413108259
REMARK CNNaffinity 4.72659159
REMARK  12 active torsions:
REMARK  status: ('A' for Active; 'I' for Inactive)
REMARK    1  A    between atoms: C3_3  and  O1_4 
REMARK    2  A    between atoms: O1_4  and  C4_5 
REMARK    3  A    between atoms: C5_7  and  C6_8 
REMARK    4  A    between atoms: C6_8  and  O3_9 
REMARK    5  A    between atoms: C7_10  and  O4_11 
REMARK    6  A    between atoms: C8_12  and  O5_13 
REMARK    7  A    between atoms: C9_14  and  O6_15 
REMARK    8  A    between atoms: C10_16  and  O7_17 
REMARK    9  A    between atoms: C15_22  and  O8_23 
REMARK   10  A    between atoms: C15_22  and  C16_24 
REMARK   11  A    between atoms: C17_25  and  C18_26 
REMARK   12  A    between atoms: C18_26  and  O9_28 
ROOT
HETATM    1  C1  UNL     1      -2.407  47.644 -22.194  1.00  0.00     0.016 C 
HETATM    2  C2  UNL     1      -2.827  49.120 -22.118  1.00  0.00     0.052 C 
HETATM    3  C3  UNL     1      -3.964  49.341 -21.105  1.00  0.00     0.160 C 
HETATM    4  C10 UNL     1      -4.166  50.867 -20.853  1.00  0.00     0.148 C 
HETATM    5  C11 UNL     1      -3.621  51.779 -21.963  1.00  0.00     0.046 C 
HETATM    6  C12 UNL     1      -3.799  51.213 -23.392  1.00  0.00    -0.010 C 
HETATM    7  C13 UNL     1      -3.245  52.273 -24.382  1.00  0.00     0.018 C 
HETATM    8  C14 UNL     1      -5.311  51.091 -23.705  1.00  0.00     0.018 C 
HETATM    9  C15 UNL     1      -3.015  49.835 -23.511  1.00  0.00     0.088 C 
ENDROOT
BRANCH   3  10
HETATM   10  O1  UNL     1      -5.146  48.651 -21.521  1.00  0.00    -0.350 OA
BRANCH  10  11
HETATM   11  C4  UNL     1      -5.902  48.124 -20.420  1.00  0.00     0.292 C 
HETATM   12  O2  UNL     1      -5.042  47.260 -19.658  1.00  0.00    -0.348 OA
HETATM   13  C5  UNL     1      -5.153  45.858 -19.946  1.00  0.00     0.179 C 
HETATM   14  C7  UNL     1      -5.524  45.609 -21.413  1.00  0.00     0.180 C 
HETATM   15  C8  UNL     1      -6.960  46.102 -21.610  1.00  0.00     0.183 C 
HETATM   16  C9  UNL     1      -7.203  47.468 -20.950  1.00  0.00     0.204 C 
BRANCH  13  17
HETATM   17  C6  UNL     1      -3.823  45.210 -19.554  1.00  0.00     0.198 C 
BRANCH  17  18
HETATM   18  O3  UNL     1      -3.932  43.788 -19.607  1.00  0.00    -0.398 OA
HETATM   19  H10 UNL     1      -4.207  43.589 -20.524  1.00  0.00     0.209 HD
ENDBRANCH  17  18
ENDBRANCH  13  17
BRANCH  14  20
HETATM   20  O4  UNL     1      -5.468  44.227 -21.787  1.00  0.00    -0.390 OA
HETATM   21  H12 UNL     1      -4.520  43.997 -21.844  1.00  0.00     0.210 HD
ENDBRANCH  14  20
BRANCH  15  22
HETATM   22  O5  UNL     1      -7.273  46.138 -23.010  1.00  0.00    -0.390 OA
HETATM   23  H14 UNL     1      -7.020  45.257 -23.349  1.00  0.00     0.210 HD
ENDBRANCH  15  22
BRANCH  16  24
HETATM   24  O6  UNL     1      -8.120  47.275 -19.850  1.00  0.00    -0.388 OA
HETATM   25  H16 UNL     1      -9.002  47.162 -20.251  1.00  0.00     0.210 HD
ENDBRANCH  16  24
ENDBRANCH  10  11
ENDBRANCH   3  10
BRANCH   4  26
HETATM   26  O7  UNL     1      -5.531  51.191 -20.578  1.00  0.00    -0.393 OA
HETATM   27  H18 UNL     1      -5.584  52.151 -20.426  1.00  0.00     0.210 HD
ENDBRANCH   4  26
BRANCH   9  28
HETATM   28  O8  UNL     1      -1.640  50.160 -23.860  1.00  0.00    -0.385 OA
HETATM   29  H27 UNL     1      -1.231  49.348 -24.208  1.00  0.00     0.211 HD
ENDBRANCH   9  28
BRANCH   9  30
HETATM   30  C16 UNL     1      -3.495  49.045 -24.716  1.00  0.00     0.010 C 
HETATM   31  C17 UNL     1      -3.244  49.261 -26.018  1.00  0.00     0.003 C 
BRANCH  31  32
HETATM   32  C18 UNL     1      -3.734  48.435 -27.175  1.00  0.00     0.136 C 
HETATM   33  C19 UNL     1      -5.182  48.010 -26.972  1.00  0.00     0.043 C 
BRANCH  32  34
HETATM   34  O9  UNL     1      -3.622  49.162 -28.391  1.00  0.00    -0.392 OA
HETATM   35  H34 UNL     1      -3.979  48.600 -29.098  1.00  0.00     0.210 HD
ENDBRANCH  32  34
ENDBRANCH  31  32
ENDBRANCH   9  30
TORSDOF 12
ENDMDL
MODEL 5
REMARK minimizedAffinity -6.14544535
REMARK CNNscore 0.403135478
REMARK CNNaffinity 4.38772345
REMARK  12 active torsions:
REMARK  status: ('A' for Active; 'I' for Inactive)
REMARK    1  A    between atoms: C3_3  and  O1_4 
REMARK    2  A    between atoms: O1_4  and  C4_5 
REMARK    3  A    between atoms: C5_7  and  C6_8 
REMARK    4  A    between atoms: C6_8  and  O3_9 
REMARK    5  A    between atoms: C7_10  and  O4_11 
REMARK    6  A    between atoms: C8_12  and  O5_13 
REMARK    7  A    between atoms: C9_14  and  O6_15 
REMARK    8  A    between atoms: C10_16  and  O7_17 
REMARK    9  A    between atoms: C15_22  and  O8_23 
REMARK   10  A    between atoms: C15_22  and  C16_24 
REMARK   11  A    between atoms: C17_25  and  C18_26 
REMARK   12  A    between atoms: C18_26  and  O9_28 
ROOT
HETATM    1  C1  UNL     1       0.016  52.997 -12.191  1.00  0.00     0.016 C 
HETATM    2  C2  UNL     1      -0.542  52.266 -13.421  1.00  0.00     0.052 C 
HETATM    3  C3  UNL     1      -1.908  51.618 -13.134  1.00  0.00     0.160 C 
HETATM    4  C10 UNL     1      -2.563  51.136 -14.464  1.00  0.00     0.148 C 
HETATM    5  C11 UNL     1      -1.578  50.924 -15.624  1.00  0.00     0.046 C 
HETATM    6  C12 UNL     1      -0.209  50.346 -15.196  1.00  0.00    -0.010 C 
HETATM    7  C13 UNL     1       0.636  50.151 -16.484  1.00  0.00     0.018 C 
HETATM    8  C14 UNL     1      -0.419  48.927 -14.609  1.00  0.00     0.018 C 
HETATM    9  C15 UNL     1       0.492  51.351 -14.183  1.00  0.00     0.088 C 
ENDROOT
BRANCH   3  10
HETATM   10  O1  UNL     1      -1.778  50.598 -12.138  1.00  0.00    -0.350 OA
BRANCH  10  11
HETATM   11  C4  UNL     1      -2.998  50.362 -11.419  1.00  0.00     0.292 C 
HETATM   12  O2  UNL     1      -3.750  51.587 -11.394  1.00  0.00    -0.348 OA
HETATM   13  C5  UNL     1      -3.616  52.378 -10.205  1.00  0.00     0.179 C 
HETATM   14  C7  UNL     1      -2.227  52.221  -9.574  1.00  0.00     0.180 C 
HETATM   15  C8  UNL     1      -2.130  50.792  -9.034  1.00  0.00     0.183 C 
HETATM   16  C9  UNL     1      -2.673  49.755 -10.030  1.00  0.00     0.204 C 
BRANCH  13  17
HETATM   17  C6  UNL     1      -3.932  53.826 -10.586  1.00  0.00     0.198 C 
BRANCH  17  18
HETATM   18  O3  UNL     1      -4.083  53.944 -12.000  1.00  0.00    -0.398 OA
HETATM   19  H10 UNL     1      -4.795  53.315 -12.231  1.00  0.00     0.209 HD
ENDBRANCH  17  18
ENDBRANCH  13  17
BRANCH  14  20
HETATM   20  O4  UNL     1      -1.989  53.128  -8.490  1.00  0.00    -0.390 OA
HETATM   21  H12 UNL     1      -1.857  54.008  -8.894  1.00  0.00     0.210 HD
ENDBRANCH  14  20
BRANCH  15  22
HETATM   22  O5  UNL     1      -0.773  50.502  -8.668  1.00  0.00    -0.390 OA
HETATM   23  H14 UNL     1      -0.500  51.247  -8.099  1.00  0.00     0.210 HD
ENDBRANCH  15  22
BRANCH  16  24
HETATM   24  O6  UNL     1      -3.874  49.183  -9.467  1.00  0.00    -0.388 OA
HETATM   25  H16 UNL     1      -3.579  48.562  -8.776  1.00  0.00     0.210 HD
ENDBRANCH  16  24
ENDBRANCH  10  11
ENDBRANCH   3  10
BRANCH   4  26
HETATM   26  O7  UNL     1      -3.360  49.964 -14.278  1.00  0.00    -0.393 OA
HETATM   27  H18 UNL     1      -3.740  49.724 -15.142  1.00  0.00     0.210 HD
ENDBRANCH   4  26
BRANCH   9  28
HETATM   28  O8  UNL     1       1.209  52.329 -14.988  1.00  0.00    -0.385 OA
HETATM   29  H27 UNL     1       1.856  52.763 -14.404  1.00  0.00     0.211 HD
ENDBRANCH   9  28
BRANCH   9  30
HETATM   30  C16 UNL     1       1.605  50.657 -13.418  1.00  0.00     0.010 C 
HETATM   31  C17 UNL     1       2.931  50.869 -13.484  1.00  0.00     0.003 C 
BRANCH  31  32
HETATM   32  C18 UNL     1       3.993  50.160 -12.689  1.00  0.00     0.136 C 
HETATM   33  C19 UNL     1       3.387  49.074 -11.811  1.00  0.00     0.043 C 
BRANCH  32  34
HETATM   34  O9  UNL     1       4.961  49.582 -13.554  1.00  0.00    -0.392 OA
HETATM   35  H34 UNL     1       5.602  49.112 -12.996  1.00  0.00     0.210 HD
ENDBRANCH  32  34
ENDBRANCH  31  32
ENDBRANCH   9  30
TORSDOF 12
ENDMDL
MODEL 6
REMARK minimizedAffinity -6.38857031
REMARK CNNscore 0.398915976
REMARK CNNaffinity 4.42811012
REMARK  12 active torsions:
REMARK  status: ('A' for Active; 'I' for Inactive)
REMARK    1  A    between atoms: C3_3  and  O1_4 
REMARK    2  A    between atoms: O1_4  and  C4_5 
REMARK    3  A    between atoms: C5_7  and  C6_8 
REMARK    4  A    between atoms: C6_8  and  O3_9 
REMARK    5  A    between atoms: C7_10  and  O4_11 
REMARK    6  A    between atoms: C8_12  and  O5_13 
REMARK    7  A    between atoms: C9_14  and  O6_15 
REMARK    8  A    between atoms: C10_16  and  O7_17 
REMARK    9  A    between atoms: C15_22  and  O8_23 
REMARK   10  A    between atoms: C15_22  and  C16_24 
REMARK   11  A    between atoms: C17_25  and  C18_26 
REMARK   12  A    between atoms: C18_26  and  O9_28 
ROOT
HETATM    1  C1  UNL     1      -4.256  52.357 -22.600  1.00  0.00     0.016 C 
HETATM    2  C2  UNL     1      -4.669  51.170 -23.482  1.00  0.00     0.052 C 
HETATM    3  C3  UNL     1      -5.106  49.956 -22.644  1.00  0.00     0.160 C 
HETATM    4  C10 UNL     1      -5.777  48.886 -23.559  1.00  0.00     0.148 C 
HETATM    5  C11 UNL     1      -5.414  48.997 -25.048  1.00  0.00     0.046 C 
HETATM    6  C12 UNL     1      -3.949  49.417 -25.314  1.00  0.00    -0.010 C 
HETATM    7  C13 UNL     1      -3.743  49.431 -26.853  1.00  0.00     0.018 C 
HETATM    8  C14 UNL     1      -3.000  48.318 -24.770  1.00  0.00     0.018 C 
HETATM    9  C15 UNL     1      -3.689  50.849 -24.675  1.00  0.00     0.088 C 
ENDROOT
BRANCH   3  10
HETATM   10  O1  UNL     1      -4.009  49.463 -21.868  1.00  0.00    -0.350 OA
BRANCH  10  11
HETATM   11  C4  UNL     1      -3.358  50.491 -21.106  1.00  0.00     0.292 C 
HETATM   12  O2  UNL     1      -1.941  50.253 -21.149  1.00  0.00    -0.348 OA
HETATM   13  C5  UNL     1      -1.390  49.559 -20.021  1.00  0.00     0.179 C 
HETATM   14  C7  UNL     1      -2.399  48.577 -19.413  1.00  0.00     0.180 C 
HETATM   15  C8  UNL     1      -3.517  49.406 -18.778  1.00  0.00     0.183 C 
HETATM   16  C9  UNL     1      -3.977  50.556 -19.687  1.00  0.00     0.204 C 
BRANCH  13  17
HETATM   17  C6  UNL     1      -0.106  48.872 -20.494  1.00  0.00     0.198 C 
BRANCH  17  18
HETATM   18  O3  UNL     1      -0.408  47.605 -21.075  1.00  0.00    -0.398 OA
HETATM   19  H10 UNL     1      -1.035  47.801 -21.799  1.00  0.00     0.209 HD
ENDBRANCH  17  18
ENDBRANCH  13  17
BRANCH  14  20
HETATM   20  O4  UNL     1      -1.833  47.735 -18.400  1.00  0.00    -0.390 OA
HETATM   21  H12 UNL     1      -1.272  47.085 -18.866  1.00  0.00     0.210 HD
ENDBRANCH  14  20
BRANCH  15  22
HETATM   22  O5  UNL     1      -4.615  48.552 -18.425  1.00  0.00    -0.390 OA
HETATM   23  H14 UNL     1      -4.213  47.822 -17.914  1.00  0.00     0.210 HD
ENDBRANCH  15  22
BRANCH  16  24
HETATM   24  O6  UNL     1      -3.597  51.801 -19.058  1.00  0.00    -0.388 OA
HETATM   25  H16 UNL     1      -4.233  51.942 -18.333  1.00  0.00     0.210 HD
ENDBRANCH  16  24
ENDBRANCH  10  11
ENDBRANCH   3  10
BRANCH   4  26
HETATM   26  O7  UNL     1      -5.539  47.555 -23.095  1.00  0.00    -0.393 OA
HETATM   27  H18 UNL     1      -5.988  46.943 -23.705  1.00  0.00     0.210 HD
ENDBRANCH   4  26
BRANCH   9  28
HETATM   28  O8  UNL     1      -4.102  51.833 -25.665  1.00  0.00    -0.385 OA
HETATM   29  H27 UNL     1      -3.695  52.682 -25.414  1.00  0.00     0.211 HD
ENDBRANCH   9  28
BRANCH   9  30
HETATM   30  C16 UNL     1      -2.201  51.113 -24.532  1.00  0.00     0.010 C 
HETATM   31  C17 UNL     1      -1.550  52.289 -24.535  1.00  0.00     0.003 C 
BRANCH  31  32
HETATM   32  C18 UNL     1      -0.069  52.495 -24.373  1.00  0.00     0.136 C 
HETATM   33  C19 UNL     1       0.362  52.269 -22.931  1.00  0.00     0.043 C 
BRANCH  32  34
HETATM   34  O9  UNL     1       0.652  51.615 -25.226  1.00  0.00    -0.392 OA
HETATM   35  H34 UNL     1       1.598  51.765 -25.060  1.00  0.00     0.210 HD
ENDBRANCH  32  34
ENDBRANCH  31  32
ENDBRANCH   9  30
TORSDOF 12
ENDMDL
MODEL 7
REMARK minimizedAffinity -6.84233522
REMARK CNNscore 0.39015159
REMARK CNNaffinity 4.67698526
REMARK  12 active torsions:
REMARK  status: ('A' for Active; 'I' for Inactive)
REMARK    1  A    between atoms: C3_3  and  O1_4 
REMARK    2  A    between atoms: O1_4  and  C4_5 
REMARK    3  A    between atoms: C5_7  and  C6_8 
REMARK    4  A    between atoms: C6_8  and  O3_9 
REMARK    5  A    between atoms: C7_10  and  O4_11 
REMARK    6  A    between atoms: C8_12  and  O5_13 
REMARK    7  A    between atoms: C9_14  and  O6_15 
REMARK    8  A    between atoms: C10_16  and  O7_17 
REMARK    9  A    between atoms: C15_22  and  O8_23 
REMARK   10  A    between atoms: C15_22  and  C16_24 
REMARK   11  A    between atoms: C17_25  and  C18_26 
REMARK   12  A    between atoms: C18_26  and  O9_28 
ROOT
HETATM    1  C1  UNL     1      -7.407  44.224 -28.939  1.00  0.00     0.016 C 
HETATM    2  C2  UNL     1      -7.106  45.673 -29.349  1.00  0.00     0.052 C 
HETATM    3  C3  UNL     1      -7.923  46.685 -28.525  1.00  0.00     0.160 C 
HETATM    4  C10 UNL     1      -7.390  48.130 -28.771  1.00  0.00     0.148 C 
HETATM    5  C11 UNL     1      -6.595  48.308 -30.073  1.00  0.00     0.046 C 
HETATM    6  C12 UNL     1      -7.137  47.484 -31.265  1.00  0.00    -0.010 C 
HETATM    7  C13 UNL     1      -6.256  47.818 -32.499  1.00  0.00     0.018 C 
HETATM    8  C14 UNL     1      -8.563  47.979 -31.616  1.00  0.00     0.018 C 
HETATM    9  C15 UNL     1      -7.076  45.937 -30.904  1.00  0.00     0.088 C 
ENDROOT
BRANCH   3  10
HETATM   10  O1  UNL     1      -9.322  46.522 -28.779  1.00  0.00    -0.350 OA
BRANCH  10  11
HETATM   11  C4  UNL     1     -10.009  45.854 -27.710  1.00  0.00     0.292 C 
HETATM   12  O2  UNL     1     -11.340  45.545 -28.155  1.00  0.00    -0.348 OA
HETATM   13  C5  UNL     1     -12.361  46.471 -27.759  1.00  0.00     0.179 C 
HETATM   14  C7  UNL     1     -11.815  47.899 -27.642  1.00  0.00     0.180 C 
HETATM   15  C8  UNL     1     -10.863  47.926 -26.444  1.00  0.00     0.183 C 
HETATM   16  C9  UNL     1      -9.922  46.711 -26.421  1.00  0.00     0.204 C 
BRANCH  13  17
HETATM   17  C6  UNL     1     -13.498  46.354 -28.778  1.00  0.00     0.198 C 
BRANCH  17  18
HETATM   18  O3  UNL     1     -13.163  47.054 -29.975  1.00  0.00    -0.398 OA
HETATM   19  H10 UNL     1     -12.326  46.652 -30.278  1.00  0.00     0.209 HD
ENDBRANCH  17  18
ENDBRANCH  13  17
BRANCH  14  20
HETATM   20  O4  UNL     1     -12.835  48.882 -27.426  1.00  0.00    -0.390 OA
HETATM   21  H12 UNL     1     -13.302  48.984 -28.278  1.00  0.00     0.210 HD
ENDBRANCH  14  20
BRANCH  15  22
HETATM   22  O5  UNL     1     -10.123  49.156 -26.439  1.00  0.00    -0.390 OA
HETATM   23  H14 UNL     1     -10.798  49.857 -26.528  1.00  0.00     0.210 HD
ENDBRANCH  15  22
BRANCH  16  24
HETATM   24  O6  UNL     1     -10.275  45.895 -25.282  1.00  0.00    -0.388 OA
HETATM   25  H16 UNL     1      -9.918  46.355 -24.500  1.00  0.00     0.210 HD
ENDBRANCH  16  24
ENDBRANCH  10  11
ENDBRANCH   3  10
BRANCH   4  26
HETATM   26  O7  UNL     1      -8.430  49.108 -28.694  1.00  0.00    -0.393 OA
HETATM   27  H18 UNL     1      -8.028  49.980 -28.850  1.00  0.00     0.210 HD
ENDBRANCH   4  26
BRANCH   9  28
HETATM   28  O8  UNL     1      -5.740  45.475 -31.252  1.00  0.00    -0.385 OA
HETATM   29  H27 UNL     1      -5.777  44.503 -31.306  1.00  0.00     0.211 HD
ENDBRANCH   9  28
BRANCH   9  30
HETATM   30  C16 UNL     1      -7.968  45.131 -31.832  1.00  0.00     0.010 C 
HETATM   31  C17 UNL     1      -7.682  44.624 -33.043  1.00  0.00     0.003 C 
BRANCH  31  32
HETATM   32  C18 UNL     1      -8.603  43.817 -33.917  1.00  0.00     0.136 C 
HETATM   33  C19 UNL     1      -9.689  44.693 -34.527  1.00  0.00     0.043 C 
BRANCH  32  34
HETATM   34  O9  UNL     1      -7.872  43.178 -34.956  1.00  0.00    -0.392 OA
HETATM   35  H34 UNL     1      -8.513  42.700 -35.507  1.00  0.00     0.210 HD
ENDBRANCH  32  34
ENDBRANCH  31  32
ENDBRANCH   9  30
TORSDOF 12
ENDMDL
MODEL 8
REMARK minimizedAffinity -7.03995943
REMARK CNNscore 0.388789624
REMARK CNNaffinity 3.56859112
REMARK  12 active torsions:
REMARK  status: ('A' for Active; 'I' for Inactive)
REMARK    1  A    between atoms: C3_3  and  O1_4 
REMARK    2  A    between atoms: O1_4  and  C4_5 
REMARK    3  A    between atoms: C5_7  and  C6_8 
REMARK    4  A    between atoms: C6_8  and  O3_9 
REMARK    5  A    between atoms: C7_10  and  O4_11 
REMARK    6  A    between atoms: C8_12  and  O5_13 
REMARK    7  A    between atoms: C9_14  and  O6_15 
REMARK    8  A    between atoms: C10_16  and  O7_17 
REMARK    9  A    between atoms: C15_22  and  O8_23 
REMARK   10  A    between atoms: C15_22  and  C16_24 
REMARK   11  A    between atoms: C17_25  and  C18_26 
REMARK   12  A    between atoms: C18_26  and  O9_28 
ROOT
HETATM    1  C1  UNL     1       5.295  68.692 -34.956  1.00  0.00     0.016 C 
HETATM    2  C2  UNL     1       6.149  67.728 -35.794  1.00  0.00     0.052 C 
HETATM    3  C3  UNL     1       5.779  67.782 -37.287  1.00  0.00     0.160 C 
HETATM    4  C10 UNL     1       6.841  67.013 -38.130  1.00  0.00     0.148 C 
HETATM    5  C11 UNL     1       7.668  65.988 -37.339  1.00  0.00     0.046 C 
HETATM    6  C12 UNL     1       6.870  65.234 -36.249  1.00  0.00    -0.010 C 
HETATM    7  C13 UNL     1       7.836  64.213 -35.589  1.00  0.00     0.018 C 
HETATM    8  C14 UNL     1       5.760  64.390 -36.926  1.00  0.00     0.018 C 
HETATM    9  C15 UNL     1       6.311  66.280 -35.191  1.00  0.00     0.088 C 
ENDROOT
BRANCH   3  10
HETATM   10  O1  UNL     1       4.433  67.336 -37.484  1.00  0.00    -0.350 OA
BRANCH  10  11
HETATM   11  C4  UNL     1       3.643  68.263 -38.244  1.00  0.00     0.292 C 
HETATM   12  O2  UNL     1       3.092  69.232 -37.337  1.00  0.00    -0.348 OA
HETATM   13  C5  UNL     1       1.747  68.987 -36.903  1.00  0.00     0.179 C 
HETATM   14  C7  UNL     1       1.440  67.486 -36.832  1.00  0.00     0.180 C 
HETATM   15  C8  UNL     1       1.427  66.954 -38.267  1.00  0.00     0.183 C 
HETATM   16  C9  UNL     1       2.607  67.486 -39.096  1.00  0.00     0.204 C 
BRANCH  13  17
HETATM   17  C6  UNL     1       1.570  69.691 -35.556  1.00  0.00     0.198 C 
BRANCH  17  18
HETATM   18  O3  UNL     1       0.196  69.690 -35.173  1.00  0.00    -0.398 OA
HETATM   19  H10 UNL     1      -0.061  68.747 -35.156  1.00  0.00     0.209 HD
ENDBRANCH  17  18
ENDBRANCH  13  17
BRANCH  14  20
HETATM   20  O4  UNL     1       0.172  67.192 -36.232  1.00  0.00    -0.390 OA
HETATM   21  H12 UNL     1       0.277  67.357 -35.275  1.00  0.00     0.210 HD
ENDBRANCH  14  20
BRANCH  15  22
HETATM   22  O5  UNL     1       1.405  65.520 -38.253  1.00  0.00    -0.390 OA
HETATM   23  H14 UNL     1       0.674  65.283 -37.650  1.00  0.00     0.210 HD
ENDBRANCH  15  22
BRANCH  16  24
HETATM   24  O6  UNL     1       2.076  68.362 -40.116  1.00  0.00    -0.388 OA
HETATM   25  H16 UNL     1       1.688  67.780 -40.795  1.00  0.00     0.210 HD
ENDBRANCH  16  24
ENDBRANCH  10  11
ENDBRANCH   3  10
BRANCH   4  26
HETATM   26  O7  UNL     1       6.267  66.394 -39.284  1.00  0.00    -0.393 OA
HETATM   27  H18 UNL     1       6.982  65.940 -39.764  1.00  0.00     0.210 HD
ENDBRANCH   4  26
BRANCH   9  28
HETATM   28  O8  UNL     1       7.365  66.490 -34.208  1.00  0.00    -0.385 OA
HETATM   29  H27 UNL     1       6.952  66.890 -33.423  1.00  0.00     0.211 HD
ENDBRANCH   9  28
BRANCH   9  30
HETATM   30  C16 UNL     1       5.194  65.667 -34.366  1.00  0.00     0.010 C 
HETATM   31  C17 UNL     1       5.236  65.202 -33.105  1.00  0.00     0.003 C 
BRANCH  31  32
HETATM   32  C18 UNL     1       4.089  64.616 -32.327  1.00  0.00     0.136 C 
HETATM   33  C19 UNL     1       4.167  63.096 -32.296  1.00  0.00     0.043 C 
BRANCH  32  34
HETATM   34  O9  UNL     1       4.083  65.116 -30.996  1.00  0.00    -0.392 OA
HETATM   35  H34 UNL     1       3.348  64.685 -30.530  1.00  0.00     0.210 HD
ENDBRANCH  32  34
ENDBRANCH  31  32
ENDBRANCH   9  30
TORSDOF 12
ENDMDL
MODEL 9
REMARK minimizedAffinity -6.92212963
REMARK CNNscore 0.369789302
REMARK CNNaffinity 5.0272975
REMARK  12 active torsions:
REMARK  status: ('A' for Active; 'I' for Inactive)
REMARK    1  A    between atoms: C3_3  and  O1_4 
REMARK    2  A    between atoms: O1_4  and  C4_5 
REMARK    3  A    between atoms: C5_7  and  C6_8 
REMARK    4  A    between atoms: C6_8  and  O3_9 
REMARK    5  A    between atoms: C7_10  and  O4_11 
REMARK    6  A    between atoms: C8_12  and  O5_13 
REMARK    7  A    between atoms: C9_14  and  O6_15 
REMARK    8  A    between atoms: C10_16  and  O7_17 
REMARK    9  A    between atoms: C15_22  and  O8_23 
REMARK   10  A    between atoms: C15_22  and  C16_24 
REMARK   11  A    between atoms: C17_25  and  C18_26 
REMARK   12  A    between atoms: C18_26  and  O9_28 
ROOT
HETATM    1  C1  UNL     1      -3.027  52.994 -23.415  1.00  0.00     0.016 C 
HETATM    2  C2  UNL     1      -2.334  52.647 -24.741  1.00  0.00     0.052 C 
HETATM    3  C3  UNL     1      -3.350  52.332 -25.854  1.00  0.00     0.160 C 
HETATM    4  C10 UNL     1      -2.628  52.264 -27.235  1.00  0.00     0.148 C 
HETATM    5  C11 UNL     1      -1.116  52.005 -27.156  1.00  0.00     0.046 C 
HETATM    6  C12 UNL     1      -0.697  51.032 -26.028  1.00  0.00    -0.010 C 
HETATM    7  C13 UNL     1       0.841  50.846 -26.124  1.00  0.00     0.018 C 
HETATM    8  C14 UNL     1      -1.310  49.636 -26.310  1.00  0.00     0.018 C 
HETATM    9  C15 UNL     1      -1.127  51.639 -24.624  1.00  0.00     0.088 C 
ENDROOT
BRANCH   3  10
HETATM   10  O1  UNL     1      -4.104  51.161 -25.525  1.00  0.00    -0.350 OA
BRANCH  10  11
HETATM   11  C4  UNL     1      -3.312  49.964 -25.542  1.00  0.00     0.292 C 
HETATM   12  O2  UNL     1      -3.560  49.279 -26.782  1.00  0.00    -0.348 OA
HETATM   13  C5  UNL     1      -4.524  48.218 -26.726  1.00  0.00     0.179 C 
HETATM   14  C7  UNL     1      -5.607  48.491 -25.674  1.00  0.00     0.180 C 
HETATM   15  C8  UNL     1      -4.939  48.405 -24.300  1.00  0.00     0.183 C 
HETATM   16  C9  UNL     1      -3.590  49.139 -24.260  1.00  0.00     0.204 C 
BRANCH  13  17
HETATM   17  C6  UNL     1      -5.097  48.052 -28.135  1.00  0.00     0.198 C 
BRANCH  17  18
HETATM   18  O3  UNL     1      -4.524  49.015 -29.019  1.00  0.00    -0.398 OA
HETATM   19  H10 UNL     1      -3.560  48.862 -28.969  1.00  0.00     0.209 HD
ENDBRANCH  17  18
ENDBRANCH  13  17
BRANCH  14  20
HETATM   20  O4  UNL     1      -6.685  47.549 -25.710  1.00  0.00    -0.390 OA
HETATM   21  H12 UNL     1      -7.210  47.763 -26.506  1.00  0.00     0.210 HD
ENDBRANCH  14  20
BRANCH  15  22
HETATM   22  O5  UNL     1      -5.833  48.905 -23.294  1.00  0.00    -0.390 OA
HETATM   23  H14 UNL     1      -6.675  48.433 -23.446  1.00  0.00     0.210 HD
ENDBRANCH  15  22
BRANCH  16  24
HETATM   24  O6  UNL     1      -2.549  48.149 -24.096  1.00  0.00    -0.388 OA
HETATM   25  H16 UNL     1      -2.580  47.878 -23.160  1.00  0.00     0.210 HD
ENDBRANCH  16  24
ENDBRANCH  10  11
ENDBRANCH   3  10
BRANCH   4  26
HETATM   26  O7  UNL     1      -3.241  51.321 -28.117  1.00  0.00    -0.393 OA
HETATM   27  H18 UNL     1      -2.747  51.335 -28.955  1.00  0.00     0.210 HD
ENDBRANCH   4  26
BRANCH   9  28
HETATM   28  O8  UNL     1      -0.051  52.522 -24.198  1.00  0.00    -0.385 OA
HETATM   29  H27 UNL     1      -0.162  52.672 -23.243  1.00  0.00     0.211 HD
ENDBRANCH   9  28
BRANCH   9  30
HETATM   30  C16 UNL     1      -1.132  50.566 -23.551  1.00  0.00     0.010 C 
HETATM   31  C17 UNL     1      -0.847  50.682 -22.242  1.00  0.00     0.003 C 
BRANCH  31  32
HETATM   32  C18 UNL     1      -0.881  49.583 -21.216  1.00  0.00     0.136 C 
HETATM   33  C19 UNL     1      -0.492  50.104 -19.840  1.00  0.00     0.043 C 
BRANCH  32  34
HETATM   34  O9  UNL     1      -2.177  49.001 -21.151  1.00  0.00    -0.392 OA
HETATM   35  H34 UNL     1      -2.155  48.324 -20.456  1.00  0.00     0.210 HD
ENDBRANCH  32  34
ENDBRANCH  31  32
ENDBRANCH   9  30
TORSDOF 12
ENDMDL
