MODEL 1
REMARK minimizedAffinity -8.0248642
REMARK CNNscore 0.627921104
REMARK CNNaffinity 7.31647539
REMARK  7 active torsions:
REMARK  status: ('A' for Active; 'I' for Inactive)
REMARK    1  A    between atoms: C4_4  and  C5_5 
REMARK    2  A    between atoms: C5_5  and  C6_6 
REMARK    3  A    between atoms: C6_6  and  C7_7 
REMARK    4  A    between atoms: C7_7  and  C9_9 
REMARK    5  A    between atoms: C16_16  and  O1_17 
REMARK    6  A    between atoms: C18_19  and  O2_20 
REMARK    7  A    between atoms: C19_21  and  O3_22 
ROOT
HETATM    1  C9  UNL     1      -6.862   7.999  15.066  1.00  0.00    -0.002 C 
HETATM    2  C10 UNL     1      -5.723   8.819  15.740  1.00  0.00     0.006 C 
HETATM    3  C11 UNL     1      -4.391   8.197  15.295  1.00  0.00     0.011 C 
HETATM    4  C12 UNL     1      -4.741   7.365  14.048  1.00  0.00    -0.032 C 
HETATM    5  C13 UNL     1      -4.817   8.359  12.848  1.00  0.00     0.016 C 
HETATM    6  C14 UNL     1      -3.734   6.225  13.738  1.00  0.00     0.006 C 
HETATM    7  C15 UNL     1      -2.380   6.712  13.203  1.00  0.00     0.038 C 
HETATM    8  C16 UNL     1      -1.426   5.538  12.996  1.00  0.00     0.126 C 
HETATM    9  C17 UNL     1      -1.934   4.641  11.855  1.00  0.00     0.055 C 
HETATM   10  C18 UNL     1      -1.113   3.338  11.728  1.00  0.00     0.154 C 
HETATM   11  C19 UNL     1      -1.678   2.400  10.628  1.00  0.00     0.147 C 
HETATM   12  C20 UNL     1      -2.785   3.051   9.796  1.00  0.00     0.035 C 
HETATM   13  C21 UNL     1      -3.917   3.636  10.650  1.00  0.00     0.013 C 
HETATM   14  C22 UNL     1      -3.411   4.286  11.937  1.00  0.00    -0.023 A 
HETATM   15  C23 UNL     1      -3.967   3.708  13.215  1.00  0.00     0.021 A 
HETATM   16  C24 UNL     1      -4.351   5.127  12.835  1.00  0.00    -0.027 A 
HETATM   17  C25 UNL     1      -5.778   5.352  12.322  1.00  0.00     0.011 C 
HETATM   18  C26 UNL     1      -6.759   6.117  13.230  1.00  0.00     0.011 C 
HETATM   19  C27 UNL     1      -6.127   6.748  14.477  1.00  0.00    -0.032 C 
HETATM   20  C28 UNL     1      -6.016   5.639  15.557  1.00  0.00     0.016 C 
ENDROOT
BRANCH   1  21
HETATM   21  C7  UNL     1      -8.150   7.905  15.944  1.00  0.00    -0.014 C 
HETATM   22  C8  UNL     1      -8.979   6.617  15.820  1.00  0.00     0.010 C 
BRANCH  21  23
HETATM   23  C6  UNL     1      -9.100   9.117  15.816  1.00  0.00     0.008 C 
BRANCH  23  24
HETATM   24  C5  UNL     1     -10.292   9.080  16.780  1.00  0.00     0.028 C 
BRANCH  24  25
HETATM   25  C4  UNL     1     -10.861  10.460  16.975  1.00  0.00    -0.025 C 
HETATM   26  C2  UNL     1     -11.298  11.033  18.113  1.00  0.00    -0.091 C 
HETATM   27  C1  UNL     1     -11.829  12.444  18.101  1.00  0.00     0.042 C 
HETATM   28  C3  UNL     1     -11.316  10.385  19.471  1.00  0.00     0.042 C 
ENDBRANCH  24  25
ENDBRANCH  23  24
ENDBRANCH  21  23
ENDBRANCH   1  21
BRANCH   8  29
HETATM   29  O1  UNL     1      -0.141   6.077  12.673  1.00  0.00    -0.395 OA
HETATM   30  H28 UNL     1       0.359   5.359  12.227  1.00  0.00     0.210 HD
ENDBRANCH   8  29
BRANCH  10  31
HETATM   31  O2  UNL     1       0.252   3.679  11.436  1.00  0.00    -0.393 OA
HETATM   32  H31 UNL     1       0.753   2.846  11.360  1.00  0.00     0.210 HD
ENDBRANCH  10  31
BRANCH  11  33
HETATM   33  O3  UNL     1      -2.210   1.212  11.221  1.00  0.00    -0.393 OA
HETATM   34  H33 UNL     1      -1.484   0.747  11.671  1.00  0.00     0.210 HD
ENDBRANCH  11  33
TORSDOF 7
ENDMDL
MODEL 2
REMARK minimizedAffinity -7.0698576
REMARK CNNscore 0.544118643
REMARK CNNaffinity 6.76223993
REMARK  7 active torsions:
REMARK  status: ('A' for Active; 'I' for Inactive)
REMARK    1  A    between atoms: C4_4  and  C5_5 
REMARK    2  A    between atoms: C5_5  and  C6_6 
REMARK    3  A    between atoms: C6_6  and  C7_7 
REMARK    4  A    between atoms: C7_7  and  C9_9 
REMARK    5  A    between atoms: C16_16  and  O1_17 
REMARK    6  A    between atoms: C18_19  and  O2_20 
REMARK    7  A    between atoms: C19_21  and  O3_22 
ROOT
HETATM    1  C9  UNL     1     -10.203   7.522  15.128  1.00  0.00    -0.002 C 
HETATM    2  C10 UNL     1      -9.643   8.972  15.036  1.00  0.00     0.006 C 
HETATM    3  C11 UNL     1     -10.756   9.853  14.449  1.00  0.00     0.011 C 
HETATM    4  C12 UNL     1     -12.047   9.040  14.645  1.00  0.00    -0.032 C 
HETATM    5  C13 UNL     1     -12.495   9.252  16.125  1.00  0.00     0.016 C 
HETATM    6  C14 UNL     1     -13.199   9.426  13.677  1.00  0.00     0.006 C 
HETATM    7  C15 UNL     1     -13.844  10.786  13.979  1.00  0.00     0.038 C 
HETATM    8  C16 UNL     1     -14.910  11.121  12.939  1.00  0.00     0.126 C 
HETATM    9  C17 UNL     1     -16.096  10.152  13.069  1.00  0.00     0.055 C 
HETATM   10  C18 UNL     1     -17.117  10.323  11.921  1.00  0.00     0.154 C 
HETATM   11  C19 UNL     1     -18.271   9.289  12.012  1.00  0.00     0.147 C 
HETATM   12  C20 UNL     1     -18.244   8.473  13.306  1.00  0.00     0.035 C 
HETATM   13  C21 UNL     1     -16.889   7.804  13.569  1.00  0.00     0.013 C 
HETATM   14  C22 UNL     1     -15.708   8.685  13.167  1.00  0.00    -0.023 A 
HETATM   15  C23 UNL     1     -14.780   8.090  12.136  1.00  0.00     0.021 A 
HETATM   16  C24 UNL     1     -14.256   8.301  13.545  1.00  0.00    -0.027 A 
HETATM   17  C25 UNL     1     -14.076   7.054  14.418  1.00  0.00     0.011 C 
HETATM   18  C26 UNL     1     -12.639   6.603  14.745  1.00  0.00     0.011 C 
HETATM   19  C27 UNL     1     -11.542   7.584  14.315  1.00  0.00    -0.032 C 
HETATM   20  C28 UNL     1     -11.259   7.341  12.809  1.00  0.00     0.016 C 
ENDROOT
BRANCH   1  21
HETATM   21  C7  UNL     1      -9.113   6.429  14.905  1.00  0.00    -0.014 C 
HETATM   22  C8  UNL     1      -7.997   6.338  15.957  1.00  0.00     0.010 C 
BRANCH  21  23
HETATM   23  C6  UNL     1      -8.465   6.449  13.502  1.00  0.00     0.008 C 
BRANCH  23  24
HETATM   24  C5  UNL     1      -8.136   5.059  12.945  1.00  0.00     0.028 C 
BRANCH  24  25
HETATM   25  C4  UNL     1      -6.646   4.859  12.859  1.00  0.00    -0.025 C 
HETATM   26  C2  UNL     1      -5.968   3.757  12.487  1.00  0.00    -0.091 C 
HETATM   27  C1  UNL     1      -4.462   3.762  12.457  1.00  0.00     0.042 C 
HETATM   28  C3  UNL     1      -6.583   2.447  12.074  1.00  0.00     0.042 C 
ENDBRANCH  24  25
ENDBRANCH  23  24
ENDBRANCH  21  23
ENDBRANCH   1  21
BRANCH   8  29
HETATM   29  O1  UNL     1     -15.336  12.466  13.176  1.00  0.00    -0.395 OA
HETATM   30  H28 UNL     1     -16.217  12.559  12.751  1.00  0.00     0.210 HD
ENDBRANCH   8  29
BRANCH  10  31
HETATM   31  O2  UNL     1     -17.643  11.660  11.967  1.00  0.00    -0.393 OA
HETATM   32  H31 UNL     1     -18.284  11.748  11.237  1.00  0.00     0.210 HD
ENDBRANCH  10  31
BRANCH  11  33
HETATM   33  O3  UNL     1     -18.203   8.378  10.912  1.00  0.00    -0.393 OA
HETATM   34  H33 UNL     1     -18.316   8.887  10.090  1.00  0.00     0.210 HD
ENDBRANCH  11  33
TORSDOF 7
ENDMDL
MODEL 3
REMARK minimizedAffinity -9.09727859
REMARK CNNscore 0.523591101
REMARK CNNaffinity 6.8128705
REMARK  7 active torsions:
REMARK  status: ('A' for Active; 'I' for Inactive)
REMARK    1  A    between atoms: C4_4  and  C5_5 
REMARK    2  A    between atoms: C5_5  and  C6_6 
REMARK    3  A    between atoms: C6_6  and  C7_7 
REMARK    4  A    between atoms: C7_7  and  C9_9 
REMARK    5  A    between atoms: C16_16  and  O1_17 
REMARK    6  A    between atoms: C18_19  and  O2_20 
REMARK    7  A    between atoms: C19_21  and  O3_22 
ROOT
HETATM    1  C9  UNL     1      -2.741   8.226  14.914  1.00  0.00    -0.002 C 
HETATM    2  C10 UNL     1      -1.772   7.927  16.094  1.00  0.00     0.006 C 
HETATM    3  C11 UNL     1      -0.409   7.567  15.484  1.00  0.00     0.011 C 
HETATM    4  C12 UNL     1      -0.469   8.102  14.042  1.00  0.00    -0.032 C 
HETATM    5  C13 UNL     1      -0.168   9.632  14.114  1.00  0.00     0.016 C 
HETATM    6  C14 UNL     1       0.515   7.408  13.062  1.00  0.00     0.006 C 
HETATM    7  C15 UNL     1       1.989   7.777  13.284  1.00  0.00     0.038 C 
HETATM    8  C16 UNL     1       2.891   6.996  12.332  1.00  0.00     0.126 C 
HETATM    9  C17 UNL     1       2.648   7.451  10.884  1.00  0.00     0.055 C 
HETATM   10  C18 UNL     1       3.394   6.564   9.861  1.00  0.00     0.154 C 
HETATM   11  C19 UNL     1       3.082   6.977   8.398  1.00  0.00     0.147 C 
HETATM   12  C20 UNL     1       2.273   8.272   8.300  1.00  0.00     0.035 C 
HETATM   13  C21 UNL     1       0.994   8.249   9.146  1.00  0.00     0.013 C 
HETATM   14  C22 UNL     1       1.183   7.536  10.483  1.00  0.00    -0.023 A 
HETATM   15  C23 UNL     1       0.277   6.352  10.718  1.00  0.00     0.021 A 
HETATM   16  C24 UNL     1       0.091   7.587  11.581  1.00  0.00    -0.027 A 
HETATM   17  C25 UNL     1      -1.135   8.461  11.296  1.00  0.00     0.011 C 
HETATM   18  C26 UNL     1      -2.272   8.470  12.335  1.00  0.00     0.011 C 
HETATM   19  C27 UNL     1      -1.952   7.744  13.648  1.00  0.00    -0.032 C 
HETATM   20  C28 UNL     1      -2.195   6.229  13.417  1.00  0.00     0.016 C 
ENDROOT
BRANCH   1  21
HETATM   21  C7  UNL     1      -4.217   7.816  15.214  1.00  0.00    -0.014 C 
HETATM   22  C8  UNL     1      -4.432   6.461  15.906  1.00  0.00     0.010 C 
BRANCH  21  23
HETATM   23  C6  UNL     1      -5.164   7.902  13.996  1.00  0.00     0.008 C 
BRANCH  23  24
HETATM   24  C5  UNL     1      -6.214   6.786  13.941  1.00  0.00     0.028 C 
BRANCH  24  25
HETATM   25  C4  UNL     1      -5.757   5.670  13.040  1.00  0.00    -0.025 C 
HETATM   26  C2  UNL     1      -6.223   4.408  12.965  1.00  0.00    -0.091 C 
HETATM   27  C1  UNL     1      -5.632   3.434  11.979  1.00  0.00     0.042 C 
HETATM   28  C3  UNL     1      -7.332   3.832  13.804  1.00  0.00     0.042 C 
ENDBRANCH  24  25
ENDBRANCH  23  24
ENDBRANCH  21  23
ENDBRANCH   1  21
BRANCH   8  29
HETATM   29  O1  UNL     1       4.246   7.252  12.714  1.00  0.00    -0.395 OA
HETATM   30  H28 UNL     1       4.801   7.038  11.934  1.00  0.00     0.210 HD
ENDBRANCH   8  29
BRANCH  10  31
HETATM   31  O2  UNL     1       4.806   6.657  10.113  1.00  0.00    -0.393 OA
HETATM   32  H31 UNL     1       5.259   6.093   9.460  1.00  0.00     0.210 HD
ENDBRANCH  10  31
BRANCH  11  33
HETATM   33  O3  UNL     1       2.344   5.942   7.742  1.00  0.00    -0.393 OA
HETATM   34  H33 UNL     1       2.898   5.143   7.720  1.00  0.00     0.210 HD
ENDBRANCH  11  33
TORSDOF 7
ENDMDL
MODEL 4
REMARK minimizedAffinity -8.50267029
REMARK CNNscore 0.496976048
REMARK CNNaffinity 7.06896353
REMARK  7 active torsions:
REMARK  status: ('A' for Active; 'I' for Inactive)
REMARK    1  A    between atoms: C4_4  and  C5_5 
REMARK    2  A    between atoms: C5_5  and  C6_6 
REMARK    3  A    between atoms: C6_6  and  C7_7 
REMARK    4  A    between atoms: C7_7  and  C9_9 
REMARK    5  A    between atoms: C16_16  and  O1_17 
REMARK    6  A    between atoms: C18_19  and  O2_20 
REMARK    7  A    between atoms: C19_21  and  O3_22 
ROOT
HETATM    1  C9  UNL     1      -6.206   8.335  15.079  1.00  0.00    -0.002 C 
HETATM    2  C10 UNL     1      -4.988   9.087  15.691  1.00  0.00     0.006 C 
HETATM    3  C11 UNL     1      -3.721   8.358  15.221  1.00  0.00     0.011 C 
HETATM    4  C12 UNL     1      -4.173   7.520  14.012  1.00  0.00    -0.032 C 
HETATM    5  C13 UNL     1      -4.218   8.484  12.785  1.00  0.00     0.016 C 
HETATM    6  C14 UNL     1      -3.261   6.302  13.703  1.00  0.00     0.006 C 
HETATM    7  C15 UNL     1      -1.895   6.674  13.109  1.00  0.00     0.038 C 
HETATM    8  C16 UNL     1      -1.036   5.428  12.907  1.00  0.00     0.126 C 
HETATM    9  C17 UNL     1      -1.646   4.540  11.810  1.00  0.00     0.055 C 
HETATM   10  C18 UNL     1      -0.926   3.177  11.696  1.00  0.00     0.154 C 
HETATM   11  C19 UNL     1      -1.595   2.253  10.643  1.00  0.00     0.147 C 
HETATM   12  C20 UNL     1      -2.681   2.961   9.829  1.00  0.00     0.035 C 
HETATM   13  C21 UNL     1      -3.737   3.650  10.702  1.00  0.00     0.013 C 
HETATM   14  C22 UNL     1      -3.141   4.295  11.951  1.00  0.00    -0.023 A 
HETATM   15  C23 UNL     1      -3.693   3.795  13.263  1.00  0.00     0.021 A 
HETATM   16  C24 UNL     1      -3.987   5.227  12.854  1.00  0.00    -0.027 A 
HETATM   17  C25 UNL     1      -5.411   5.541  12.381  1.00  0.00     0.011 C 
HETATM   18  C26 UNL     1      -6.302   6.401  13.297  1.00  0.00     0.011 C 
HETATM   19  C27 UNL     1      -5.583   7.017  14.503  1.00  0.00    -0.032 C 
HETATM   20  C28 UNL     1      -5.515   5.934  15.612  1.00  0.00     0.016 C 
ENDROOT
BRANCH   1  21
HETATM   21  C7  UNL     1      -7.466   8.358  16.000  1.00  0.00    -0.014 C 
HETATM   22  C8  UNL     1      -7.786   7.067  16.769  1.00  0.00     0.010 C 
BRANCH  21  23
HETATM   23  C6  UNL     1      -8.756   8.851  15.306  1.00  0.00     0.008 C 
BRANCH  23  24
HETATM   24  C5  UNL     1     -10.045   8.271  15.900  1.00  0.00     0.028 C 
BRANCH  24  25
HETATM   25  C4  UNL     1     -10.887   7.635  14.826  1.00  0.00    -0.025 C 
HETATM   26  C2  UNL     1     -11.661   8.236  13.902  1.00  0.00    -0.091 C 
HETATM   27  C1  UNL     1     -12.426   7.414  12.897  1.00  0.00     0.042 C 
HETATM   28  C3  UNL     1     -11.858   9.720  13.754  1.00  0.00     0.042 C 
ENDBRANCH  24  25
ENDBRANCH  23  24
ENDBRANCH  21  23
ENDBRANCH   1  21
BRANCH   8  29
HETATM   29  O1  UNL     1       0.272   5.863  12.526  1.00  0.00    -0.395 OA
HETATM   30  H28 UNL     1       0.703   5.098  12.086  1.00  0.00     0.210 HD
ENDBRANCH   8  29
BRANCH  10  31
HETATM   31  O2  UNL     1       0.449   3.409  11.350  1.00  0.00    -0.393 OA
HETATM   32  H31 UNL     1       0.886   2.540  11.282  1.00  0.00     0.210 HD
ENDBRANCH  10  31
BRANCH  11  33
HETATM   33  O3  UNL     1      -2.191   1.124  11.288  1.00  0.00    -0.393 OA
HETATM   34  H33 UNL     1      -1.484   0.620  11.728  1.00  0.00     0.210 HD
ENDBRANCH  11  33
TORSDOF 7
ENDMDL
MODEL 5
REMARK minimizedAffinity -8.29130363
REMARK CNNscore 0.492003977
REMARK CNNaffinity 6.63491297
REMARK  7 active torsions:
REMARK  status: ('A' for Active; 'I' for Inactive)
REMARK    1  A    between atoms: C4_4  and  C5_5 
REMARK    2  A    between atoms: C5_5  and  C6_6 
REMARK    3  A    between atoms: C6_6  and  C7_7 
REMARK    4  A    between atoms: C7_7  and  C9_9 
REMARK    5  A    between atoms: C16_16  and  O1_17 
REMARK    6  A    between atoms: C18_19  and  O2_20 
REMARK    7  A    between atoms: C19_21  and  O3_22 
ROOT
HETATM    1  C9  UNL     1      -3.663   6.853  13.786  1.00  0.00    -0.002 C 
HETATM    2  C10 UNL     1      -3.494   8.060  14.754  1.00  0.00     0.006 C 
HETATM    3  C11 UNL     1      -2.049   8.561  14.607  1.00  0.00     0.011 C 
HETATM    4  C12 UNL     1      -1.561   7.973  13.272  1.00  0.00    -0.032 C 
HETATM    5  C13 UNL     1      -2.121   8.891  12.141  1.00  0.00     0.016 C 
HETATM    6  C14 UNL     1      -0.017   7.857  13.152  1.00  0.00     0.006 C 
HETATM    7  C15 UNL     1       0.703   9.202  12.981  1.00  0.00     0.038 C 
HETATM    8  C16 UNL     1       2.217   9.004  12.947  1.00  0.00     0.126 C 
HETATM    9  C17 UNL     1       2.621   8.245  11.673  1.00  0.00     0.055 C 
HETATM   10  C18 UNL     1       4.115   7.850  11.678  1.00  0.00     0.154 C 
HETATM   11  C19 UNL     1       4.500   7.015  10.428  1.00  0.00     0.147 C 
HETATM   12  C20 UNL     1       3.377   6.937   9.391  1.00  0.00     0.035 C 
HETATM   13  C21 UNL     1       2.045   6.457   9.980  1.00  0.00     0.013 C 
HETATM   14  C22 UNL     1       1.787   7.006  11.382  1.00  0.00    -0.023 A 
HETATM   15  C23 UNL     1       1.598   5.965  12.458  1.00  0.00     0.021 A 
HETATM   16  C24 UNL     1       0.411   6.830  12.072  1.00  0.00    -0.027 A 
HETATM   17  C25 UNL     1      -0.696   6.168  11.246  1.00  0.00     0.011 C 
HETATM   18  C26 UNL     1      -2.051   5.908  11.931  1.00  0.00     0.011 C 
HETATM   19  C27 UNL     1      -2.199   6.533  13.325  1.00  0.00    -0.032 C 
HETATM   20  C28 UNL     1      -1.519   5.578  14.340  1.00  0.00     0.016 C 
ENDROOT
BRANCH   1  21
HETATM   21  C7  UNL     1      -4.649   5.770  14.324  1.00  0.00    -0.014 C 
HETATM   22  C8  UNL     1      -5.167   4.738  13.310  1.00  0.00     0.010 C 
BRANCH  21  23
HETATM   23  C6  UNL     1      -5.855   6.337  15.107  1.00  0.00     0.008 C 
BRANCH  23  24
HETATM   24  C5  UNL     1      -6.598   7.464  14.379  1.00  0.00     0.028 C 
BRANCH  24  25
HETATM   25  C4  UNL     1      -8.060   7.457  14.739  1.00  0.00    -0.025 C 
HETATM   26  C2  UNL     1      -9.061   6.762  14.167  1.00  0.00    -0.091 C 
HETATM   27  C1  UNL     1     -10.470   6.887  14.686  1.00  0.00     0.042 C 
HETATM   28  C3  UNL     1      -8.921   5.822  13.000  1.00  0.00     0.042 C 
ENDBRANCH  24  25
ENDBRANCH  23  24
ENDBRANCH  21  23
ENDBRANCH   1  21
BRANCH   8  29
HETATM   29  O1  UNL     1       2.822  10.300  12.969  1.00  0.00    -0.395 OA
HETATM   30  H28 UNL     1       3.732  10.189  12.618  1.00  0.00     0.210 HD
ENDBRANCH   8  29
BRANCH  10  31
HETATM   31  O2  UNL     1       4.908   9.047  11.739  1.00  0.00    -0.393 OA
HETATM   32  H31 UNL     1       5.846   8.779  11.741  1.00  0.00     0.210 HD
ENDBRANCH  10  31
BRANCH  11  33
HETATM   33  O3  UNL     1       4.840   5.680  10.814  1.00  0.00    -0.393 OA
HETATM   34  H33 UNL     1       5.616   5.724  11.400  1.00  0.00     0.210 HD
ENDBRANCH  11  33
TORSDOF 7
ENDMDL
MODEL 6
REMARK minimizedAffinity -8.14965153
REMARK CNNscore 0.485398233
REMARK CNNaffinity 6.75409079
REMARK  7 active torsions:
REMARK  status: ('A' for Active; 'I' for Inactive)
REMARK    1  A    between atoms: C4_4  and  C5_5 
REMARK    2  A    between atoms: C5_5  and  C6_6 
REMARK    3  A    between atoms: C6_6  and  C7_7 
REMARK    4  A    between atoms: C7_7  and  C9_9 
REMARK    5  A    between atoms: C16_16  and  O1_17 
REMARK    6  A    between atoms: C18_19  and  O2_20 
REMARK    7  A    between atoms: C19_21  and  O3_22 
ROOT
HETATM    1  C9  UNL     1      -6.191   6.713  14.791  1.00  0.00    -0.002 C 
HETATM    2  C10 UNL     1      -6.343   8.080  15.521  1.00  0.00     0.006 C 
HETATM    3  C11 UNL     1      -4.986   8.795  15.432  1.00  0.00     0.011 C 
HETATM    4  C12 UNL     1      -4.238   8.082  14.292  1.00  0.00    -0.032 C 
HETATM    5  C13 UNL     1      -4.776   8.678  12.954  1.00  0.00     0.016 C 
HETATM    6  C14 UNL     1      -2.692   8.221  14.358  1.00  0.00     0.006 C 
HETATM    7  C15 UNL     1      -2.173   9.622  14.008  1.00  0.00     0.038 C 
HETATM    8  C16 UNL     1      -0.656   9.692  14.170  1.00  0.00     0.126 C 
HETATM    9  C17 UNL     1       0.028   8.809  13.115  1.00  0.00     0.055 C 
HETATM   10  C18 UNL     1       1.551   8.691  13.351  1.00  0.00     0.154 C 
HETATM   11  C19 UNL     1       2.225   7.735  12.332  1.00  0.00     0.147 C 
HETATM   12  C20 UNL     1       1.278   7.282  11.218  1.00  0.00     0.035 C 
HETATM   13  C21 UNL     1      -0.032   6.684  11.746  1.00  0.00     0.013 C 
HETATM   14  C22 UNL     1      -0.557   7.411  12.982  1.00  0.00    -0.023 A 
HETATM   15  C23 UNL     1      -0.726   6.554  14.213  1.00  0.00     0.021 A 
HETATM   16  C24 UNL     1      -1.969   7.116  13.546  1.00  0.00    -0.027 A 
HETATM   17  C25 UNL     1      -2.840   6.137  12.752  1.00  0.00     0.011 C 
HETATM   18  C26 UNL     1      -4.219   5.764  13.330  1.00  0.00     0.011 C 
HETATM   19  C27 UNL     1      -4.648   6.583  14.554  1.00  0.00    -0.032 C 
HETATM   20  C28 UNL     1      -3.971   5.952  15.800  1.00  0.00     0.016 C 
ENDROOT
BRANCH   1  21
HETATM   21  C7  UNL     1      -7.062   5.582  15.422  1.00  0.00    -0.014 C 
HETATM   22  C8  UNL     1      -7.322   4.342  14.553  1.00  0.00     0.010 C 
BRANCH  21  23
HETATM   23  C6  UNL     1      -8.409   6.064  16.007  1.00  0.00     0.008 C 
BRANCH  23  24
HETATM   24  C5  UNL     1      -9.021   7.258  15.263  1.00  0.00     0.028 C 
BRANCH  24  25
HETATM   25  C4  UNL     1     -10.502   7.064  15.074  1.00  0.00    -0.025 C 
HETATM   26  C2  UNL     1     -11.188   6.914  13.924  1.00  0.00    -0.091 C 
HETATM   27  C1  UNL     1     -12.682   6.721  13.948  1.00  0.00     0.042 C 
HETATM   28  C3  UNL     1     -10.594   6.919  12.542  1.00  0.00     0.042 C 
ENDBRANCH  24  25
ENDBRANCH  23  24
ENDBRANCH  21  23
ENDBRANCH   1  21
BRANCH   8  29
HETATM   29  O1  UNL     1      -0.267  11.059  14.005  1.00  0.00    -0.395 OA
HETATM   30  H28 UNL     1       0.688  11.052  13.779  1.00  0.00     0.210 HD
ENDBRANCH   8  29
BRANCH  10  31
HETATM   31  O2  UNL     1       2.134  10.002  13.263  1.00  0.00    -0.393 OA
HETATM   32  H31 UNL     1       3.093   9.908  13.414  1.00  0.00     0.210 HD
ENDBRANCH  10  31
BRANCH  11  33
HETATM   33  O3  UNL     1       2.712   6.568  13.000  1.00  0.00    -0.393 OA
HETATM   34  H33 UNL     1       3.386   6.847  13.644  1.00  0.00     0.210 HD
ENDBRANCH  11  33
TORSDOF 7
ENDMDL
MODEL 7
REMARK minimizedAffinity -6.76828718
REMARK CNNscore 0.475643784
REMARK CNNaffinity 5.7514081
REMARK  7 active torsions:
REMARK  status: ('A' for Active; 'I' for Inactive)
REMARK    1  A    between atoms: C4_4  and  C5_5 
REMARK    2  A    between atoms: C5_5  and  C6_6 
REMARK    3  A    between atoms: C6_6  and  C7_7 
REMARK    4  A    between atoms: C7_7  and  C9_9 
REMARK    5  A    between atoms: C16_16  and  O1_17 
REMARK    6  A    between atoms: C18_19  and  O2_20 
REMARK    7  A    between atoms: C19_21  and  O3_22 
ROOT
HETATM    1  C9  UNL     1      -7.285 -10.917   3.288  1.00  0.00    -0.002 C 
HETATM    2  C10 UNL     1      -5.771 -10.699   3.000  1.00  0.00     0.006 C 
HETATM    3  C11 UNL     1      -5.104 -10.323   4.332  1.00  0.00     0.011 C 
HETATM    4  C12 UNL     1      -6.102 -10.773   5.414  1.00  0.00    -0.032 C 
HETATM    5  C13 UNL     1      -5.898 -12.308   5.607  1.00  0.00     0.016 C 
HETATM    6  C14 UNL     1      -5.947 -10.037   6.772  1.00  0.00     0.006 C 
HETATM    7  C15 UNL     1      -4.695 -10.438   7.565  1.00  0.00     0.038 C 
HETATM    8  C16 UNL     1      -4.580  -9.615   8.846  1.00  0.00     0.126 C 
HETATM    9  C17 UNL     1      -5.718  -9.982   9.812  1.00  0.00     0.055 C 
HETATM   10  C18 UNL     1      -5.763  -9.048  11.042  1.00  0.00     0.154 C 
HETATM   11  C19 UNL     1      -6.961  -9.371  11.973  1.00  0.00     0.147 C 
HETATM   12  C20 UNL     1      -7.705 -10.648  11.573  1.00  0.00     0.035 C 
HETATM   13  C21 UNL     1      -8.138 -10.656  10.101  1.00  0.00     0.013 C 
HETATM   14  C22 UNL     1      -7.100 -10.024   9.176  1.00  0.00    -0.023 A 
HETATM   15  C23 UNL     1      -7.585  -8.844   8.371  1.00  0.00     0.021 A 
HETATM   16  C24 UNL     1      -7.231 -10.124   7.636  1.00  0.00    -0.027 A 
HETATM   17  C25 UNL     1      -8.393 -10.964   7.095  1.00  0.00     0.011 C 
HETATM   18  C26 UNL     1      -8.595 -11.017   5.568  1.00  0.00     0.011 C 
HETATM   19  C27 UNL     1      -7.472 -10.373   4.746  1.00  0.00    -0.032 C 
HETATM   20  C28 UNL     1      -7.735  -8.844   4.712  1.00  0.00     0.016 C 
ENDROOT
BRANCH   1  21
HETATM   21  C7  UNL     1      -8.200 -10.505   2.093  1.00  0.00    -0.014 C 
HETATM   22  C8  UNL     1      -8.805 -11.644   1.259  1.00  0.00     0.010 C 
BRANCH  21  23
HETATM   23  C6  UNL     1      -7.570  -9.472   1.132  1.00  0.00     0.008 C 
BRANCH  23  24
HETATM   24  C5  UNL     1      -7.787  -9.787  -0.353  1.00  0.00     0.028 C 
BRANCH  24  25
HETATM   25  C4  UNL     1      -8.207  -8.551  -1.103  1.00  0.00    -0.025 C 
HETATM   26  C2  UNL     1      -7.910  -8.198  -2.369  1.00  0.00    -0.091 C 
HETATM   27  C1  UNL     1      -8.441  -6.911  -2.946  1.00  0.00     0.042 C 
HETATM   28  C3  UNL     1      -7.061  -8.992  -3.325  1.00  0.00     0.042 C 
ENDBRANCH  24  25
ENDBRANCH  23  24
ENDBRANCH  21  23
ENDBRANCH   1  21
BRANCH   8  29
HETATM   29  O1  UNL     1      -3.311  -9.911   9.436  1.00  0.00    -0.395 OA
HETATM   30  H28 UNL     1      -3.378  -9.660  10.383  1.00  0.00     0.210 HD
ENDBRANCH   8  29
BRANCH  10  31
HETATM   31  O2  UNL     1      -4.526  -9.175  11.763  1.00  0.00    -0.393 OA
HETATM   32  H31 UNL     1      -4.573  -8.579  12.534  1.00  0.00     0.210 HD
ENDBRANCH  10  31
BRANCH  11  33
HETATM   33  O3  UNL     1      -7.899  -8.290  11.961  1.00  0.00    -0.393 OA
HETATM   34  H33 UNL     1      -7.451  -7.499  12.307  1.00  0.00     0.210 HD
ENDBRANCH  11  33
TORSDOF 7
ENDMDL
MODEL 8
REMARK minimizedAffinity -8.56705952
REMARK CNNscore 0.474334478
REMARK CNNaffinity 6.7780757
REMARK  7 active torsions:
REMARK  status: ('A' for Active; 'I' for Inactive)
REMARK    1  A    between atoms: C4_4  and  C5_5 
REMARK    2  A    between atoms: C5_5  and  C6_6 
REMARK    3  A    between atoms: C6_6  and  C7_7 
REMARK    4  A    between atoms: C7_7  and  C9_9 
REMARK    5  A    between atoms: C16_16  and  O1_17 
REMARK    6  A    between atoms: C18_19  and  O2_20 
REMARK    7  A    between atoms: C19_21  and  O3_22 
ROOT
HETATM    1  C9  UNL     1      -5.656   6.164  14.553  1.00  0.00    -0.002 C 
HETATM    2  C10 UNL     1      -5.825   5.185  13.354  1.00  0.00     0.006 C 
HETATM    3  C11 UNL     1      -4.522   5.232  12.542  1.00  0.00     0.011 C 
HETATM    4  C12 UNL     1      -3.483   5.844  13.497  1.00  0.00    -0.032 C 
HETATM    5  C13 UNL     1      -2.998   4.695  14.435  1.00  0.00     0.016 C 
HETATM    6  C14 UNL     1      -2.270   6.502  12.785  1.00  0.00     0.006 C 
HETATM    7  C15 UNL     1      -1.297   5.501  12.146  1.00  0.00     0.038 C 
HETATM    8  C16 UNL     1      -0.180   6.231  11.405  1.00  0.00     0.126 C 
HETATM    9  C17 UNL     1       0.717   6.976  12.406  1.00  0.00     0.055 C 
HETATM   10  C18 UNL     1       1.749   7.885  11.701  1.00  0.00     0.154 C 
HETATM   11  C19 UNL     1       2.599   8.696  12.715  1.00  0.00     0.147 C 
HETATM   12  C20 UNL     1       2.361   8.275  14.168  1.00  0.00     0.035 C 
HETATM   13  C21 UNL     1       0.880   8.285  14.564  1.00  0.00     0.013 C 
HETATM   14  C22 UNL     1      -0.035   7.799  13.441  1.00  0.00    -0.023 A 
HETATM   15  C23 UNL     1      -1.083   8.786  12.989  1.00  0.00     0.021 A 
HETATM   16  C24 UNL     1      -1.538   7.521  13.695  1.00  0.00    -0.027 A 
HETATM   17  C25 UNL     1      -2.033   7.665  15.138  1.00  0.00     0.011 C 
HETATM   18  C26 UNL     1      -3.537   7.471  15.408  1.00  0.00     0.011 C 
HETATM   19  C27 UNL     1      -4.346   6.953  14.211  1.00  0.00    -0.032 C 
HETATM   20  C28 UNL     1      -4.679   8.170  13.309  1.00  0.00     0.016 C 
ENDROOT
BRANCH   1  21
HETATM   21  C7  UNL     1      -6.991   6.856  14.971  1.00  0.00    -0.014 C 
HETATM   22  C8  UNL     1      -7.323   6.870  16.471  1.00  0.00     0.010 C 
BRANCH  21  23
HETATM   23  C6  UNL     1      -8.235   6.364  14.197  1.00  0.00     0.008 C 
BRANCH  23  24
HETATM   24  C5  UNL     1      -9.567   6.705  14.875  1.00  0.00     0.028 C 
BRANCH  24  25
HETATM   25  C4  UNL     1     -10.439   7.520  13.958  1.00  0.00    -0.025 C 
HETATM   26  C2  UNL     1     -11.760   7.398  13.729  1.00  0.00    -0.091 C 
HETATM   27  C1  UNL     1     -12.457   8.330  12.771  1.00  0.00     0.042 C 
HETATM   28  C3  UNL     1     -12.669   6.378  14.360  1.00  0.00     0.042 C 
ENDBRANCH  24  25
ENDBRANCH  23  24
ENDBRANCH  21  23
ENDBRANCH   1  21
BRANCH   8  29
HETATM   29  O1  UNL     1       0.578   5.249  10.692  1.00  0.00    -0.395 OA
HETATM   30  H28 UNL     1       1.452   5.653  10.504  1.00  0.00     0.210 HD
ENDBRANCH   8  29
BRANCH  10  31
HETATM   31  O2  UNL     1       2.601   7.067  10.882  1.00  0.00    -0.393 OA
HETATM   32  H31 UNL     1       3.244   7.656  10.446  1.00  0.00     0.210 HD
ENDBRANCH  10  31
BRANCH  11  33
HETATM   33  O3  UNL     1       2.299  10.090  12.603  1.00  0.00    -0.393 OA
HETATM   34  H33 UNL     1       2.540  10.380  11.707  1.00  0.00     0.210 HD
ENDBRANCH  11  33
TORSDOF 7
ENDMDL
MODEL 9
REMARK minimizedAffinity -8.64512157
REMARK CNNscore 0.380161881
REMARK CNNaffinity 6.5454216
REMARK  7 active torsions:
REMARK  status: ('A' for Active; 'I' for Inactive)
REMARK    1  A    between atoms: C4_4  and  C5_5 
REMARK    2  A    between atoms: C5_5  and  C6_6 
REMARK    3  A    between atoms: C6_6  and  C7_7 
REMARK    4  A    between atoms: C7_7  and  C9_9 
REMARK    5  A    between atoms: C16_16  and  O1_17 
REMARK    6  A    between atoms: C18_19  and  O2_20 
REMARK    7  A    between atoms: C19_21  and  O3_22 
ROOT
HETATM    1  C9  UNL     1      -6.107   7.018  14.067  1.00  0.00    -0.002 C 
HETATM    2  C10 UNL     1      -6.429   8.460  14.556  1.00  0.00     0.006 C 
HETATM    3  C11 UNL     1      -5.088   9.158  14.830  1.00  0.00     0.011 C 
HETATM    4  C12 UNL     1      -4.044   8.315  14.077  1.00  0.00    -0.032 C 
HETATM    5  C13 UNL     1      -4.103   8.753  12.580  1.00  0.00     0.016 C 
HETATM    6  C14 UNL     1      -2.596   8.457  14.620  1.00  0.00     0.006 C 
HETATM    7  C15 UNL     1      -1.937   9.808  14.305  1.00  0.00     0.038 C 
HETATM    8  C16 UNL     1      -0.550   9.892  14.937  1.00  0.00     0.126 C 
HETATM    9  C17 UNL     1       0.400   8.891  14.261  1.00  0.00     0.055 C 
HETATM   10  C18 UNL     1       1.762   8.798  14.985  1.00  0.00     0.154 C 
HETATM   11  C19 UNL     1       2.687   7.728  14.347  1.00  0.00     0.147 C 
HETATM   12  C20 UNL     1       2.128   7.152  13.044  1.00  0.00     0.035 C 
HETATM   13  C21 UNL     1       0.696   6.621  13.185  1.00  0.00     0.013 C 
HETATM   14  C22 UNL     1      -0.167   7.488  14.100  1.00  0.00    -0.023 A 
HETATM   15  C23 UNL     1      -0.754   6.781  15.297  1.00  0.00     0.021 A 
HETATM   16  C24 UNL     1      -1.696   7.264  14.209  1.00  0.00    -0.027 A 
HETATM   17  C25 UNL     1      -2.306   6.201  13.289  1.00  0.00     0.011 C 
HETATM   18  C26 UNL     1      -3.811   5.901  13.431  1.00  0.00     0.011 C 
HETATM   19  C27 UNL     1      -4.575   6.857  14.355  1.00  0.00    -0.032 C 
HETATM   20  C28 UNL     1      -4.356   6.374  15.813  1.00  0.00     0.016 C 
ENDROOT
BRANCH   1  21
HETATM   21  C7  UNL     1      -7.178   5.970  14.504  1.00  0.00    -0.014 C 
HETATM   22  C8  UNL     1      -6.940   5.254  15.843  1.00  0.00     0.010 C 
BRANCH  21  23
HETATM   23  C6  UNL     1      -7.508   4.908  13.431  1.00  0.00     0.008 C 
BRANCH  23  24
HETATM   24  C5  UNL     1      -7.412   3.462  13.932  1.00  0.00     0.028 C 
BRANCH  24  25
HETATM   25  C4  UNL     1      -7.265   2.507  12.778  1.00  0.00    -0.025 C 
HETATM   26  C2  UNL     1      -6.195   2.312  11.982  1.00  0.00    -0.091 C 
HETATM   27  C1  UNL     1      -6.245   1.290  10.876  1.00  0.00     0.042 C 
HETATM   28  C3  UNL     1      -4.883   3.042  12.083  1.00  0.00     0.042 C 
ENDBRANCH  24  25
ENDBRANCH  23  24
ENDBRANCH  21  23
ENDBRANCH   1  21
BRANCH   8  29
HETATM   29  O1  UNL     1      -0.075  11.230  14.757  1.00  0.00    -0.395 OA
HETATM   30  H28 UNL     1       0.901  11.194  14.853  1.00  0.00     0.210 HD
ENDBRANCH   8  29
BRANCH  10  31
HETATM   31  O2  UNL     1       2.394  10.088  14.946  1.00  0.00    -0.393 OA
HETATM   32  H31 UNL     1       3.250  10.010  15.406  1.00  0.00     0.210 HD
ENDBRANCH  10  31
BRANCH  11  33
HETATM   33  O3  UNL     1       2.890   6.646  15.259  1.00  0.00    -0.393 OA
HETATM   34  H33 UNL     1       3.333   6.997  16.051  1.00  0.00     0.210 HD
ENDBRANCH  11  33
TORSDOF 7
ENDMDL
