MODEL 1
REMARK minimizedAffinity -8.88410664
REMARK CNNscore 0.728532374
REMARK CNNaffinity 7.39824247
REMARK  13 active torsions:
REMARK  status: ('A' for Active; 'I' for Inactive)
REMARK    1  A    between atoms: C2_2  and  O2_4 
REMARK    2  A    between atoms: O2_4  and  C3_5 
REMARK    3  A    between atoms: C3_5  and  C6_8 
REMARK    4  A    between atoms: C7_9  and  C8_10 
REMARK    5  A    between atoms: C8_10  and  C9_11 
REMARK    6  A    between atoms: C9_11  and  C11_13 
REMARK    7  A    between atoms: C20_22  and  O3_23 
REMARK    8  A    between atoms: O3_23  and  C21_24 
REMARK    9  A    between atoms: C23_27  and  O5_28 
REMARK   10  A    between atoms: C24_29  and  O6_30 
REMARK   11  A    between atoms: C25_31  and  O7_32 
REMARK   12  A    between atoms: C28_35  and  C29_36 
REMARK   13  A    between atoms: C29_36  and  O8_37 
ROOT
HETATM    1  C11 UNL     1      -7.449   7.398  15.208  1.00  0.00    -0.002 C 
HETATM    2  C12 UNL     1      -7.221   6.649  16.528  1.00  0.00     0.006 C 
HETATM    3  C13 UNL     1      -5.827   6.073  16.368  1.00  0.00     0.006 C 
HETATM    4  C14 UNL     1      -5.719   5.666  14.885  1.00  0.00    -0.001 C 
HETATM    5  C15 UNL     1      -4.325   5.932  14.262  1.00  0.00    -0.001 C 
HETATM    6  C16 UNL     1      -3.189   5.318  15.090  1.00  0.00     0.033 C 
HETATM    7  C17 UNL     1      -1.897   5.525  14.373  1.00  0.00    -0.023 C 
HETATM    8  C18 UNL     1      -1.634   6.657  13.697  1.00  0.00    -0.070 C 
HETATM    9  C19 UNL     1      -0.402   6.735  12.818  1.00  0.00     0.066 C 
HETATM   10  C20 UNL     1       0.157   8.151  12.625  1.00  0.00     0.128 C 
HETATM   11  C26 UNL     1      -0.938   9.140  12.188  1.00  0.00     0.033 C 
HETATM   12  C27 UNL     1      -2.376   8.661  12.429  1.00  0.00     0.019 C 
HETATM   13  C28 UNL     1      -2.583   7.865  13.743  1.00  0.00     0.008 C 
HETATM   14  C30 UNL     1      -4.107   7.443  13.992  1.00  0.00     0.005 C 
HETATM   15  C31 UNL     1      -5.153   7.949  12.973  1.00  0.00     0.007 C 
HETATM   16  C32 UNL     1      -6.396   7.062  12.842  1.00  0.00     0.010 C 
HETATM   17  C33 UNL     1      -6.901   6.396  14.140  1.00  0.00    -0.036 C 
HETATM   18  C34 UNL     1      -7.941   5.333  13.727  1.00  0.00     0.016 C 
ENDROOT
BRANCH  10  19
HETATM   19  O3  UNL     1       1.181   8.222  11.622  1.00  0.00    -0.353 OA
BRANCH  19  20
HETATM   20  C21 UNL     1       1.247   7.109  10.732  1.00  0.00     0.291 C 
HETATM   21  O4  UNL     1       0.633   7.369   9.472  1.00  0.00    -0.356 OA
HETATM   22  C22 UNL     1       1.303   8.392   8.732  1.00  0.00     0.205 C 
HETATM   23  C23 UNL     1       2.736   7.985   8.388  1.00  0.00     0.173 C 
HETATM   24  C24 UNL     1       3.513   7.646   9.660  1.00  0.00     0.182 C 
HETATM   25  C25 UNL     1       2.725   6.674  10.548  1.00  0.00     0.204 C 
BRANCH  23  26
HETATM   26  O5  UNL     1       3.398   9.039   7.688  1.00  0.00    -0.391 OA
HETATM   27  H35 UNL     1       3.733   9.637   8.390  1.00  0.00     0.210 HD
ENDBRANCH  23  26
BRANCH  24  28
HETATM   28  O6  UNL     1       3.809   8.870  10.359  1.00  0.00    -0.390 OA
HETATM   29  H37 UNL     1       4.012   8.592  11.276  1.00  0.00     0.210 HD
ENDBRANCH  24  28
BRANCH  25  30
HETATM   30  O7  UNL     1       3.428   6.540  11.794  1.00  0.00    -0.388 OA
HETATM   31  H39 UNL     1       2.767   6.371  12.492  1.00  0.00     0.210 HD
ENDBRANCH  25  30
ENDBRANCH  19  20
ENDBRANCH  10  19
BRANCH  13  32
HETATM   32  C29 UNL     1      -2.160   8.755  14.962  1.00  0.00     0.178 C 
BRANCH  32  33
HETATM   33  O8  UNL     1      -3.299   9.186  15.702  1.00  0.00    -0.400 OA
HETATM   34  H46 UNL     1      -2.968   9.655  16.487  1.00  0.00     0.209 HD
ENDBRANCH  32  33
ENDBRANCH  13  32
BRANCH   1  35
HETATM   35  C9  UNL     1      -8.869   8.042  15.121  1.00  0.00    -0.011 C 
HETATM   36  C10 UNL     1      -9.596   8.261  16.457  1.00  0.00     0.010 C 
BRANCH  35  37
HETATM   37  C8  UNL     1      -9.777   7.331  14.095  1.00  0.00     0.031 C 
BRANCH  37  38
HETATM   38  C7  UNL     1     -11.226   7.726  14.211  1.00  0.00    -0.027 C 
HETATM   39  C6  UNL     1     -12.251   6.873  14.034  1.00  0.00     0.007 C 
BRANCH  39  40
HETATM   40  C3  UNL     1     -13.731   7.198  14.094  1.00  0.00     0.081 C 
HETATM   41  C4  UNL     1     -14.198   8.094  15.254  1.00  0.00     0.051 C 
HETATM   42  C5  UNL     1     -14.493   5.865  14.199  1.00  0.00     0.051 C 
BRANCH  40  43
HETATM   43  O2  UNL     1     -14.147   7.757  12.819  1.00  0.00    -0.307 OA
BRANCH  43  44
HETATM   44  C2  UNL     1     -15.354   7.425  12.292  1.00  0.00     0.255 C 
HETATM   45  C1  UNL     1     -16.137   6.626  13.290  1.00  0.00     0.126 C 
HETATM   46  O1  UNL     1     -15.783   7.736  11.191  1.00  0.00    -0.266 OA
ENDBRANCH  43  44
ENDBRANCH  40  43
ENDBRANCH  39  40
ENDBRANCH  37  38
ENDBRANCH  35  37
ENDBRANCH   1  35
TORSDOF 13
ENDMDL
MODEL 2
REMARK minimizedAffinity -7.88661385
REMARK CNNscore 0.662938595
REMARK CNNaffinity 7.04871416
REMARK  13 active torsions:
REMARK  status: ('A' for Active; 'I' for Inactive)
REMARK    1  A    between atoms: C2_2  and  O2_4 
REMARK    2  A    between atoms: O2_4  and  C3_5 
REMARK    3  A    between atoms: C3_5  and  C6_8 
REMARK    4  A    between atoms: C7_9  and  C8_10 
REMARK    5  A    between atoms: C8_10  and  C9_11 
REMARK    6  A    between atoms: C9_11  and  C11_13 
REMARK    7  A    between atoms: C20_22  and  O3_23 
REMARK    8  A    between atoms: O3_23  and  C21_24 
REMARK    9  A    between atoms: C23_27  and  O5_28 
REMARK   10  A    between atoms: C24_29  and  O6_30 
REMARK   11  A    between atoms: C25_31  and  O7_32 
REMARK   12  A    between atoms: C28_35  and  C29_36 
REMARK   13  A    between atoms: C29_36  and  O8_37 
ROOT
HETATM    1  C11 UNL     1      -7.629   6.802  15.116  1.00  0.00    -0.002 C 
HETATM    2  C12 UNL     1      -7.572   5.441  15.823  1.00  0.00     0.006 C 
HETATM    3  C13 UNL     1      -6.328   4.796  15.244  1.00  0.00     0.006 C 
HETATM    4  C14 UNL     1      -6.296   5.225  13.763  1.00  0.00    -0.001 C 
HETATM    5  C15 UNL     1      -4.872   5.524  13.228  1.00  0.00    -0.001 C 
HETATM    6  C16 UNL     1      -3.896   4.371  13.493  1.00  0.00     0.033 C 
HETATM    7  C17 UNL     1      -2.583   4.689  12.858  1.00  0.00    -0.023 C 
HETATM    8  C18 UNL     1      -2.085   5.938  12.844  1.00  0.00    -0.070 C 
HETATM    9  C19 UNL     1      -0.857   6.246  12.011  1.00  0.00     0.066 C 
HETATM   10  C20 UNL     1      -0.015   7.420  12.524  1.00  0.00     0.128 C 
HETATM   11  C26 UNL     1      -0.876   8.669  12.781  1.00  0.00     0.033 C 
HETATM   12  C27 UNL     1      -2.384   8.404  12.886  1.00  0.00     0.019 C 
HETATM   13  C28 UNL     1      -2.762   7.086  13.609  1.00  0.00     0.008 C 
HETATM   14  C30 UNL     1      -4.343   6.879  13.760  1.00  0.00     0.005 C 
HETATM   15  C31 UNL     1      -5.253   8.027  13.267  1.00  0.00     0.007 C 
HETATM   16  C32 UNL     1      -6.652   7.586  12.824  1.00  0.00     0.010 C 
HETATM   17  C33 UNL     1      -7.294   6.437  13.632  1.00  0.00    -0.036 C 
HETATM   18  C34 UNL     1      -8.530   5.963  12.839  1.00  0.00     0.016 C 
ENDROOT
BRANCH  10  19
HETATM   19  O3  UNL     1       1.010   7.825  11.605  1.00  0.00    -0.353 OA
BRANCH  19  20
HETATM   20  C21 UNL     1       1.868   6.783  11.145  1.00  0.00     0.291 C 
HETATM   21  O4  UNL     1       2.070   6.812   9.733  1.00  0.00    -0.356 OA
HETATM   22  C22 UNL     1       2.757   7.988   9.298  1.00  0.00     0.205 C 
HETATM   23  C23 UNL     1       4.163   8.064   9.893  1.00  0.00     0.173 C 
HETATM   24  C24 UNL     1       4.100   8.013  11.420  1.00  0.00     0.182 C 
HETATM   25  C25 UNL     1       3.223   6.850  11.898  1.00  0.00     0.204 C 
BRANCH  23  26
HETATM   26  O5  UNL     1       4.814   9.267   9.479  1.00  0.00    -0.391 OA
HETATM   27  H35 UNL     1       4.505   9.951  10.112  1.00  0.00     0.210 HD
ENDBRANCH  23  26
BRANCH  24  28
HETATM   28  O6  UNL     1       3.604   9.276  11.902  1.00  0.00    -0.390 OA
HETATM   29  H37 UNL     1       3.292   9.092  12.812  1.00  0.00     0.210 HD
ENDBRANCH  24  28
BRANCH  25  30
HETATM   30  O7  UNL     1       3.064   6.968  13.322  1.00  0.00    -0.388 OA
HETATM   31  H39 UNL     1       2.191   6.602  13.556  1.00  0.00     0.210 HD
ENDBRANCH  25  30
ENDBRANCH  19  20
ENDBRANCH  10  19
BRANCH  13  32
HETATM   32  C29 UNL     1      -2.172   7.102  15.062  1.00  0.00     0.178 C 
BRANCH  32  33
HETATM   33  O8  UNL     1      -2.808   8.094  15.863  1.00  0.00    -0.400 OA
HETATM   34  H46 UNL     1      -2.464   7.994  16.767  1.00  0.00     0.209 HD
ENDBRANCH  32  33
ENDBRANCH  13  32
BRANCH   1  35
HETATM   35  C9  UNL     1      -8.884   7.638  15.524  1.00  0.00    -0.011 C 
HETATM   36  C10 UNL     1     -10.229   7.164  14.953  1.00  0.00     0.010 C 
BRANCH  35  37
HETATM   37  C8  UNL     1      -8.680   9.153  15.303  1.00  0.00     0.031 C 
BRANCH  37  38
HETATM   38  C7  UNL     1      -9.932   9.959  15.531  1.00  0.00    -0.027 C 
HETATM   39  C6  UNL     1     -10.518  10.109  16.732  1.00  0.00     0.007 C 
BRANCH  39  40
HETATM   40  C3  UNL     1     -11.795  10.869  17.037  1.00  0.00     0.081 C 
HETATM   41  C4  UNL     1     -12.909  10.806  15.979  1.00  0.00     0.051 C 
HETATM   42  C5  UNL     1     -11.418  12.349  17.230  1.00  0.00     0.051 C 
BRANCH  40  43
HETATM   43  O2  UNL     1     -12.298  10.449  18.333  1.00  0.00    -0.307 OA
BRANCH  43  44
HETATM   44  C2  UNL     1     -11.434  10.035  19.297  1.00  0.00     0.255 C 
HETATM   45  C1  UNL     1     -11.049  11.197  20.161  1.00  0.00     0.126 C 
HETATM   46  O1  UNL     1     -11.033   8.895  19.480  1.00  0.00    -0.266 OA
ENDBRANCH  43  44
ENDBRANCH  40  43
ENDBRANCH  39  40
ENDBRANCH  37  38
ENDBRANCH  35  37
ENDBRANCH   1  35
TORSDOF 13
ENDMDL
MODEL 3
REMARK minimizedAffinity -8.17733192
REMARK CNNscore 0.554350793
REMARK CNNaffinity 7.22042894
REMARK  13 active torsions:
REMARK  status: ('A' for Active; 'I' for Inactive)
REMARK    1  A    between atoms: C2_2  and  O2_4 
REMARK    2  A    between atoms: O2_4  and  C3_5 
REMARK    3  A    between atoms: C3_5  and  C6_8 
REMARK    4  A    between atoms: C7_9  and  C8_10 
REMARK    5  A    between atoms: C8_10  and  C9_11 
REMARK    6  A    between atoms: C9_11  and  C11_13 
REMARK    7  A    between atoms: C20_22  and  O3_23 
REMARK    8  A    between atoms: O3_23  and  C21_24 
REMARK    9  A    between atoms: C23_27  and  O5_28 
REMARK   10  A    between atoms: C24_29  and  O6_30 
REMARK   11  A    between atoms: C25_31  and  O7_32 
REMARK   12  A    between atoms: C28_35  and  C29_36 
REMARK   13  A    between atoms: C29_36  and  O8_37 
ROOT
HETATM    1  C11 UNL     1     -12.786   8.280  15.297  1.00  0.00    -0.002 C 
HETATM    2  C12 UNL     1     -13.438   6.965  14.849  1.00  0.00     0.006 C 
HETATM    3  C13 UNL     1     -12.322   6.254  14.109  1.00  0.00     0.006 C 
HETATM    4  C14 UNL     1     -11.551   7.363  13.366  1.00  0.00    -0.001 C 
HETATM    5  C15 UNL     1     -10.016   7.147  13.337  1.00  0.00    -0.001 C 
HETATM    6  C16 UNL     1      -9.633   5.757  12.812  1.00  0.00     0.033 C 
HETATM    7  C17 UNL     1      -8.146   5.666  12.714  1.00  0.00    -0.023 C 
HETATM    8  C18 UNL     1      -7.339   6.233  13.629  1.00  0.00    -0.070 C 
HETATM    9  C19 UNL     1      -5.846   6.291  13.375  1.00  0.00     0.066 C 
HETATM   10  C20 UNL     1      -4.984   6.335  14.644  1.00  0.00     0.128 C 
HETATM   11  C26 UNL     1      -5.457   7.429  15.616  1.00  0.00     0.033 C 
HETATM   12  C27 UNL     1      -6.875   7.956  15.357  1.00  0.00     0.019 C 
HETATM   13  C28 UNL     1      -7.895   6.879  14.907  1.00  0.00     0.008 C 
HETATM   14  C30 UNL     1      -9.377   7.454  14.715  1.00  0.00     0.005 C 
HETATM   15  C31 UNL     1      -9.609   8.937  15.081  1.00  0.00     0.007 C 
HETATM   16  C32 UNL     1     -10.759   9.608  14.323  1.00  0.00     0.010 C 
HETATM   17  C33 UNL     1     -11.990   8.725  14.025  1.00  0.00    -0.036 C 
HETATM   18  C34 UNL     1     -12.863   9.493  13.012  1.00  0.00     0.016 C 
ENDROOT
BRANCH  10  19
HETATM   19  O3  UNL     1      -3.601   6.608  14.377  1.00  0.00    -0.353 OA
BRANCH  19  20
HETATM   20  C21 UNL     1      -2.712   5.507  14.559  1.00  0.00     0.291 C 
HETATM   21  O4  UNL     1      -2.738   4.587  13.470  1.00  0.00    -0.356 OA
HETATM   22  C22 UNL     1      -2.265   5.163  12.249  1.00  0.00     0.205 C 
HETATM   23  C23 UNL     1      -0.802   5.589  12.363  1.00  0.00     0.173 C 
HETATM   24  C24 UNL     1      -0.619   6.566  13.524  1.00  0.00     0.182 C 
HETATM   25  C25 UNL     1      -1.272   6.032  14.805  1.00  0.00     0.204 C 
BRANCH  23  26
HETATM   26  O5  UNL     1      -0.365   6.200  11.148  1.00  0.00    -0.391 OA
HETATM   27  H35 UNL     1      -0.647   7.137  11.222  1.00  0.00     0.210 HD
ENDBRANCH  23  26
BRANCH  24  28
HETATM   28  O6  UNL     1      -1.175   7.840  13.145  1.00  0.00    -0.390 OA
HETATM   29  H37 UNL     1      -1.317   8.313  13.991  1.00  0.00     0.210 HD
ENDBRANCH  24  28
BRANCH  25  30
HETATM   30  O7  UNL     1      -1.219   7.070  15.798  1.00  0.00    -0.388 OA
HETATM   31  H39 UNL     1      -1.998   6.969  16.377  1.00  0.00     0.210 HD
ENDBRANCH  25  30
ENDBRANCH  19  20
ENDBRANCH  10  19
BRANCH  13  32
HETATM   32  C29 UNL     1      -7.987   5.761  16.003  1.00  0.00     0.178 C 
BRANCH  32  33
HETATM   33  O8  UNL     1      -7.816   4.467  15.431  1.00  0.00    -0.400 OA
HETATM   34  H46 UNL     1      -7.795   3.831  16.166  1.00  0.00     0.209 HD
ENDBRANCH  32  33
ENDBRANCH  13  32
BRANCH   1  35
HETATM   35  C9  UNL     1     -13.782   9.219  16.049  1.00  0.00    -0.011 C 
HETATM   36  C10 UNL     1     -13.169  10.150  17.106  1.00  0.00     0.010 C 
BRANCH  35  37
HETATM   37  C8  UNL     1     -15.002   8.456  16.608  1.00  0.00     0.031 C 
BRANCH  37  38
HETATM   38  C7  UNL     1     -14.868   8.110  18.068  1.00  0.00    -0.027 C 
HETATM   39  C6  UNL     1     -15.650   7.219  18.702  1.00  0.00     0.007 C 
BRANCH  39  40
HETATM   40  C3  UNL     1     -15.605   6.844  20.171  1.00  0.00     0.081 C 
HETATM   41  C4  UNL     1     -16.441   5.626  20.602  1.00  0.00     0.051 C 
HETATM   42  C5  UNL     1     -16.105   8.059  20.973  1.00  0.00     0.051 C 
BRANCH  40  43
HETATM   43  O2  UNL     1     -14.220   6.683  20.577  1.00  0.00    -0.307 OA
BRANCH  43  44
HETATM   44  C2  UNL     1     -13.897   5.794  21.553  1.00  0.00     0.255 C 
HETATM   45  C1  UNL     1     -13.535   6.531  22.806  1.00  0.00     0.126 C 
HETATM   46  O1  UNL     1     -13.915   4.575  21.468  1.00  0.00    -0.266 OA
ENDBRANCH  43  44
ENDBRANCH  40  43
ENDBRANCH  39  40
ENDBRANCH  37  38
ENDBRANCH  35  37
ENDBRANCH   1  35
TORSDOF 13
ENDMDL
MODEL 4
REMARK minimizedAffinity -7.30342627
REMARK CNNscore 0.548993111
REMARK CNNaffinity 7.13466024
REMARK  13 active torsions:
REMARK  status: ('A' for Active; 'I' for Inactive)
REMARK    1  A    between atoms: C2_2  and  O2_4 
REMARK    2  A    between atoms: O2_4  and  C3_5 
REMARK    3  A    between atoms: C3_5  and  C6_8 
REMARK    4  A    between atoms: C7_9  and  C8_10 
REMARK    5  A    between atoms: C8_10  and  C9_11 
REMARK    6  A    between atoms: C9_11  and  C11_13 
REMARK    7  A    between atoms: C20_22  and  O3_23 
REMARK    8  A    between atoms: O3_23  and  C21_24 
REMARK    9  A    between atoms: C23_27  and  O5_28 
REMARK   10  A    between atoms: C24_29  and  O6_30 
REMARK   11  A    between atoms: C25_31  and  O7_32 
REMARK   12  A    between atoms: C28_35  and  C29_36 
REMARK   13  A    between atoms: C29_36  and  O8_37 
ROOT
HETATM    1  C11 UNL     1      -2.742   6.931  13.341  1.00  0.00    -0.002 C 
HETATM    2  C12 UNL     1      -2.801   5.398  13.277  1.00  0.00     0.006 C 
HETATM    3  C13 UNL     1      -3.984   5.055  14.162  1.00  0.00     0.006 C 
HETATM    4  C14 UNL     1      -3.933   6.067  15.324  1.00  0.00    -0.001 C 
HETATM    5  C15 UNL     1      -5.328   6.561  15.785  1.00  0.00    -0.001 C 
HETATM    6  C16 UNL     1      -6.282   5.402  16.100  1.00  0.00     0.033 C 
HETATM    7  C17 UNL     1      -7.561   5.956  16.636  1.00  0.00    -0.023 C 
HETATM    8  C18 UNL     1      -8.097   7.093  16.159  1.00  0.00    -0.070 C 
HETATM    9  C19 UNL     1      -9.278   7.721  16.872  1.00  0.00     0.066 C 
HETATM   10  C20 UNL     1     -10.189   8.569  15.975  1.00  0.00     0.128 C 
HETATM   11  C26 UNL     1      -9.386   9.594  15.156  1.00  0.00     0.033 C 
HETATM   12  C27 UNL     1      -7.880   9.313  15.064  1.00  0.00     0.019 C 
HETATM   13  C28 UNL     1      -7.508   7.813  14.936  1.00  0.00     0.008 C 
HETATM   14  C30 UNL     1      -5.934   7.566  14.772  1.00  0.00     0.005 C 
HETATM   15  C31 UNL     1      -5.032   8.816  14.671  1.00  0.00     0.007 C 
HETATM   16  C32 UNL     1      -3.594   8.605  15.155  1.00  0.00     0.010 C 
HETATM   17  C33 UNL     1      -2.968   7.224  14.861  1.00  0.00    -0.036 C 
HETATM   18  C34 UNL     1      -1.670   7.131  15.689  1.00  0.00     0.016 C 
ENDROOT
BRANCH  10  19
HETATM   19  O3  UNL     1     -11.164   9.321  16.712  1.00  0.00    -0.353 OA
BRANCH  19  20
HETATM   20  C21 UNL     1     -12.139  10.000  15.922  1.00  0.00     0.291 C 
HETATM   21  O4  UNL     1     -12.741   9.159  14.940  1.00  0.00    -0.356 OA
HETATM   22  C22 UNL     1     -13.502   8.094  15.516  1.00  0.00     0.205 C 
HETATM   23  C23 UNL     1     -14.673   8.629  16.341  1.00  0.00     0.173 C 
HETATM   24  C24 UNL     1     -14.171   9.579  17.428  1.00  0.00     0.182 C 
HETATM   25  C25 UNL     1     -13.215  10.628  16.846  1.00  0.00     0.204 C 
BRANCH  23  26
HETATM   26  O5  UNL     1     -15.392   7.550  16.941  1.00  0.00    -0.391 OA
HETATM   27  H35 UNL     1     -14.899   7.347  17.766  1.00  0.00     0.210 HD
ENDBRANCH  23  26
BRANCH  24  28
HETATM   28  O6  UNL     1     -13.531   8.803  18.458  1.00  0.00    -0.390 OA
HETATM   29  H37 UNL     1     -12.972   9.444  18.945  1.00  0.00     0.210 HD
ENDBRANCH  24  28
BRANCH  25  30
HETATM   30  O7  UNL     1     -12.648  11.368  17.940  1.00  0.00    -0.388 OA
HETATM   31  H39 UNL     1     -11.751  11.649  17.677  1.00  0.00     0.210 HD
ENDBRANCH  25  30
ENDBRANCH  19  20
ENDBRANCH  10  19
BRANCH  13  32
HETATM   32  C29 UNL     1      -8.191   7.215  13.658  1.00  0.00     0.178 C 
BRANCH  32  33
HETATM   33  O8  UNL     1      -7.418   6.147  13.116  1.00  0.00    -0.400 OA
HETATM   34  H46 UNL     1      -7.933   5.764  12.385  1.00  0.00     0.209 HD
ENDBRANCH  32  33
ENDBRANCH  13  32
BRANCH   1  35
HETATM   35  C9  UNL     1      -1.544   7.519  12.530  1.00  0.00    -0.011 C 
HETATM   36  C10 UNL     1      -1.806   8.847  11.803  1.00  0.00     0.010 C 
BRANCH  35  37
HETATM   37  C8  UNL     1      -0.901   6.478  11.589  1.00  0.00     0.031 C 
BRANCH  37  38
HETATM   38  C7  UNL     1       0.240   7.035  10.778  1.00  0.00    -0.027 C 
HETATM   39  C6  UNL     1       1.517   6.633  10.907  1.00  0.00     0.007 C 
BRANCH  39  40
HETATM   40  C3  UNL     1       2.724   7.168  10.161  1.00  0.00     0.081 C 
HETATM   41  C4  UNL     1       3.475   6.176   9.255  1.00  0.00     0.051 C 
HETATM   42  C5  UNL     1       3.723   7.689  11.210  1.00  0.00     0.051 C 
BRANCH  40  43
HETATM   43  O2  UNL     1       2.333   8.349   9.411  1.00  0.00    -0.307 OA
BRANCH  43  44
HETATM   44  C2  UNL     1       2.577   8.419   8.076  1.00  0.00     0.255 C 
HETATM   45  C1  UNL     1       1.624   7.524   7.343  1.00  0.00     0.126 C 
HETATM   46  O1  UNL     1       3.414   9.115   7.521  1.00  0.00    -0.266 OA
ENDBRANCH  43  44
ENDBRANCH  40  43
ENDBRANCH  39  40
ENDBRANCH  37  38
ENDBRANCH  35  37
ENDBRANCH   1  35
TORSDOF 13
ENDMDL
MODEL 5
REMARK minimizedAffinity -9.24833107
REMARK CNNscore 0.543830276
REMARK CNNaffinity 7.38349152
REMARK  13 active torsions:
REMARK  status: ('A' for Active; 'I' for Inactive)
REMARK    1  A    between atoms: C2_2  and  O2_4 
REMARK    2  A    between atoms: O2_4  and  C3_5 
REMARK    3  A    between atoms: C3_5  and  C6_8 
REMARK    4  A    between atoms: C7_9  and  C8_10 
REMARK    5  A    between atoms: C8_10  and  C9_11 
REMARK    6  A    between atoms: C9_11  and  C11_13 
REMARK    7  A    between atoms: C20_22  and  O3_23 
REMARK    8  A    between atoms: O3_23  and  C21_24 
REMARK    9  A    between atoms: C23_27  and  O5_28 
REMARK   10  A    between atoms: C24_29  and  O6_30 
REMARK   11  A    between atoms: C25_31  and  O7_32 
REMARK   12  A    between atoms: C28_35  and  C29_36 
REMARK   13  A    between atoms: C29_36  and  O8_37 
ROOT
HETATM    1  C11 UNL     1      -7.255   6.475  15.035  1.00  0.00    -0.002 C 
HETATM    2  C12 UNL     1      -7.388   5.004  15.453  1.00  0.00     0.006 C 
HETATM    3  C13 UNL     1      -6.246   4.327  14.720  1.00  0.00     0.006 C 
HETATM    4  C14 UNL     1      -6.155   5.038  13.356  1.00  0.00    -0.001 C 
HETATM    5  C15 UNL     1      -4.704   5.242  12.851  1.00  0.00    -0.001 C 
HETATM    6  C16 UNL     1      -3.898   3.937  12.851  1.00  0.00     0.033 C 
HETATM    7  C17 UNL     1      -2.553   4.195  12.256  1.00  0.00    -0.023 C 
HETATM    8  C18 UNL     1      -1.886   5.341  12.479  1.00  0.00    -0.070 C 
HETATM    9  C19 UNL     1      -0.628   5.640  11.690  1.00  0.00     0.066 C 
HETATM   10  C20 UNL     1       0.371   6.561  12.404  1.00  0.00     0.128 C 
HETATM   11  C26 UNL     1      -0.308   7.837  12.931  1.00  0.00     0.033 C 
HETATM   12  C27 UNL     1      -1.838   7.765  13.023  1.00  0.00     0.019 C 
HETATM   13  C28 UNL     1      -2.397   6.391  13.478  1.00  0.00     0.008 C 
HETATM   14  C30 UNL     1      -3.990   6.376  13.629  1.00  0.00     0.005 C 
HETATM   15  C31 UNL     1      -4.731   7.714  13.403  1.00  0.00     0.007 C 
HETATM   16  C32 UNL     1      -6.178   7.566  12.921  1.00  0.00     0.010 C 
HETATM   17  C33 UNL     1      -6.975   6.377  13.499  1.00  0.00    -0.036 C 
HETATM   18  C34 UNL     1      -8.264   6.246  12.663  1.00  0.00     0.016 C 
ENDROOT
BRANCH  10  19
HETATM   19  O3  UNL     1       1.441   6.999  11.556  1.00  0.00    -0.353 OA
BRANCH  19  20
HETATM   20  C21 UNL     1       1.857   6.066  10.560  1.00  0.00     0.291 C 
HETATM   21  O4  UNL     1       1.170   6.233   9.321  1.00  0.00    -0.356 OA
HETATM   22  C22 UNL     1       1.451   7.490   8.699  1.00  0.00     0.205 C 
HETATM   23  C23 UNL     1       2.932   7.616   8.341  1.00  0.00     0.173 C 
HETATM   24  C24 UNL     1       3.799   7.427   9.586  1.00  0.00     0.182 C 
HETATM   25  C25 UNL     1       3.392   6.166  10.358  1.00  0.00     0.204 C 
BRANCH  23  26
HETATM   26  O5  UNL     1       3.196   8.894   7.762  1.00  0.00    -0.391 OA
HETATM   27  H35 UNL     1       3.326   9.496   8.526  1.00  0.00     0.210 HD
ENDBRANCH  23  26
BRANCH  24  28
HETATM   28  O6  UNL     1       3.685   8.603  10.409  1.00  0.00    -0.390 OA
HETATM   29  H37 UNL     1       3.984   8.318  11.297  1.00  0.00     0.210 HD
ENDBRANCH  24  28
BRANCH  25  30
HETATM   30  O7  UNL     1       4.120   6.147  11.597  1.00  0.00    -0.388 OA
HETATM   31  H39 UNL     1       3.564   5.700  12.262  1.00  0.00     0.210 HD
ENDBRANCH  25  30
ENDBRANCH  19  20
ENDBRANCH  10  19
BRANCH  13  32
HETATM   32  C29 UNL     1      -1.810   6.032  14.887  1.00  0.00     0.178 C 
BRANCH  32  33
HETATM   33  O8  UNL     1      -2.849   5.852  15.844  1.00  0.00    -0.400 OA
HETATM   34  H46 UNL     1      -2.429   5.547  16.667  1.00  0.00     0.209 HD
ENDBRANCH  32  33
ENDBRANCH  13  32
BRANCH   1  35
HETATM   35  C9  UNL     1      -8.380   7.374  15.638  1.00  0.00    -0.011 C 
HETATM   36  C10 UNL     1      -9.825   6.937  15.350  1.00  0.00     0.010 C 
BRANCH  35  37
HETATM   37  C8  UNL     1      -8.171   8.872  15.324  1.00  0.00     0.031 C 
BRANCH  37  38
HETATM   38  C7  UNL     1      -9.455   9.601  15.027  1.00  0.00    -0.027 C 
HETATM   39  C6  UNL     1     -10.666   9.183  15.437  1.00  0.00     0.007 C 
BRANCH  39  40
HETATM   40  C3  UNL     1     -12.005   9.835  15.149  1.00  0.00     0.081 C 
HETATM   41  C4  UNL     1     -11.971  11.254  14.555  1.00  0.00     0.051 C 
HETATM   42  C5  UNL     1     -12.781   9.904  16.476  1.00  0.00     0.051 C 
BRANCH  40  43
HETATM   43  O2  UNL     1     -12.793   8.949  14.311  1.00  0.00    -0.307 OA
BRANCH  43  44
HETATM   44  C2  UNL     1     -12.591   8.925  12.967  1.00  0.00     0.255 C 
HETATM   45  C1  UNL     1     -11.719   7.759  12.611  1.00  0.00     0.126 C 
HETATM   46  O1  UNL     1     -13.055   9.698  12.143  1.00  0.00    -0.266 OA
ENDBRANCH  43  44
ENDBRANCH  40  43
ENDBRANCH  39  40
ENDBRANCH  37  38
ENDBRANCH  35  37
ENDBRANCH   1  35
TORSDOF 13
ENDMDL
MODEL 6
REMARK minimizedAffinity -8.47581387
REMARK CNNscore 0.490685791
REMARK CNNaffinity 7.21187592
REMARK  13 active torsions:
REMARK  status: ('A' for Active; 'I' for Inactive)
REMARK    1  A    between atoms: C2_2  and  O2_4 
REMARK    2  A    between atoms: O2_4  and  C3_5 
REMARK    3  A    between atoms: C3_5  and  C6_8 
REMARK    4  A    between atoms: C7_9  and  C8_10 
REMARK    5  A    between atoms: C8_10  and  C9_11 
REMARK    6  A    between atoms: C9_11  and  C11_13 
REMARK    7  A    between atoms: C20_22  and  O3_23 
REMARK    8  A    between atoms: O3_23  and  C21_24 
REMARK    9  A    between atoms: C23_27  and  O5_28 
REMARK   10  A    between atoms: C24_29  and  O6_30 
REMARK   11  A    between atoms: C25_31  and  O7_32 
REMARK   12  A    between atoms: C28_35  and  C29_36 
REMARK   13  A    between atoms: C29_36  and  O8_37 
ROOT
HETATM    1  C11 UNL     1     -12.785   8.388  15.320  1.00  0.00    -0.002 C 
HETATM    2  C12 UNL     1     -13.451   7.078  14.876  1.00  0.00     0.006 C 
HETATM    3  C13 UNL     1     -12.341   6.353  14.139  1.00  0.00     0.006 C 
HETATM    4  C14 UNL     1     -11.559   7.452  13.392  1.00  0.00    -0.001 C 
HETATM    5  C15 UNL     1     -10.026   7.220  13.364  1.00  0.00    -0.001 C 
HETATM    6  C16 UNL     1      -9.657   5.825  12.843  1.00  0.00     0.033 C 
HETATM    7  C17 UNL     1      -8.171   5.719  12.746  1.00  0.00    -0.023 C 
HETATM    8  C18 UNL     1      -7.359   6.279  13.659  1.00  0.00    -0.070 C 
HETATM    9  C19 UNL     1      -5.865   6.322  13.406  1.00  0.00     0.066 C 
HETATM   10  C20 UNL     1      -5.003   6.361  14.675  1.00  0.00     0.128 C 
HETATM   11  C26 UNL     1      -5.465   7.463  15.643  1.00  0.00     0.033 C 
HETATM   12  C27 UNL     1      -6.877   8.004  15.382  1.00  0.00     0.019 C 
HETATM   13  C28 UNL     1      -7.908   6.935  14.936  1.00  0.00     0.008 C 
HETATM   14  C30 UNL     1      -9.384   7.525  14.741  1.00  0.00     0.005 C 
HETATM   15  C31 UNL     1      -9.602   9.011  15.103  1.00  0.00     0.007 C 
HETATM   16  C32 UNL     1     -10.744   9.692  14.342  1.00  0.00     0.010 C 
HETATM   17  C33 UNL     1     -11.985   8.821  14.047  1.00  0.00    -0.036 C 
HETATM   18  C34 UNL     1     -12.850   9.594  13.031  1.00  0.00     0.016 C 
ENDROOT
BRANCH  10  19
HETATM   19  O3  UNL     1      -3.617   6.619  14.408  1.00  0.00    -0.353 OA
BRANCH  19  20
HETATM   20  C21 UNL     1      -2.742   5.506  14.578  1.00  0.00     0.291 C 
HETATM   21  O4  UNL     1      -2.793   4.586  13.489  1.00  0.00    -0.356 OA
HETATM   22  C22 UNL     1      -2.328   5.156  12.263  1.00  0.00     0.205 C 
HETATM   23  C23 UNL     1      -0.857   5.561  12.360  1.00  0.00     0.173 C 
HETATM   24  C24 UNL     1      -0.647   6.536  13.519  1.00  0.00     0.182 C 
HETATM   25  C25 UNL     1      -1.292   6.010  14.807  1.00  0.00     0.204 C 
BRANCH  23  26
HETATM   26  O5  UNL     1      -0.427   6.166  11.140  1.00  0.00    -0.391 OA
HETATM   27  H35 UNL     1      -0.694   7.108  11.217  1.00  0.00     0.210 HD
ENDBRANCH  23  26
BRANCH  24  28
HETATM   28  O6  UNL     1      -1.189   7.817  13.147  1.00  0.00    -0.390 OA
HETATM   29  H37 UNL     1      -1.314   8.292  13.994  1.00  0.00     0.210 HD
ENDBRANCH  24  28
BRANCH  25  30
HETATM   30  O7  UNL     1      -1.212   7.047  15.800  1.00  0.00    -0.388 OA
HETATM   31  H39 UNL     1      -1.986   6.956  16.388  1.00  0.00     0.210 HD
ENDBRANCH  25  30
ENDBRANCH  19  20
ENDBRANCH  10  19
BRANCH  13  32
HETATM   32  C29 UNL     1      -8.013   5.822  16.035  1.00  0.00     0.178 C 
BRANCH  32  33
HETATM   33  O8  UNL     1      -7.826   4.527  15.471  1.00  0.00    -0.400 OA
HETATM   34  H46 UNL     1      -7.814   3.893  16.210  1.00  0.00     0.209 HD
ENDBRANCH  32  33
ENDBRANCH  13  32
BRANCH   1  35
HETATM   35  C9  UNL     1     -13.772   9.339  16.068  1.00  0.00    -0.011 C 
HETATM   36  C10 UNL     1     -15.061   9.705  15.316  1.00  0.00     0.010 C 
BRANCH  35  37
HETATM   37  C8  UNL     1     -13.070  10.595  16.628  1.00  0.00     0.031 C 
BRANCH  37  38
HETATM   38  C7  UNL     1     -12.725  10.481  18.090  1.00  0.00    -0.027 C 
HETATM   39  C6  UNL     1     -13.028   9.413  18.849  1.00  0.00     0.007 C 
BRANCH  39  40
HETATM   40  C3  UNL     1     -12.752   9.237  20.330  1.00  0.00     0.081 C 
HETATM   41  C4  UNL     1     -13.184   7.902  20.962  1.00  0.00     0.051 C 
HETATM   42  C5  UNL     1     -13.487  10.365  21.076  1.00  0.00     0.051 C 
BRANCH  40  43
HETATM   43  O2  UNL     1     -11.344   9.489  20.584  1.00  0.00    -0.307 OA
BRANCH  43  44
HETATM   44  C2  UNL     1     -10.930   9.843  21.828  1.00  0.00     0.255 C 
HETATM   45  C1  UNL     1     -10.492  11.276  21.825  1.00  0.00     0.126 C 
HETATM   46  O1  UNL     1     -10.929   9.139  22.827  1.00  0.00    -0.266 OA
ENDBRANCH  43  44
ENDBRANCH  40  43
ENDBRANCH  39  40
ENDBRANCH  37  38
ENDBRANCH  35  37
ENDBRANCH   1  35
TORSDOF 13
ENDMDL
MODEL 7
REMARK minimizedAffinity -7.9809947
REMARK CNNscore 0.480698645
REMARK CNNaffinity 7.38308477
REMARK  13 active torsions:
REMARK  status: ('A' for Active; 'I' for Inactive)
REMARK    1  A    between atoms: C2_2  and  O2_4 
REMARK    2  A    between atoms: O2_4  and  C3_5 
REMARK    3  A    between atoms: C3_5  and  C6_8 
REMARK    4  A    between atoms: C7_9  and  C8_10 
REMARK    5  A    between atoms: C8_10  and  C9_11 
REMARK    6  A    between atoms: C9_11  and  C11_13 
REMARK    7  A    between atoms: C20_22  and  O3_23 
REMARK    8  A    between atoms: O3_23  and  C21_24 
REMARK    9  A    between atoms: C23_27  and  O5_28 
REMARK   10  A    between atoms: C24_29  and  O6_30 
REMARK   11  A    between atoms: C25_31  and  O7_32 
REMARK   12  A    between atoms: C28_35  and  C29_36 
REMARK   13  A    between atoms: C29_36  and  O8_37 
ROOT
HETATM    1  C11 UNL     1      -2.137   6.872  13.718  1.00  0.00    -0.002 C 
HETATM    2  C12 UNL     1      -1.782   5.777  14.733  1.00  0.00     0.006 C 
HETATM    3  C13 UNL     1      -3.088   5.543  15.468  1.00  0.00     0.006 C 
HETATM    4  C14 UNL     1      -3.742   6.934  15.593  1.00  0.00    -0.001 C 
HETATM    5  C15 UNL     1      -5.283   6.919  15.422  1.00  0.00    -0.001 C 
HETATM    6  C16 UNL     1      -5.963   5.901  16.346  1.00  0.00     0.033 C 
HETATM    7  C17 UNL     1      -7.443   6.022  16.199  1.00  0.00    -0.023 C 
HETATM    8  C18 UNL     1      -8.020   6.267  15.010  1.00  0.00    -0.070 C 
HETATM    9  C19 UNL     1      -9.501   6.587  14.948  1.00  0.00     0.066 C 
HETATM   10  C20 UNL     1     -10.178   6.222  13.621  1.00  0.00     0.128 C 
HETATM   11  C26 UNL     1      -9.406   6.785  12.415  1.00  0.00     0.033 C 
HETATM   12  C27 UNL     1      -7.962   7.210  12.712  1.00  0.00     0.019 C 
HETATM   13  C28 UNL     1      -7.207   6.291  13.706  1.00  0.00     0.008 C 
HETATM   14  C30 UNL     1      -5.683   6.727  13.937  1.00  0.00     0.005 C 
HETATM   15  C31 UNL     1      -5.155   7.909  13.095  1.00  0.00     0.007 C 
HETATM   16  C32 UNL     1      -4.010   8.693  13.745  1.00  0.00     0.010 C 
HETATM   17  C33 UNL     1      -2.996   7.868  14.567  1.00  0.00    -0.036 C 
HETATM   18  C34 UNL     1      -2.136   8.871  15.363  1.00  0.00     0.016 C 
ENDROOT
BRANCH  10  19
HETATM   19  O3  UNL     1     -11.515   6.730  13.511  1.00  0.00    -0.353 OA
BRANCH  19  20
HETATM   20  C21 UNL     1     -11.800   7.884  14.299  1.00  0.00     0.291 C 
HETATM   21  O4  UNL     1     -11.527   9.105  13.615  1.00  0.00    -0.356 OA
HETATM   22  C22 UNL     1     -12.369   9.299  12.475  1.00  0.00     0.205 C 
HETATM   23  C23 UNL     1     -13.840   9.400  12.878  1.00  0.00     0.173 C 
HETATM   24  C24 UNL     1     -14.267   8.154  13.656  1.00  0.00     0.182 C 
HETATM   25  C25 UNL     1     -13.274   7.838  14.781  1.00  0.00     0.204 C 
BRANCH  23  26
HETATM   26  O5  UNL     1     -14.664   9.549  11.721  1.00  0.00    -0.391 OA
HETATM   27  H35 UNL     1     -14.812   8.635  11.398  1.00  0.00     0.210 HD
ENDBRANCH  23  26
BRANCH  24  28
HETATM   28  O6  UNL     1     -14.381   7.054  12.735  1.00  0.00    -0.390 OA
HETATM   29  H37 UNL     1     -14.343   6.252  13.296  1.00  0.00     0.210 HD
ENDBRANCH  24  28
BRANCH  25  30
HETATM   30  O7  UNL     1     -13.636   6.569  15.350  1.00  0.00    -0.388 OA
HETATM   31  H39 UNL     1     -12.818   6.141  15.668  1.00  0.00     0.210 HD
ENDBRANCH  25  30
ENDBRANCH  19  20
ENDBRANCH  10  19
BRANCH  13  32
HETATM   32  C29 UNL     1      -7.173   4.829  13.141  1.00  0.00     0.178 C 
BRANCH  32  33
HETATM   33  O8  UNL     1      -5.842   4.322  13.107  1.00  0.00    -0.400 OA
HETATM   34  H46 UNL     1      -5.898   3.391  12.834  1.00  0.00     0.209 HD
ENDBRANCH  32  33
ENDBRANCH  13  32
BRANCH   1  35
HETATM   35  C9  UNL     1      -0.908   7.322  12.866  1.00  0.00    -0.011 C 
HETATM   36  C10 UNL     1      -1.216   8.202  11.645  1.00  0.00     0.010 C 
BRANCH  35  37
HETATM   37  C8  UNL     1       0.013   6.140  12.491  1.00  0.00     0.031 C 
BRANCH  37  38
HETATM   38  C7  UNL     1       0.807   6.382  11.235  1.00  0.00    -0.027 C 
HETATM   39  C6  UNL     1       2.143   6.540  11.212  1.00  0.00     0.007 C 
BRANCH  39  40
HETATM   40  C3  UNL     1       3.009   6.824  10.000  1.00  0.00     0.081 C 
HETATM   41  C4  UNL     1       2.966   5.793   8.859  1.00  0.00     0.051 C 
HETATM   42  C5  UNL     1       4.467   6.921  10.486  1.00  0.00     0.051 C 
BRANCH  40  43
HETATM   43  O2  UNL     1       2.703   8.153   9.499  1.00  0.00    -0.307 OA
BRANCH  43  44
HETATM   44  C2  UNL     1       2.176   8.307   8.257  1.00  0.00     0.255 C 
HETATM   45  C1  UNL     1       0.680   8.317   8.342  1.00  0.00     0.126 C 
HETATM   46  O1  UNL     1       2.794   8.449   7.212  1.00  0.00    -0.266 OA
ENDBRANCH  43  44
ENDBRANCH  40  43
ENDBRANCH  39  40
ENDBRANCH  37  38
ENDBRANCH  35  37
ENDBRANCH   1  35
TORSDOF 13
ENDMDL
MODEL 8
REMARK minimizedAffinity -7.64902735
REMARK CNNscore 0.472519904
REMARK CNNaffinity 7.09674311
REMARK  13 active torsions:
REMARK  status: ('A' for Active; 'I' for Inactive)
REMARK    1  A    between atoms: C2_2  and  O2_4 
REMARK    2  A    between atoms: O2_4  and  C3_5 
REMARK    3  A    between atoms: C3_5  and  C6_8 
REMARK    4  A    between atoms: C7_9  and  C8_10 
REMARK    5  A    between atoms: C8_10  and  C9_11 
REMARK    6  A    between atoms: C9_11  and  C11_13 
REMARK    7  A    between atoms: C20_22  and  O3_23 
REMARK    8  A    between atoms: O3_23  and  C21_24 
REMARK    9  A    between atoms: C23_27  and  O5_28 
REMARK   10  A    between atoms: C24_29  and  O6_30 
REMARK   11  A    between atoms: C25_31  and  O7_32 
REMARK   12  A    between atoms: C28_35  and  C29_36 
REMARK   13  A    between atoms: C29_36  and  O8_37 
ROOT
HETATM    1  C11 UNL     1      -1.942   7.165  13.298  1.00  0.00    -0.002 C 
HETATM    2  C12 UNL     1      -1.903   5.640  13.125  1.00  0.00     0.006 C 
HETATM    3  C13 UNL     1      -3.075   5.163  13.960  1.00  0.00     0.006 C 
HETATM    4  C14 UNL     1      -3.106   6.090  15.191  1.00  0.00    -0.001 C 
HETATM    5  C15 UNL     1      -4.536   6.462  15.660  1.00  0.00    -0.001 C 
HETATM    6  C16 UNL     1      -5.420   5.227  15.873  1.00  0.00     0.033 C 
HETATM    7  C17 UNL     1      -6.739   5.660  16.422  1.00  0.00    -0.023 C 
HETATM    8  C18 UNL     1      -7.338   6.794  16.017  1.00  0.00    -0.070 C 
HETATM    9  C19 UNL     1      -8.566   7.294  16.750  1.00  0.00     0.066 C 
HETATM   10  C20 UNL     1      -9.516   8.146  15.897  1.00  0.00     0.128 C 
HETATM   11  C26 UNL     1      -8.768   9.276  15.169  1.00  0.00     0.033 C 
HETATM   12  C27 UNL     1      -7.246   9.095  15.086  1.00  0.00     0.019 C 
HETATM   13  C28 UNL     1      -6.777   7.635  14.859  1.00  0.00     0.008 C 
HETATM   14  C30 UNL     1      -5.189   7.497  14.709  1.00  0.00     0.005 C 
HETATM   15  C31 UNL     1      -4.366   8.805  14.713  1.00  0.00     0.007 C 
HETATM   16  C32 UNL     1      -2.925   8.649  15.209  1.00  0.00     0.010 C 
HETATM   17  C33 UNL     1      -2.209   7.334  14.830  1.00  0.00    -0.036 C 
HETATM   18  C34 UNL     1      -0.919   7.262  15.674  1.00  0.00     0.016 C 
ENDROOT
BRANCH  10  19
HETATM   19  O3  UNL     1     -10.547   8.782  16.666  1.00  0.00    -0.353 OA
BRANCH  19  20
HETATM   20  C21 UNL     1     -11.291   9.788  15.981  1.00  0.00     0.291 C 
HETATM   21  O4  UNL     1     -12.205   9.249  15.027  1.00  0.00    -0.356 OA
HETATM   22  C22 UNL     1     -13.236   8.465  15.631  1.00  0.00     0.205 C 
HETATM   23  C23 UNL     1     -14.103   9.309  16.566  1.00  0.00     0.173 C 
HETATM   24  C24 UNL     1     -13.240   9.978  17.636  1.00  0.00     0.182 C 
HETATM   25  C25 UNL     1     -12.031  10.684  17.009  1.00  0.00     0.204 C 
BRANCH  23  26
HETATM   26  O5  UNL     1     -15.098   8.496  17.190  1.00  0.00    -0.391 OA
HETATM   27  H35 UNL     1     -14.646   8.096  17.965  1.00  0.00     0.210 HD
ENDBRANCH  23  26
BRANCH  24  28
HETATM   28  O6  UNL     1     -12.827   8.978  18.586  1.00  0.00    -0.390 OA
HETATM   29  H37 UNL     1     -12.055   9.370  19.044  1.00  0.00     0.210 HD
ENDBRANCH  24  28
BRANCH  25  30
HETATM   30  O7  UNL     1     -11.177  11.133  18.074  1.00  0.00    -0.388 OA
HETATM   31  H39 UNL     1     -10.258  11.116  17.746  1.00  0.00     0.210 HD
ENDBRANCH  25  30
ENDBRANCH  19  20
ENDBRANCH  10  19
BRANCH  13  32
HETATM   32  C29 UNL     1      -7.402   7.088  13.529  1.00  0.00     0.178 C 
BRANCH  32  33
HETATM   33  O8  UNL     1      -8.066   5.846  13.747  1.00  0.00    -0.400 OA
HETATM   34  H46 UNL     1      -8.503   5.607  12.912  1.00  0.00     0.209 HD
ENDBRANCH  32  33
ENDBRANCH  13  32
BRANCH   1  35
HETATM   35  C9  UNL     1      -0.772   7.883  12.554  1.00  0.00    -0.011 C 
HETATM   36  C10 UNL     1      -0.529   9.352  12.932  1.00  0.00     0.010 C 
BRANCH  35  37
HETATM   37  C8  UNL     1      -0.846   7.700  11.023  1.00  0.00     0.031 C 
BRANCH  37  38
HETATM   38  C7  UNL     1       0.442   7.203  10.421  1.00  0.00    -0.027 C 
HETATM   39  C6  UNL     1       1.024   7.752   9.339  1.00  0.00     0.007 C 
BRANCH  39  40
HETATM   40  C3  UNL     1       2.294   7.290   8.651  1.00  0.00     0.081 C 
HETATM   41  C4  UNL     1       3.617   7.880   9.168  1.00  0.00     0.051 C 
HETATM   42  C5  UNL     1       2.171   7.656   7.161  1.00  0.00     0.051 C 
BRANCH  40  43
HETATM   43  O2  UNL     1       2.341   5.838   8.667  1.00  0.00    -0.307 OA
BRANCH  43  44
HETATM   44  C2  UNL     1       3.050   5.192   9.629  1.00  0.00     0.255 C 
HETATM   45  C1  UNL     1       3.921   6.170  10.357  1.00  0.00     0.126 C 
HETATM   46  O1  UNL     1       2.990   4.003   9.908  1.00  0.00    -0.266 OA
ENDBRANCH  43  44
ENDBRANCH  40  43
ENDBRANCH  39  40
ENDBRANCH  37  38
ENDBRANCH  35  37
ENDBRANCH   1  35
TORSDOF 13
ENDMDL
MODEL 9
REMARK minimizedAffinity -8.7688055
REMARK CNNscore 0.460879683
REMARK CNNaffinity 6.85580444
REMARK  13 active torsions:
REMARK  status: ('A' for Active; 'I' for Inactive)
REMARK    1  A    between atoms: C2_2  and  O2_4 
REMARK    2  A    between atoms: O2_4  and  C3_5 
REMARK    3  A    between atoms: C3_5  and  C6_8 
REMARK    4  A    between atoms: C7_9  and  C8_10 
REMARK    5  A    between atoms: C8_10  and  C9_11 
REMARK    6  A    between atoms: C9_11  and  C11_13 
REMARK    7  A    between atoms: C20_22  and  O3_23 
REMARK    8  A    between atoms: O3_23  and  C21_24 
REMARK    9  A    between atoms: C23_27  and  O5_28 
REMARK   10  A    between atoms: C24_29  and  O6_30 
REMARK   11  A    between atoms: C25_31  and  O7_32 
REMARK   12  A    between atoms: C28_35  and  C29_36 
REMARK   13  A    between atoms: C29_36  and  O8_37 
ROOT
HETATM    1  C11 UNL     1      -7.118   7.111  14.339  1.00  0.00    -0.002 C 
HETATM    2  C12 UNL     1      -7.245   8.388  15.182  1.00  0.00     0.006 C 
HETATM    3  C13 UNL     1      -5.807   8.734  15.513  1.00  0.00     0.006 C 
HETATM    4  C14 UNL     1      -5.100   7.382  15.736  1.00  0.00    -0.001 C 
HETATM    5  C15 UNL     1      -3.650   7.336  15.190  1.00  0.00    -0.001 C 
HETATM    6  C16 UNL     1      -2.795   8.500  15.706  1.00  0.00     0.033 C 
HETATM    7  C17 UNL     1      -1.393   8.326  15.224  1.00  0.00    -0.023 C 
HETATM    8  C18 UNL     1      -1.119   7.846  13.998  1.00  0.00    -0.070 C 
HETATM    9  C19 UNL     1       0.310   7.494  13.635  1.00  0.00     0.066 C 
HETATM   10  C20 UNL     1       0.628   7.584  12.137  1.00  0.00     0.128 C 
HETATM   11  C26 UNL     1      -0.398   6.814  11.289  1.00  0.00     0.033 C 
HETATM   12  C27 UNL     1      -1.712   6.480  12.009  1.00  0.00     0.019 C 
HETATM   13  C28 UNL     1      -2.227   7.587  12.965  1.00  0.00     0.008 C 
HETATM   14  C30 UNL     1      -3.633   7.231  13.644  1.00  0.00     0.005 C 
HETATM   15  C31 UNL     1      -4.317   5.919  13.199  1.00  0.00     0.007 C 
HETATM   16  C32 UNL     1      -5.242   5.296  14.250  1.00  0.00     0.010 C 
HETATM   17  C33 UNL     1      -6.047   6.282  15.123  1.00  0.00    -0.036 C 
HETATM   18  C34 UNL     1      -6.655   5.466  16.283  1.00  0.00     0.016 C 
ENDROOT
BRANCH  10  19
HETATM   19  O3  UNL     1       1.913   7.040  11.799  1.00  0.00    -0.353 OA
BRANCH  19  20
HETATM   20  C21 UNL     1       1.939   6.199  10.647  1.00  0.00     0.291 C 
HETATM   21  O4  UNL     1       1.111   6.680   9.590  1.00  0.00    -0.356 OA
HETATM   22  C22 UNL     1       1.558   7.933   9.064  1.00  0.00     0.205 C 
HETATM   23  C23 UNL     1       2.950   7.813   8.443  1.00  0.00     0.173 C 
HETATM   24  C24 UNL     1       3.947   7.274   9.469  1.00  0.00     0.182 C 
HETATM   25  C25 UNL     1       3.403   6.019  10.164  1.00  0.00     0.204 C 
BRANCH  23  26
HETATM   26  O5  UNL     1       3.392   9.084   7.965  1.00  0.00    -0.391 OA
HETATM   27  H35 UNL     1       3.777   9.528   8.751  1.00  0.00     0.210 HD
ENDBRANCH  23  26
BRANCH  24  28
HETATM   28  O6  UNL     1       4.236   8.315  10.421  1.00  0.00    -0.390 OA
HETATM   29  H37 UNL     1       4.607   7.849  11.199  1.00  0.00     0.210 HD
ENDBRANCH  24  28
BRANCH  25  30
HETATM   30  O7  UNL     1       4.304   5.675  11.229  1.00  0.00    -0.388 OA
HETATM   31  H39 UNL     1       3.781   5.254  11.937  1.00  0.00     0.210 HD
ENDBRANCH  25  30
ENDBRANCH  19  20
ENDBRANCH  10  19
BRANCH  13  32
HETATM   32  C29 UNL     1      -2.442   8.913  12.157  1.00  0.00     0.178 C 
BRANCH  32  33
HETATM   33  O8  UNL     1      -1.621   9.961  12.664  1.00  0.00    -0.400 OA
HETATM   34  H46 UNL     1      -1.734  10.724  12.071  1.00  0.00     0.209 HD
ENDBRANCH  32  33
ENDBRANCH  13  32
BRANCH   1  35
HETATM   35  C9  UNL     1      -8.504   6.529  13.919  1.00  0.00    -0.011 C 
HETATM   36  C10 UNL     1      -8.566   5.855  12.539  1.00  0.00     0.010 C 
BRANCH  35  37
HETATM   37  C8  UNL     1      -9.651   7.547  14.101  1.00  0.00     0.031 C 
BRANCH  37  38
HETATM   38  C7  UNL     1     -11.001   6.899  14.257  1.00  0.00    -0.027 C 
HETATM   39  C6  UNL     1     -12.160   7.488  13.911  1.00  0.00     0.007 C 
BRANCH  39  40
HETATM   40  C3  UNL     1     -13.558   6.922  14.072  1.00  0.00     0.081 C 
HETATM   41  C4  UNL     1     -13.664   5.453  14.516  1.00  0.00     0.051 C 
HETATM   42  C5  UNL     1     -14.267   7.049  12.712  1.00  0.00     0.051 C 
BRANCH  40  43
HETATM   43  O2  UNL     1     -14.318   7.781  14.962  1.00  0.00    -0.307 OA
BRANCH  43  44
HETATM   44  C2  UNL     1     -14.264   9.131  14.815  1.00  0.00     0.255 C 
HETATM   45  C1  UNL     1     -13.453   9.726  15.927  1.00  0.00     0.126 C 
HETATM   46  O1  UNL     1     -14.760   9.790  13.913  1.00  0.00    -0.266 OA
ENDBRANCH  43  44
ENDBRANCH  40  43
ENDBRANCH  39  40
ENDBRANCH  37  38
ENDBRANCH  35  37
ENDBRANCH   1  35
TORSDOF 13
ENDMDL
