MODEL 1
REMARK minimizedAffinity -7.4947238
REMARK CNNscore 0.434679717
REMARK CNNaffinity 5.65246344
REMARK  6 active torsions:
REMARK  status: ('A' for Active; 'I' for Inactive)
REMARK    1  A    between atoms: C2_2  and  C30_31 
REMARK    2  A    between atoms: C3_3  and  C4_4 
REMARK    3  A    between atoms: C4_4  and  C5_5 
REMARK    4  A    between atoms: C5_5  and  C6_6 
REMARK    5  A    between atoms: C6_6  and  C8_8 
REMARK    6  A    between atoms: C30_31  and  O2_32 
ROOT
HETATM    1  C8  UNL     1     -13.070  46.094 -26.430  1.00  0.00    -0.002 C 
HETATM    2  C9  UNL     1     -14.226  46.200 -27.481  1.00  0.00     0.007 C 
HETATM    3  C10 UNL     1     -13.583  46.517 -28.850  1.00  0.00     0.015 C 
HETATM    4  C11 UNL     1     -12.090  46.230 -28.640  1.00  0.00    -0.013 C 
HETATM    5  C12 UNL     1     -11.921  44.670 -28.755  1.00  0.00     0.021 C 
HETATM    6  C13 UNL     1     -11.069  46.822 -29.623  1.00  0.00    -0.070 C 
HETATM    7  C14 UNL     1     -11.217  46.640 -30.953  1.00  0.00    -0.022 C 
HETATM    8  C15 UNL     1     -10.087  46.738 -31.943  1.00  0.00     0.034 C 
HETATM    9  C16 UNL     1      -8.732  46.643 -31.210  1.00  0.00     0.013 C 
HETATM   10  C17 UNL     1      -7.465  46.511 -32.114  1.00  0.00     0.018 C 
HETATM   11  C18 UNL     1      -7.190  47.716 -33.019  1.00  0.00     0.023 C 
HETATM   12  C19 UNL     1      -7.581  45.255 -33.003  1.00  0.00     0.023 C 
HETATM   13  C20 UNL     1      -6.238  46.315 -31.202  1.00  0.00     0.135 C 
HETATM   14  O1  UNL     1      -5.150  45.940 -31.647  1.00  0.00    -0.297 OA
HETATM   15  C21 UNL     1      -6.405  46.583 -29.720  1.00  0.00     0.080 C 
HETATM   16  C22 UNL     1      -7.224  47.849 -29.523  1.00  0.00     0.017 C 
HETATM   17  C23 UNL     1      -8.664  47.735 -30.090  1.00  0.00    -0.031 C 
HETATM   18  C24 UNL     1      -9.036  49.161 -30.610  1.00  0.00     0.016 C 
HETATM   19  C25 UNL     1      -9.765  47.379 -29.005  1.00  0.00     0.024 C 
HETATM   20  C26 UNL     1      -9.355  46.484 -27.819  1.00  0.00     0.010 C 
HETATM   21  C27 UNL     1     -10.452  46.393 -26.717  1.00  0.00     0.011 C 
HETATM   22  C28 UNL     1     -11.881  46.781 -27.182  1.00  0.00    -0.029 C 
HETATM   23  C29 UNL     1     -12.093  48.329 -27.064  1.00  0.00     0.016 C 
ENDROOT
BRANCH   1  24
HETATM   24  C6  UNL     1     -13.507  46.595 -25.017  1.00  0.00    -0.014 C 
HETATM   25  C7  UNL     1     -12.573  46.086 -23.915  1.00  0.00     0.010 C 
BRANCH  24  26
HETATM   26  C5  UNL     1     -14.969  46.150 -24.733  1.00  0.00     0.008 C 
BRANCH  26  27
HETATM   27  C4  UNL     1     -15.958  47.257 -24.344  1.00  0.00     0.028 C 
BRANCH  27  28
HETATM   28  C3  UNL     1     -17.374  46.970 -24.761  1.00  0.00    -0.022 C 
HETATM   29  C2  UNL     1     -18.387  46.540 -23.980  1.00  0.00    -0.064 C 
HETATM   30  C1  UNL     1     -18.262  46.233 -22.511  1.00  0.00     0.045 C 
BRANCH  29  31
HETATM   31  C30 UNL     1     -19.766  46.335 -24.551  1.00  0.00     0.197 C 
BRANCH  31  32
HETATM   32  O2  UNL     1     -19.645  45.835 -25.873  1.00  0.00    -0.397 OA
HETATM   33  H48 UNL     1     -20.549  45.747 -26.221  1.00  0.00     0.209 HD
ENDBRANCH  31  32
ENDBRANCH  29  31
ENDBRANCH  27  28
ENDBRANCH  26  27
ENDBRANCH  24  26
ENDBRANCH   1  24
TORSDOF 6
ENDMDL
MODEL 2
REMARK minimizedAffinity -6.86094046
REMARK CNNscore 0.40653196
REMARK CNNaffinity 6.74124002
REMARK  6 active torsions:
REMARK  status: ('A' for Active; 'I' for Inactive)
REMARK    1  A    between atoms: C2_2  and  C30_31 
REMARK    2  A    between atoms: C3_3  and  C4_4 
REMARK    3  A    between atoms: C4_4  and  C5_5 
REMARK    4  A    between atoms: C5_5  and  C6_6 
REMARK    5  A    between atoms: C6_6  and  C8_8 
REMARK    6  A    between atoms: C30_31  and  O2_32 
ROOT
HETATM    1  C8  UNL     1       5.008  56.443  -8.165  1.00  0.00    -0.002 C 
HETATM    2  C9  UNL     1       6.196  55.595  -8.730  1.00  0.00     0.007 C 
HETATM    3  C10 UNL     1       5.592  54.377  -9.466  1.00  0.00     0.015 C 
HETATM    4  C11 UNL     1       4.107  54.733  -9.624  1.00  0.00    -0.013 C 
HETATM    5  C12 UNL     1       4.017  55.710 -10.855  1.00  0.00     0.021 C 
HETATM    6  C13 UNL     1       3.098  53.614  -9.920  1.00  0.00    -0.070 C 
HETATM    7  C14 UNL     1       3.304  52.761 -10.947  1.00  0.00    -0.022 C 
HETATM    8  C15 UNL     1       2.209  51.973 -11.615  1.00  0.00     0.034 C 
HETATM    9  C16 UNL     1       0.834  52.582 -11.269  1.00  0.00     0.013 C 
HETATM   10  C17 UNL     1      -0.390  52.014 -12.056  1.00  0.00     0.018 C 
HETATM   11  C18 UNL     1      -0.688  50.532 -11.805  1.00  0.00     0.023 C 
HETATM   12  C19 UNL     1      -0.181  52.215 -13.572  1.00  0.00     0.023 C 
HETATM   13  C20 UNL     1      -1.641  52.821 -11.656  1.00  0.00     0.135 C 
HETATM   14  O1  UNL     1      -2.692  52.754 -12.298  1.00  0.00    -0.297 OA
HETATM   15  C21 UNL     1      -1.543  53.725 -10.444  1.00  0.00     0.080 C 
HETATM   16  C22 UNL     1      -0.793  53.006  -9.334  1.00  0.00     0.017 C 
HETATM   17  C23 UNL     1       0.671  52.661  -9.715  1.00  0.00    -0.031 C 
HETATM   18  C24 UNL     1       0.994  51.309  -9.000  1.00  0.00     0.016 C 
HETATM   19  C25 UNL     1       1.746  53.695  -9.172  1.00  0.00     0.024 C 
HETATM   20  C26 UNL     1       1.334  55.174  -9.048  1.00  0.00     0.010 C 
HETATM   21  C27 UNL     1       2.391  56.040  -8.300  1.00  0.00     0.011 C 
HETATM   22  C28 UNL     1       3.817  55.429  -8.244  1.00  0.00    -0.029 C 
HETATM   23  C29 UNL     1       3.951  54.463  -7.018  1.00  0.00     0.016 C 
ENDROOT
BRANCH   1  24
HETATM   24  C6  UNL     1       5.366  57.137  -6.813  1.00  0.00    -0.014 C 
HETATM   25  C7  UNL     1       6.729  56.685  -6.280  1.00  0.00     0.010 C 
BRANCH  24  26
HETATM   26  C5  UNL     1       4.254  56.848  -5.766  1.00  0.00     0.008 C 
BRANCH  26  27
HETATM   27  C4  UNL     1       3.343  58.024  -5.392  1.00  0.00     0.028 C 
BRANCH  27  28
HETATM   28  C3  UNL     1       1.936  57.610  -5.057  1.00  0.00    -0.022 C 
HETATM   29  C2  UNL     1       1.192  58.011  -4.005  1.00  0.00    -0.064 C 
HETATM   30  C1  UNL     1       1.669  58.950  -2.930  1.00  0.00     0.045 C 
BRANCH  29  31
HETATM   31  C30 UNL     1      -0.224  57.526  -3.834  1.00  0.00     0.197 C 
BRANCH  31  32
HETATM   32  O2  UNL     1      -0.813  57.371  -5.115  1.00  0.00    -0.397 OA
HETATM   33  H48 UNL     1      -1.733  57.092  -4.967  1.00  0.00     0.209 HD
ENDBRANCH  31  32
ENDBRANCH  29  31
ENDBRANCH  27  28
ENDBRANCH  26  27
ENDBRANCH  24  26
ENDBRANCH   1  24
TORSDOF 6
ENDMDL
MODEL 3
REMARK minimizedAffinity -6.90225077
REMARK CNNscore 0.358640343
REMARK CNNaffinity 6.45926094
REMARK  6 active torsions:
REMARK  status: ('A' for Active; 'I' for Inactive)
REMARK    1  A    between atoms: C2_2  and  C30_31 
REMARK    2  A    between atoms: C3_3  and  C4_4 
REMARK    3  A    between atoms: C4_4  and  C5_5 
REMARK    4  A    between atoms: C5_5  and  C6_6 
REMARK    5  A    between atoms: C6_6  and  C8_8 
REMARK    6  A    between atoms: C30_31  and  O2_32 
ROOT
HETATM    1  C8  UNL     1       4.191  56.537  -8.087  1.00  0.00    -0.002 C 
HETATM    2  C9  UNL     1       5.543  55.911  -8.568  1.00  0.00     0.007 C 
HETATM    3  C10 UNL     1       5.203  54.683  -9.443  1.00  0.00     0.015 C 
HETATM    4  C11 UNL     1       3.705  54.840  -9.745  1.00  0.00    -0.013 C 
HETATM    5  C12 UNL     1       3.599  55.889 -10.913  1.00  0.00     0.021 C 
HETATM    6  C13 UNL     1       2.907  53.618 -10.223  1.00  0.00    -0.070 C 
HETATM    7  C14 UNL     1       3.341  52.886 -11.272  1.00  0.00    -0.022 C 
HETATM    8  C15 UNL     1       2.448  52.010 -12.109  1.00  0.00     0.034 C 
HETATM    9  C16 UNL     1       0.970  52.391 -11.882  1.00  0.00     0.013 C 
HETATM   10  C17 UNL     1      -0.070  51.723 -12.836  1.00  0.00     0.018 C 
HETATM   11  C18 UNL     1      -0.171  50.198 -12.715  1.00  0.00     0.023 C 
HETATM   12  C19 UNL     1       0.261  52.070 -14.303  1.00  0.00     0.023 C 
HETATM   13  C20 UNL     1      -1.460  52.313 -12.529  1.00  0.00     0.135 C 
HETATM   14  O1  UNL     1      -2.419  52.152 -13.288  1.00  0.00    -0.297 OA
HETATM   15  C21 UNL     1      -1.621  53.123 -11.257  1.00  0.00     0.080 C 
HETATM   16  C22 UNL     1      -0.891  52.430 -10.119  1.00  0.00     0.017 C 
HETATM   17  C23 UNL     1       0.639  52.323 -10.353  1.00  0.00    -0.031 C 
HETATM   18  C24 UNL     1       1.083  50.977  -9.695  1.00  0.00     0.016 C 
HETATM   19  C25 UNL     1       1.489  53.450  -9.628  1.00  0.00     0.024 C 
HETATM   20  C26 UNL     1       0.854  54.843  -9.457  1.00  0.00     0.010 C 
HETATM   21  C27 UNL     1       1.690  55.785  -8.541  1.00  0.00     0.011 C 
HETATM   22  C28 UNL     1       3.177  55.377  -8.364  1.00  0.00    -0.029 C 
HETATM   23  C29 UNL     1       3.325  54.345  -7.195  1.00  0.00     0.016 C 
ENDROOT
BRANCH   1  24
HETATM   24  C6  UNL     1       4.303  57.165  -6.662  1.00  0.00    -0.014 C 
HETATM   25  C7  UNL     1       3.247  58.249  -6.428  1.00  0.00     0.010 C 
BRANCH  24  26
HETATM   26  C5  UNL     1       5.730  57.748  -6.458  1.00  0.00     0.008 C 
BRANCH  26  27
HETATM   27  C4  UNL     1       6.300  57.681  -5.035  1.00  0.00     0.028 C 
BRANCH  27  28
HETATM   28  C3  UNL     1       7.793  57.508  -4.994  1.00  0.00    -0.022 C 
HETATM   29  C2  UNL     1       8.730  58.478  -4.940  1.00  0.00    -0.064 C 
HETATM   30  C1  UNL     1       8.433  59.953  -4.942  1.00  0.00     0.045 C 
BRANCH  29  31
HETATM   31  C30 UNL     1      10.194  58.131  -4.867  1.00  0.00     0.197 C 
BRANCH  31  32
HETATM   32  O2  UNL     1      10.422  56.943  -5.609  1.00  0.00    -0.397 OA
HETATM   33  H48 UNL     1      11.365  56.731  -5.512  1.00  0.00     0.209 HD
ENDBRANCH  31  32
ENDBRANCH  29  31
ENDBRANCH  27  28
ENDBRANCH  26  27
ENDBRANCH  24  26
ENDBRANCH   1  24
TORSDOF 6
ENDMDL
MODEL 4
REMARK minimizedAffinity -9.52398396
REMARK CNNscore 0.322651714
REMARK CNNaffinity 6.93320656
REMARK  6 active torsions:
REMARK  status: ('A' for Active; 'I' for Inactive)
REMARK    1  A    between atoms: C2_2  and  C30_31 
REMARK    2  A    between atoms: C3_3  and  C4_4 
REMARK    3  A    between atoms: C4_4  and  C5_5 
REMARK    4  A    between atoms: C5_5  and  C6_6 
REMARK    5  A    between atoms: C6_6  and  C8_8 
REMARK    6  A    between atoms: C30_31  and  O2_32 
ROOT
HETATM    1  C8  UNL     1      -0.512  49.708 -18.081  1.00  0.00    -0.002 C 
HETATM    2  C9  UNL     1      -1.801  48.858 -17.821  1.00  0.00     0.007 C 
HETATM    3  C10 UNL     1      -2.646  48.885 -19.115  1.00  0.00     0.015 C 
HETATM    4  C11 UNL     1      -1.682  49.425 -20.182  1.00  0.00    -0.013 C 
HETATM    5  C12 UNL     1      -0.782  48.209 -20.617  1.00  0.00     0.021 C 
HETATM    6  C13 UNL     1      -2.255  49.993 -21.488  1.00  0.00    -0.070 C 
HETATM    7  C14 UNL     1      -3.129  49.272 -22.223  1.00  0.00    -0.022 C 
HETATM    8  C15 UNL     1      -3.372  49.493 -23.692  1.00  0.00     0.034 C 
HETATM    9  C16 UNL     1      -2.221  50.322 -24.299  1.00  0.00     0.013 C 
HETATM   10  C17 UNL     1      -2.213  50.455 -25.855  1.00  0.00     0.018 C 
HETATM   11  C18 UNL     1      -3.414  51.201 -26.446  1.00  0.00     0.023 C 
HETATM   12  C19 UNL     1      -2.146  49.056 -26.503  1.00  0.00     0.023 C 
HETATM   13  C20 UNL     1      -0.936  51.212 -26.270  1.00  0.00     0.135 C 
HETATM   14  O1  UNL     1      -0.549  51.244 -27.441  1.00  0.00    -0.297 OA
HETATM   15  C21 UNL     1      -0.146  51.917 -25.185  1.00  0.00     0.080 C 
HETATM   16  C22 UNL     1      -1.102  52.627 -24.241  1.00  0.00     0.017 C 
HETATM   17  C23 UNL     1      -2.055  51.656 -23.497  1.00  0.00    -0.031 C 
HETATM   18  C24 UNL     1      -3.402  52.428 -23.316  1.00  0.00     0.016 C 
HETATM   19  C25 UNL     1      -1.583  51.278 -22.030  1.00  0.00     0.024 C 
HETATM   20  C26 UNL     1      -0.070  51.203 -21.749  1.00  0.00     0.010 C 
HETATM   21  C27 UNL     1       0.261  51.046 -20.235  1.00  0.00     0.011 C 
HETATM   22  C28 UNL     1      -0.908  50.520 -19.360  1.00  0.00    -0.029 C 
HETATM   23  C29 UNL     1      -1.817  51.706 -18.891  1.00  0.00     0.016 C 
ENDROOT
BRANCH   1  24
HETATM   24  C6  UNL     1      -0.022  50.448 -16.796  1.00  0.00    -0.014 C 
HETATM   25  C7  UNL     1      -1.165  50.701 -15.809  1.00  0.00     0.010 C 
BRANCH  24  26
HETATM   26  C5  UNL     1       0.657  51.790 -17.192  1.00  0.00     0.008 C 
BRANCH  26  27
HETATM   27  C4  UNL     1       1.474  52.492 -16.100  1.00  0.00     0.028 C 
BRANCH  27  28
HETATM   28  C3  UNL     1       2.024  51.552 -15.064  1.00  0.00    -0.022 C 
HETATM   29  C2  UNL     1       3.321  51.316 -14.777  1.00  0.00    -0.064 C 
HETATM   30  C1  UNL     1       4.483  51.954 -15.490  1.00  0.00     0.045 C 
BRANCH  29  31
HETATM   31  C30 UNL     1       3.705  50.363 -13.675  1.00  0.00     0.197 C 
BRANCH  31  32
HETATM   32  O2  UNL     1       4.872  49.657 -14.066  1.00  0.00    -0.397 OA
HETATM   33  H48 UNL     1       5.071  49.030 -13.350  1.00  0.00     0.209 HD
ENDBRANCH  31  32
ENDBRANCH  29  31
ENDBRANCH  27  28
ENDBRANCH  26  27
ENDBRANCH  24  26
ENDBRANCH   1  24
TORSDOF 6
ENDMDL
MODEL 5
REMARK minimizedAffinity -7.58407736
REMARK CNNscore 0.275900722
REMARK CNNaffinity 6.32635498
REMARK  6 active torsions:
REMARK  status: ('A' for Active; 'I' for Inactive)
REMARK    1  A    between atoms: C2_2  and  C30_31 
REMARK    2  A    between atoms: C3_3  and  C4_4 
REMARK    3  A    between atoms: C4_4  and  C5_5 
REMARK    4  A    between atoms: C5_5  and  C6_6 
REMARK    5  A    between atoms: C6_6  and  C8_8 
REMARK    6  A    between atoms: C30_31  and  O2_32 
ROOT
HETATM    1  C8  UNL     1      -1.051  50.326 -20.547  1.00  0.00    -0.002 C 
HETATM    2  C9  UNL     1      -0.632  49.015 -19.802  1.00  0.00     0.007 C 
HETATM    3  C10 UNL     1      -1.831  48.041 -19.861  1.00  0.00     0.015 C 
HETATM    4  C11 UNL     1      -2.755  48.648 -20.926  1.00  0.00    -0.013 C 
HETATM    5  C12 UNL     1      -2.156  48.230 -22.320  1.00  0.00     0.021 C 
HETATM    6  C13 UNL     1      -4.228  48.215 -20.972  1.00  0.00    -0.070 C 
HETATM    7  C14 UNL     1      -4.554  46.905 -21.015  1.00  0.00    -0.022 C 
HETATM    8  C15 UNL     1      -5.868  46.385 -21.534  1.00  0.00     0.034 C 
HETATM    9  C16 UNL     1      -6.573  47.472 -22.372  1.00  0.00     0.013 C 
HETATM   10  C17 UNL     1      -7.844  47.021 -23.160  1.00  0.00     0.018 C 
HETATM   11  C18 UNL     1      -9.016  46.563 -22.285  1.00  0.00     0.023 C 
HETATM   12  C19 UNL     1      -7.484  45.873 -24.127  1.00  0.00     0.023 C 
HETATM   13  C20 UNL     1      -8.329  48.206 -24.017  1.00  0.00     0.135 C 
HETATM   14  O1  UNL     1      -9.159  48.061 -24.919  1.00  0.00    -0.297 OA
HETATM   15  C21 UNL     1      -7.743  49.574 -23.732  1.00  0.00     0.080 C 
HETATM   16  C22 UNL     1      -7.662  49.788 -22.229  1.00  0.00     0.017 C 
HETATM   17  C23 UNL     1      -6.722  48.777 -21.521  1.00  0.00    -0.031 C 
HETATM   18  C24 UNL     1      -7.352  48.516 -20.114  1.00  0.00     0.016 C 
HETATM   19  C25 UNL     1      -5.264  49.333 -21.236  1.00  0.00     0.024 C 
HETATM   20  C26 UNL     1      -4.662  50.342 -22.233  1.00  0.00     0.010 C 
HETATM   21  C27 UNL     1      -3.333  50.978 -21.730  1.00  0.00     0.011 C 
HETATM   22  C28 UNL     1      -2.609  50.182 -20.610  1.00  0.00    -0.029 C 
HETATM   23  C29 UNL     1      -3.168  50.586 -19.204  1.00  0.00     0.016 C 
ENDROOT
BRANCH   1  24
HETATM   24  C6  UNL     1      -0.401  51.599 -19.918  1.00  0.00    -0.014 C 
HETATM   25  C7  UNL     1       0.605  52.257 -20.867  1.00  0.00     0.010 C 
BRANCH  24  26
HETATM   26  C5  UNL     1       0.289  51.225 -18.576  1.00  0.00     0.008 C 
BRANCH  26  27
HETATM   27  C4  UNL     1       0.845  52.388 -17.745  1.00  0.00     0.028 C 
BRANCH  27  28
HETATM   28  C3  UNL     1       1.192  52.004 -16.332  1.00  0.00    -0.022 C 
HETATM   29  C2  UNL     1       2.403  52.059 -15.741  1.00  0.00    -0.064 C 
HETATM   30  C1  UNL     1       3.669  52.501 -16.427  1.00  0.00     0.045 C 
BRANCH  29  31
HETATM   31  C30 UNL     1       2.574  51.669 -14.296  1.00  0.00     0.197 C 
BRANCH  31  32
HETATM   32  O2  UNL     1       3.584  50.677 -14.205  1.00  0.00    -0.397 OA
HETATM   33  H48 UNL     1       3.643  50.426 -13.268  1.00  0.00     0.209 HD
ENDBRANCH  31  32
ENDBRANCH  29  31
ENDBRANCH  27  28
ENDBRANCH  26  27
ENDBRANCH  24  26
ENDBRANCH   1  24
TORSDOF 6
ENDMDL
MODEL 6
REMARK minimizedAffinity -8.64488316
REMARK CNNscore 0.275475681
REMARK CNNaffinity 6.6121459
REMARK  6 active torsions:
REMARK  status: ('A' for Active; 'I' for Inactive)
REMARK    1  A    between atoms: C2_2  and  C30_31 
REMARK    2  A    between atoms: C3_3  and  C4_4 
REMARK    3  A    between atoms: C4_4  and  C5_5 
REMARK    4  A    between atoms: C5_5  and  C6_6 
REMARK    5  A    between atoms: C6_6  and  C8_8 
REMARK    6  A    between atoms: C30_31  and  O2_32 
ROOT
HETATM    1  C8  UNL     1      -0.021  51.283 -21.055  1.00  0.00    -0.002 C 
HETATM    2  C9  UNL     1      -0.147  52.065 -19.705  1.00  0.00     0.007 C 
HETATM    3  C10 UNL     1      -1.451  51.600 -19.016  1.00  0.00     0.015 C 
HETATM    4  C11 UNL     1      -1.846  50.328 -19.782  1.00  0.00    -0.013 C 
HETATM    5  C12 UNL     1      -0.951  49.170 -19.204  1.00  0.00     0.021 C 
HETATM    6  C13 UNL     1      -3.290  49.814 -19.681  1.00  0.00    -0.070 C 
HETATM    7  C14 UNL     1      -3.863  49.618 -18.474  1.00  0.00    -0.022 C 
HETATM    8  C15 UNL     1      -5.032  48.699 -18.240  1.00  0.00     0.034 C 
HETATM    9  C16 UNL     1      -5.190  47.731 -19.432  1.00  0.00     0.013 C 
HETATM   10  C17 UNL     1      -6.221  46.573 -19.249  1.00  0.00     0.018 C 
HETATM   11  C18 UNL     1      -7.676  47.025 -19.084  1.00  0.00     0.023 C 
HETATM   12  C19 UNL     1      -5.839  45.716 -18.024  1.00  0.00     0.023 C 
HETATM   13  C20 UNL     1      -6.149  45.659 -20.488  1.00  0.00     0.135 C 
HETATM   14  O1  UNL     1      -6.670  44.541 -20.503  1.00  0.00    -0.297 OA
HETATM   15  C21 UNL     1      -5.397  46.168 -21.701  1.00  0.00     0.080 C 
HETATM   16  C22 UNL     1      -5.740  47.630 -21.934  1.00  0.00     0.017 C 
HETATM   17  C23 UNL     1      -5.308  48.550 -20.761  1.00  0.00    -0.031 C 
HETATM   18  C24 UNL     1      -6.382  49.682 -20.684  1.00  0.00     0.016 C 
HETATM   19  C25 UNL     1      -3.925  49.292 -20.992  1.00  0.00     0.024 C 
HETATM   20  C26 UNL     1      -2.840  48.571 -21.816  1.00  0.00     0.010 C 
HETATM   21  C27 UNL     1      -1.627  49.485 -22.158  1.00  0.00     0.011 C 
HETATM   22  C28 UNL     1      -1.475  50.738 -21.254  1.00  0.00    -0.029 C 
HETATM   23  C29 UNL     1      -2.339  51.921 -21.809  1.00  0.00     0.016 C 
ENDROOT
BRANCH   1  24
HETATM   24  C6  UNL     1       0.663  52.134 -22.171  1.00  0.00    -0.014 C 
HETATM   25  C7  UNL     1       1.053  53.528 -21.670  1.00  0.00     0.010 C 
BRANCH  24  26
HETATM   26  C5  UNL     1      -0.284  52.247 -23.398  1.00  0.00     0.008 C 
BRANCH  26  27
HETATM   27  C4  UNL     1       0.354  52.035 -24.777  1.00  0.00     0.028 C 
BRANCH  27  28
HETATM   28  C3  UNL     1      -0.181  52.961 -25.834  1.00  0.00    -0.022 C 
HETATM   29  C2  UNL     1       0.081  52.933 -27.157  1.00  0.00    -0.064 C 
HETATM   30  C1  UNL     1       1.011  51.954 -27.824  1.00  0.00     0.045 C 
BRANCH  29  31
HETATM   31  C30 UNL     1      -0.569  53.919 -28.093  1.00  0.00     0.197 C 
BRANCH  31  32
HETATM   32  O2  UNL     1      -1.963  53.658 -28.136  1.00  0.00    -0.397 OA
HETATM   33  H48 UNL     1      -2.344  54.287 -28.771  1.00  0.00     0.209 HD
ENDBRANCH  31  32
ENDBRANCH  29  31
ENDBRANCH  27  28
ENDBRANCH  26  27
ENDBRANCH  24  26
ENDBRANCH   1  24
TORSDOF 6
ENDMDL
MODEL 7
REMARK minimizedAffinity -6.76946735
REMARK CNNscore 0.27146396
REMARK CNNaffinity 5.65238047
REMARK  6 active torsions:
REMARK  status: ('A' for Active; 'I' for Inactive)
REMARK    1  A    between atoms: C2_2  and  C30_31 
REMARK    2  A    between atoms: C3_3  and  C4_4 
REMARK    3  A    between atoms: C4_4  and  C5_5 
REMARK    4  A    between atoms: C5_5  and  C6_6 
REMARK    5  A    between atoms: C6_6  and  C8_8 
REMARK    6  A    between atoms: C30_31  and  O2_32 
ROOT
HETATM    1  C8  UNL     1     -13.308  45.873 -26.899  1.00  0.00    -0.002 C 
HETATM    2  C9  UNL     1     -13.581  47.408 -27.044  1.00  0.00     0.007 C 
HETATM    3  C10 UNL     1     -12.371  48.029 -27.779  1.00  0.00     0.015 C 
HETATM    4  C11 UNL     1     -11.619  46.819 -28.354  1.00  0.00    -0.013 C 
HETATM    5  C12 UNL     1     -12.389  46.403 -29.661  1.00  0.00     0.021 C 
HETATM    6  C13 UNL     1     -10.154  46.985 -28.781  1.00  0.00    -0.070 C 
HETATM    7  C14 UNL     1      -9.795  47.978 -29.623  1.00  0.00    -0.022 C 
HETATM    8  C15 UNL     1      -8.548  47.953 -30.466  1.00  0.00     0.034 C 
HETATM    9  C16 UNL     1      -7.999  46.514 -30.555  1.00  0.00     0.013 C 
HETATM   10  C17 UNL     1      -6.833  46.281 -31.567  1.00  0.00     0.018 C 
HETATM   11  C18 UNL     1      -5.538  47.037 -31.247  1.00  0.00     0.023 C 
HETATM   12  C19 UNL     1      -7.284  46.676 -32.990  1.00  0.00     0.023 C 
HETATM   13  C20 UNL     1      -6.506  44.775 -31.592  1.00  0.00     0.135 C 
HETATM   14  O1  UNL     1      -5.802  44.276 -32.474  1.00  0.00    -0.297 OA
HETATM   15  C21 UNL     1      -7.090  43.904 -30.498  1.00  0.00     0.080 C 
HETATM   16  C22 UNL     1      -6.973  44.621 -29.163  1.00  0.00     0.017 C 
HETATM   17  C23 UNL     1      -7.776  45.948 -29.112  1.00  0.00    -0.031 C 
HETATM   18  C24 UNL     1      -6.953  46.914 -28.200  1.00  0.00     0.016 C 
HETATM   19  C25 UNL     1      -9.199  45.822 -28.422  1.00  0.00     0.024 C 
HETATM   20  C26 UNL     1      -9.962  44.491 -28.565  1.00  0.00     0.010 C 
HETATM   21  C27 UNL     1     -11.230  44.415 -27.664  1.00  0.00     0.011 C 
HETATM   22  C28 UNL     1     -11.770  45.787 -27.177  1.00  0.00    -0.029 C 
HETATM   23  C29 UNL     1     -11.038  46.227 -25.863  1.00  0.00     0.016 C 
ENDROOT
BRANCH   1  24
HETATM   24  C6  UNL     1     -13.907  45.287 -25.581  1.00  0.00    -0.014 C 
HETATM   25  C7  UNL     1     -14.717  44.013 -25.837  1.00  0.00     0.010 C 
BRANCH  24  26
HETATM   26  C5  UNL     1     -14.793  46.360 -24.887  1.00  0.00     0.008 C 
BRANCH  26  27
HETATM   27  C4  UNL     1     -16.303  46.092 -24.868  1.00  0.00     0.028 C 
BRANCH  27  28
HETATM   28  C3  UNL     1     -16.892  46.078 -23.484  1.00  0.00    -0.022 C 
HETATM   29  C2  UNL     1     -18.182  46.276 -23.140  1.00  0.00    -0.064 C 
HETATM   30  C1  UNL     1     -19.287  46.586 -24.113  1.00  0.00     0.045 C 
BRANCH  29  31
HETATM   31  C30 UNL     1     -18.616  46.191 -21.700  1.00  0.00     0.197 C 
BRANCH  31  32
HETATM   32  O2  UNL     1     -19.616  45.191 -21.581  1.00  0.00    -0.397 OA
HETATM   33  H48 UNL     1     -19.896  45.187 -20.650  1.00  0.00     0.209 HD
ENDBRANCH  31  32
ENDBRANCH  29  31
ENDBRANCH  27  28
ENDBRANCH  26  27
ENDBRANCH  24  26
ENDBRANCH   1  24
TORSDOF 6
ENDMDL
MODEL 8
REMARK minimizedAffinity -7.76801872
REMARK CNNscore 0.253124714
REMARK CNNaffinity 5.44863939
REMARK  6 active torsions:
REMARK  status: ('A' for Active; 'I' for Inactive)
REMARK    1  A    between atoms: C2_2  and  C30_31 
REMARK    2  A    between atoms: C3_3  and  C4_4 
REMARK    3  A    between atoms: C4_4  and  C5_5 
REMARK    4  A    between atoms: C5_5  and  C6_6 
REMARK    5  A    between atoms: C6_6  and  C8_8 
REMARK    6  A    between atoms: C30_31  and  O2_32 
ROOT
HETATM    1  C8  UNL     1       5.148  67.156 -35.428  1.00  0.00    -0.002 C 
HETATM    2  C9  UNL     1       5.814  68.568 -35.309  1.00  0.00     0.007 C 
HETATM    3  C10 UNL     1       5.234  69.454 -36.435  1.00  0.00     0.015 C 
HETATM    4  C11 UNL     1       4.010  68.673 -36.935  1.00  0.00    -0.013 C 
HETATM    5  C12 UNL     1       2.853  68.962 -35.907  1.00  0.00     0.021 C 
HETATM    6  C13 UNL     1       3.422  69.008 -38.313  1.00  0.00    -0.070 C 
HETATM    7  C14 UNL     1       3.103  70.282 -38.629  1.00  0.00    -0.022 C 
HETATM    8  C15 UNL     1       2.114  70.658 -39.700  1.00  0.00     0.034 C 
HETATM    9  C16 UNL     1       1.237  69.440 -40.060  1.00  0.00     0.013 C 
HETATM   10  C17 UNL     1       0.021  69.719 -40.999  1.00  0.00     0.018 C 
HETATM   11  C18 UNL     1       0.388  70.203 -42.406  1.00  0.00     0.023 C 
HETATM   12  C19 UNL     1      -0.912  70.767 -40.355  1.00  0.00     0.023 C 
HETATM   13  C20 UNL     1      -0.788  68.415 -41.145  1.00  0.00     0.135 C 
HETATM   14  O1  UNL     1      -1.925  68.404 -41.624  1.00  0.00    -0.297 OA
HETATM   15  C21 UNL     1      -0.149  67.127 -40.665  1.00  0.00     0.080 C 
HETATM   16  C22 UNL     1       1.309  67.094 -41.093  1.00  0.00     0.017 C 
HETATM   17  C23 UNL     1       2.152  68.236 -40.465  1.00  0.00    -0.031 C 
HETATM   18  C24 UNL     1       3.223  68.619 -41.537  1.00  0.00     0.016 C 
HETATM   19  C25 UNL     1       2.975  67.805 -39.178  1.00  0.00     0.024 C 
HETATM   20  C26 UNL     1       2.374  66.726 -38.257  1.00  0.00     0.010 C 
HETATM   21  C27 UNL     1       3.369  66.235 -37.165  1.00  0.00     0.011 C 
HETATM   22  C28 UNL     1       4.552  67.198 -36.876  1.00  0.00    -0.029 C 
HETATM   23  C29 UNL     1       5.733  66.926 -37.869  1.00  0.00     0.016 C 
ENDROOT
BRANCH   1  24
HETATM   24  C6  UNL     1       6.117  66.007 -35.005  1.00  0.00    -0.014 C 
HETATM   25  C7  UNL     1       7.295  65.866 -35.973  1.00  0.00     0.010 C 
BRANCH  24  26
HETATM   26  C5  UNL     1       5.331  64.669 -34.912  1.00  0.00     0.008 C 
BRANCH  26  27
HETATM   27  C4  UNL     1       5.929  63.470 -35.661  1.00  0.00     0.028 C 
BRANCH  27  28
HETATM   28  C3  UNL     1       7.117  62.862 -34.969  1.00  0.00    -0.022 C 
HETATM   29  C2  UNL     1       7.290  61.571 -34.619  1.00  0.00    -0.064 C 
HETATM   30  C1  UNL     1       6.275  60.482 -34.843  1.00  0.00     0.045 C 
BRANCH  29  31
HETATM   31  C30 UNL     1       8.566  61.115 -33.960  1.00  0.00     0.197 C 
BRANCH  31  32
HETATM   32  O2  UNL     1       8.463  61.336 -32.562  1.00  0.00    -0.397 OA
HETATM   33  H48 UNL     1       9.312  61.065 -32.174  1.00  0.00     0.209 HD
ENDBRANCH  31  32
ENDBRANCH  29  31
ENDBRANCH  27  28
ENDBRANCH  26  27
ENDBRANCH  24  26
ENDBRANCH   1  24
TORSDOF 6
ENDMDL
MODEL 9
REMARK minimizedAffinity -7.33000898
REMARK CNNscore 0.213429868
REMARK CNNaffinity 5.96218157
REMARK  6 active torsions:
REMARK  status: ('A' for Active; 'I' for Inactive)
REMARK    1  A    between atoms: C2_2  and  C30_31 
REMARK    2  A    between atoms: C3_3  and  C4_4 
REMARK    3  A    between atoms: C4_4  and  C5_5 
REMARK    4  A    between atoms: C5_5  and  C6_6 
REMARK    5  A    between atoms: C6_6  and  C8_8 
REMARK    6  A    between atoms: C30_31  and  O2_32 
ROOT
HETATM    1  C8  UNL     1      -3.376  49.670 -22.178  1.00  0.00    -0.002 C 
HETATM    2  C9  UNL     1      -2.865  49.407 -23.635  1.00  0.00     0.007 C 
HETATM    3  C10 UNL     1      -3.909  48.513 -24.341  1.00  0.00     0.015 C 
HETATM    4  C11 UNL     1      -5.142  48.582 -23.428  1.00  0.00    -0.013 C 
HETATM    5  C12 UNL     1      -5.861  49.941 -23.761  1.00  0.00     0.021 C 
HETATM    6  C13 UNL     1      -6.229  47.505 -23.559  1.00  0.00    -0.070 C 
HETATM    7  C14 UNL     1      -6.773  47.225 -24.763  1.00  0.00    -0.022 C 
HETATM    8  C15 UNL     1      -8.121  46.580 -24.944  1.00  0.00     0.034 C 
HETATM    9  C16 UNL     1      -8.936  46.683 -23.638  1.00  0.00     0.013 C 
HETATM   10  C17 UNL     1     -10.435  46.254 -23.724  1.00  0.00     0.018 C 
HETATM   11  C18 UNL     1     -10.666  44.777 -24.061  1.00  0.00     0.023 C 
HETATM   12  C19 UNL     1     -11.169  47.111 -24.778  1.00  0.00     0.023 C 
HETATM   13  C20 UNL     1     -11.100  46.537 -22.362  1.00  0.00     0.135 C 
HETATM   14  O1  UNL     1     -12.325  46.526 -22.220  1.00  0.00    -0.297 OA
HETATM   15  C21 UNL     1     -10.198  46.848 -21.184  1.00  0.00     0.080 C 
HETATM   16  C22 UNL     1      -9.005  45.905 -21.196  1.00  0.00     0.017 C 
HETATM   17  C23 UNL     1      -8.115  46.068 -22.456  1.00  0.00    -0.031 C 
HETATM   18  C24 UNL     1      -7.562  44.642 -22.779  1.00  0.00     0.016 C 
HETATM   19  C25 UNL     1      -6.835  46.979 -22.236  1.00  0.00     0.024 C 
HETATM   20  C26 UNL     1      -6.936  48.147 -21.237  1.00  0.00     0.010 C 
HETATM   21  C27 UNL     1      -5.563  48.820 -20.944  1.00  0.00     0.011 C 
HETATM   22  C28 UNL     1      -4.464  48.557 -22.009  1.00  0.00    -0.029 C 
HETATM   23  C29 UNL     1      -3.712  47.218 -21.700  1.00  0.00     0.016 C 
ENDROOT
BRANCH   1  24
HETATM   24  C6  UNL     1      -2.205  49.791 -21.153  1.00  0.00    -0.014 C 
HETATM   25  C7  UNL     1      -2.626  50.545 -19.888  1.00  0.00     0.010 C 
BRANCH  24  26
HETATM   26  C5  UNL     1      -0.993  50.498 -21.824  1.00  0.00     0.008 C 
BRANCH  26  27
HETATM   27  C4  UNL     1      -1.156  51.993 -22.128  1.00  0.00     0.028 C 
BRANCH  27  28
HETATM   28  C3  UNL     1       0.119  52.777 -21.981  1.00  0.00    -0.022 C 
HETATM   29  C2  UNL     1       0.630  53.306 -20.849  1.00  0.00    -0.064 C 
HETATM   30  C1  UNL     1      -0.027  53.226 -19.497  1.00  0.00     0.045 C 
BRANCH  29  31
HETATM   31  C30 UNL     1       1.946  54.038 -20.867  1.00  0.00     0.197 C 
BRANCH  31  32
HETATM   32  O2  UNL     1       1.953  54.942 -21.960  1.00  0.00    -0.397 OA
HETATM   33  H48 UNL     1       2.826  55.370 -21.961  1.00  0.00     0.209 HD
ENDBRANCH  31  32
ENDBRANCH  29  31
ENDBRANCH  27  28
ENDBRANCH  26  27
ENDBRANCH  24  26
ENDBRANCH   1  24
TORSDOF 6
ENDMDL
