MODEL 1
REMARK minimizedAffinity -8.12986279
REMARK CNNscore 0.547885358
REMARK CNNaffinity 7.27048063
REMARK  19 active torsions:
REMARK  status: ('A' for Active; 'I' for Inactive)
REMARK    1  A    between atoms: O1_2  and  C2_3 
REMARK    2  A    between atoms: C2_3  and  C3_4 
REMARK    3  A    between atoms: C2_3  and  C28_36 
REMARK    4  A    between atoms: C3_4  and  C4_5 
REMARK    5  A    between atoms: C4_5  and  C6_7 
REMARK    6  A    between atoms: C6_7  and  O2_8 
REMARK    7  A    between atoms: C6_7  and  C7_9 
REMARK    8  A    between atoms: C8_10  and  C9_11 
REMARK    9  A    between atoms: C10_12  and  C11_13 
REMARK   10  A    between atoms: C11_13  and  N1_14 
REMARK       I    between atoms: N1_14  and  C12_15 
REMARK   11  A    between atoms: C12_15  and  C13_17 
REMARK   12  A    between atoms: C13_17  and  C16_20 
REMARK   13  A    between atoms: C16_20  and  O4_21 
REMARK   14  A    between atoms: C16_20  and  C17_22 
REMARK   15  A    between atoms: C19_24  and  C20_25 
REMARK   16  A    between atoms: C21_26  and  C22_27 
REMARK   17  A    between atoms: C23_28  and  C24_29 
REMARK   18  A    between atoms: C26_31  and  N2_33 
REMARK   19  A    between atoms: C28_36  and  O7_37 
ROOT
HETATM    1  C9  UNL     1      -1.969   4.275  12.362  1.00  0.00    -0.003 C 
HETATM    2  C10 UNL     1      -3.198   4.575  11.910  1.00  0.00    -0.007 C 
ENDROOT
BRANCH   1   3
HETATM    3  C8  UNL     1      -1.051   5.298  12.815  1.00  0.00    -0.002 C 
HETATM    4  C7  UNL     1      -1.156   5.906  14.006  1.00  0.00     0.005 C 
BRANCH   4   5
HETATM    5  C6  UNL     1      -0.239   6.986  14.536  1.00  0.00     0.144 C 
BRANCH   5   6
HETATM    6  C4  UNL     1       0.369   7.863  13.421  1.00  0.00     0.016 C 
HETATM    7  C5  UNL     1      -0.718   8.571  12.605  1.00  0.00     0.013 C 
BRANCH   6   8
HETATM    8  C3  UNL     1       1.428   7.152  12.527  1.00  0.00     0.042 C 
BRANCH   8   9
HETATM    9  C2  UNL     1       2.807   7.830  12.308  1.00  0.00     0.159 C 
BRANCH   9  10
HETATM   10  O1  UNL     1       2.659   9.184  11.857  1.00  0.00    -0.388 OA
HETATM   11  C1  UNL     1       2.959  10.156  12.851  1.00  0.00     0.202 C 
ENDBRANCH   9  10
BRANCH   9  12
HETATM   12  C28 UNL     1       3.775   7.116  11.297  1.00  0.00     0.133 C 
HETATM   13  C29 UNL     1       5.108   7.949  11.201  1.00  0.00     0.114 C 
HETATM   14  C30 UNL     1       6.383   7.154  10.934  1.00  0.00     0.023 C 
HETATM   15  C31 UNL     1       4.879   8.868  10.028  1.00  0.00     0.227 C 
HETATM   16  O8  UNL     1       5.478   9.912   9.831  1.00  0.00    -0.273 OA
HETATM   17  N3  UNL     1       3.945   8.276   9.200  1.00  0.00    -0.332 N 
HETATM   18  C32 UNL     1       3.344   9.049   8.135  1.00  0.00     0.154 C 
HETATM   19  C33 UNL     1       3.246   7.104   9.835  1.00  0.00     0.183 C 
HETATM   20  C34 UNL     1       1.700   6.995   9.562  1.00  0.00     0.294 C 
HETATM   21  C35 UNL     1       3.259   5.835   8.904  1.00  0.00     0.169 C 
HETATM   22  O9  UNL     1       0.688   7.631   9.737  1.00  0.00    -0.262 OA
HETATM   23  O10 UNL     1       1.806   5.814   8.888  1.00  0.00    -0.311 OA
HETATM   24  C36 UNL     1       3.779   4.459   9.277  1.00  0.00     0.043 C 
BRANCH  12  25
HETATM   25  O7  UNL     1       4.034   5.805  11.799  1.00  0.00    -0.383 OA
HETATM   26  H42 UNL     1       4.839   5.431  11.403  1.00  0.00     0.210 HD
ENDBRANCH  12  25
ENDBRANCH   9  12
ENDBRANCH   8   9
ENDBRANCH   6   8
ENDBRANCH   5   6
BRANCH   5  27
HETATM   27  O2  UNL     1      -0.938   7.815  15.460  1.00  0.00    -0.391 OA
HETATM   28  H12 UNL     1      -1.451   7.220  16.040  1.00  0.00     0.210 HD
ENDBRANCH   5  27
ENDBRANCH   4   5
ENDBRANCH   1   3
BRANCH   2  29
HETATM   29  C11 UNL     1      -4.292   3.675  11.418  1.00  0.00     0.149 C 
BRANCH  29  30
HETATM   30  N1  UNL     1      -5.607   4.073  11.850  1.00  0.00    -0.357 N 
HETATM   31  C12 UNL     1      -5.795   4.465  13.162  1.00  0.00     0.228 C 
HETATM   32  O3  UNL     1      -4.837   4.575  13.930  1.00  0.00    -0.273 OA
HETATM   33  H19 UNL     1      -6.412   3.795  11.316  1.00  0.00     0.162 HD
BRANCH  31  34
HETATM   34  C13 UNL     1      -7.246   4.782  13.586  1.00  0.00     0.063 C 
HETATM   35  C14 UNL     1      -7.589   3.996  14.868  1.00  0.00     0.028 C 
HETATM   36  C15 UNL     1      -8.177   4.234  12.471  1.00  0.00     0.028 C 
BRANCH  34  37
HETATM   37  C16 UNL     1      -7.530   6.309  13.737  1.00  0.00     0.164 C 
BRANCH  37  38
HETATM   38  O4  UNL     1      -6.452   7.080  13.201  1.00  0.00    -0.390 OA
HETATM   39  H27 UNL     1      -6.737   8.008  13.197  1.00  0.00     0.210 HD
ENDBRANCH  37  38
BRANCH  37  40
HETATM   40  C17 UNL     1      -7.878   6.869  15.111  1.00  0.00    -0.054 C 
HETATM   41  C18 UNL     1      -6.798   6.813  16.170  1.00  0.00     0.046 C 
HETATM   42  C19 UNL     1      -9.027   7.518  15.415  1.00  0.00     0.005 C 
BRANCH  42  43
HETATM   43  C20 UNL     1     -10.134   7.812  14.524  1.00  0.00     0.000 C 
HETATM   44  C21 UNL     1     -11.157   6.964  14.327  1.00  0.00     0.000 C 
BRANCH  44  45
HETATM   45  C22 UNL     1     -12.285   7.290  13.471  1.00  0.00     0.001 C 
HETATM   46  C23 UNL     1     -13.562   7.201  13.889  1.00  0.00     0.009 C 
BRANCH  46  47
HETATM   47  C24 UNL     1     -14.765   7.555  13.117  1.00  0.00    -0.034 C 
HETATM   48  C25 UNL     1     -15.798   6.448  12.959  1.00  0.00     0.050 C 
HETATM   49  C26 UNL     1     -14.910   8.799  12.600  1.00  0.00     0.082 C 
HETATM   50  C27 UNL     1     -14.044  10.015  12.660  1.00  0.00     0.075 C 
BRANCH  49  51
HETATM   51  N2  UNL     1     -16.106   9.068  11.826  1.00  0.00    -0.120 N 
HETATM   52  O5  UNL     1     -17.055   9.586  12.431  1.00  0.00    -0.532 OA
HETATM   53  O6  UNL     1     -16.075   8.784  10.622  1.00  0.00    -0.532 OA
ENDBRANCH  49  51
ENDBRANCH  46  47
ENDBRANCH  44  45
ENDBRANCH  42  43
ENDBRANCH  37  40
ENDBRANCH  34  37
ENDBRANCH  31  34
ENDBRANCH  29  30
ENDBRANCH   2  29
TORSDOF 19
ENDMDL
MODEL 2
REMARK minimizedAffinity -8.3099947
REMARK CNNscore 0.46672973
REMARK CNNaffinity 6.76027727
REMARK  19 active torsions:
REMARK  status: ('A' for Active; 'I' for Inactive)
REMARK    1  A    between atoms: O1_2  and  C2_3 
REMARK    2  A    between atoms: C2_3  and  C3_4 
REMARK    3  A    between atoms: C2_3  and  C28_36 
REMARK    4  A    between atoms: C3_4  and  C4_5 
REMARK    5  A    between atoms: C4_5  and  C6_7 
REMARK    6  A    between atoms: C6_7  and  O2_8 
REMARK    7  A    between atoms: C6_7  and  C7_9 
REMARK    8  A    between atoms: C8_10  and  C9_11 
REMARK    9  A    between atoms: C10_12  and  C11_13 
REMARK   10  A    between atoms: C11_13  and  N1_14 
REMARK       I    between atoms: N1_14  and  C12_15 
REMARK   11  A    between atoms: C12_15  and  C13_17 
REMARK   12  A    between atoms: C13_17  and  C16_20 
REMARK   13  A    between atoms: C16_20  and  O4_21 
REMARK   14  A    between atoms: C16_20  and  C17_22 
REMARK   15  A    between atoms: C19_24  and  C20_25 
REMARK   16  A    between atoms: C21_26  and  C22_27 
REMARK   17  A    between atoms: C23_28  and  C24_29 
REMARK   18  A    between atoms: C26_31  and  N2_33 
REMARK   19  A    between atoms: C28_36  and  O7_37 
ROOT
HETATM    1  C9  UNL     1     -13.942   6.539  14.829  1.00  0.00    -0.003 C 
HETATM    2  C10 UNL     1     -12.708   6.245  14.386  1.00  0.00    -0.007 C 
ENDROOT
BRANCH   1   3
HETATM    3  C8  UNL     1     -15.022   5.576  14.777  1.00  0.00    -0.002 C 
HETATM    4  C7  UNL     1     -15.981   5.495  15.712  1.00  0.00     0.005 C 
BRANCH   4   5
HETATM    5  C6  UNL     1     -17.129   4.509  15.722  1.00  0.00     0.144 C 
BRANCH   5   6
HETATM    6  C4  UNL     1     -16.819   3.212  14.947  1.00  0.00     0.016 C 
HETATM    7  C5  UNL     1     -17.295   3.296  13.493  1.00  0.00     0.013 C 
BRANCH   6   8
HETATM    8  C3  UNL     1     -17.268   1.898  15.654  1.00  0.00     0.042 C 
BRANCH   8   9
HETATM    9  C2  UNL     1     -16.209   0.802  15.950  1.00  0.00     0.159 C 
BRANCH   9  10
HETATM   10  O1  UNL     1     -14.875   1.318  15.839  1.00  0.00    -0.388 OA
HETATM   11  C1  UNL     1     -14.610   1.964  14.599  1.00  0.00     0.202 C 
ENDBRANCH   9  10
BRANCH   9  12
HETATM   12  C28 UNL     1     -16.277  -0.484  15.050  1.00  0.00     0.133 C 
HETATM   13  C29 UNL     1     -17.394  -0.277  13.959  1.00  0.00     0.114 C 
HETATM   14  C30 UNL     1     -17.157  -0.958  12.614  1.00  0.00     0.023 C 
HETATM   15  C31 UNL     1     -18.625  -0.886  14.578  1.00  0.00     0.227 C 
HETATM   16  O8  UNL     1     -19.772  -0.625  14.255  1.00  0.00    -0.273 OA
HETATM   17  N3  UNL     1     -18.216  -1.830  15.500  1.00  0.00    -0.332 N 
HETATM   18  C32 UNL     1     -19.176  -2.386  16.428  1.00  0.00     0.154 C 
HETATM   19  C33 UNL     1     -16.746  -1.754  15.815  1.00  0.00     0.183 C 
HETATM   20  C34 UNL     1     -16.355  -1.945  17.327  1.00  0.00     0.294 C 
HETATM   21  C35 UNL     1     -16.045  -3.158  15.702  1.00  0.00     0.169 C 
HETATM   22  O9  UNL     1     -16.563  -1.435  18.403  1.00  0.00    -0.262 OA
HETATM   23  O10 UNL     1     -15.647  -3.087  17.098  1.00  0.00    -0.311 OA
HETATM   24  C36 UNL     1     -14.833  -3.486  14.849  1.00  0.00     0.043 C 
BRANCH  12  25
HETATM   25  O7  UNL     1     -14.998  -0.651  14.438  1.00  0.00    -0.383 OA
HETATM   26  H42 UNL     1     -15.056  -1.225  13.656  1.00  0.00     0.210 HD
ENDBRANCH  12  25
ENDBRANCH   9  12
ENDBRANCH   8   9
ENDBRANCH   6   8
ENDBRANCH   5   6
BRANCH   5  27
HETATM   27  O2  UNL     1     -17.485   4.185  17.063  1.00  0.00    -0.391 OA
HETATM   28  H12 UNL     1     -17.499   5.024  17.562  1.00  0.00     0.210 HD
ENDBRANCH   5  27
ENDBRANCH   4   5
ENDBRANCH   1   3
BRANCH   2  29
HETATM   29  C11 UNL     1     -11.464   7.081  14.367  1.00  0.00     0.149 C 
BRANCH  29  30
HETATM   30  N1  UNL     1     -10.248   6.311  14.417  1.00  0.00    -0.357 N 
HETATM   31  C12 UNL     1      -9.040   6.968  14.553  1.00  0.00     0.228 C 
HETATM   32  O3  UNL     1      -9.002   8.186  14.735  1.00  0.00    -0.273 OA
HETATM   33  H19 UNL     1     -10.242   5.368  14.068  1.00  0.00     0.162 HD
BRANCH  31  34
HETATM   34  C13 UNL     1      -7.769   6.091  14.498  1.00  0.00     0.063 C 
HETATM   35  C14 UNL     1      -7.864   4.982  15.567  1.00  0.00     0.028 C 
HETATM   36  C15 UNL     1      -6.574   6.994  14.906  1.00  0.00     0.028 C 
BRANCH  34  37
HETATM   37  C16 UNL     1      -7.471   5.518  13.078  1.00  0.00     0.164 C 
BRANCH  37  38
HETATM   38  O4  UNL     1      -8.645   5.546  12.264  1.00  0.00    -0.390 OA
HETATM   39  H27 UNL     1      -8.375   5.309  11.362  1.00  0.00     0.210 HD
ENDBRANCH  37  38
BRANCH  37  40
HETATM   40  C17 UNL     1      -6.838   4.137  12.950  1.00  0.00    -0.054 C 
HETATM   41  C18 UNL     1      -7.775   2.970  12.724  1.00  0.00     0.046 C 
HETATM   42  C19 UNL     1      -5.506   3.896  12.901  1.00  0.00     0.005 C 
BRANCH  42  43
HETATM   43  C20 UNL     1      -4.434   4.872  12.954  1.00  0.00     0.000 C 
HETATM   44  C21 UNL     1      -3.170   4.588  12.597  1.00  0.00     0.000 C 
BRANCH  44  45
HETATM   45  C22 UNL     1      -2.115   5.587  12.606  1.00  0.00     0.001 C 
HETATM   46  C23 UNL     1      -2.335   6.872  12.943  1.00  0.00     0.009 C 
BRANCH  46  47
HETATM   47  C24 UNL     1      -1.328   7.942  13.030  1.00  0.00    -0.034 C 
HETATM   48  C25 UNL     1      -1.275   8.897  11.846  1.00  0.00     0.050 C 
HETATM   49  C26 UNL     1      -0.521   8.042  14.114  1.00  0.00     0.082 C 
HETATM   50  C27 UNL     1      -0.430   7.238  15.371  1.00  0.00     0.075 C 
BRANCH  49  51
HETATM   51  N2  UNL     1       0.468   9.102  14.119  1.00  0.00    -0.120 N 
HETATM   52  O5  UNL     1       1.624   8.784  13.810  1.00  0.00    -0.532 OA
HETATM   53  O6  UNL     1       0.074  10.240  14.405  1.00  0.00    -0.532 OA
ENDBRANCH  49  51
ENDBRANCH  46  47
ENDBRANCH  44  45
ENDBRANCH  42  43
ENDBRANCH  37  40
ENDBRANCH  34  37
ENDBRANCH  31  34
ENDBRANCH  29  30
ENDBRANCH   2  29
TORSDOF 19
ENDMDL
MODEL 3
REMARK minimizedAffinity -8.32284355
REMARK CNNscore 0.393588901
REMARK CNNaffinity 6.90424585
REMARK  19 active torsions:
REMARK  status: ('A' for Active; 'I' for Inactive)
REMARK    1  A    between atoms: O1_2  and  C2_3 
REMARK    2  A    between atoms: C2_3  and  C3_4 
REMARK    3  A    between atoms: C2_3  and  C28_36 
REMARK    4  A    between atoms: C3_4  and  C4_5 
REMARK    5  A    between atoms: C4_5  and  C6_7 
REMARK    6  A    between atoms: C6_7  and  O2_8 
REMARK    7  A    between atoms: C6_7  and  C7_9 
REMARK    8  A    between atoms: C8_10  and  C9_11 
REMARK    9  A    between atoms: C10_12  and  C11_13 
REMARK   10  A    between atoms: C11_13  and  N1_14 
REMARK       I    between atoms: N1_14  and  C12_15 
REMARK   11  A    between atoms: C12_15  and  C13_17 
REMARK   12  A    between atoms: C13_17  and  C16_20 
REMARK   13  A    between atoms: C16_20  and  O4_21 
REMARK   14  A    between atoms: C16_20  and  C17_22 
REMARK   15  A    between atoms: C19_24  and  C20_25 
REMARK   16  A    between atoms: C21_26  and  C22_27 
REMARK   17  A    between atoms: C23_28  and  C24_29 
REMARK   18  A    between atoms: C26_31  and  N2_33 
REMARK   19  A    between atoms: C28_36  and  O7_37 
ROOT
HETATM    1  C9  UNL     1     -13.996   5.927  14.860  1.00  0.00    -0.003 C 
HETATM    2  C10 UNL     1     -12.853   6.255  14.236  1.00  0.00    -0.007 C 
ENDROOT
BRANCH   1   3
HETATM    3  C8  UNL     1     -14.953   5.014  14.272  1.00  0.00    -0.002 C 
HETATM    4  C7  UNL     1     -15.346   3.877  14.866  1.00  0.00     0.005 C 
BRANCH   4   5
HETATM    5  C6  UNL     1     -16.332   2.877  14.303  1.00  0.00     0.144 C 
BRANCH   5   6
HETATM    6  C4  UNL     1     -15.926   1.412  14.567  1.00  0.00     0.016 C 
HETATM    7  C5  UNL     1     -14.898   1.308  15.699  1.00  0.00     0.013 C 
BRANCH   6   8
HETATM    8  C3  UNL     1     -15.512   0.605  13.300  1.00  0.00     0.042 C 
BRANCH   8   9
HETATM    9  C2  UNL     1     -16.374  -0.612  12.868  1.00  0.00     0.159 C 
BRANCH   9  10
HETATM   10  O1  UNL     1     -17.347  -0.946  13.868  1.00  0.00    -0.388 OA
HETATM   11  C1  UNL     1     -18.682  -0.618  13.502  1.00  0.00     0.202 C 
ENDBRANCH   9  10
BRANCH   9  12
HETATM   12  C28 UNL     1     -15.588  -1.932  12.538  1.00  0.00     0.133 C 
HETATM   13  C29 UNL     1     -16.352  -2.701  11.396  1.00  0.00     0.114 C 
HETATM   14  C30 UNL     1     -15.489  -3.517  10.437  1.00  0.00     0.023 C 
HETATM   15  C31 UNL     1     -17.251  -3.656  12.138  1.00  0.00     0.227 C 
HETATM   16  O8  UNL     1     -18.259  -4.167  11.680  1.00  0.00    -0.273 OA
HETATM   17  N3  UNL     1     -16.686  -3.898  13.376  1.00  0.00    -0.332 N 
HETATM   18  C32 UNL     1     -17.459  -4.572  14.395  1.00  0.00     0.154 C 
HETATM   19  C33 UNL     1     -15.565  -2.951  13.712  1.00  0.00     0.183 C 
HETATM   20  C34 UNL     1     -15.525  -2.433  15.198  1.00  0.00     0.294 C 
HETATM   21  C35 UNL     1     -14.274  -3.712  14.193  1.00  0.00     0.169 C 
HETATM   22  O9  UNL     1     -16.214  -1.818  15.976  1.00  0.00    -0.262 OA
HETATM   23  O10 UNL     1     -14.324  -3.019  15.469  1.00  0.00    -0.311 OA
HETATM   24  C36 UNL     1     -12.884  -3.575  13.599  1.00  0.00     0.043 C 
BRANCH  12  25
HETATM   25  O7  UNL     1     -14.279  -1.560  12.107  1.00  0.00    -0.383 OA
HETATM   26  H42 UNL     1     -13.856  -2.279  11.609  1.00  0.00     0.210 HD
ENDBRANCH  12  25
ENDBRANCH   9  12
ENDBRANCH   8   9
ENDBRANCH   6   8
ENDBRANCH   5   6
BRANCH   5  27
HETATM   27  O2  UNL     1     -17.630   3.111  14.842  1.00  0.00    -0.391 OA
HETATM   28  H12 UNL     1     -17.777   4.076  14.816  1.00  0.00     0.210 HD
ENDBRANCH   5  27
ENDBRANCH   4   5
ENDBRANCH   1   3
BRANCH   2  29
HETATM   29  C11 UNL     1     -11.737   7.154  14.675  1.00  0.00     0.149 C 
BRANCH  29  30
HETATM   30  N1  UNL     1     -10.448   6.512  14.692  1.00  0.00    -0.357 N 
HETATM   31  C12 UNL     1      -9.307   7.292  14.720  1.00  0.00     0.228 C 
HETATM   32  O3  UNL     1      -9.384   8.517  14.834  1.00  0.00    -0.273 OA
HETATM   33  H19 UNL     1     -10.364   5.556  14.393  1.00  0.00     0.162 HD
BRANCH  31  34
HETATM   34  C13 UNL     1      -7.959   6.543  14.635  1.00  0.00     0.063 C 
HETATM   35  C14 UNL     1      -7.879   5.499  15.767  1.00  0.00     0.028 C 
HETATM   36  C15 UNL     1      -6.841   7.583  14.916  1.00  0.00     0.028 C 
BRANCH  34  37
HETATM   37  C16 UNL     1      -7.684   5.915  13.233  1.00  0.00     0.164 C 
BRANCH  37  38
HETATM   38  O4  UNL     1      -8.881   5.875  12.453  1.00  0.00    -0.390 OA
HETATM   39  H27 UNL     1      -8.630   5.605  11.555  1.00  0.00     0.210 HD
ENDBRANCH  37  38
BRANCH  37  40
HETATM   40  C17 UNL     1      -7.015   4.548  13.147  1.00  0.00    -0.054 C 
HETATM   41  C18 UNL     1      -7.925   3.344  13.033  1.00  0.00     0.046 C 
HETATM   42  C19 UNL     1      -5.681   4.343  13.043  1.00  0.00     0.005 C 
BRANCH  42  43
HETATM   43  C20 UNL     1      -4.638   5.350  12.989  1.00  0.00     0.000 C 
HETATM   44  C21 UNL     1      -3.329   5.049  13.024  1.00  0.00     0.000 C 
BRANCH  44  45
HETATM   45  C22 UNL     1      -2.293   6.062  12.918  1.00  0.00     0.001 C 
HETATM   46  C23 UNL     1      -0.983   5.775  13.032  1.00  0.00     0.009 C 
BRANCH  46  47
HETATM   47  C24 UNL     1       0.138   6.719  12.892  1.00  0.00    -0.034 C 
HETATM   48  C25 UNL     1       0.065   7.967  13.760  1.00  0.00     0.050 C 
HETATM   49  C26 UNL     1       1.156   6.456  12.037  1.00  0.00     0.082 C 
HETATM   50  C27 UNL     1       1.428   5.300  11.130  1.00  0.00     0.075 C 
BRANCH  49  51
HETATM   51  N2  UNL     1       2.213   7.444  11.928  1.00  0.00    -0.120 N 
HETATM   52  O5  UNL     1       2.058   8.331  11.078  1.00  0.00    -0.532 OA
HETATM   53  O6  UNL     1       3.168   7.337  12.707  1.00  0.00    -0.532 OA
ENDBRANCH  49  51
ENDBRANCH  46  47
ENDBRANCH  44  45
ENDBRANCH  42  43
ENDBRANCH  37  40
ENDBRANCH  34  37
ENDBRANCH  31  34
ENDBRANCH  29  30
ENDBRANCH   2  29
TORSDOF 19
ENDMDL
MODEL 4
REMARK minimizedAffinity -7.5136261
REMARK CNNscore 0.289938241
REMARK CNNaffinity 6.31512594
REMARK  19 active torsions:
REMARK  status: ('A' for Active; 'I' for Inactive)
REMARK    1  A    between atoms: O1_2  and  C2_3 
REMARK    2  A    between atoms: C2_3  and  C3_4 
REMARK    3  A    between atoms: C2_3  and  C28_36 
REMARK    4  A    between atoms: C3_4  and  C4_5 
REMARK    5  A    between atoms: C4_5  and  C6_7 
REMARK    6  A    between atoms: C6_7  and  O2_8 
REMARK    7  A    between atoms: C6_7  and  C7_9 
REMARK    8  A    between atoms: C8_10  and  C9_11 
REMARK    9  A    between atoms: C10_12  and  C11_13 
REMARK   10  A    between atoms: C11_13  and  N1_14 
REMARK       I    between atoms: N1_14  and  C12_15 
REMARK   11  A    between atoms: C12_15  and  C13_17 
REMARK   12  A    between atoms: C13_17  and  C16_20 
REMARK   13  A    between atoms: C16_20  and  O4_21 
REMARK   14  A    between atoms: C16_20  and  C17_22 
REMARK   15  A    between atoms: C19_24  and  C20_25 
REMARK   16  A    between atoms: C21_26  and  C22_27 
REMARK   17  A    between atoms: C23_28  and  C24_29 
REMARK   18  A    between atoms: C26_31  and  N2_33 
REMARK   19  A    between atoms: C28_36  and  O7_37 
ROOT
HETATM    1  C9  UNL     1      -4.605   8.920  13.980  1.00  0.00    -0.003 C 
HETATM    2  C10 UNL     1      -3.549   8.386  13.345  1.00  0.00    -0.007 C 
ENDROOT
BRANCH   1   3
HETATM    3  C8  UNL     1      -5.817   8.163  14.216  1.00  0.00    -0.002 C 
HETATM    4  C7  UNL     1      -6.816   8.601  14.997  1.00  0.00     0.005 C 
BRANCH   4   5
HETATM    5  C6  UNL     1      -8.102   7.859  15.292  1.00  0.00     0.144 C 
BRANCH   5   6
HETATM    6  C4  UNL     1      -9.293   8.799  15.568  1.00  0.00     0.016 C 
HETATM    7  C5  UNL     1      -9.846   8.608  16.985  1.00  0.00     0.013 C 
BRANCH   6   8
HETATM    8  C3  UNL     1     -10.408   8.787  14.479  1.00  0.00     0.042 C 
BRANCH   8   9
HETATM    9  C2  UNL     1     -11.606   7.814  14.638  1.00  0.00     0.159 C 
BRANCH   9  10
HETATM   10  O1  UNL     1     -11.863   7.096  13.422  1.00  0.00    -0.388 OA
HETATM   11  C1  UNL     1     -10.711   6.914  12.608  1.00  0.00     0.202 C 
ENDBRANCH   9  10
BRANCH   9  12
HETATM   12  C28 UNL     1     -12.967   8.461  15.081  1.00  0.00     0.133 C 
HETATM   13  C29 UNL     1     -13.915   7.323  15.617  1.00  0.00     0.114 C 
HETATM   14  C30 UNL     1     -14.887   7.721  16.725  1.00  0.00     0.023 C 
HETATM   15  C31 UNL     1     -14.725   6.925  14.410  1.00  0.00     0.227 C 
HETATM   16  O8  UNL     1     -15.300   5.858  14.276  1.00  0.00    -0.273 OA
HETATM   17  N3  UNL     1     -14.756   8.001  13.544  1.00  0.00    -0.332 N 
HETATM   18  C32 UNL     1     -15.243   7.818  12.194  1.00  0.00     0.154 C 
HETATM   19  C33 UNL     1     -13.772   9.081  13.905  1.00  0.00     0.183 C 
HETATM   20  C34 UNL     1     -13.009   9.747  12.699  1.00  0.00     0.294 C 
HETATM   21  C35 UNL     1     -14.447  10.502  13.952  1.00  0.00     0.169 C 
HETATM   22  O9  UNL     1     -12.267   9.438  11.797  1.00  0.00    -0.262 OA
HETATM   23  O10 UNL     1     -13.547  10.980  12.916  1.00  0.00    -0.311 OA
HETATM   24  C36 UNL     1     -14.421  11.464  15.126  1.00  0.00     0.043 C 
BRANCH  12  25
HETATM   25  O7  UNL     1     -12.681   9.407  16.111  1.00  0.00    -0.383 OA
HETATM   26  H42 UNL     1     -13.477   9.612  16.630  1.00  0.00     0.210 HD
ENDBRANCH  12  25
ENDBRANCH   9  12
ENDBRANCH   8   9
ENDBRANCH   6   8
ENDBRANCH   5   6
BRANCH   5  27
HETATM   27  O2  UNL     1      -8.426   6.989  14.211  1.00  0.00    -0.391 OA
HETATM   28  H12 UNL     1      -7.599   6.540  13.952  1.00  0.00     0.210 HD
ENDBRANCH   5  27
ENDBRANCH   4   5
ENDBRANCH   1   3
BRANCH   2  29
HETATM   29  C11 UNL     1      -2.213   8.985  13.020  1.00  0.00     0.149 C 
BRANCH  29  30
HETATM   30  N1  UNL     1      -1.366   8.121  12.240  1.00  0.00    -0.357 N 
HETATM   31  C12 UNL     1      -0.003   8.352  12.220  1.00  0.00     0.228 C 
HETATM   32  O3  UNL     1       0.499   9.218  12.939  1.00  0.00    -0.273 OA
HETATM   33  H19 UNL     1      -1.765   7.564  11.504  1.00  0.00     0.162 HD
BRANCH  31  34
HETATM   34  C13 UNL     1       0.835   7.453  11.284  1.00  0.00     0.063 C 
HETATM   35  C14 UNL     1      -0.024   6.261  10.813  1.00  0.00     0.028 C 
HETATM   36  C15 UNL     1       1.987   6.856  12.137  1.00  0.00     0.028 C 
BRANCH  34  37
HETATM   37  C16 UNL     1       1.476   8.226  10.091  1.00  0.00     0.164 C 
BRANCH  37  38
HETATM   38  O4  UNL     1       0.467   8.822   9.273  1.00  0.00    -0.390 OA
HETATM   39  H27 UNL     1       0.918   9.396   8.633  1.00  0.00     0.210 HD
ENDBRANCH  37  38
BRANCH  37  40
HETATM   40  C17 UNL     1       2.462   7.505   9.179  1.00  0.00    -0.054 C 
HETATM   41  C18 UNL     1       1.900   6.873   7.922  1.00  0.00     0.046 C 
HETATM   42  C19 UNL     1       3.806   7.492   9.344  1.00  0.00     0.005 C 
BRANCH  42  43
HETATM   43  C20 UNL     1       4.568   8.146  10.390  1.00  0.00     0.000 C 
HETATM   44  C21 UNL     1       5.486   7.506  11.135  1.00  0.00     0.000 C 
BRANCH  44  45
HETATM   45  C22 UNL     1       6.280   8.183  12.145  1.00  0.00     0.001 C 
HETATM   46  C23 UNL     1       6.479   7.672  13.375  1.00  0.00     0.009 C 
BRANCH  46  47
HETATM   47  C24 UNL     1       7.303   8.256  14.446  1.00  0.00    -0.034 C 
HETATM   48  C25 UNL     1       8.730   7.735  14.539  1.00  0.00     0.050 C 
HETATM   49  C26 UNL     1       6.791   9.199  15.272  1.00  0.00     0.082 C 
HETATM   50  C27 UNL     1       5.450   9.854  15.333  1.00  0.00     0.075 C 
BRANCH  49  51
HETATM   51  N2  UNL     1       7.651   9.709  16.323  1.00  0.00    -0.120 N 
HETATM   52  O5  UNL     1       8.645  10.354  15.964  1.00  0.00    -0.532 OA
HETATM   53  O6  UNL     1       7.309   9.482  17.491  1.00  0.00    -0.532 OA
ENDBRANCH  49  51
ENDBRANCH  46  47
ENDBRANCH  44  45
ENDBRANCH  42  43
ENDBRANCH  37  40
ENDBRANCH  34  37
ENDBRANCH  31  34
ENDBRANCH  29  30
ENDBRANCH   2  29
TORSDOF 19
ENDMDL
MODEL 5
REMARK minimizedAffinity -8.45887756
REMARK CNNscore 0.269568682
REMARK CNNaffinity 7.02689409
REMARK  19 active torsions:
REMARK  status: ('A' for Active; 'I' for Inactive)
REMARK    1  A    between atoms: O1_2  and  C2_3 
REMARK    2  A    between atoms: C2_3  and  C3_4 
REMARK    3  A    between atoms: C2_3  and  C28_36 
REMARK    4  A    between atoms: C3_4  and  C4_5 
REMARK    5  A    between atoms: C4_5  and  C6_7 
REMARK    6  A    between atoms: C6_7  and  O2_8 
REMARK    7  A    between atoms: C6_7  and  C7_9 
REMARK    8  A    between atoms: C8_10  and  C9_11 
REMARK    9  A    between atoms: C10_12  and  C11_13 
REMARK   10  A    between atoms: C11_13  and  N1_14 
REMARK       I    between atoms: N1_14  and  C12_15 
REMARK   11  A    between atoms: C12_15  and  C13_17 
REMARK   12  A    between atoms: C13_17  and  C16_20 
REMARK   13  A    between atoms: C16_20  and  O4_21 
REMARK   14  A    between atoms: C16_20  and  C17_22 
REMARK   15  A    between atoms: C19_24  and  C20_25 
REMARK   16  A    between atoms: C21_26  and  C22_27 
REMARK   17  A    between atoms: C23_28  and  C24_29 
REMARK   18  A    between atoms: C26_31  and  N2_33 
REMARK   19  A    between atoms: C28_36  and  O7_37 
ROOT
HETATM    1  C9  UNL     1      -5.954   2.755  11.828  1.00  0.00    -0.003 C 
HETATM    2  C10 UNL     1      -6.458   3.774  12.543  1.00  0.00    -0.007 C 
ENDROOT
BRANCH   1   3
HETATM    3  C8  UNL     1      -4.581   2.749  11.367  1.00  0.00    -0.002 C 
HETATM    4  C7  UNL     1      -3.863   3.867  11.182  1.00  0.00     0.005 C 
BRANCH   4   5
HETATM    5  C6  UNL     1      -2.431   3.931  10.695  1.00  0.00     0.144 C 
BRANCH   5   6
HETATM    6  C4  UNL     1      -1.402   3.945  11.844  1.00  0.00     0.016 C 
HETATM    7  C5  UNL     1      -1.791   4.945  12.939  1.00  0.00     0.013 C 
BRANCH   6   8
HETATM    8  C3  UNL     1       0.084   4.088  11.397  1.00  0.00     0.042 C 
BRANCH   8   9
HETATM    9  C2  UNL     1       0.950   5.220  12.011  1.00  0.00     0.159 C 
BRANCH   9  10
HETATM   10  O1  UNL     1       0.158   6.111  12.810  1.00  0.00    -0.388 OA
HETATM   11  C1  UNL     1       0.576   6.192  14.167  1.00  0.00     0.202 C 
ENDBRANCH   9  10
BRANCH   9  12
HETATM   12  C28 UNL     1       1.747   6.110  10.991  1.00  0.00     0.133 C 
HETATM   13  C29 UNL     1       3.236   6.236  11.489  1.00  0.00     0.114 C 
HETATM   14  C30 UNL     1       4.302   6.364  10.404  1.00  0.00     0.023 C 
HETATM   15  C31 UNL     1       3.243   7.506  12.299  1.00  0.00     0.227 C 
HETATM   16  O8  UNL     1       4.067   7.786  13.154  1.00  0.00    -0.273 OA
HETATM   17  N3  UNL     1       2.213   8.307  11.844  1.00  0.00    -0.332 N 
HETATM   18  C32 UNL     1       1.822   9.471  12.608  1.00  0.00     0.154 C 
HETATM   19  C33 UNL     1       1.256   7.583  10.936  1.00  0.00     0.183 C 
HETATM   20  C34 UNL     1      -0.270   7.908  11.146  1.00  0.00     0.294 C 
HETATM   21  C35 UNL     1       0.996   8.376   9.601  1.00  0.00     0.169 C 
HETATM   22  O9  UNL     1      -1.114   7.843  12.008  1.00  0.00    -0.262 OA
HETATM   23  O10 UNL     1      -0.423   8.450   9.905  1.00  0.00    -0.311 OA
HETATM   24  C36 UNL     1       1.183   7.839   8.193  1.00  0.00     0.043 C 
BRANCH  12  25
HETATM   25  O7  UNL     1       1.693   5.463   9.719  1.00  0.00    -0.383 OA
HETATM   26  H42 UNL     1       2.399   5.784   9.133  1.00  0.00     0.210 HD
ENDBRANCH  12  25
ENDBRANCH   9  12
ENDBRANCH   8   9
ENDBRANCH   6   8
ENDBRANCH   5   6
BRANCH   5  27
HETATM   27  O2  UNL     1      -2.158   2.834   9.829  1.00  0.00    -0.391 OA
HETATM   28  H12 UNL     1      -2.922   2.752   9.227  1.00  0.00     0.210 HD
ENDBRANCH   5  27
ENDBRANCH   4   5
ENDBRANCH   1   3
BRANCH   2  29
HETATM   29  C11 UNL     1      -7.828   3.963  13.121  1.00  0.00     0.149 C 
BRANCH  29  30
HETATM   30  N1  UNL     1      -8.068   5.294  13.615  1.00  0.00    -0.357 N 
HETATM   31  C12 UNL     1      -7.961   5.539  14.971  1.00  0.00     0.228 C 
HETATM   32  O3  UNL     1      -7.564   4.662  15.740  1.00  0.00    -0.273 OA
HETATM   33  H19 UNL     1      -8.583   5.949  13.052  1.00  0.00     0.162 HD
BRANCH  31  34
HETATM   34  C13 UNL     1      -8.330   6.962  15.446  1.00  0.00     0.063 C 
HETATM   35  C14 UNL     1      -7.594   8.001  14.574  1.00  0.00     0.028 C 
HETATM   36  C15 UNL     1      -7.773   7.122  16.886  1.00  0.00     0.028 C 
BRANCH  34  37
HETATM   37  C16 UNL     1      -9.868   7.220  15.498  1.00  0.00     0.164 C 
BRANCH  37  38
HETATM   38  O4  UNL     1     -10.563   6.313  14.640  1.00  0.00    -0.390 OA
HETATM   39  H27 UNL     1     -11.512   6.425  14.812  1.00  0.00     0.210 HD
ENDBRANCH  37  38
BRANCH  37  40
HETATM   40  C17 UNL     1     -10.397   8.625  15.233  1.00  0.00    -0.054 C 
HETATM   41  C18 UNL     1     -10.745   8.969  13.800  1.00  0.00     0.046 C 
HETATM   42  C19 UNL     1     -10.692   9.536  16.190  1.00  0.00     0.005 C 
BRANCH  42  43
HETATM   43  C20 UNL     1     -10.575   9.372  17.627  1.00  0.00     0.000 C 
HETATM   44  C21 UNL     1     -11.557   9.700  18.483  1.00  0.00     0.000 C 
BRANCH  44  45
HETATM   45  C22 UNL     1     -11.447   9.484  19.915  1.00  0.00     0.001 C 
HETATM   46  C23 UNL     1     -12.334   9.986  20.795  1.00  0.00     0.009 C 
BRANCH  46  47
HETATM   47  C24 UNL     1     -12.336   9.782  22.253  1.00  0.00    -0.034 C 
HETATM   48  C25 UNL     1     -13.346   8.772  22.777  1.00  0.00     0.050 C 
HETATM   49  C26 UNL     1     -11.474  10.464  23.044  1.00  0.00     0.082 C 
HETATM   50  C27 UNL     1     -10.407  11.463  22.734  1.00  0.00     0.075 C 
BRANCH  49  51
HETATM   51  N2  UNL     1     -11.552  10.236  24.474  1.00  0.00    -0.120 N 
HETATM   52  O5  UNL     1     -12.151  11.090  25.141  1.00  0.00    -0.532 OA
HETATM   53  O6  UNL     1     -11.038   9.197  24.909  1.00  0.00    -0.532 OA
ENDBRANCH  49  51
ENDBRANCH  46  47
ENDBRANCH  44  45
ENDBRANCH  42  43
ENDBRANCH  37  40
ENDBRANCH  34  37
ENDBRANCH  31  34
ENDBRANCH  29  30
ENDBRANCH   2  29
TORSDOF 19
ENDMDL
MODEL 6
REMARK minimizedAffinity -9.15412045
REMARK CNNscore 0.268599093
REMARK CNNaffinity 7.33773756
REMARK  19 active torsions:
REMARK  status: ('A' for Active; 'I' for Inactive)
REMARK    1  A    between atoms: O1_2  and  C2_3 
REMARK    2  A    between atoms: C2_3  and  C3_4 
REMARK    3  A    between atoms: C2_3  and  C28_36 
REMARK    4  A    between atoms: C3_4  and  C4_5 
REMARK    5  A    between atoms: C4_5  and  C6_7 
REMARK    6  A    between atoms: C6_7  and  O2_8 
REMARK    7  A    between atoms: C6_7  and  C7_9 
REMARK    8  A    between atoms: C8_10  and  C9_11 
REMARK    9  A    between atoms: C10_12  and  C11_13 
REMARK   10  A    between atoms: C11_13  and  N1_14 
REMARK       I    between atoms: N1_14  and  C12_15 
REMARK   11  A    between atoms: C12_15  and  C13_17 
REMARK   12  A    between atoms: C13_17  and  C16_20 
REMARK   13  A    between atoms: C16_20  and  O4_21 
REMARK   14  A    between atoms: C16_20  and  C17_22 
REMARK   15  A    between atoms: C19_24  and  C20_25 
REMARK   16  A    between atoms: C21_26  and  C22_27 
REMARK   17  A    between atoms: C23_28  and  C24_29 
REMARK   18  A    between atoms: C26_31  and  N2_33 
REMARK   19  A    between atoms: C28_36  and  O7_37 
ROOT
HETATM    1  C9  UNL     1      -5.789   2.946  11.905  1.00  0.00    -0.003 C 
HETATM    2  C10 UNL     1      -6.334   3.539  12.979  1.00  0.00    -0.007 C 
ENDROOT
BRANCH   1   3
HETATM    3  C8  UNL     1      -4.358   2.938  11.681  1.00  0.00    -0.002 C 
HETATM    4  C7  UNL     1      -3.740   3.786  10.846  1.00  0.00     0.005 C 
BRANCH   4   5
HETATM    5  C6  UNL     1      -2.254   3.824  10.560  1.00  0.00     0.144 C 
BRANCH   5   6
HETATM    6  C4  UNL     1      -1.448   4.564  11.647  1.00  0.00     0.016 C 
HETATM    7  C5  UNL     1      -2.364   5.342  12.597  1.00  0.00     0.013 C 
BRANCH   6   8
HETATM    8  C3  UNL     1      -0.259   5.421  11.117  1.00  0.00     0.042 C 
BRANCH   8   9
HETATM    9  C2  UNL     1       1.117   5.323  11.830  1.00  0.00     0.159 C 
BRANCH   9  10
HETATM   10  O1  UNL     1       0.963   5.082  13.236  1.00  0.00    -0.388 OA
HETATM   11  C1  UNL     1       0.400   6.176  13.949  1.00  0.00     0.202 C 
ENDBRANCH   9  10
BRANCH   9  12
HETATM   12  C28 UNL     1       2.060   6.571  11.682  1.00  0.00     0.133 C 
HETATM   13  C29 UNL     1       1.171   7.855  11.483  1.00  0.00     0.114 C 
HETATM   14  C30 UNL     1       1.731   9.158  12.046  1.00  0.00     0.023 C 
HETATM   15  C31 UNL     1       1.071   8.000   9.986  1.00  0.00     0.227 C 
HETATM   16  O8  UNL     1       0.198   8.618   9.400  1.00  0.00    -0.273 OA
HETATM   17  N3  UNL     1       2.174   7.385   9.424  1.00  0.00    -0.332 N 
HETATM   18  C32 UNL     1       2.209   7.145   7.998  1.00  0.00     0.154 C 
HETATM   19  C33 UNL     1       2.941   6.535  10.401  1.00  0.00     0.183 C 
HETATM   20  C34 UNL     1       3.465   5.157   9.849  1.00  0.00     0.294 C 
HETATM   21  C35 UNL     1       4.481   6.858  10.381  1.00  0.00     0.169 C 
HETATM   22  O9  UNL     1       3.036   4.134   9.371  1.00  0.00    -0.262 OA
HETATM   23  O10 UNL     1       4.779   5.486  10.007  1.00  0.00    -0.311 OA
HETATM   24  C36 UNL     1       5.327   7.248  11.580  1.00  0.00     0.043 C 
BRANCH  12  25
HETATM   25  O7  UNL     1       2.833   6.672  12.878  1.00  0.00    -0.383 OA
HETATM   26  H42 UNL     1       3.201   7.566  12.982  1.00  0.00     0.210 HD
ENDBRANCH  12  25
ENDBRANCH   9  12
ENDBRANCH   8   9
ENDBRANCH   6   8
ENDBRANCH   5   6
BRANCH   5  27
HETATM   27  O2  UNL     1      -1.748   2.500  10.415  1.00  0.00    -0.391 OA
HETATM   28  H12 UNL     1      -2.386   2.013   9.858  1.00  0.00     0.210 HD
ENDBRANCH   5  27
ENDBRANCH   4   5
ENDBRANCH   1   3
BRANCH   2  29
HETATM   29  C11 UNL     1      -7.770   3.644  13.399  1.00  0.00     0.149 C 
BRANCH  29  30
HETATM   30  N1  UNL     1      -8.024   4.715  14.328  1.00  0.00    -0.357 N 
HETATM   31  C12 UNL     1      -7.855   6.022  13.912  1.00  0.00     0.228 C 
HETATM   32  O3  UNL     1      -7.591   6.280  12.736  1.00  0.00    -0.273 OA
HETATM   33  H19 UNL     1      -8.032   4.526  15.315  1.00  0.00     0.162 HD
BRANCH  31  34
HETATM   34  C13 UNL     1      -8.047   7.117  14.984  1.00  0.00     0.063 C 
HETATM   35  C14 UNL     1      -6.673   7.513  15.564  1.00  0.00     0.028 C 
HETATM   36  C15 UNL     1      -8.850   6.479  16.150  1.00  0.00     0.028 C 
BRANCH  34  37
HETATM   37  C16 UNL     1      -8.850   8.354  14.473  1.00  0.00     0.164 C 
BRANCH  37  38
HETATM   38  O4  UNL     1      -8.492   9.528  15.205  1.00  0.00    -0.390 OA
HETATM   39  H27 UNL     1      -8.913  10.282  14.762  1.00  0.00     0.210 HD
ENDBRANCH  37  38
BRANCH  37  40
HETATM   40  C17 UNL     1     -10.371   8.280  14.408  1.00  0.00    -0.054 C 
HETATM   41  C18 UNL     1     -10.975   7.638  13.177  1.00  0.00     0.046 C 
HETATM   42  C19 UNL     1     -11.208   8.629  15.413  1.00  0.00     0.005 C 
BRANCH  42  43
HETATM   43  C20 UNL     1     -10.846   9.130  16.725  1.00  0.00     0.000 C 
HETATM   44  C21 UNL     1     -11.677   9.866  17.482  1.00  0.00     0.000 C 
BRANCH  44  45
HETATM   45  C22 UNL     1     -11.322  10.319  18.815  1.00  0.00     0.001 C 
HETATM   46  C23 UNL     1     -11.796   9.732  19.931  1.00  0.00     0.009 C 
BRANCH  46  47
HETATM   47  C24 UNL     1     -11.458  10.084  21.320  1.00  0.00    -0.034 C 
HETATM   48  C25 UNL     1     -10.527  11.276  21.491  1.00  0.00     0.050 C 
HETATM   49  C26 UNL     1     -11.967   9.373  22.354  1.00  0.00     0.082 C 
HETATM   50  C27 UNL     1     -12.900   8.207  22.403  1.00  0.00     0.075 C 
BRANCH  49  51
HETATM   51  N2  UNL     1     -11.568   9.757  23.694  1.00  0.00    -0.120 N 
HETATM   52  O5  UNL     1     -10.763   9.012  24.269  1.00  0.00    -0.532 OA
HETATM   53  O6  UNL     1     -12.041  10.808  24.145  1.00  0.00    -0.532 OA
ENDBRANCH  49  51
ENDBRANCH  46  47
ENDBRANCH  44  45
ENDBRANCH  42  43
ENDBRANCH  37  40
ENDBRANCH  34  37
ENDBRANCH  31  34
ENDBRANCH  29  30
ENDBRANCH   2  29
TORSDOF 19
ENDMDL
MODEL 7
REMARK minimizedAffinity -8.59256649
REMARK CNNscore 0.265198678
REMARK CNNaffinity 7.15512276
REMARK  19 active torsions:
REMARK  status: ('A' for Active; 'I' for Inactive)
REMARK    1  A    between atoms: O1_2  and  C2_3 
REMARK    2  A    between atoms: C2_3  and  C3_4 
REMARK    3  A    between atoms: C2_3  and  C28_36 
REMARK    4  A    between atoms: C3_4  and  C4_5 
REMARK    5  A    between atoms: C4_5  and  C6_7 
REMARK    6  A    between atoms: C6_7  and  O2_8 
REMARK    7  A    between atoms: C6_7  and  C7_9 
REMARK    8  A    between atoms: C8_10  and  C9_11 
REMARK    9  A    between atoms: C10_12  and  C11_13 
REMARK   10  A    between atoms: C11_13  and  N1_14 
REMARK       I    between atoms: N1_14  and  C12_15 
REMARK   11  A    between atoms: C12_15  and  C13_17 
REMARK   12  A    between atoms: C13_17  and  C16_20 
REMARK   13  A    between atoms: C16_20  and  O4_21 
REMARK   14  A    between atoms: C16_20  and  C17_22 
REMARK   15  A    between atoms: C19_24  and  C20_25 
REMARK   16  A    between atoms: C21_26  and  C22_27 
REMARK   17  A    between atoms: C23_28  and  C24_29 
REMARK   18  A    between atoms: C26_31  and  N2_33 
REMARK   19  A    between atoms: C28_36  and  O7_37 
ROOT
HETATM    1  C9  UNL     1      -5.808   3.055  11.989  1.00  0.00    -0.003 C 
HETATM    2  C10 UNL     1      -6.384   3.667  13.036  1.00  0.00    -0.007 C 
ENDROOT
BRANCH   1   3
HETATM    3  C8  UNL     1      -4.375   3.082  11.781  1.00  0.00    -0.002 C 
HETATM    4  C7  UNL     1      -3.783   3.828  10.837  1.00  0.00     0.005 C 
BRANCH   4   5
HETATM    5  C6  UNL     1      -2.296   3.895  10.562  1.00  0.00     0.144 C 
BRANCH   5   6
HETATM    6  C4  UNL     1      -1.516   4.675  11.640  1.00  0.00     0.016 C 
HETATM    7  C5  UNL     1      -2.452   5.512  12.519  1.00  0.00     0.013 C 
BRANCH   6   8
HETATM    8  C3  UNL     1      -0.296   5.488  11.112  1.00  0.00     0.042 C 
BRANCH   8   9
HETATM    9  C2  UNL     1       1.071   5.350  11.835  1.00  0.00     0.159 C 
BRANCH   9  10
HETATM   10  O1  UNL     1       0.899   5.069  13.231  1.00  0.00    -0.388 OA
HETATM   11  C1  UNL     1       0.296   6.130  13.962  1.00  0.00     0.202 C 
ENDBRANCH   9  10
BRANCH   9  12
HETATM   12  C28 UNL     1       2.032   6.589  11.734  1.00  0.00     0.133 C 
HETATM   13  C29 UNL     1       1.161   7.890  11.560  1.00  0.00     0.114 C 
HETATM   14  C30 UNL     1       1.731   9.169  12.167  1.00  0.00     0.023 C 
HETATM   15  C31 UNL     1       1.084   8.079  10.067  1.00  0.00     0.227 C 
HETATM   16  O8  UNL     1       0.226   8.724   9.488  1.00  0.00    -0.273 OA
HETATM   17  N3  UNL     1       2.185   7.465   9.502  1.00  0.00    -0.332 N 
HETATM   18  C32 UNL     1       2.236   7.265   8.070  1.00  0.00     0.154 C 
HETATM   19  C33 UNL     1       2.929   6.578  10.464  1.00  0.00     0.183 C 
HETATM   20  C34 UNL     1       3.443   5.209   9.881  1.00  0.00     0.294 C 
HETATM   21  C35 UNL     1       4.473   6.881  10.473  1.00  0.00     0.169 C 
HETATM   22  O9  UNL     1       3.007   4.206   9.368  1.00  0.00    -0.262 OA
HETATM   23  O10 UNL     1       4.758   5.516  10.064  1.00  0.00    -0.311 OA
HETATM   24  C36 UNL     1       5.308   7.227  11.693  1.00  0.00     0.043 C 
BRANCH  12  25
HETATM   25  O7  UNL     1       2.790   6.647  12.943  1.00  0.00    -0.383 OA
HETATM   26  H42 UNL     1       3.168   7.532  13.077  1.00  0.00     0.210 HD
ENDBRANCH  12  25
ENDBRANCH   9  12
ENDBRANCH   8   9
ENDBRANCH   6   8
ENDBRANCH   5   6
BRANCH   5  27
HETATM   27  O2  UNL     1      -1.759   2.580  10.447  1.00  0.00    -0.391 OA
HETATM   28  H12 UNL     1      -2.380   2.068   9.895  1.00  0.00     0.210 HD
ENDBRANCH   5  27
ENDBRANCH   4   5
ENDBRANCH   1   3
BRANCH   2  29
HETATM   29  C11 UNL     1      -7.827   3.743  13.437  1.00  0.00     0.149 C 
BRANCH  29  30
HETATM   30  N1  UNL     1      -8.116   4.810  14.360  1.00  0.00    -0.357 N 
HETATM   31  C12 UNL     1      -7.729   6.098  14.044  1.00  0.00     0.228 C 
HETATM   32  O3  UNL     1      -7.235   6.355  12.944  1.00  0.00    -0.273 OA
HETATM   33  H19 UNL     1      -8.318   4.595  15.321  1.00  0.00     0.162 HD
BRANCH  31  34
HETATM   34  C13 UNL     1      -7.979   7.177  15.120  1.00  0.00     0.063 C 
HETATM   35  C14 UNL     1      -6.627   7.680  15.666  1.00  0.00     0.028 C 
HETATM   36  C15 UNL     1      -8.701   6.480  16.305  1.00  0.00     0.028 C 
BRANCH  34  37
HETATM   37  C16 UNL     1      -8.888   8.346  14.629  1.00  0.00     0.164 C 
BRANCH  37  38
HETATM   38  O4  UNL     1      -8.421   9.598  15.134  1.00  0.00    -0.390 OA
HETATM   39  H27 UNL     1      -8.933  10.295  14.694  1.00  0.00     0.210 HD
ENDBRANCH  37  38
BRANCH  37  40
HETATM   40  C17 UNL     1     -10.392   8.270  14.864  1.00  0.00    -0.054 C 
HETATM   41  C18 UNL     1     -11.171   7.283  14.020  1.00  0.00     0.046 C 
HETATM   42  C19 UNL     1     -11.057   8.923  15.847  1.00  0.00     0.005 C 
BRANCH  42  43
HETATM   43  C20 UNL     1     -10.496   9.803  16.854  1.00  0.00     0.000 C 
HETATM   44  C21 UNL     1     -10.917  11.065  17.038  1.00  0.00     0.000 C 
BRANCH  44  45
HETATM   45  C22 UNL     1     -10.382  11.920  18.083  1.00  0.00     0.001 C 
HETATM   46  C23 UNL     1     -11.034  12.148  19.240  1.00  0.00     0.009 C 
BRANCH  46  47
HETATM   47  C24 UNL     1     -10.555  12.954  20.374  1.00  0.00    -0.034 C 
HETATM   48  C25 UNL     1      -9.848  12.185  21.480  1.00  0.00     0.050 C 
HETATM   49  C26 UNL     1     -10.745  14.296  20.393  1.00  0.00     0.082 C 
HETATM   50  C27 UNL     1     -11.379  15.231  19.416  1.00  0.00     0.075 C 
BRANCH  49  51
HETATM   51  N2  UNL     1     -10.273  15.023  21.556  1.00  0.00    -0.120 N 
HETATM   52  O5  UNL     1     -10.230  16.257  21.459  1.00  0.00    -0.532 OA
HETATM   53  O6  UNL     1      -9.978  14.358  22.557  1.00  0.00    -0.532 OA
ENDBRANCH  49  51
ENDBRANCH  46  47
ENDBRANCH  44  45
ENDBRANCH  42  43
ENDBRANCH  37  40
ENDBRANCH  34  37
ENDBRANCH  31  34
ENDBRANCH  29  30
ENDBRANCH   2  29
TORSDOF 19
ENDMDL
MODEL 8
REMARK minimizedAffinity -7.53300858
REMARK CNNscore 0.230861455
REMARK CNNaffinity 5.82012415
REMARK  19 active torsions:
REMARK  status: ('A' for Active; 'I' for Inactive)
REMARK    1  A    between atoms: O1_2  and  C2_3 
REMARK    2  A    between atoms: C2_3  and  C3_4 
REMARK    3  A    between atoms: C2_3  and  C28_36 
REMARK    4  A    between atoms: C3_4  and  C4_5 
REMARK    5  A    between atoms: C4_5  and  C6_7 
REMARK    6  A    between atoms: C6_7  and  O2_8 
REMARK    7  A    between atoms: C6_7  and  C7_9 
REMARK    8  A    between atoms: C8_10  and  C9_11 
REMARK    9  A    between atoms: C10_12  and  C11_13 
REMARK   10  A    between atoms: C11_13  and  N1_14 
REMARK       I    between atoms: N1_14  and  C12_15 
REMARK   11  A    between atoms: C12_15  and  C13_17 
REMARK   12  A    between atoms: C13_17  and  C16_20 
REMARK   13  A    between atoms: C16_20  and  O4_21 
REMARK   14  A    between atoms: C16_20  and  C17_22 
REMARK   15  A    between atoms: C19_24  and  C20_25 
REMARK   16  A    between atoms: C21_26  and  C22_27 
REMARK   17  A    between atoms: C23_28  and  C24_29 
REMARK   18  A    between atoms: C26_31  and  N2_33 
REMARK   19  A    between atoms: C28_36  and  O7_37 
ROOT
HETATM    1  C9  UNL     1       0.664  11.038  17.553  1.00  0.00    -0.003 C 
HETATM    2  C10 UNL     1       1.578  10.727  16.619  1.00  0.00    -0.007 C 
ENDROOT
BRANCH   1   3
HETATM    3  C8  UNL     1       0.946  10.923  18.968  1.00  0.00    -0.002 C 
HETATM    4  C7  UNL     1       2.167  11.107  19.492  1.00  0.00     0.005 C 
BRANCH   4   5
HETATM    5  C6  UNL     1       2.531  10.992  20.956  1.00  0.00     0.144 C 
BRANCH   5   6
HETATM    6  C4  UNL     1       4.052  11.034  21.206  1.00  0.00     0.016 C 
HETATM    7  C5  UNL     1       4.425  10.364  22.533  1.00  0.00     0.013 C 
BRANCH   6   8
HETATM    8  C3  UNL     1       4.710  12.437  21.033  1.00  0.00     0.042 C 
BRANCH   8   9
HETATM    9  C2  UNL     1       5.707  12.940  22.112  1.00  0.00     0.159 C 
BRANCH   9  10
HETATM   10  O1  UNL     1       5.389  14.273  22.538  1.00  0.00    -0.388 OA
HETATM   11  C1  UNL     1       4.064  14.417  23.035  1.00  0.00     0.202 C 
ENDBRANCH   9  10
BRANCH   9  12
HETATM   12  C28 UNL     1       7.224  12.941  21.703  1.00  0.00     0.133 C 
HETATM   13  C29 UNL     1       8.098  12.932  23.012  1.00  0.00     0.114 C 
HETATM   14  C30 UNL     1       9.440  12.211  22.922  1.00  0.00     0.023 C 
HETATM   15  C31 UNL     1       8.372  14.391  23.277  1.00  0.00     0.227 C 
HETATM   16  O8  UNL     1       8.685  14.858  24.359  1.00  0.00    -0.273 OA
HETATM   17  N3  UNL     1       8.282  15.066  22.075  1.00  0.00    -0.332 N 
HETATM   18  C32 UNL     1       8.242  16.512  22.069  1.00  0.00     0.154 C 
HETATM   19  C33 UNL     1       7.669  14.241  20.975  1.00  0.00     0.183 C 
HETATM   20  C34 UNL     1       6.660  14.995  20.031  1.00  0.00     0.294 C 
HETATM   21  C35 UNL     1       8.542  14.262  19.666  1.00  0.00     0.169 C 
HETATM   22  O9  UNL     1       5.615  15.597  20.095  1.00  0.00    -0.262 OA
HETATM   23  O10 UNL     1       7.433  14.833  18.919  1.00  0.00    -0.311 OA
HETATM   24  C36 UNL     1       9.074  13.048  18.928  1.00  0.00     0.043 C 
BRANCH  12  25
HETATM   25  O7  UNL     1       7.463  11.767  20.927  1.00  0.00    -0.383 OA
HETATM   26  H42 UNL     1       8.410  11.550  20.903  1.00  0.00     0.210 HD
ENDBRANCH  12  25
ENDBRANCH   9  12
ENDBRANCH   8   9
ENDBRANCH   6   8
ENDBRANCH   5   6
BRANCH   5  27
HETATM   27  O2  UNL     1       1.900  12.029  21.702  1.00  0.00    -0.391 OA
HETATM   28  H12 UNL     1       0.978  12.085  21.385  1.00  0.00     0.210 HD
ENDBRANCH   5  27
ENDBRANCH   4   5
ENDBRANCH   1   3
BRANCH   2  29
HETATM   29  C11 UNL     1       1.492  10.792  15.124  1.00  0.00     0.149 C 
BRANCH  29  30
HETATM   30  N1  UNL     1       0.782   9.686  14.536  1.00  0.00    -0.357 N 
HETATM   31  C12 UNL     1       1.229   9.157  13.340  1.00  0.00     0.228 C 
HETATM   32  O3  UNL     1       2.280   9.552  12.831  1.00  0.00    -0.273 OA
HETATM   33  H19 UNL     1      -0.165   9.498  14.815  1.00  0.00     0.162 HD
BRANCH  31  34
HETATM   34  C13 UNL     1       0.365   8.041  12.714  1.00  0.00     0.063 C 
HETATM   35  C14 UNL     1      -0.009   8.432  11.269  1.00  0.00     0.028 C 
HETATM   36  C15 UNL     1      -0.965   7.990  13.514  1.00  0.00     0.028 C 
BRANCH  34  37
HETATM   37  C16 UNL     1       1.023   6.628  12.791  1.00  0.00     0.164 C 
BRANCH  37  38
HETATM   38  O4  UNL     1       2.318   6.705  13.390  1.00  0.00    -0.390 OA
HETATM   39  H27 UNL     1       2.622   5.795  13.535  1.00  0.00     0.210 HD
ENDBRANCH  37  38
BRANCH  37  40
HETATM   40  C17 UNL     1       1.134   5.788  11.524  1.00  0.00    -0.054 C 
HETATM   41  C18 UNL     1       2.499   5.704  10.873  1.00  0.00     0.046 C 
HETATM   42  C19 UNL     1       0.142   5.022  11.011  1.00  0.00     0.005 C 
BRANCH  42  43
HETATM   43  C20 UNL     1      -1.194   4.840  11.546  1.00  0.00     0.000 C 
HETATM   44  C21 UNL     1      -1.745   3.630  11.740  1.00  0.00     0.000 C 
BRANCH  44  45
HETATM   45  C22 UNL     1      -3.064   3.459  12.324  1.00  0.00     0.001 C 
HETATM   46  C23 UNL     1      -4.039   4.378  12.194  1.00  0.00     0.009 C 
BRANCH  46  47
HETATM   47  C24 UNL     1      -5.417   4.275  12.704  1.00  0.00    -0.034 C 
HETATM   48  C25 UNL     1      -5.853   5.380  13.656  1.00  0.00     0.050 C 
HETATM   49  C26 UNL     1      -6.217   3.251  12.323  1.00  0.00     0.082 C 
HETATM   50  C27 UNL     1      -5.996   2.100  11.396  1.00  0.00     0.075 C 
BRANCH  49  51
HETATM   51  N2  UNL     1      -7.552   3.196  12.887  1.00  0.00    -0.120 N 
HETATM   52  O5  UNL     1      -8.106   2.089  12.895  1.00  0.00    -0.532 OA
HETATM   53  O6  UNL     1      -8.018   4.250  13.338  1.00  0.00    -0.532 OA
ENDBRANCH  49  51
ENDBRANCH  46  47
ENDBRANCH  44  45
ENDBRANCH  42  43
ENDBRANCH  37  40
ENDBRANCH  34  37
ENDBRANCH  31  34
ENDBRANCH  29  30
ENDBRANCH   2  29
TORSDOF 19
ENDMDL
MODEL 9
REMARK minimizedAffinity -7.58645344
REMARK CNNscore 0.206013799
REMARK CNNaffinity 5.69034576
REMARK  19 active torsions:
REMARK  status: ('A' for Active; 'I' for Inactive)
REMARK    1  A    between atoms: O1_2  and  C2_3 
REMARK    2  A    between atoms: C2_3  and  C3_4 
REMARK    3  A    between atoms: C2_3  and  C28_36 
REMARK    4  A    between atoms: C3_4  and  C4_5 
REMARK    5  A    between atoms: C4_5  and  C6_7 
REMARK    6  A    between atoms: C6_7  and  O2_8 
REMARK    7  A    between atoms: C6_7  and  C7_9 
REMARK    8  A    between atoms: C8_10  and  C9_11 
REMARK    9  A    between atoms: C10_12  and  C11_13 
REMARK   10  A    between atoms: C11_13  and  N1_14 
REMARK       I    between atoms: N1_14  and  C12_15 
REMARK   11  A    between atoms: C12_15  and  C13_17 
REMARK   12  A    between atoms: C13_17  and  C16_20 
REMARK   13  A    between atoms: C16_20  and  O4_21 
REMARK   14  A    between atoms: C16_20  and  C17_22 
REMARK   15  A    between atoms: C19_24  and  C20_25 
REMARK   16  A    between atoms: C21_26  and  C22_27 
REMARK   17  A    between atoms: C23_28  and  C24_29 
REMARK   18  A    between atoms: C26_31  and  N2_33 
REMARK   19  A    between atoms: C28_36  and  O7_37 
ROOT
HETATM    1  C9  UNL     1       0.736  11.037  19.480  1.00  0.00    -0.003 C 
HETATM    2  C10 UNL     1      -0.227  11.972  19.491  1.00  0.00    -0.007 C 
ENDROOT
BRANCH   1   3
HETATM    3  C8  UNL     1       1.662  10.881  20.583  1.00  0.00    -0.002 C 
HETATM    4  C7  UNL     1       1.983  11.878  21.420  1.00  0.00     0.005 C 
BRANCH   4   5
HETATM    5  C6  UNL     1       2.948  11.784  22.583  1.00  0.00     0.144 C 
BRANCH   5   6
HETATM    6  C4  UNL     1       4.216  10.971  22.252  1.00  0.00     0.016 C 
HETATM    7  C5  UNL     1       4.251   9.644  23.019  1.00  0.00     0.013 C 
BRANCH   6   8
HETATM    8  C3  UNL     1       5.553  11.763  22.355  1.00  0.00     0.042 C 
BRANCH   8   9
HETATM    9  C2  UNL     1       6.035  12.591  21.133  1.00  0.00     0.159 C 
BRANCH   9  10
HETATM   10  O1  UNL     1       7.082  11.915  20.422  1.00  0.00    -0.388 OA
HETATM   11  C1  UNL     1       6.646  11.277  19.228  1.00  0.00     0.202 C 
ENDBRANCH   9  10
BRANCH   9  12
HETATM   12  C28 UNL     1       6.557  14.040  21.444  1.00  0.00     0.133 C 
HETATM   13  C29 UNL     1       6.526  14.883  20.114  1.00  0.00     0.114 C 
HETATM   14  C30 UNL     1       6.255  16.377  20.268  1.00  0.00     0.023 C 
HETATM   15  C31 UNL     1       7.912  14.718  19.546  1.00  0.00     0.227 C 
HETATM   16  O8  UNL     1       8.212  14.884  18.376  1.00  0.00    -0.273 OA
HETATM   17  N3  UNL     1       8.769  14.431  20.591  1.00  0.00    -0.332 N 
HETATM   18  C32 UNL     1      10.111  13.970  20.308  1.00  0.00     0.154 C 
HETATM   19  C33 UNL     1       8.052  14.084  21.868  1.00  0.00     0.183 C 
HETATM   20  C34 UNL     1       8.665  12.896  22.700  1.00  0.00     0.294 C 
HETATM   21  C35 UNL     1       8.597  14.908  23.093  1.00  0.00     0.169 C 
HETATM   22  O9  UNL     1       8.916  11.720  22.577  1.00  0.00    -0.262 OA
HETATM   23  O10 UNL     1       8.969  13.679  23.773  1.00  0.00    -0.311 OA
HETATM   24  C36 UNL     1       7.769  15.771  24.028  1.00  0.00     0.043 C 
BRANCH  12  25
HETATM   25  O7  UNL     1       5.690  14.611  22.424  1.00  0.00    -0.383 OA
HETATM   26  H42 UNL     1       5.765  15.580  22.436  1.00  0.00     0.210 HD
ENDBRANCH  12  25
ENDBRANCH   9  12
ENDBRANCH   8   9
ENDBRANCH   6   8
ENDBRANCH   5   6
BRANCH   5  27
HETATM   27  O2  UNL     1       3.323  13.089  23.015  1.00  0.00    -0.391 OA
HETATM   28  H12 UNL     1       2.506  13.623  23.043  1.00  0.00     0.210 HD
ENDBRANCH   5  27
ENDBRANCH   4   5
ENDBRANCH   1   3
BRANCH   2  29
HETATM   29  C11 UNL     1      -1.282  12.283  18.472  1.00  0.00     0.149 C 
BRANCH  29  30
HETATM   30  N1  UNL     1      -1.269  11.398  17.336  1.00  0.00    -0.357 N 
HETATM   31  C12 UNL     1      -2.317  10.517  17.155  1.00  0.00     0.228 C 
HETATM   32  O3  UNL     1      -3.304  10.552  17.893  1.00  0.00    -0.273 OA
HETATM   33  H19 UNL     1      -0.402  11.212  16.861  1.00  0.00     0.162 HD
BRANCH  31  34
HETATM   34  C13 UNL     1      -2.192   9.528  15.975  1.00  0.00     0.063 C 
HETATM   35  C14 UNL     1      -2.251   8.082  16.509  1.00  0.00     0.028 C 
HETATM   36  C15 UNL     1      -0.774   9.716  15.371  1.00  0.00     0.028 C 
BRANCH  34  37
HETATM   37  C16 UNL     1      -3.232   9.780  14.840  1.00  0.00     0.164 C 
BRANCH  37  38
HETATM   38  O4  UNL     1      -3.923  11.013  15.051  1.00  0.00    -0.390 OA
HETATM   39  H27 UNL     1      -4.453  11.185  14.256  1.00  0.00     0.210 HD
ENDBRANCH  37  38
BRANCH  37  40
HETATM   40  C17 UNL     1      -4.264   8.705  14.523  1.00  0.00    -0.054 C 
HETATM   41  C18 UNL     1      -5.639   8.870  15.136  1.00  0.00     0.046 C 
HETATM   42  C19 UNL     1      -4.083   7.690  13.645  1.00  0.00     0.005 C 
BRANCH  42  43
HETATM   43  C20 UNL     1      -2.904   7.423  12.841  1.00  0.00     0.000 C 
HETATM   44  C21 UNL     1      -2.064   6.405  13.093  1.00  0.00     0.000 C 
BRANCH  44  45
HETATM   45  C22 UNL     1      -0.916   6.117  12.251  1.00  0.00     0.001 C 
HETATM   46  C23 UNL     1      -0.313   7.057  11.500  1.00  0.00     0.009 C 
BRANCH  46  47
HETATM   47  C24 UNL     1       0.880   6.876  10.657  1.00  0.00    -0.034 C 
HETATM   48  C25 UNL     1       1.946   5.942  11.212  1.00  0.00     0.050 C 
HETATM   49  C26 UNL     1       0.985   7.512   9.465  1.00  0.00     0.082 C 
HETATM   50  C27 UNL     1       0.060   8.434   8.739  1.00  0.00     0.075 C 
BRANCH  49  51
HETATM   51  N2  UNL     1       2.201   7.311   8.701  1.00  0.00    -0.120 N 
HETATM   52  O5  UNL     1       2.206   6.362   7.905  1.00  0.00    -0.532 OA
HETATM   53  O6  UNL     1       3.123   8.115   8.886  1.00  0.00    -0.532 OA
ENDBRANCH  49  51
ENDBRANCH  46  47
ENDBRANCH  44  45
ENDBRANCH  42  43
ENDBRANCH  37  40
ENDBRANCH  34  37
ENDBRANCH  31  34
ENDBRANCH  29  30
ENDBRANCH   2  29
TORSDOF 19
ENDMDL
