MODEL 1
REMARK minimizedAffinity -8.90237713
REMARK  7 active torsions:
REMARK  status: ('A' for Active; 'I' for Inactive)
REMARK       I    between atoms: C1_2  and  N1_3 
REMARK    1  A    between atoms: C1_2  and  C8_12 
REMARK    2  A    between atoms: N1_3  and  C2_4 
REMARK    3  A    between atoms: C2_4  and  C3_5 
REMARK    4  A    between atoms: C14_19  and  C15_20 
REMARK    5  A    between atoms: C15_20  and  N4_21 
REMARK    6  A    between atoms: C17_23  and  C18_24 
REMARK    7  A    between atoms: C18_24  and  C19_25 
ROOT
HETATM    1  C8  UNL     1      -3.527  50.520 -24.743  1.00  0.00     0.110 C 
HETATM    2  C9  UNL     1      -2.630  49.802 -23.715  1.00  0.00     0.287 C 
HETATM    3  N3  UNL     1      -2.866  50.297 -22.331  1.00  0.00     0.095 N 
HETATM    4  C10 UNL     1      -4.332  50.305 -22.080  1.00  0.00     0.273 C 
HETATM    5  C11 UNL     1      -5.048  51.337 -22.972  1.00  0.00     0.036 C 
HETATM    6  C12 UNL     1      -4.083  51.800 -24.079  1.00  0.00     0.004 C 
HETATM    7  C13 UNL     1      -2.924  52.555 -23.391  1.00  0.00     0.043 C 
HETATM    8  C14 UNL     1      -2.379  51.709 -22.214  1.00  0.00     0.242 C 
ENDROOT
BRANCH   8   9
HETATM    9  C15 UNL     1      -0.848  51.787 -22.075  1.00  0.00     0.181 C 
BRANCH   9  10
HETATM   10  N4  UNL     1      -0.429  52.013 -20.708  1.00  0.00    -0.283 N 
HETATM   11  C16 UNL     1      -0.369  51.108 -19.692  1.00  0.00     0.134 A 
HETATM   12  C17 UNL     1       0.087  51.843 -18.620  1.00  0.00     0.041 A 
HETATM   13  N5  UNL     1       0.294  53.137 -19.023  1.00  0.00    -0.287 N 
HETATM   14  N6  UNL     1      -0.023  53.228 -20.307  1.00  0.00    -0.020 NA
ATOM     15  H5  UNL     1       0.634  53.899 -18.436  1.00  0.00     0.184 HD
BRANCH  12  16
HETATM   16  C18 UNL     1       0.351  51.424 -17.219  1.00  0.00     0.064 C 
BRANCH  16  17
HETATM   17  C19 UNL     1       1.305  52.375 -16.467  1.00  0.00    -0.009 C 
HETATM   18  C20 UNL     1       1.322  52.054 -14.957  1.00  0.00     0.005 C 
HETATM   19  C21 UNL     1       2.493  51.158 -14.569  1.00  0.00     0.000 C 
HETATM   20  C22 UNL     1       3.838  51.814 -14.883  1.00  0.00     0.000 C 
HETATM   21  C23 UNL     1       3.783  52.771 -16.074  1.00  0.00     0.000 C 
HETATM   22  C24 UNL     1       2.721  52.353 -17.082  1.00  0.00     0.005 C 
ENDBRANCH  16  17
ENDBRANCH  12  16
ENDBRANCH   9  10
ENDBRANCH   8   9
BRANCH   1  23
HETATM   23  C1  UNL     1      -2.796  50.776 -26.056  1.00  0.00     0.224 C 
HETATM   24  O1  UNL     1      -2.351  49.879 -26.764  1.00  0.00    -0.273 OA
HETATM   25  N1  UNL     1      -2.647  52.114 -26.357  1.00  0.00    -0.356 N 
HETATM   26  H1  UNL     1      -2.823  52.799 -25.635  1.00  0.00     0.162 HD
BRANCH  25  27
HETATM   27  C2  UNL     1      -1.875  52.548 -27.502  1.00  0.00     0.162 C 
BRANCH  27  28
HETATM   28  C3  UNL     1      -0.406  52.344 -27.272  1.00  0.00    -0.025 A 
HETATM   29  C4  UNL     1       0.420  51.811 -28.266  1.00  0.00     0.011 A 
HETATM   30  C5  UNL     1       1.774  51.617 -28.010  1.00  0.00     0.018 A 
HETATM   31  C6  UNL     1       2.260  51.960 -26.760  1.00  0.00     0.087 A 
HETATM   32  N2  UNL     1       1.494  52.470 -25.771  1.00  0.00    -0.375 N 
HETATM   33  C7  UNL     1       0.184  52.652 -26.051  1.00  0.00     0.096 A 
ATOM     34  H2  UNL     1       1.885  52.708 -24.860  1.00  0.00     0.164 HD
ENDBRANCH  27  28
ENDBRANCH  25  27
ENDBRANCH   1  23
TORSDOF 7
ENDMDL
MODEL 2
REMARK minimizedAffinity -8.89019394
REMARK  7 active torsions:
REMARK  status: ('A' for Active; 'I' for Inactive)
REMARK       I    between atoms: C1_2  and  N1_3 
REMARK    1  A    between atoms: C1_2  and  C8_12 
REMARK    2  A    between atoms: N1_3  and  C2_4 
REMARK    3  A    between atoms: C2_4  and  C3_5 
REMARK    4  A    between atoms: C14_19  and  C15_20 
REMARK    5  A    between atoms: C15_20  and  N4_21 
REMARK    6  A    between atoms: C17_23  and  C18_24 
REMARK    7  A    between atoms: C18_24  and  C19_25 
ROOT
HETATM    1  C8  UNL     1      -1.462  51.438 -27.402  1.00  0.00     0.110 C 
HETATM    2  C9  UNL     1      -1.452  52.956 -27.130  1.00  0.00     0.287 C 
HETATM    3  N3  UNL     1      -0.067  53.496 -27.051  1.00  0.00     0.095 N 
HETATM    4  C10 UNL     1       0.696  53.001 -28.227  1.00  0.00     0.273 C 
HETATM    5  C11 UNL     1       0.888  51.474 -28.170  1.00  0.00     0.036 C 
HETATM    6  C12 UNL     1      -0.050  50.890 -27.098  1.00  0.00     0.004 C 
HETATM    7  C13 UNL     1       0.419  51.435 -25.731  1.00  0.00     0.043 C 
HETATM    8  C14 UNL     1       0.607  52.970 -25.821  1.00  0.00     0.242 C 
ENDROOT
BRANCH   8   9
HETATM    9  C15 UNL     1       0.152  53.707 -24.548  1.00  0.00     0.181 C 
BRANCH   9  10
HETATM   10  N4  UNL     1      -0.266  52.797 -23.503  1.00  0.00    -0.283 N 
HETATM   11  C16 UNL     1       0.480  52.306 -22.474  1.00  0.00     0.134 A 
HETATM   12  C17 UNL     1      -0.397  51.494 -21.788  1.00  0.00     0.041 A 
HETATM   13  N5  UNL     1      -1.619  51.534 -22.407  1.00  0.00    -0.287 N 
HETATM   14  N6  UNL     1      -1.527  52.340 -23.456  1.00  0.00    -0.020 NA
ATOM     15  H5  UNL     1      -2.456  51.031 -22.112  1.00  0.00     0.184 HD
BRANCH  12  16
HETATM   16  C18 UNL     1      -0.177  50.666 -20.574  1.00  0.00     0.064 C 
BRANCH  16  17
HETATM   17  C19 UNL     1      -0.402  51.442 -19.259  1.00  0.00    -0.009 C 
HETATM   18  C20 UNL     1      -0.931  50.505 -18.152  1.00  0.00     0.005 C 
HETATM   19  C21 UNL     1       0.182  49.999 -17.241  1.00  0.00     0.000 C 
HETATM   20  C22 UNL     1       0.895  51.147 -16.526  1.00  0.00     0.000 C 
HETATM   21  C23 UNL     1       0.897  52.451 -17.323  1.00  0.00     0.000 C 
HETATM   22  C24 UNL     1       0.876  52.192 -18.824  1.00  0.00     0.005 C 
ENDBRANCH  16  17
ENDBRANCH  12  16
ENDBRANCH   9  10
ENDBRANCH   8   9
BRANCH   1  23
HETATM   23  C1  UNL     1      -2.575  50.731 -26.637  1.00  0.00     0.224 C 
HETATM   24  O1  UNL     1      -3.491  51.325 -26.080  1.00  0.00    -0.273 OA
HETATM   25  N1  UNL     1      -2.437  49.359 -26.599  1.00  0.00    -0.356 N 
HETATM   26  H1  UNL     1      -1.554  48.950 -26.870  1.00  0.00     0.162 HD
BRANCH  25  27
HETATM   27  C2  UNL     1      -3.333  48.532 -25.818  1.00  0.00     0.162 C 
BRANCH  27  28
HETATM   28  C3  UNL     1      -4.594  48.237 -26.575  1.00  0.00    -0.025 A 
HETATM   29  C4  UNL     1      -4.600  48.131 -27.969  1.00  0.00     0.011 A 
HETATM   30  C5  UNL     1      -5.792  47.876 -28.639  1.00  0.00     0.018 A 
HETATM   31  C6  UNL     1      -6.948  47.739 -27.890  1.00  0.00     0.087 A 
HETATM   32  N2  UNL     1      -6.986  47.840 -26.544  1.00  0.00    -0.375 N 
HETATM   33  C7  UNL     1      -5.812  48.083 -25.920  1.00  0.00     0.096 A 
ATOM     34  H2  UNL     1      -7.858  47.737 -26.024  1.00  0.00     0.164 HD
ENDBRANCH  27  28
ENDBRANCH  25  27
ENDBRANCH   1  23
TORSDOF 7
ENDMDL
MODEL 3
REMARK minimizedAffinity -8.87364388
REMARK  7 active torsions:
REMARK  status: ('A' for Active; 'I' for Inactive)
REMARK       I    between atoms: C1_2  and  N1_3 
REMARK    1  A    between atoms: C1_2  and  C8_12 
REMARK    2  A    between atoms: N1_3  and  C2_4 
REMARK    3  A    between atoms: C2_4  and  C3_5 
REMARK    4  A    between atoms: C14_19  and  C15_20 
REMARK    5  A    between atoms: C15_20  and  N4_21 
REMARK    6  A    between atoms: C17_23  and  C18_24 
REMARK    7  A    between atoms: C18_24  and  C19_25 
ROOT
HETATM    1  C8  UNL     1      -3.446  48.342 -20.270  1.00  0.00     0.110 C 
HETATM    2  C9  UNL     1      -4.356  49.542 -19.938  1.00  0.00     0.287 C 
HETATM    3  N3  UNL     1      -5.445  49.707 -20.939  1.00  0.00     0.095 N 
HETATM    4  C10 UNL     1      -6.095  48.385 -21.145  1.00  0.00     0.273 C 
HETATM    5  C11 UNL     1      -5.131  47.381 -21.805  1.00  0.00     0.036 C 
HETATM    6  C12 UNL     1      -3.700  47.945 -21.742  1.00  0.00     0.004 C 
HETATM    7  C13 UNL     1      -3.666  49.215 -22.620  1.00  0.00     0.043 C 
HETATM    8  C14 UNL     1      -4.860  50.132 -22.252  1.00  0.00     0.242 C 
ENDROOT
BRANCH   8   9
HETATM    9  C15 UNL     1      -4.498  51.628 -22.270  1.00  0.00     0.181 C 
BRANCH   9  10
HETATM   10  N4  UNL     1      -3.725  51.994 -23.438  1.00  0.00    -0.283 N 
HETATM   11  C16 UNL     1      -2.400  52.306 -23.500  1.00  0.00     0.134 A 
HETATM   12  C17 UNL     1      -2.186  52.575 -24.833  1.00  0.00     0.041 A 
HETATM   13  N5  UNL     1      -3.362  52.406 -25.517  1.00  0.00    -0.287 N 
HETATM   14  N6  UNL     1      -4.298  52.046 -24.650  1.00  0.00    -0.020 NA
ATOM     15  H5  UNL     1      -3.494  52.535 -26.520  1.00  0.00     0.184 HD
BRANCH  12  16
HETATM   16  C18 UNL     1      -0.941  52.985 -25.535  1.00  0.00     0.064 C 
BRANCH  16  17
HETATM   17  C19 UNL     1      -0.026  51.798 -25.898  1.00  0.00    -0.009 C 
HETATM   18  C20 UNL     1      -0.167  51.433 -27.392  1.00  0.00     0.005 C 
HETATM   19  C21 UNL     1       0.923  52.067 -28.247  1.00  0.00     0.000 C 
HETATM   20  C22 UNL     1       2.318  51.605 -27.823  1.00  0.00     0.000 C 
HETATM   21  C23 UNL     1       2.417  51.258 -26.338  1.00  0.00     0.000 C 
HETATM   22  C24 UNL     1       1.440  52.077 -25.504  1.00  0.00     0.005 C 
ENDBRANCH  16  17
ENDBRANCH  12  16
ENDBRANCH   9  10
ENDBRANCH   8   9
BRANCH   1  23
HETATM   23  C1  UNL     1      -1.984  48.632 -19.953  1.00  0.00     0.224 C 
HETATM   24  O1  UNL     1      -1.091  47.801 -20.077  1.00  0.00    -0.273 OA
HETATM   25  N1  UNL     1      -1.760  49.908 -19.480  1.00  0.00    -0.356 N 
HETATM   26  H1  UNL     1      -2.551  50.463 -19.181  1.00  0.00     0.162 HD
BRANCH  25  27
HETATM   27  C2  UNL     1      -0.453  50.322 -19.015  1.00  0.00     0.162 C 
BRANCH  27  28
HETATM   28  C3  UNL     1      -0.005  51.574 -19.709  1.00  0.00    -0.025 A 
HETATM   29  C4  UNL     1       0.332  51.575 -21.066  1.00  0.00     0.011 A 
HETATM   30  C5  UNL     1       0.763  52.751 -21.672  1.00  0.00     0.018 A 
HETATM   31  C6  UNL     1       0.848  53.894 -20.896  1.00  0.00     0.087 A 
HETATM   32  N2  UNL     1       0.539  53.934 -19.582  1.00  0.00    -0.375 N 
HETATM   33  C7  UNL     1       0.118  52.778 -19.022  1.00  0.00     0.096 A 
ATOM     34  H2  UNL     1       0.618  54.794 -19.039  1.00  0.00     0.164 HD
ENDBRANCH  27  28
ENDBRANCH  25  27
ENDBRANCH   1  23
TORSDOF 7
ENDMDL
MODEL 4
REMARK minimizedAffinity -8.75082016
REMARK  7 active torsions:
REMARK  status: ('A' for Active; 'I' for Inactive)
REMARK       I    between atoms: C1_2  and  N1_3 
REMARK    1  A    between atoms: C1_2  and  C8_12 
REMARK    2  A    between atoms: N1_3  and  C2_4 
REMARK    3  A    between atoms: C2_4  and  C3_5 
REMARK    4  A    between atoms: C14_19  and  C15_20 
REMARK    5  A    between atoms: C15_20  and  N4_21 
REMARK    6  A    between atoms: C17_23  and  C18_24 
REMARK    7  A    between atoms: C18_24  and  C19_25 
ROOT
HETATM    1  C8  UNL     1      -1.825  49.626 -19.494  1.00  0.00     0.110 C 
HETATM    2  C9  UNL     1      -3.274  49.564 -20.016  1.00  0.00     0.287 C 
HETATM    3  N3  UNL     1      -3.369  48.826 -21.305  1.00  0.00     0.095 N 
HETATM    4  C10 UNL     1      -2.631  47.543 -21.165  1.00  0.00     0.273 C 
HETATM    5  C11 UNL     1      -1.120  47.782 -20.982  1.00  0.00     0.036 C 
HETATM    6  C12 UNL     1      -0.882  49.269 -20.664  1.00  0.00     0.004 C 
HETATM    7  C13 UNL     1      -1.298  50.079 -21.912  1.00  0.00     0.043 C 
HETATM    8  C14 UNL     1      -2.699  49.618 -22.386  1.00  0.00     0.242 C 
ENDROOT
BRANCH   8   9
HETATM    9  C15 UNL     1      -3.577  50.780 -22.885  1.00  0.00     0.181 C 
BRANCH   9  10
HETATM   10  N4  UNL     1      -3.099  51.335 -24.134  1.00  0.00    -0.283 N 
HETATM   11  C16 UNL     1      -2.449  50.689 -25.142  1.00  0.00     0.134 A 
HETATM   12  C17 UNL     1      -2.226  51.675 -26.077  1.00  0.00     0.041 A 
HETATM   13  N5  UNL     1      -2.751  52.854 -25.616  1.00  0.00    -0.287 N 
HETATM   14  N6  UNL     1      -3.287  52.632 -24.424  1.00  0.00    -0.020 NA
ATOM     15  H5  UNL     1      -2.732  53.749 -26.105  1.00  0.00     0.184 HD
BRANCH  12  16
HETATM   16  C18 UNL     1      -1.546  51.601 -27.397  1.00  0.00     0.064 C 
BRANCH  16  17
HETATM   17  C19 UNL     1      -0.190  52.335 -27.426  1.00  0.00    -0.009 C 
HETATM   18  C20 UNL     1       0.380  52.493 -26.000  1.00  0.00     0.005 C 
HETATM   19  C21 UNL     1       1.387  51.401 -25.654  1.00  0.00     0.000 C 
HETATM   20  C22 UNL     1       2.588  51.420 -26.600  1.00  0.00     0.000 C 
HETATM   21  C23 UNL     1       2.253  51.935 -27.999  1.00  0.00     0.000 C 
HETATM   22  C24 UNL     1       0.807  51.636 -28.375  1.00  0.00     0.005 C 
ENDBRANCH  16  17
ENDBRANCH  12  16
ENDBRANCH   9  10
ENDBRANCH   8   9
BRANCH   1  23
HETATM   23  C1  UNL     1      -1.514  50.968 -18.839  1.00  0.00     0.224 C 
HETATM   24  O1  UNL     1      -2.365  51.821 -18.617  1.00  0.00    -0.273 OA
HETATM   25  N1  UNL     1      -0.177  51.148 -18.551  1.00  0.00    -0.356 N 
HETATM   26  H1  UNL     1       0.500  50.519 -18.963  1.00  0.00     0.162 HD
BRANCH  25  27
HETATM   27  C2  UNL     1       0.321  52.407 -18.038  1.00  0.00     0.162 C 
BRANCH  27  28
HETATM   28  C3  UNL     1       1.256  52.188 -16.885  1.00  0.00    -0.025 A 
HETATM   29  C4  UNL     1       2.601  52.562 -16.956  1.00  0.00     0.011 A 
HETATM   30  C5  UNL     1       3.443  52.326 -15.873  1.00  0.00     0.018 A 
HETATM   31  C6  UNL     1       2.911  51.716 -14.751  1.00  0.00     0.087 A 
HETATM   32  N2  UNL     1       1.620  51.334 -14.645  1.00  0.00    -0.375 N 
HETATM   33  C7  UNL     1       0.824  51.581 -15.710  1.00  0.00     0.096 A 
ATOM     34  H2  UNL     1       1.262  50.883 -13.803  1.00  0.00     0.164 HD
ENDBRANCH  27  28
ENDBRANCH  25  27
ENDBRANCH   1  23
TORSDOF 7
ENDMDL
MODEL 5
REMARK minimizedAffinity -8.7317028
REMARK  7 active torsions:
REMARK  status: ('A' for Active; 'I' for Inactive)
REMARK       I    between atoms: C1_2  and  N1_3 
REMARK    1  A    between atoms: C1_2  and  C8_12 
REMARK    2  A    between atoms: N1_3  and  C2_4 
REMARK    3  A    between atoms: C2_4  and  C3_5 
REMARK    4  A    between atoms: C14_19  and  C15_20 
REMARK    5  A    between atoms: C15_20  and  N4_21 
REMARK    6  A    between atoms: C17_23  and  C18_24 
REMARK    7  A    between atoms: C18_24  and  C19_25 
ROOT
HETATM    1  C8  UNL     1      -3.035  48.791 -19.756  1.00  0.00     0.110 C 
HETATM    2  C9  UNL     1      -4.494  49.013 -20.202  1.00  0.00     0.287 C 
HETATM    3  N3  UNL     1      -4.786  48.345 -21.499  1.00  0.00     0.095 N 
HETATM    4  C10 UNL     1      -4.293  46.944 -21.426  1.00  0.00     0.273 C 
HETATM    5  C11 UNL     1      -2.757  46.894 -21.318  1.00  0.00     0.036 C 
HETATM    6  C12 UNL     1      -2.232  48.301 -20.982  1.00  0.00     0.004 C 
HETATM    7  C13 UNL     1      -2.549  49.211 -22.189  1.00  0.00     0.043 C 
HETATM    8  C14 UNL     1      -4.032  49.032 -22.598  1.00  0.00     0.242 C 
ENDROOT
BRANCH   8   9
HETATM    9  C15 UNL     1      -4.702  50.350 -23.026  1.00  0.00     0.181 C 
BRANCH   9  10
HETATM   10  N4  UNL     1      -3.838  51.163 -23.856  1.00  0.00    -0.283 N 
HETATM   11  C16 UNL     1      -2.482  51.276 -23.793  1.00  0.00     0.134 A 
HETATM   12  C17 UNL     1      -2.178  52.170 -24.796  1.00  0.00     0.041 A 
HETATM   13  N5  UNL     1      -3.336  52.546 -25.425  1.00  0.00    -0.287 N 
HETATM   14  N6  UNL     1      -4.348  51.918 -24.841  1.00  0.00    -0.020 NA
ATOM     15  H5  UNL     1      -3.407  53.197 -26.207  1.00  0.00     0.184 HD
BRANCH  12  16
HETATM   16  C18 UNL     1      -0.861  52.712 -25.222  1.00  0.00     0.064 C 
BRANCH  16  17
HETATM   17  C19 UNL     1       0.127  51.620 -25.683  1.00  0.00    -0.009 C 
HETATM   18  C20 UNL     1      -0.196  51.160 -27.121  1.00  0.00     0.005 C 
HETATM   19  C21 UNL     1       0.663  51.869 -28.162  1.00  0.00     0.000 C 
HETATM   20  C22 UNL     1       2.152  51.595 -27.949  1.00  0.00     0.000 C 
HETATM   21  C23 UNL     1       2.521  51.344 -26.487  1.00  0.00     0.000 C 
HETATM   22  C24 UNL     1       1.590  52.088 -25.538  1.00  0.00     0.005 C 
ENDBRANCH  16  17
ENDBRANCH  12  16
ENDBRANCH   9  10
ENDBRANCH   8   9
BRANCH   1  23
HETATM   23  C1  UNL     1      -2.448  50.031 -19.091  1.00  0.00     0.224 C 
HETATM   24  O1  UNL     1      -3.119  51.010 -18.783  1.00  0.00    -0.273 OA
HETATM   25  N1  UNL     1      -1.084  49.966 -18.901  1.00  0.00    -0.356 N 
HETATM   26  H1  UNL     1      -0.558  49.247 -19.379  1.00  0.00     0.162 HD
BRANCH  25  27
HETATM   27  C2  UNL     1      -0.338  51.099 -18.393  1.00  0.00     0.162 C 
BRANCH  27  28
HETATM   28  C3  UNL     1       0.156  51.966 -19.513  1.00  0.00    -0.025 A 
HETATM   29  C4  UNL     1       0.225  51.492 -20.826  1.00  0.00     0.011 A 
HETATM   30  C5  UNL     1       0.707  52.318 -21.837  1.00  0.00     0.018 A 
HETATM   31  C6  UNL     1       1.113  53.597 -21.498  1.00  0.00     0.087 A 
HETATM   32  N2  UNL     1       1.069  54.091 -20.242  1.00  0.00    -0.375 N 
HETATM   33  C7  UNL     1       0.591  53.267 -19.283  1.00  0.00     0.096 A 
ATOM     34  H2  UNL     1       1.380  55.039 -20.028  1.00  0.00     0.164 HD
ENDBRANCH  27  28
ENDBRANCH  25  27
ENDBRANCH   1  23
TORSDOF 7
ENDMDL
MODEL 6
REMARK minimizedAffinity -8.68962669
REMARK  7 active torsions:
REMARK  status: ('A' for Active; 'I' for Inactive)
REMARK       I    between atoms: C1_2  and  N1_3 
REMARK    1  A    between atoms: C1_2  and  C8_12 
REMARK    2  A    between atoms: N1_3  and  C2_4 
REMARK    3  A    between atoms: C2_4  and  C3_5 
REMARK    4  A    between atoms: C14_19  and  C15_20 
REMARK    5  A    between atoms: C15_20  and  N4_21 
REMARK    6  A    between atoms: C17_23  and  C18_24 
REMARK    7  A    between atoms: C18_24  and  C19_25 
ROOT
HETATM    1  C8  UNL     1      -1.605  51.481 -27.335  1.00  0.00     0.110 C 
HETATM    2  C9  UNL     1      -1.597  52.979 -26.971  1.00  0.00     0.287 C 
HETATM    3  N3  UNL     1      -0.216  53.531 -26.922  1.00  0.00     0.095 N 
HETATM    4  C10 UNL     1       0.498  53.119 -28.160  1.00  0.00     0.273 C 
HETATM    5  C11 UNL     1       0.708  51.593 -28.205  1.00  0.00     0.036 C 
HETATM    6  C12 UNL     1      -0.174  50.934 -27.129  1.00  0.00     0.004 C 
HETATM    7  C13 UNL     1       0.352  51.400 -25.753  1.00  0.00     0.043 C 
HETATM    8  C14 UNL     1       0.520  52.940 -25.758  1.00  0.00     0.242 C 
ENDROOT
BRANCH   8   9
HETATM    9  C15 UNL     1       0.117  53.593 -24.423  1.00  0.00     0.181 C 
BRANCH   9  10
HETATM   10  N4  UNL     1      -0.019  52.625 -23.355  1.00  0.00    -0.283 N 
HETATM   11  C16 UNL     1      -1.015  51.713 -23.174  1.00  0.00     0.134 A 
HETATM   12  C17 UNL     1      -0.657  51.057 -22.017  1.00  0.00     0.041 A 
HETATM   13  N5  UNL     1       0.525  51.577 -21.557  1.00  0.00    -0.287 N 
HETATM   14  N6  UNL     1       0.908  52.536 -22.389  1.00  0.00    -0.020 NA
ATOM     15  H5  UNL     1       1.024  51.278 -20.720  1.00  0.00     0.184 HD
BRANCH  12  16
HETATM   16  C18 UNL     1      -1.347  49.959 -21.292  1.00  0.00     0.064 C 
BRANCH  16  17
HETATM   17  C19 UNL     1      -2.191  49.056 -22.214  1.00  0.00    -0.009 C 
HETATM   18  C20 UNL     1      -1.911  47.564 -21.927  1.00  0.00     0.005 C 
HETATM   19  C21 UNL     1      -2.943  46.953 -20.986  1.00  0.00     0.000 C 
HETATM   20  C22 UNL     1      -4.354  47.019 -21.572  1.00  0.00     0.000 C 
HETATM   21  C23 UNL     1      -4.570  48.211 -22.503  1.00  0.00     0.000 C 
HETATM   22  C24 UNL     1      -3.694  49.395 -22.112  1.00  0.00     0.005 C 
ENDBRANCH  16  17
ENDBRANCH  12  16
ENDBRANCH   9  10
ENDBRANCH   8   9
BRANCH   1  23
HETATM   23  C1  UNL     1      -2.674  50.714 -26.565  1.00  0.00     0.224 C 
HETATM   24  O1  UNL     1      -3.525  51.260 -25.872  1.00  0.00    -0.273 OA
HETATM   25  N1  UNL     1      -2.573  49.344 -26.690  1.00  0.00    -0.356 N 
HETATM   26  H1  UNL     1      -1.726  48.950 -27.075  1.00  0.00     0.162 HD
BRANCH  25  27
HETATM   27  C2  UNL     1      -3.428  48.453 -25.934  1.00  0.00     0.162 C 
BRANCH  27  28
HETATM   28  C3  UNL     1      -4.704  48.173 -26.673  1.00  0.00    -0.025 A 
HETATM   29  C4  UNL     1      -4.735  48.087 -28.068  1.00  0.00     0.011 A 
HETATM   30  C5  UNL     1      -5.939  47.846 -28.720  1.00  0.00     0.018 A 
HETATM   31  C6  UNL     1      -7.083  47.703 -27.953  1.00  0.00     0.087 A 
HETATM   32  N2  UNL     1      -7.097  47.785 -26.605  1.00  0.00    -0.375 N 
HETATM   33  C7  UNL     1      -5.910  48.015 -25.998  1.00  0.00     0.096 A 
ATOM     34  H2  UNL     1      -7.959  47.678 -26.071  1.00  0.00     0.164 HD
ENDBRANCH  27  28
ENDBRANCH  25  27
ENDBRANCH   1  23
TORSDOF 7
ENDMDL
MODEL 7
REMARK minimizedAffinity -8.52782631
REMARK  7 active torsions:
REMARK  status: ('A' for Active; 'I' for Inactive)
REMARK       I    between atoms: C1_2  and  N1_3 
REMARK    1  A    between atoms: C1_2  and  C8_12 
REMARK    2  A    between atoms: N1_3  and  C2_4 
REMARK    3  A    between atoms: C2_4  and  C3_5 
REMARK    4  A    between atoms: C14_19  and  C15_20 
REMARK    5  A    between atoms: C15_20  and  N4_21 
REMARK    6  A    between atoms: C17_23  and  C18_24 
REMARK    7  A    between atoms: C18_24  and  C19_25 
ROOT
HETATM    1  C8  UNL     1      -4.276  50.796 -22.794  1.00  0.00     0.110 C 
HETATM    2  C9  UNL     1      -5.090  50.686 -24.099  1.00  0.00     0.287 C 
HETATM    3  N3  UNL     1      -5.593  49.304 -24.325  1.00  0.00     0.095 N 
HETATM    4  C10 UNL     1      -6.235  48.829 -23.071  1.00  0.00     0.273 C 
HETATM    5  C11 UNL     1      -5.203  48.669 -21.938  1.00  0.00     0.036 C 
HETATM    6  C12 UNL     1      -3.894  49.367 -22.349  1.00  0.00     0.004 C 
HETATM    7  C13 UNL     1      -3.324  48.597 -23.561  1.00  0.00     0.043 C 
HETATM    8  C14 UNL     1      -4.440  48.392 -24.616  1.00  0.00     0.242 C 
ENDROOT
BRANCH   8   9
HETATM    9  C15 UNL     1      -3.934  48.539 -26.063  1.00  0.00     0.181 C 
BRANCH   9  10
HETATM   10  N4  UNL     1      -3.076  49.693 -26.232  1.00  0.00    -0.283 N 
HETATM   11  C16 UNL     1      -3.294  50.790 -27.010  1.00  0.00     0.134 A 
HETATM   12  C17 UNL     1      -2.176  51.568 -26.806  1.00  0.00     0.041 A 
HETATM   13  N5  UNL     1      -1.346  50.932 -25.920  1.00  0.00    -0.287 N 
HETATM   14  N6  UNL     1      -1.911  49.784 -25.572  1.00  0.00    -0.020 NA
ATOM     15  H5  UNL     1      -0.448  51.281 -25.585  1.00  0.00     0.184 HD
BRANCH  12  16
HETATM   16  C18 UNL     1      -1.814  52.888 -27.385  1.00  0.00     0.064 C 
BRANCH  16  17
HETATM   17  C19 UNL     1      -0.309  53.027 -27.692  1.00  0.00    -0.009 C 
HETATM   18  C20 UNL     1       0.449  53.599 -26.474  1.00  0.00     0.005 C 
HETATM   19  C21 UNL     1       1.091  52.507 -25.627  1.00  0.00     0.000 C 
HETATM   20  C22 UNL     1       2.114  51.697 -26.425  1.00  0.00     0.000 C 
HETATM   21  C23 UNL     1       1.793  51.617 -27.918  1.00  0.00     0.000 C 
HETATM   22  C24 UNL     1       0.293  51.689 -28.174  1.00  0.00     0.005 C 
ENDBRANCH  16  17
ENDBRANCH  12  16
ENDBRANCH   9  10
ENDBRANCH   8   9
BRANCH   1  23
HETATM   23  C1  UNL     1      -3.084  51.734 -22.944  1.00  0.00     0.224 C 
HETATM   24  O1  UNL     1      -3.023  52.614 -23.794  1.00  0.00    -0.273 OA
HETATM   25  N1  UNL     1      -2.060  51.477 -22.055  1.00  0.00    -0.356 N 
HETATM   26  H1  UNL     1      -2.067  50.606 -21.542  1.00  0.00     0.162 HD
BRANCH  25  27
HETATM   27  C2  UNL     1      -0.801  52.189 -22.129  1.00  0.00     0.162 C 
BRANCH  27  28
HETATM   28  C3  UNL     1      -0.188  52.344 -20.768  1.00  0.00    -0.025 A 
HETATM   29  C4  UNL     1      -0.499  51.468 -19.724  1.00  0.00     0.011 A 
HETATM   30  C5  UNL     1       0.073  51.654 -18.470  1.00  0.00     0.018 A 
HETATM   31  C6  UNL     1       0.940  52.720 -18.297  1.00  0.00     0.087 A 
HETATM   32  N2  UNL     1       1.261  53.591 -19.277  1.00  0.00    -0.375 N 
HETATM   33  C7  UNL     1       0.694  53.382 -20.487  1.00  0.00     0.096 A 
ATOM     34  H2  UNL     1       1.901  54.369 -19.114  1.00  0.00     0.164 HD
ENDBRANCH  27  28
ENDBRANCH  25  27
ENDBRANCH   1  23
TORSDOF 7
ENDMDL
MODEL 8
REMARK minimizedAffinity -8.47552299
REMARK  7 active torsions:
REMARK  status: ('A' for Active; 'I' for Inactive)
REMARK       I    between atoms: C1_2  and  N1_3 
REMARK    1  A    between atoms: C1_2  and  C8_12 
REMARK    2  A    between atoms: N1_3  and  C2_4 
REMARK    3  A    between atoms: C2_4  and  C3_5 
REMARK    4  A    between atoms: C14_19  and  C15_20 
REMARK    5  A    between atoms: C15_20  and  N4_21 
REMARK    6  A    between atoms: C17_23  and  C18_24 
REMARK    7  A    between atoms: C18_24  and  C19_25 
ROOT
HETATM    1  C8  UNL     1      -4.903  49.342 -22.353  1.00  0.00     0.110 C 
HETATM    2  C9  UNL     1      -3.874  48.459 -21.619  1.00  0.00     0.287 C 
HETATM    3  N3  UNL     1      -3.751  48.826 -20.183  1.00  0.00     0.095 N 
HETATM    4  C10 UNL     1      -5.118  48.918 -19.604  1.00  0.00     0.273 C 
HETATM    5  C11 UNL     1      -5.911  50.086 -20.220  1.00  0.00     0.036 C 
HETATM    6  C12 UNL     1      -5.174  50.586 -21.476  1.00  0.00     0.004 C 
HETATM    7  C13 UNL     1      -3.825  51.179 -21.012  1.00  0.00     0.043 C 
HETATM    8  C14 UNL     1      -3.118  50.179 -20.063  1.00  0.00     0.242 C 
ENDROOT
BRANCH   8   9
HETATM    9  C15 UNL     1      -1.593  50.128 -20.272  1.00  0.00     0.181 C 
BRANCH   9  10
HETATM   10  N4  UNL     1      -1.156  50.986 -21.353  1.00  0.00    -0.283 N 
HETATM   11  C16 UNL     1      -1.359  50.816 -22.690  1.00  0.00     0.134 A 
HETATM   12  C17 UNL     1      -0.740  51.906 -23.260  1.00  0.00     0.041 A 
HETATM   13  N5  UNL     1      -0.207  52.686 -22.266  1.00  0.00    -0.287 N 
HETATM   14  N6  UNL     1      -0.472  52.112 -21.101  1.00  0.00    -0.020 NA
ATOM     15  H5  UNL     1       0.305  53.558 -22.401  1.00  0.00     0.184 HD
BRANCH  12  16
HETATM   16  C18 UNL     1      -0.603  52.285 -24.690  1.00  0.00     0.064 C 
BRANCH  16  17
HETATM   17  C19 UNL     1       0.346  51.358 -25.478  1.00  0.00    -0.009 C 
HETATM   18  C20 UNL     1      -0.276  50.958 -26.833  1.00  0.00     0.005 C 
HETATM   19  C21 UNL     1       0.215  51.837 -27.978  1.00  0.00     0.000 C 
HETATM   20  C22 UNL     1       1.731  51.738 -28.157  1.00  0.00     0.000 C 
HETATM   21  C23 UNL     1       2.478  51.438 -26.858  1.00  0.00     0.000 C 
HETATM   22  C24 UNL     1       1.742  51.996 -25.646  1.00  0.00     0.005 C 
ENDBRANCH  16  17
ENDBRANCH  12  16
ENDBRANCH   9  10
ENDBRANCH   8   9
BRANCH   1  23
HETATM   23  C1  UNL     1      -4.458  49.675 -23.772  1.00  0.00     0.224 C 
HETATM   24  O1  UNL     1      -4.675  50.755 -24.309  1.00  0.00    -0.273 OA
HETATM   25  N1  UNL     1      -3.818  48.634 -24.412  1.00  0.00    -0.356 N 
HETATM   26  H1  UNL     1      -3.875  47.707 -24.012  1.00  0.00     0.162 HD
BRANCH  25  27
HETATM   27  C2  UNL     1      -3.432  48.728 -25.804  1.00  0.00     0.162 C 
BRANCH  27  28
HETATM   28  C3  UNL     1      -4.565  48.337 -26.707  1.00  0.00    -0.025 A 
HETATM   29  C4  UNL     1      -4.415  48.313 -28.096  1.00  0.00     0.011 A 
HETATM   30  C5  UNL     1      -5.494  47.965 -28.903  1.00  0.00     0.018 A 
HETATM   31  C6  UNL     1      -6.696  47.654 -28.291  1.00  0.00     0.087 A 
HETATM   32  N2  UNL     1      -6.883  47.670 -26.954  1.00  0.00    -0.375 N 
HETATM   33  C7  UNL     1      -5.816  48.008 -26.195  1.00  0.00     0.096 A 
ATOM     34  H2  UNL     1      -7.785  47.439 -26.537  1.00  0.00     0.164 HD
ENDBRANCH  27  28
ENDBRANCH  25  27
ENDBRANCH   1  23
TORSDOF 7
ENDMDL
MODEL 9
REMARK minimizedAffinity -8.43972874
REMARK  7 active torsions:
REMARK  status: ('A' for Active; 'I' for Inactive)
REMARK       I    between atoms: C1_2  and  N1_3 
REMARK    1  A    between atoms: C1_2  and  C8_12 
REMARK    2  A    between atoms: N1_3  and  C2_4 
REMARK    3  A    between atoms: C2_4  and  C3_5 
REMARK    4  A    between atoms: C14_19  and  C15_20 
REMARK    5  A    between atoms: C15_20  and  N4_21 
REMARK    6  A    between atoms: C17_23  and  C18_24 
REMARK    7  A    between atoms: C18_24  and  C19_25 
ROOT
HETATM    1  C8  UNL     1       0.732  52.733 -25.692  1.00  0.00     0.110 C 
HETATM    2  C9  UNL     1       0.810  51.226 -26.011  1.00  0.00     0.287 C 
HETATM    3  N3  UNL     1       0.099  50.888 -27.273  1.00  0.00     0.095 N 
HETATM    4  C10 UNL     1       0.539  51.839 -28.328  1.00  0.00     0.273 C 
HETATM    5  C11 UNL     1       0.080  53.276 -28.015  1.00  0.00     0.036 C 
HETATM    6  C12 UNL     1      -0.397  53.343 -26.553  1.00  0.00     0.004 C 
HETATM    7  C13 UNL     1      -1.655  52.455 -26.438  1.00  0.00     0.043 C 
HETATM    8  C14 UNL     1      -1.376  51.074 -27.083  1.00  0.00     0.242 C 
ENDROOT
BRANCH   8   9
HETATM    9  C15 UNL     1      -2.014  49.908 -26.307  1.00  0.00     0.181 C 
BRANCH   9  10
HETATM   10  N4  UNL     1      -3.185  49.378 -26.974  1.00  0.00    -0.283 N 
HETATM   11  C16 UNL     1      -4.127  48.535 -26.464  1.00  0.00     0.134 A 
HETATM   12  C17 UNL     1      -5.005  48.351 -27.509  1.00  0.00     0.041 A 
HETATM   13  N5  UNL     1      -4.579  49.085 -28.585  1.00  0.00    -0.287 N 
HETATM   14  N6  UNL     1      -3.463  49.714 -28.242  1.00  0.00    -0.020 NA
ATOM     15  H5  UNL     1      -5.040  49.139 -29.493  1.00  0.00     0.184 HD
BRANCH  12  16
HETATM   16  C18 UNL     1      -6.239  47.526 -27.583  1.00  0.00     0.064 C 
BRANCH  16  17
HETATM   17  C19 UNL     1      -6.898  47.538 -28.978  1.00  0.00    -0.009 C 
HETATM   18  C20 UNL     1      -6.920  46.119 -29.586  1.00  0.00     0.005 C 
HETATM   19  C21 UNL     1      -8.252  45.413 -29.361  1.00  0.00     0.000 C 
HETATM   20  C22 UNL     1      -9.412  46.173 -30.005  1.00  0.00     0.000 C 
HETATM   21  C23 UNL     1      -9.185  47.683 -30.073  1.00  0.00     0.000 C 
HETATM   22  C24 UNL     1      -8.305  48.171 -28.930  1.00  0.00     0.005 C 
ENDBRANCH  16  17
ENDBRANCH  12  16
ENDBRANCH   9  10
ENDBRANCH   8   9
BRANCH   1  23
HETATM   23  C1  UNL     1       0.576  52.991 -24.198  1.00  0.00     0.224 C 
HETATM   24  O1  UNL     1       1.078  53.952 -23.626  1.00  0.00    -0.273 OA
HETATM   25  N1  UNL     1      -0.155  52.023 -23.541  1.00  0.00    -0.356 N 
HETATM   26  H1  UNL     1      -0.341  51.148 -24.012  1.00  0.00     0.162 HD
BRANCH  25  27
HETATM   27  C2  UNL     1      -0.305  52.039 -22.101  1.00  0.00     0.162 C 
BRANCH  27  28
HETATM   28  C3  UNL     1      -1.719  51.733 -21.702  1.00  0.00    -0.025 A 
HETATM   29  C4  UNL     1      -2.790  51.981 -22.565  1.00  0.00     0.011 A 
HETATM   30  C5  UNL     1      -4.090  51.704 -22.154  1.00  0.00     0.018 A 
HETATM   31  C6  UNL     1      -4.278  51.188 -20.883  1.00  0.00     0.087 A 
HETATM   32  N2  UNL     1      -3.272  50.940 -20.017  1.00  0.00    -0.375 N 
HETATM   33  C7  UNL     1      -2.019  51.215 -20.446  1.00  0.00     0.096 A 
ATOM     34  H2  UNL     1      -3.448  50.563 -19.086  1.00  0.00     0.164 HD
ENDBRANCH  27  28
ENDBRANCH  25  27
ENDBRANCH   1  23
TORSDOF 7
ENDMDL
