MODEL 1
REMARK minimizedAffinity -7.63350391
REMARK CNNscore 0.60813421
REMARK CNNaffinity 6.30661535
REMARK  11 active torsions:
REMARK  status: ('A' for Active; 'I' for Inactive)
REMARK    1  A    between atoms: O1_2  and  C2_3 
REMARK    2  A    between atoms: C4_5  and  O2_6 
REMARK    3  A    between atoms: O2_6  and  C5_7 
REMARK    4  A    between atoms: C8_10  and  C9_11 
REMARK    5  A    between atoms: N1_12  and  C10_14 
REMARK    6  A    between atoms: C10_14  and  C11_15 
REMARK    7  A    between atoms: C11_15  and  O3_16 
REMARK    8  A    between atoms: C17_22  and  C18_23 
REMARK    9  A    between atoms: C24_31  and  O6_32 
REMARK   10  A    between atoms: C28_36  and  O7_37 
REMARK   11  A    between atoms: C32_42  and  O9_43 
ROOT
HETATM    1  C5  UNL     1      -1.224   6.946  13.405  1.00  0.00     0.127 C 
HETATM    2  C6  UNL     1      -1.667   6.549  14.814  1.00  0.00     0.033 C 
HETATM    3  C7  UNL     1      -2.425   7.664  15.543  1.00  0.00     0.021 C 
HETATM    4  C8  UNL     1      -1.652   9.015  15.568  1.00  0.00     0.026 C 
HETATM    5  C12 UNL     1      -2.575  10.139  16.212  1.00  0.00     0.009 C 
HETATM    6  C13 UNL     1      -2.425  10.217  17.746  1.00  0.00     0.007 C 
HETATM    7  C14 UNL     1      -3.303  11.283  18.387  1.00  0.00     0.013 C 
HETATM    8  C15 UNL     1      -3.012  12.694  17.835  1.00  0.00    -0.005 C 
HETATM    9  C16 UNL     1      -1.631  13.186  18.313  1.00  0.00     0.019 C 
HETATM   10  C17 UNL     1      -4.136  13.709  18.244  1.00  0.00     0.028 C 
HETATM   11  C22 UNL     1      -5.267  13.454  17.223  1.00  0.00     0.013 C 
HETATM   12  C23 UNL     1      -4.650  12.688  16.053  1.00  0.00     0.040 C 
HETATM   13  C24 UNL     1      -3.125  12.701  16.285  1.00  0.00     0.070 C 
HETATM   14  C25 UNL     1      -2.435  11.533  15.522  1.00  0.00     0.026 C 
HETATM   15  C26 UNL     1      -0.982  11.774  15.085  1.00  0.00     0.011 C 
HETATM   16  C27 UNL     1      -0.518  10.746  14.035  1.00  0.00     0.039 C 
HETATM   17  C28 UNL     1      -1.264   9.394  14.105  1.00  0.00     0.073 C 
HETATM   18  C29 UNL     1      -0.458   8.277  13.420  1.00  0.00     0.071 C 
ENDROOT
BRANCH   1  19
HETATM   19  O2  UNL     1      -0.365   5.905  12.924  1.00  0.00    -0.356 OA
BRANCH  19  20
HETATM   20  C4  UNL     1       0.173   6.155  11.625  1.00  0.00     0.263 C 
HETATM   21  C3  UNL     1       1.680   6.335  11.805  1.00  0.00     0.095 C 
HETATM   22  C2  UNL     1       2.350   6.667  10.478  1.00  0.00     0.156 C 
HETATM   23  C32 UNL     1       1.639   7.863   9.816  1.00  0.00     0.175 C 
HETATM   24  C30 UNL     1       0.122   7.619   9.758  1.00  0.00     0.151 C 
HETATM   25  O8  UNL     1      -0.393   7.337  11.064  1.00  0.00    -0.354 OA
HETATM   26  C31 UNL     1      -0.618   8.843   9.230  1.00  0.00     0.042 C 
BRANCH  22  27
HETATM   27  O1  UNL     1       2.274   5.567   9.549  1.00  0.00    -0.388 OA
HETATM   28  C1  UNL     1       3.482   4.820   9.455  1.00  0.00     0.202 C 
ENDBRANCH  22  27
BRANCH  23  29
HETATM   29  O9  UNL     1       2.171   8.062   8.502  1.00  0.00    -0.390 OA
HETATM   30  H49 UNL     1       2.309   7.160   8.143  1.00  0.00     0.210 HD
ENDBRANCH  23  29
ENDBRANCH  19  20
ENDBRANCH   1  19
BRANCH  17  31
HETATM   31  O7  UNL     1      -2.479   9.542  13.340  1.00  0.00    -0.389 OA
HETATM   32  H41 UNL     1      -2.235   9.713  12.412  1.00  0.00     0.210 HD
ENDBRANCH  17  31
BRANCH   4  33
HETATM   33  C9  UNL     1      -0.357   8.844  16.390  1.00  0.00     0.068 C 
HETATM   34  N1  UNL     1       0.815   8.998  15.871  1.00  0.00    -0.399 N 
ATOM     35  H1  UNL     1       0.962   9.270  14.899  1.00  0.00     0.158 HD
BRANCH  34  36
HETATM   36  C10 UNL     1       1.918   8.745  16.810  1.00  0.00     0.144 C 
BRANCH  36  37
HETATM   37  C11 UNL     1       2.285  10.071  17.472  1.00  0.00     0.183 C 
BRANCH  37  38
HETATM   38  O3  UNL     1       2.352   9.891  18.887  1.00  0.00    -0.399 OA
HETATM   39  H18 UNL     1       2.890   9.082  18.998  1.00  0.00     0.209 HD
ENDBRANCH  37  38
ENDBRANCH  36  37
ENDBRANCH  34  36
ENDBRANCH   4  33
BRANCH  13  40
HETATM   40  O6  UNL     1      -2.654  13.956  15.777  1.00  0.00    -0.389 OA
HETATM   41  H35 UNL     1      -2.845  13.981  14.823  1.00  0.00     0.210 HD
ENDBRANCH  13  40
BRANCH  10  42
HETATM   42  C18 UNL     1      -4.572  13.747  19.688  1.00  0.00    -0.045 A 
HETATM   43  C19 UNL     1      -5.485  12.997  20.309  1.00  0.00     0.087 A 
HETATM   44  C20 UNL     1      -5.608  13.490  21.679  1.00  0.00     0.283 A 
HETATM   45  O4  UNL     1      -6.350  13.021  22.521  1.00  0.00    -0.260 OA
HETATM   46  O5  UNL     1      -4.776  14.550  21.844  1.00  0.00    -0.314 OA
HETATM   47  C21 UNL     1      -4.053  14.770  20.633  1.00  0.00     0.213 A 
ENDBRANCH  10  42
TORSDOF 11
ENDMDL
MODEL 2
REMARK minimizedAffinity -7.35926962
REMARK CNNscore 0.394599199
REMARK CNNaffinity 6.48131752
REMARK  11 active torsions:
REMARK  status: ('A' for Active; 'I' for Inactive)
REMARK    1  A    between atoms: O1_2  and  C2_3 
REMARK    2  A    between atoms: C4_5  and  O2_6 
REMARK    3  A    between atoms: O2_6  and  C5_7 
REMARK    4  A    between atoms: C8_10  and  C9_11 
REMARK    5  A    between atoms: N1_12  and  C10_14 
REMARK    6  A    between atoms: C10_14  and  C11_15 
REMARK    7  A    between atoms: C11_15  and  O3_16 
REMARK    8  A    between atoms: C17_22  and  C18_23 
REMARK    9  A    between atoms: C24_31  and  O6_32 
REMARK   10  A    between atoms: C28_36  and  O7_37 
REMARK   11  A    between atoms: C32_42  and  O9_43 
ROOT
HETATM    1  C5  UNL     1       2.469   8.846  11.803  1.00  0.00     0.127 C 
HETATM    2  C6  UNL     1       1.372   8.598  10.766  1.00  0.00     0.033 C 
HETATM    3  C7  UNL     1      -0.038   8.603  11.367  1.00  0.00     0.021 C 
HETATM    4  C8  UNL     1      -0.191   7.632  12.575  1.00  0.00     0.026 C 
HETATM    5  C12 UNL     1      -1.634   7.814  13.218  1.00  0.00     0.009 C 
HETATM    6  C13 UNL     1      -2.691   6.899  12.563  1.00  0.00     0.007 C 
HETATM    7  C14 UNL     1      -4.083   7.059  13.159  1.00  0.00     0.013 C 
HETATM    8  C15 UNL     1      -4.111   6.766  14.674  1.00  0.00    -0.005 C 
HETATM    9  C16 UNL     1      -3.897   5.261  14.936  1.00  0.00     0.019 C 
HETATM   10  C17 UNL     1      -5.451   7.259  15.325  1.00  0.00     0.028 C 
HETATM   11  C22 UNL     1      -5.233   8.773  15.539  1.00  0.00     0.013 C 
HETATM   12  C23 UNL     1      -3.728   9.027  15.448  1.00  0.00     0.040 C 
HETATM   13  C24 UNL     1      -3.058   7.638  15.412  1.00  0.00     0.070 C 
HETATM   14  C25 UNL     1      -1.640   7.720  14.776  1.00  0.00     0.026 C 
HETATM   15  C26 UNL     1      -0.622   6.674  15.257  1.00  0.00     0.011 C 
HETATM   16  C27 UNL     1       0.821   7.056  14.872  1.00  0.00     0.039 C 
HETATM   17  C28 UNL     1       0.922   7.957  13.619  1.00  0.00     0.073 C 
HETATM   18  C29 UNL     1       2.327   7.891  12.996  1.00  0.00     0.071 C 
ENDROOT
BRANCH   1  19
HETATM   19  O2  UNL     1       3.724   8.616  11.152  1.00  0.00    -0.356 OA
BRANCH  19  20
HETATM   20  C4  UNL     1       4.835   9.223  11.813  1.00  0.00     0.263 C 
HETATM   21  C3  UNL     1       4.283  10.422  12.583  1.00  0.00     0.095 C 
HETATM   22  C2  UNL     1       5.403  11.180  13.284  1.00  0.00     0.156 C 
HETATM   23  C32 UNL     1       6.514  11.527  12.274  1.00  0.00     0.175 C 
HETATM   24  C30 UNL     1       6.940  10.271  11.495  1.00  0.00     0.151 C 
HETATM   25  O8  UNL     1       5.808   9.660  10.867  1.00  0.00    -0.354 OA
HETATM   26  C31 UNL     1       7.943  10.612  10.398  1.00  0.00     0.042 C 
BRANCH  22  27
HETATM   27  O1  UNL     1       6.013  10.393  14.326  1.00  0.00    -0.388 OA
HETATM   28  C1  UNL     1       5.165  10.186  15.450  1.00  0.00     0.202 C 
ENDBRANCH  22  27
BRANCH  23  29
HETATM   29  O9  UNL     1       7.628  12.094  12.972  1.00  0.00    -0.390 OA
HETATM   30  H49 UNL     1       7.697  11.578  13.802  1.00  0.00     0.210 HD
ENDBRANCH  23  29
ENDBRANCH  19  20
ENDBRANCH   1  19
BRANCH  17  31
HETATM   31  O7  UNL     1       0.740   9.319  14.063  1.00  0.00    -0.389 OA
HETATM   32  H41 UNL     1       1.473   9.543  14.664  1.00  0.00     0.210 HD
ENDBRANCH  17  31
BRANCH   4  33
HETATM   33  C9  UNL     1       0.003   6.180  12.087  1.00  0.00     0.068 C 
HETATM   34  N1  UNL     1       1.172   5.649  11.951  1.00  0.00    -0.399 N 
ATOM     35  H1  UNL     1       2.036   6.138  12.183  1.00  0.00     0.158 HD
BRANCH  34  36
HETATM   36  C10 UNL     1       1.142   4.274  11.430  1.00  0.00     0.144 C 
BRANCH  36  37
HETATM   37  C11 UNL     1       2.241   4.147  10.377  1.00  0.00     0.183 C 
BRANCH  37  38
HETATM   38  O3  UNL     1       2.276   5.335   9.585  1.00  0.00    -0.399 OA
HETATM   39  H18 UNL     1       2.260   6.059  10.242  1.00  0.00     0.209 HD
ENDBRANCH  37  38
ENDBRANCH  36  37
ENDBRANCH  34  36
ENDBRANCH   4  33
BRANCH  13  40
HETATM   40  O6  UNL     1      -2.954   7.209  16.776  1.00  0.00    -0.389 OA
HETATM   41  H35 UNL     1      -2.381   7.842  17.244  1.00  0.00     0.210 HD
ENDBRANCH  13  40
BRANCH  10  42
HETATM   42  C18 UNL     1      -6.750   6.886  14.653  1.00  0.00    -0.045 A 
HETATM   43  C19 UNL     1      -6.962   6.029  13.653  1.00  0.00     0.087 A 
HETATM   44  C20 UNL     1      -8.378   6.100  13.301  1.00  0.00     0.283 A 
HETATM   45  O4  UNL     1      -8.911   5.437  12.430  1.00  0.00    -0.260 OA
HETATM   46  O5  UNL     1      -8.985   7.023  14.089  1.00  0.00    -0.314 OA
HETATM   47  C21 UNL     1      -8.028   7.558  15.004  1.00  0.00     0.213 A 
ENDBRANCH  10  42
TORSDOF 11
ENDMDL
MODEL 3
REMARK minimizedAffinity -9.25188732
REMARK CNNscore 0.382065743
REMARK CNNaffinity 6.66551638
REMARK  11 active torsions:
REMARK  status: ('A' for Active; 'I' for Inactive)
REMARK    1  A    between atoms: O1_2  and  C2_3 
REMARK    2  A    between atoms: C4_5  and  O2_6 
REMARK    3  A    between atoms: O2_6  and  C5_7 
REMARK    4  A    between atoms: C8_10  and  C9_11 
REMARK    5  A    between atoms: N1_12  and  C10_14 
REMARK    6  A    between atoms: C10_14  and  C11_15 
REMARK    7  A    between atoms: C11_15  and  O3_16 
REMARK    8  A    between atoms: C17_22  and  C18_23 
REMARK    9  A    between atoms: C24_31  and  O6_32 
REMARK   10  A    between atoms: C28_36  and  O7_37 
REMARK   11  A    between atoms: C32_42  and  O9_43 
ROOT
HETATM    1  C5  UNL     1      -3.730   7.597  13.357  1.00  0.00     0.127 C 
HETATM    2  C6  UNL     1      -3.153   9.006  13.502  1.00  0.00     0.033 C 
HETATM    3  C7  UNL     1      -1.788   9.171  12.825  1.00  0.00     0.021 C 
HETATM    4  C8  UNL     1      -0.750   8.101  13.276  1.00  0.00     0.026 C 
HETATM    5  C12 UNL     1       0.580   8.263  12.418  1.00  0.00     0.009 C 
HETATM    6  C13 UNL     1       1.575   9.256  13.056  1.00  0.00     0.007 C 
HETATM    7  C14 UNL     1       2.855   9.432  12.250  1.00  0.00     0.013 C 
HETATM    8  C15 UNL     1       3.612   8.102  12.050  1.00  0.00    -0.005 C 
HETATM    9  C16 UNL     1       4.220   7.622  13.384  1.00  0.00     0.019 C 
HETATM   10  C17 UNL     1       4.722   8.238  10.950  1.00  0.00     0.028 C 
HETATM   11  C22 UNL     1       3.954   8.095   9.617  1.00  0.00     0.013 C 
HETATM   12  C23 UNL     1       2.599   7.467   9.945  1.00  0.00     0.040 C 
HETATM   13  C24 UNL     1       2.672   7.035  11.424  1.00  0.00     0.070 C 
HETATM   14  C25 UNL     1       1.246   6.904  12.036  1.00  0.00     0.026 C 
HETATM   15  C26 UNL     1       1.091   5.889  13.179  1.00  0.00     0.011 C 
HETATM   16  C27 UNL     1      -0.388   5.558  13.459  1.00  0.00     0.039 C 
HETATM   17  C28 UNL     1      -1.371   6.685  13.066  1.00  0.00     0.073 C 
HETATM   18  C29 UNL     1      -2.713   6.535  13.801  1.00  0.00     0.071 C 
ENDROOT
BRANCH   1  19
HETATM   19  O2  UNL     1      -4.891   7.528  14.194  1.00  0.00    -0.356 OA
BRANCH  19  20
HETATM   20  C4  UNL     1      -5.945   6.730  13.652  1.00  0.00     0.263 C 
HETATM   21  C3  UNL     1      -6.950   6.510  14.783  1.00  0.00     0.095 C 
HETATM   22  C2  UNL     1      -8.095   5.615  14.326  1.00  0.00     0.156 C 
HETATM   23  C32 UNL     1      -7.534   4.319  13.709  1.00  0.00     0.175 C 
HETATM   24  C30 UNL     1      -6.475   4.649  12.644  1.00  0.00     0.151 C 
HETATM   25  O8  UNL     1      -5.445   5.476  13.196  1.00  0.00    -0.354 OA
HETATM   26  C31 UNL     1      -5.809   3.384  12.112  1.00  0.00     0.042 C 
BRANCH  22  27
HETATM   27  O1  UNL     1      -8.899   6.250  13.312  1.00  0.00    -0.388 OA
HETATM   28  C1  UNL     1     -10.104   6.814  13.816  1.00  0.00     0.202 C 
ENDBRANCH  22  27
BRANCH  23  29
HETATM   29  O9  UNL     1      -8.608   3.563  13.139  1.00  0.00    -0.390 OA
HETATM   30  H49 UNL     1      -9.199   4.229  12.728  1.00  0.00     0.210 HD
ENDBRANCH  23  29
ENDBRANCH  19  20
ENDBRANCH   1  19
BRANCH  17  31
HETATM   31  O7  UNL     1      -1.659   6.523  11.661  1.00  0.00    -0.389 OA
HETATM   32  H41 UNL     1      -2.107   5.666  11.539  1.00  0.00     0.210 HD
ENDBRANCH  17  31
BRANCH   4  33
HETATM   33  C9  UNL     1      -0.448   8.287  14.778  1.00  0.00     0.068 C 
HETATM   34  N1  UNL     1      -0.267   9.452  15.305  1.00  0.00    -0.399 N 
ATOM     35  H1  UNL     1      -0.340  10.320  14.776  1.00  0.00     0.158 HD
BRANCH  34  36
HETATM   36  C10 UNL     1       0.054   9.410  16.740  1.00  0.00     0.144 C 
BRANCH  36  37
HETATM   37  C11 UNL     1       1.401  10.102  16.939  1.00  0.00     0.183 C 
BRANCH  37  38
HETATM   38  O3  UNL     1       2.244   9.272  17.740  1.00  0.00    -0.399 OA
HETATM   39  H18 UNL     1       2.164   8.388  17.331  1.00  0.00     0.209 HD
ENDBRANCH  37  38
ENDBRANCH  36  37
ENDBRANCH  34  36
ENDBRANCH   4  33
BRANCH  13  40
HETATM   40  O6  UNL     1       3.323   5.758  11.436  1.00  0.00    -0.389 OA
HETATM   41  H35 UNL     1       2.767   5.136  10.936  1.00  0.00     0.210 HD
ENDBRANCH  13  40
BRANCH  10  42
HETATM   42  C18 UNL     1       5.661   9.417  11.026  1.00  0.00    -0.045 A 
HETATM   43  C19 UNL     1       6.949   9.487  10.684  1.00  0.00     0.087 A 
HETATM   44  C20 UNL     1       7.432  10.819  11.041  1.00  0.00     0.283 A 
HETATM   45  O4  UNL     1       8.565  11.220  10.855  1.00  0.00    -0.260 OA
HETATM   46  O5  UNL     1       6.419  11.517  11.615  1.00  0.00    -0.314 OA
HETATM   47  C21 UNL     1       5.241  10.711  11.623  1.00  0.00     0.213 A 
ENDBRANCH  10  42
TORSDOF 11
ENDMDL
MODEL 4
REMARK minimizedAffinity -9.20602894
REMARK CNNscore 0.375821292
REMARK CNNaffinity 6.78941107
REMARK  11 active torsions:
REMARK  status: ('A' for Active; 'I' for Inactive)
REMARK    1  A    between atoms: O1_2  and  C2_3 
REMARK    2  A    between atoms: C4_5  and  O2_6 
REMARK    3  A    between atoms: O2_6  and  C5_7 
REMARK    4  A    between atoms: C8_10  and  C9_11 
REMARK    5  A    between atoms: N1_12  and  C10_14 
REMARK    6  A    between atoms: C10_14  and  C11_15 
REMARK    7  A    between atoms: C11_15  and  O3_16 
REMARK    8  A    between atoms: C17_22  and  C18_23 
REMARK    9  A    between atoms: C24_31  and  O6_32 
REMARK   10  A    between atoms: C28_36  and  O7_37 
REMARK   11  A    between atoms: C32_42  and  O9_43 
ROOT
HETATM    1  C5  UNL     1      -5.820   7.264  15.320  1.00  0.00     0.127 C 
HETATM    2  C6  UNL     1      -5.800   7.838  13.902  1.00  0.00     0.033 C 
HETATM    3  C7  UNL     1      -4.537   7.465  13.119  1.00  0.00     0.021 C 
HETATM    4  C8  UNL     1      -3.222   7.818  13.875  1.00  0.00     0.026 C 
HETATM    5  C12 UNL     1      -1.977   7.264  13.053  1.00  0.00     0.009 C 
HETATM    6  C13 UNL     1      -1.456   8.282  12.015  1.00  0.00     0.007 C 
HETATM    7  C14 UNL     1      -0.267   7.773  11.213  1.00  0.00     0.013 C 
HETATM    8  C15 UNL     1       0.930   7.394  12.110  1.00  0.00    -0.005 C 
HETATM    9  C16 UNL     1       1.564   8.659  12.725  1.00  0.00     0.019 C 
HETATM   10  C17 UNL     1       1.999   6.565  11.316  1.00  0.00     0.028 C 
HETATM   11  C22 UNL     1       1.438   5.126  11.316  1.00  0.00     0.013 C 
HETATM   12  C23 UNL     1       0.378   5.057  12.415  1.00  0.00     0.040 C 
HETATM   13  C24 UNL     1       0.486   6.380  13.201  1.00  0.00     0.070 C 
HETATM   14  C25 UNL     1      -0.840   6.689  13.955  1.00  0.00     0.026 C 
HETATM   15  C26 UNL     1      -0.708   7.513  15.246  1.00  0.00     0.011 C 
HETATM   16  C27 UNL     1      -1.987   7.448  16.104  1.00  0.00     0.039 C 
HETATM   17  C28 UNL     1      -3.275   7.173  15.294  1.00  0.00     0.073 C 
HETATM   18  C29 UNL     1      -4.527   7.610  16.073  1.00  0.00     0.071 C 
ENDROOT
BRANCH   1  19
HETATM   19  O2  UNL     1      -6.939   7.848  15.996  1.00  0.00    -0.356 OA
BRANCH  19  20
HETATM   20  C4  UNL     1      -8.103   7.977  15.178  1.00  0.00     0.263 C 
HETATM   21  C3  UNL     1      -9.277   8.221  16.126  1.00  0.00     0.095 C 
HETATM   22  C2  UNL     1     -10.587   8.316  15.354  1.00  0.00     0.156 C 
HETATM   23  C32 UNL     1     -10.749   7.086  14.441  1.00  0.00     0.175 C 
HETATM   24  C30 UNL     1      -9.485   6.881  13.590  1.00  0.00     0.151 C 
HETATM   25  O8  UNL     1      -8.325   6.786  14.426  1.00  0.00    -0.354 OA
HETATM   26  C31 UNL     1      -9.566   5.594  12.776  1.00  0.00     0.042 C 
BRANCH  22  27
HETATM   27  O1  UNL     1     -10.625   9.480  14.503  1.00  0.00    -0.388 OA
HETATM   28  C1  UNL     1     -10.713  10.704  15.221  1.00  0.00     0.202 C 
ENDBRANCH  22  27
BRANCH  23  29
HETATM   29  O9  UNL     1     -11.898   7.264  13.606  1.00  0.00    -0.390 OA
HETATM   30  H49 UNL     1     -11.887   8.212  13.356  1.00  0.00     0.210 HD
ENDBRANCH  23  29
ENDBRANCH  19  20
ENDBRANCH   1  19
BRANCH  17  31
HETATM   31  O7  UNL     1      -3.376   5.741  15.136  1.00  0.00    -0.389 OA
HETATM   32  H41 UNL     1      -3.477   5.344  16.020  1.00  0.00     0.210 HD
ENDBRANCH  17  31
BRANCH   4  33
HETATM   33  C9  UNL     1      -3.124   9.350  14.035  1.00  0.00     0.068 C 
HETATM   34  N1  UNL     1      -2.399   9.902  14.949  1.00  0.00    -0.399 N 
ATOM     35  H1  UNL     1      -1.824   9.370  15.602  1.00  0.00     0.158 HD
BRANCH  34  36
HETATM   36  C10 UNL     1      -2.479  11.371  14.963  1.00  0.00     0.144 C 
BRANCH  36  37
HETATM   37  C11 UNL     1      -1.087  11.920  14.658  1.00  0.00     0.183 C 
BRANCH  37  38
HETATM   38  O3  UNL     1      -1.204  13.053  13.797  1.00  0.00    -0.399 OA
HETATM   39  H18 UNL     1      -1.903  13.596  14.214  1.00  0.00     0.209 HD
ENDBRANCH  37  38
ENDBRANCH  36  37
ENDBRANCH  34  36
ENDBRANCH   4  33
BRANCH  13  40
HETATM   40  O6  UNL     1       1.550   6.198  14.145  1.00  0.00    -0.389 OA
HETATM   41  H35 UNL     1       1.294   5.476  14.746  1.00  0.00     0.210 HD
ENDBRANCH  13  40
BRANCH  10  42
HETATM   42  C18 UNL     1       2.444   7.080   9.969  1.00  0.00    -0.045 A 
HETATM   43  C19 UNL     1       2.866   8.301   9.635  1.00  0.00     0.087 A 
HETATM   44  C20 UNL     1       3.083   8.316   8.190  1.00  0.00     0.283 A 
HETATM   45  O4  UNL     1       3.480   9.277   7.558  1.00  0.00    -0.260 OA
HETATM   46  O5  UNL     1       2.761   7.099   7.682  1.00  0.00    -0.314 OA
HETATM   47  C21 UNL     1       2.369   6.236   8.749  1.00  0.00     0.213 A 
ENDBRANCH  10  42
TORSDOF 11
ENDMDL
MODEL 5
REMARK minimizedAffinity -7.68264532
REMARK CNNscore 0.365280211
REMARK CNNaffinity 6.51084661
REMARK  11 active torsions:
REMARK  status: ('A' for Active; 'I' for Inactive)
REMARK    1  A    between atoms: O1_2  and  C2_3 
REMARK    2  A    between atoms: C4_5  and  O2_6 
REMARK    3  A    between atoms: O2_6  and  C5_7 
REMARK    4  A    between atoms: C8_10  and  C9_11 
REMARK    5  A    between atoms: N1_12  and  C10_14 
REMARK    6  A    between atoms: C10_14  and  C11_15 
REMARK    7  A    between atoms: C11_15  and  O3_16 
REMARK    8  A    between atoms: C17_22  and  C18_23 
REMARK    9  A    between atoms: C24_31  and  O6_32 
REMARK   10  A    between atoms: C28_36  and  O7_37 
REMARK   11  A    between atoms: C32_42  and  O9_43 
ROOT
HETATM    1  C5  UNL     1      -1.236  13.067  16.162  1.00  0.00     0.127 C 
HETATM    2  C6  UNL     1      -0.667  12.595  14.823  1.00  0.00     0.033 C 
HETATM    3  C7  UNL     1      -1.413  11.390  14.243  1.00  0.00     0.021 C 
HETATM    4  C8  UNL     1      -1.529  10.201  15.243  1.00  0.00     0.026 C 
HETATM    5  C12 UNL     1      -2.439   9.063  14.606  1.00  0.00     0.009 C 
HETATM    6  C13 UNL     1      -1.623   8.058  13.764  1.00  0.00     0.007 C 
HETATM    7  C14 UNL     1      -2.474   6.960  13.140  1.00  0.00     0.013 C 
HETATM    8  C15 UNL     1      -3.245   6.141  14.196  1.00  0.00    -0.005 C 
HETATM    9  C16 UNL     1      -2.273   5.269  15.017  1.00  0.00     0.019 C 
HETATM   10  C17 UNL     1      -4.358   5.258  13.532  1.00  0.00     0.028 C 
HETATM   11  C22 UNL     1      -5.535   6.235  13.312  1.00  0.00     0.013 C 
HETATM   12  C23 UNL     1      -5.279   7.452  14.200  1.00  0.00     0.040 C 
HETATM   13  C24 UNL     1      -4.084   7.083  15.103  1.00  0.00     0.070 C 
HETATM   14  C25 UNL     1      -3.376   8.362  15.639  1.00  0.00     0.026 C 
HETATM   15  C26 UNL     1      -2.672   8.226  16.998  1.00  0.00     0.011 C 
HETATM   16  C27 UNL     1      -2.336   9.599  17.612  1.00  0.00     0.039 C 
HETATM   17  C28 UNL     1      -2.154  10.728  16.571  1.00  0.00     0.073 C 
HETATM   18  C29 UNL     1      -1.351  11.901  17.156  1.00  0.00     0.071 C 
ENDROOT
BRANCH   1  19
HETATM   19  O2  UNL     1      -0.334  14.052  16.681  1.00  0.00    -0.356 OA
BRANCH  19  20
HETATM   20  C4  UNL     1       0.752  13.502  17.428  1.00  0.00     0.263 C 
HETATM   21  C3  UNL     1       1.657  12.790  16.422  1.00  0.00     0.095 C 
HETATM   22  C2  UNL     1       2.825  12.114  17.126  1.00  0.00     0.156 C 
HETATM   23  C32 UNL     1       2.303  11.214  18.263  1.00  0.00     0.175 C 
HETATM   24  C30 UNL     1       1.340  12.000  19.168  1.00  0.00     0.151 C 
HETATM   25  O8  UNL     1       0.277  12.571  18.397  1.00  0.00    -0.354 OA
HETATM   26  C31 UNL     1       0.707  11.098  20.222  1.00  0.00     0.042 C 
BRANCH  22  27
HETATM   27  O1  UNL     1       3.718  13.073  17.726  1.00  0.00    -0.388 OA
HETATM   28  C1  UNL     1       3.317  13.485  19.028  1.00  0.00     0.202 C 
ENDBRANCH  22  27
BRANCH  23  29
HETATM   29  O9  UNL     1       3.412  10.713  19.018  1.00  0.00    -0.390 OA
HETATM   30  H49 UNL     1       4.042  11.462  19.072  1.00  0.00     0.210 HD
ENDBRANCH  23  29
ENDBRANCH  19  20
ENDBRANCH   1  19
BRANCH  17  31
HETATM   31  O7  UNL     1      -3.470  11.245  16.276  1.00  0.00    -0.389 OA
HETATM   32  H41 UNL     1      -3.834  11.633  17.092  1.00  0.00     0.210 HD
ENDBRANCH  17  31
BRANCH   4  33
HETATM   33  C9  UNL     1      -0.117   9.656  15.547  1.00  0.00     0.068 C 
HETATM   34  N1  UNL     1       0.834   9.680  14.674  1.00  0.00    -0.399 N 
ATOM     35  H1  UNL     1       0.726  10.084  13.744  1.00  0.00     0.158 HD
BRANCH  34  36
HETATM   36  C10 UNL     1       2.087   9.070  15.145  1.00  0.00     0.144 C 
BRANCH  36  37
HETATM   37  C11 UNL     1       1.728   7.822  15.950  1.00  0.00     0.183 C 
BRANCH  37  38
HETATM   38  O3  UNL     1       2.359   6.684  15.363  1.00  0.00    -0.399 OA
HETATM   39  H18 UNL     1       3.283   6.970  15.223  1.00  0.00     0.209 HD
ENDBRANCH  37  38
ENDBRANCH  36  37
ENDBRANCH  34  36
ENDBRANCH   4  33
BRANCH  13  40
HETATM   40  O6  UNL     1      -4.626   6.334  16.198  1.00  0.00    -0.389 OA
HETATM   41  H35 UNL     1      -5.240   6.916  16.682  1.00  0.00     0.210 HD
ENDBRANCH  13  40
BRANCH  10  42
HETATM   42  C18 UNL     1      -3.985   4.423  12.331  1.00  0.00    -0.045 A 
HETATM   43  C19 UNL     1      -2.774   4.156  11.838  1.00  0.00     0.087 A 
HETATM   44  C20 UNL     1      -2.955   3.385  10.610  1.00  0.00     0.283 A 
HETATM   45  O4  UNL     1      -2.049   2.970   9.912  1.00  0.00    -0.260 OA
HETATM   46  O5  UNL     1      -4.283   3.226  10.379  1.00  0.00    -0.314 OA
HETATM   47  C21 UNL     1      -5.018   3.832  11.442  1.00  0.00     0.213 A 
ENDBRANCH  10  42
TORSDOF 11
ENDMDL
MODEL 6
REMARK minimizedAffinity -9.05243587
REMARK CNNscore 0.308865726
REMARK CNNaffinity 6.27452517
REMARK  11 active torsions:
REMARK  status: ('A' for Active; 'I' for Inactive)
REMARK    1  A    between atoms: O1_2  and  C2_3 
REMARK    2  A    between atoms: C4_5  and  O2_6 
REMARK    3  A    between atoms: O2_6  and  C5_7 
REMARK    4  A    between atoms: C8_10  and  C9_11 
REMARK    5  A    between atoms: N1_12  and  C10_14 
REMARK    6  A    between atoms: C10_14  and  C11_15 
REMARK    7  A    between atoms: C11_15  and  O3_16 
REMARK    8  A    between atoms: C17_22  and  C18_23 
REMARK    9  A    between atoms: C24_31  and  O6_32 
REMARK   10  A    between atoms: C28_36  and  O7_37 
REMARK   11  A    between atoms: C32_42  and  O9_43 
ROOT
HETATM    1  C5  UNL     1       0.283  11.043  18.608  1.00  0.00     0.127 C 
HETATM    2  C6  UNL     1      -1.166  10.824  19.047  1.00  0.00     0.033 C 
HETATM    3  C7  UNL     1      -1.867   9.704  18.273  1.00  0.00     0.021 C 
HETATM    4  C8  UNL     1      -1.780   9.881  16.727  1.00  0.00     0.026 C 
HETATM    5  C12 UNL     1      -2.404   8.604  16.015  1.00  0.00     0.009 C 
HETATM    6  C13 UNL     1      -3.924   8.745  15.777  1.00  0.00     0.007 C 
HETATM    7  C14 UNL     1      -4.546   7.532  15.099  1.00  0.00     0.013 C 
HETATM    8  C15 UNL     1      -3.903   7.229  13.730  1.00  0.00    -0.005 C 
HETATM    9  C16 UNL     1      -4.286   8.315  12.703  1.00  0.00     0.019 C 
HETATM   10  C17 UNL     1      -4.309   5.806  13.211  1.00  0.00     0.028 C 
HETATM   11  C22 UNL     1      -3.359   4.845  13.961  1.00  0.00     0.013 C 
HETATM   12  C23 UNL     1      -2.205   5.688  14.503  1.00  0.00     0.040 C 
HETATM   13  C24 UNL     1      -2.363   7.088  13.876  1.00  0.00     0.070 C 
HETATM   14  C25 UNL     1      -1.633   8.166  14.730  1.00  0.00     0.026 C 
HETATM   15  C26 UNL     1      -1.114   9.395  13.968  1.00  0.00     0.011 C 
HETATM   16  C27 UNL     1      -0.101  10.204  14.802  1.00  0.00     0.039 C 
HETATM   17  C28 UNL     1      -0.281  10.055  16.331  1.00  0.00     0.073 C 
HETATM   18  C29 UNL     1       0.378  11.221  17.086  1.00  0.00     0.071 C 
ENDROOT
BRANCH   1  19
HETATM   19  O2  UNL     1       0.747  12.232  19.260  1.00  0.00    -0.356 OA
BRANCH  19  20
HETATM   20  C4  UNL     1       1.926  12.038  20.042  1.00  0.00     0.263 C 
HETATM   21  C3  UNL     1       2.040  10.534  20.292  1.00  0.00     0.095 C 
HETATM   22  C2  UNL     1       3.242  10.220  21.173  1.00  0.00     0.156 C 
HETATM   23  C32 UNL     1       3.194  11.078  22.452  1.00  0.00     0.175 C 
HETATM   24  C30 UNL     1       2.995  12.560  22.095  1.00  0.00     0.151 C 
HETATM   25  O8  UNL     1       1.827  12.730  21.284  1.00  0.00    -0.354 OA
HETATM   26  C31 UNL     1       2.811  13.414  23.345  1.00  0.00     0.042 C 
BRANCH  22  27
HETATM   27  O1  UNL     1       4.487  10.523  20.511  1.00  0.00    -0.388 OA
HETATM   28  C1  UNL     1       4.982  11.824  20.801  1.00  0.00     0.202 C 
ENDBRANCH  22  27
BRANCH  23  29
HETATM   29  O9  UNL     1       4.406  10.894  23.192  1.00  0.00    -0.390 OA
HETATM   30  H49 UNL     1       5.113  10.847  22.515  1.00  0.00     0.210 HD
ENDBRANCH  23  29
ENDBRANCH  19  20
ENDBRANCH   1  19
BRANCH  17  31
HETATM   31  O7  UNL     1       0.431   8.863  16.725  1.00  0.00    -0.389 OA
HETATM   32  H41 UNL     1       1.378   8.999  16.537  1.00  0.00     0.210 HD
ENDBRANCH  17  31
BRANCH   4  33
HETATM   33  C9  UNL     1      -2.547  11.156  16.319  1.00  0.00     0.068 C 
HETATM   34  N1  UNL     1      -1.953  12.189  15.821  1.00  0.00    -0.399 N 
ATOM     35  H1  UNL     1      -0.950  12.220  15.638  1.00  0.00     0.158 HD
BRANCH  34  36
HETATM   36  C10 UNL     1      -2.855  13.316  15.542  1.00  0.00     0.144 C 
BRANCH  36  37
HETATM   37  C11 UNL     1      -2.290  14.087  14.351  1.00  0.00     0.183 C 
BRANCH  37  38
HETATM   38  O3  UNL     1      -1.404  13.239  13.618  1.00  0.00    -0.399 OA
HETATM   39  H18 UNL     1      -1.905  12.406  13.515  1.00  0.00     0.209 HD
ENDBRANCH  37  38
ENDBRANCH  36  37
ENDBRANCH  34  36
ENDBRANCH   4  33
BRANCH  13  40
HETATM   40  O6  UNL     1      -1.764   7.013  12.576  1.00  0.00    -0.389 OA
HETATM   41  H35 UNL     1      -0.820   6.808  12.694  1.00  0.00     0.210 HD
ENDBRANCH  13  40
BRANCH  10  42
HETATM   42  C18 UNL     1      -5.768   5.422  13.248  1.00  0.00    -0.045 A 
HETATM   43  C19 UNL     1      -6.325   4.221  13.083  1.00  0.00     0.087 A 
HETATM   44  C20 UNL     1      -7.775   4.396  13.111  1.00  0.00     0.283 A 
HETATM   45  O4  UNL     1      -8.585   3.495  12.997  1.00  0.00    -0.260 OA
HETATM   46  O5  UNL     1      -8.059   5.713  13.269  1.00  0.00    -0.314 OA
HETATM   47  C21 UNL     1      -6.838   6.443  13.394  1.00  0.00     0.213 A 
ENDBRANCH  10  42
TORSDOF 11
ENDMDL
MODEL 7
REMARK minimizedAffinity -8.35109901
REMARK CNNscore 0.302264392
REMARK CNNaffinity 6.18581724
REMARK  11 active torsions:
REMARK  status: ('A' for Active; 'I' for Inactive)
REMARK    1  A    between atoms: O1_2  and  C2_3 
REMARK    2  A    between atoms: C4_5  and  O2_6 
REMARK    3  A    between atoms: O2_6  and  C5_7 
REMARK    4  A    between atoms: C8_10  and  C9_11 
REMARK    5  A    between atoms: N1_12  and  C10_14 
REMARK    6  A    between atoms: C10_14  and  C11_15 
REMARK    7  A    between atoms: C11_15  and  O3_16 
REMARK    8  A    between atoms: C17_22  and  C18_23 
REMARK    9  A    between atoms: C24_31  and  O6_32 
REMARK   10  A    between atoms: C28_36  and  O7_37 
REMARK   11  A    between atoms: C32_42  and  O9_43 
ROOT
HETATM    1  C5  UNL     1      -2.088   7.008  13.832  1.00  0.00     0.127 C 
HETATM    2  C6  UNL     1      -2.299   6.716  15.319  1.00  0.00     0.033 C 
HETATM    3  C7  UNL     1      -2.978   7.867  16.068  1.00  0.00     0.021 C 
HETATM    4  C8  UNL     1      -2.259   9.234  15.870  1.00  0.00     0.026 C 
HETATM    5  C12 UNL     1      -3.114  10.384  16.561  1.00  0.00     0.009 C 
HETATM    6  C13 UNL     1      -2.736  10.589  18.044  1.00  0.00     0.007 C 
HETATM    7  C14 UNL     1      -3.545  11.682  18.729  1.00  0.00     0.013 C 
HETATM    8  C15 UNL     1      -3.392  13.051  18.033  1.00  0.00    -0.005 C 
HETATM    9  C16 UNL     1      -1.972  13.612  18.255  1.00  0.00     0.019 C 
HETATM   10  C17 UNL     1      -4.476  14.069  18.531  1.00  0.00     0.028 C 
HETATM   11  C22 UNL     1      -5.739  13.704  17.718  1.00  0.00     0.013 C 
HETATM   12  C23 UNL     1      -5.279  12.861  16.529  1.00  0.00     0.040 C 
HETATM   13  C24 UNL     1      -3.738  12.930  16.523  1.00  0.00     0.070 C 
HETATM   14  C25 UNL     1      -3.130  11.720  15.754  1.00  0.00     0.026 C 
HETATM   15  C26 UNL     1      -1.769  11.960  15.083  1.00  0.00     0.011 C 
HETATM   16  C27 UNL     1      -1.432  10.862  14.055  1.00  0.00     0.039 C 
HETATM   17  C28 UNL     1      -2.110   9.502  14.341  1.00  0.00     0.073 C 
HETATM   18  C29 UNL     1      -1.377   8.353  13.628  1.00  0.00     0.071 C 
ENDROOT
BRANCH   1  19
HETATM   19  O2  UNL     1      -1.276   5.952  13.305  1.00  0.00    -0.356 OA
BRANCH  19  20
HETATM   20  C4  UNL     1      -2.022   4.817  12.863  1.00  0.00     0.263 C 
HETATM   21  C3  UNL     1      -1.624   4.574  11.407  1.00  0.00     0.095 C 
HETATM   22  C2  UNL     1      -2.410   3.412  10.816  1.00  0.00     0.156 C 
HETATM   23  C32 UNL     1      -3.919   3.632  11.037  1.00  0.00     0.175 C 
HETATM   24  C30 UNL     1      -4.203   3.949  12.514  1.00  0.00     0.151 C 
HETATM   25  O8  UNL     1      -3.422   5.069  12.948  1.00  0.00    -0.354 OA
HETATM   26  C31 UNL     1      -5.669   4.302  12.736  1.00  0.00     0.042 C 
BRANCH  22  27
HETATM   27  O1  UNL     1      -2.072   2.160  11.445  1.00  0.00    -0.388 OA
HETATM   28  C1  UNL     1      -3.182   1.284  11.600  1.00  0.00     0.202 C 
ENDBRANCH  22  27
BRANCH  23  29
HETATM   29  O9  UNL     1      -4.634   2.462  10.623  1.00  0.00    -0.390 OA
HETATM   30  H49 UNL     1      -4.079   1.709  10.913  1.00  0.00     0.210 HD
ENDBRANCH  23  29
ENDBRANCH  19  20
ENDBRANCH   1  19
BRANCH  17  31
HETATM   31  O7  UNL     1      -3.432   9.560  13.763  1.00  0.00    -0.389 OA
HETATM   32  H41 UNL     1      -3.337   9.661  12.798  1.00  0.00     0.210 HD
ENDBRANCH  17  31
BRANCH   4  33
HETATM   33  C9  UNL     1      -0.849   9.161  16.495  1.00  0.00     0.068 C 
HETATM   34  N1  UNL     1       0.210   9.518  15.850  1.00  0.00    -0.399 N 
ATOM     35  H1  UNL     1       0.184   9.898  14.904  1.00  0.00     0.158 HD
BRANCH  34  36
HETATM   36  C10 UNL     1       1.458   9.327  16.605  1.00  0.00     0.144 C 
BRANCH  36  37
HETATM   37  C11 UNL     1       2.136   8.064  16.079  1.00  0.00     0.183 C 
BRANCH  37  38
HETATM   38  O3  UNL     1       1.556   6.920  16.709  1.00  0.00    -0.399 OA
HETATM   39  H18 UNL     1       0.594   7.069  16.633  1.00  0.00     0.209 HD
ENDBRANCH  37  38
ENDBRANCH  36  37
ENDBRANCH  34  36
ENDBRANCH   4  33
BRANCH  13  40
HETATM   40  O6  UNL     1      -3.395  14.151  15.855  1.00  0.00    -0.389 OA
HETATM   41  H35 UNL     1      -3.727  14.094  14.942  1.00  0.00     0.210 HD
ENDBRANCH  13  40
BRANCH  10  42
HETATM   42  C18 UNL     1      -4.691  14.212  20.018  1.00  0.00    -0.045 A 
HETATM   43  C19 UNL     1      -5.604  13.626  20.795  1.00  0.00     0.087 A 
HETATM   44  C20 UNL     1      -5.456  14.170  22.143  1.00  0.00     0.283 A 
HETATM   45  O4  UNL     1      -6.130  13.842  23.101  1.00  0.00    -0.260 OA
HETATM   46  O5  UNL     1      -4.464  15.097  22.139  1.00  0.00    -0.314 OA
HETATM   47  C21 UNL     1      -3.898  15.172  20.830  1.00  0.00     0.213 A 
ENDBRANCH  10  42
TORSDOF 11
ENDMDL
MODEL 8
REMARK minimizedAffinity -8.4139204
REMARK CNNscore 0.281902432
REMARK CNNaffinity 7.13086319
REMARK  11 active torsions:
REMARK  status: ('A' for Active; 'I' for Inactive)
REMARK    1  A    between atoms: O1_2  and  C2_3 
REMARK    2  A    between atoms: C4_5  and  O2_6 
REMARK    3  A    between atoms: O2_6  and  C5_7 
REMARK    4  A    between atoms: C8_10  and  C9_11 
REMARK    5  A    between atoms: N1_12  and  C10_14 
REMARK    6  A    between atoms: C10_14  and  C11_15 
REMARK    7  A    between atoms: C11_15  and  O3_16 
REMARK    8  A    between atoms: C17_22  and  C18_23 
REMARK    9  A    between atoms: C24_31  and  O6_32 
REMARK   10  A    between atoms: C28_36  and  O7_37 
REMARK   11  A    between atoms: C32_42  and  O9_43 
ROOT
HETATM    1  C5  UNL     1      -4.328   6.682  14.246  1.00  0.00     0.127 C 
HETATM    2  C6  UNL     1      -4.999   6.438  12.892  1.00  0.00     0.033 C 
HETATM    3  C7  UNL     1      -6.394   7.063  12.790  1.00  0.00     0.021 C 
HETATM    4  C8  UNL     1      -7.338   6.646  13.956  1.00  0.00     0.026 C 
HETATM    5  C12 UNL     1      -8.704   7.454  13.843  1.00  0.00     0.009 C 
HETATM    6  C13 UNL     1      -9.745   6.730  12.963  1.00  0.00     0.007 C 
HETATM    7  C14 UNL     1     -11.061   7.486  12.835  1.00  0.00     0.013 C 
HETATM    8  C15 UNL     1     -11.727   7.741  14.203  1.00  0.00    -0.005 C 
HETATM    9  C16 UNL     1     -12.254   6.420  14.801  1.00  0.00     0.019 C 
HETATM   10  C17 UNL     1     -12.881   8.798  14.088  1.00  0.00     0.028 C 
HETATM   11  C22 UNL     1     -12.149  10.159  14.099  1.00  0.00     0.013 C 
HETATM   12  C23 UNL     1     -10.743   9.908  14.644  1.00  0.00     0.040 C 
HETATM   13  C24 UNL     1     -10.735   8.455  15.162  1.00  0.00     0.070 C 
HETATM   14  C25 UNL     1      -9.285   7.894  15.223  1.00  0.00     0.026 C 
HETATM   15  C26 UNL     1      -9.020   6.818  16.287  1.00  0.00     0.011 C 
HETATM   16  C27 UNL     1      -7.512   6.601  16.525  1.00  0.00     0.039 C 
HETATM   17  C28 UNL     1      -6.626   6.956  15.309  1.00  0.00     0.073 C 
HETATM   18  C29 UNL     1      -5.252   6.270  15.401  1.00  0.00     0.071 C 
ENDROOT
BRANCH   1  19
HETATM   19  O2  UNL     1      -3.138   5.885  14.277  1.00  0.00    -0.356 OA
BRANCH  19  20
HETATM   20  C4  UNL     1      -1.948   6.616  13.978  1.00  0.00     0.263 C 
HETATM   21  C3  UNL     1      -2.272   8.091  14.214  1.00  0.00     0.095 C 
HETATM   22  C2  UNL     1      -1.078   8.971  13.867  1.00  0.00     0.156 C 
HETATM   23  C32 UNL     1      -0.581   8.646  12.445  1.00  0.00     0.175 C 
HETATM   24  C30 UNL     1      -0.365   7.132  12.288  1.00  0.00     0.151 C 
HETATM   25  O8  UNL     1      -1.559   6.415  12.622  1.00  0.00    -0.354 OA
HETATM   26  C31 UNL     1      -0.002   6.769  10.852  1.00  0.00     0.042 C 
BRANCH  22  27
HETATM   27  O1  UNL     1       0.031   8.748  14.761  1.00  0.00    -0.388 OA
HETATM   28  C1  UNL     1      -0.366   8.459  16.096  1.00  0.00     0.202 C 
ENDBRANCH  22  27
BRANCH  23  29
HETATM   29  O9  UNL     1       0.634   9.360  12.193  1.00  0.00    -0.390 OA
HETATM   30  H49 UNL     1       1.131   9.323  13.037  1.00  0.00     0.210 HD
ENDBRANCH  23  29
ENDBRANCH  19  20
ENDBRANCH   1  19
BRANCH  17  31
HETATM   31  O7  UNL     1      -6.374   8.376  15.371  1.00  0.00    -0.389 OA
HETATM   32  H41 UNL     1      -5.870   8.560  16.184  1.00  0.00     0.210 HD
ENDBRANCH  17  31
BRANCH   4  33
HETATM   33  C9  UNL     1      -7.601   5.127  13.877  1.00  0.00     0.068 C 
HETATM   34  N1  UNL     1      -8.108   4.570  12.829  1.00  0.00    -0.399 N 
ATOM     35  H1  UNL     1      -8.339   5.085  11.979  1.00  0.00     0.158 HD
BRANCH  34  36
HETATM   36  C10 UNL     1      -8.324   3.121  12.972  1.00  0.00     0.144 C 
BRANCH  36  37
HETATM   37  C11 UNL     1      -6.979   2.425  12.771  1.00  0.00     0.183 C 
BRANCH  37  38
HETATM   38  O3  UNL     1      -7.195   1.145  12.175  1.00  0.00    -0.399 OA
HETATM   39  H18 UNL     1      -7.807   1.328  11.435  1.00  0.00     0.209 HD
ENDBRANCH  37  38
ENDBRANCH  36  37
ENDBRANCH  34  36
ENDBRANCH   4  33
BRANCH  13  40
HETATM   40  O6  UNL     1     -11.294   8.499  16.482  1.00  0.00    -0.389 OA
HETATM   41  H35 UNL     1     -10.712   9.051  17.033  1.00  0.00     0.210 HD
ENDBRANCH  13  40
BRANCH  10  42
HETATM   42  C18 UNL     1     -13.898   8.626  12.987  1.00  0.00    -0.045 A 
HETATM   43  C19 UNL     1     -14.521   9.560  12.266  1.00  0.00     0.087 A 
HETATM   44  C20 UNL     1     -15.482   8.884  11.398  1.00  0.00     0.283 A 
HETATM   45  O4  UNL     1     -16.213   9.445  10.602  1.00  0.00    -0.260 OA
HETATM   46  O5  UNL     1     -15.430   7.549  11.636  1.00  0.00    -0.314 OA
HETATM   47  C21 UNL     1     -14.427   7.287  12.616  1.00  0.00     0.213 A 
ENDBRANCH  10  42
TORSDOF 11
ENDMDL
MODEL 9
REMARK minimizedAffinity -7.37406921
REMARK CNNscore 0.237920061
REMARK CNNaffinity 5.69983625
REMARK  11 active torsions:
REMARK  status: ('A' for Active; 'I' for Inactive)
REMARK    1  A    between atoms: O1_2  and  C2_3 
REMARK    2  A    between atoms: C4_5  and  O2_6 
REMARK    3  A    between atoms: O2_6  and  C5_7 
REMARK    4  A    between atoms: C8_10  and  C9_11 
REMARK    5  A    between atoms: N1_12  and  C10_14 
REMARK    6  A    between atoms: C10_14  and  C11_15 
REMARK    7  A    between atoms: C11_15  and  O3_16 
REMARK    8  A    between atoms: C17_22  and  C18_23 
REMARK    9  A    between atoms: C24_31  and  O6_32 
REMARK   10  A    between atoms: C28_36  and  O7_37 
REMARK   11  A    between atoms: C32_42  and  O9_43 
ROOT
HETATM    1  C5  UNL     1      -4.348  12.672  17.506  1.00  0.00     0.127 C 
HETATM    2  C6  UNL     1      -4.319  12.763  15.979  1.00  0.00     0.033 C 
HETATM    3  C7  UNL     1      -3.701  11.529  15.314  1.00  0.00     0.021 C 
HETATM    4  C8  UNL     1      -2.291  11.175  15.872  1.00  0.00     0.026 C 
HETATM    5  C12 UNL     1      -1.798   9.805  15.229  1.00  0.00     0.009 C 
HETATM    6  C13 UNL     1      -1.036  10.018  13.903  1.00  0.00     0.007 C 
HETATM    7  C14 UNL     1      -0.558   8.720  13.265  1.00  0.00     0.013 C 
HETATM    8  C15 UNL     1       0.374   7.916  14.196  1.00  0.00    -0.005 C 
HETATM    9  C16 UNL     1       1.730   8.634  14.352  1.00  0.00     0.019 C 
HETATM   10  C17 UNL     1       0.577   6.452  13.672  1.00  0.00     0.028 C 
HETATM   11  C22 UNL     1      -0.685   5.700  14.152  1.00  0.00     0.013 C 
HETATM   12  C23 UNL     1      -1.323   6.550  15.251  1.00  0.00     0.040 C 
HETATM   13  C24 UNL     1      -0.313   7.672  15.568  1.00  0.00     0.070 C 
HETATM   14  C25 UNL     1      -1.024   8.890  16.228  1.00  0.00     0.026 C 
HETATM   15  C26 UNL     1      -0.168   9.737  17.183  1.00  0.00     0.011 C 
HETATM   16  C27 UNL     1      -1.030  10.666  18.059  1.00  0.00     0.039 C 
HETATM   17  C28 UNL     1      -2.387  11.051  17.424  1.00  0.00     0.073 C 
HETATM   18  C29 UNL     1      -2.960  12.326  18.065  1.00  0.00     0.071 C 
ENDROOT
BRANCH   1  19
HETATM   19  O2  UNL     1      -4.756  13.955  17.997  1.00  0.00    -0.356 OA
BRANCH  19  20
HETATM   20  C4  UNL     1      -4.571  14.118  19.404  1.00  0.00     0.263 C 
HETATM   21  C3  UNL     1      -5.916  14.577  19.970  1.00  0.00     0.095 C 
HETATM   22  C2  UNL     1      -5.814  14.838  21.467  1.00  0.00     0.156 C 
HETATM   23  C32 UNL     1      -4.641  15.795  21.754  1.00  0.00     0.175 C 
HETATM   24  C30 UNL     1      -3.358  15.287  21.075  1.00  0.00     0.151 C 
HETATM   25  O8  UNL     1      -3.572  15.099  19.671  1.00  0.00    -0.354 OA
HETATM   26  C31 UNL     1      -2.214  16.284  21.232  1.00  0.00     0.042 C 
BRANCH  22  27
HETATM   27  O1  UNL     1      -5.560  13.627  22.207  1.00  0.00    -0.388 OA
HETATM   28  C1  UNL     1      -6.733  13.050  22.769  1.00  0.00     0.202 C 
ENDBRANCH  22  27
BRANCH  23  29
HETATM   29  O9  UNL     1      -4.455  15.904  23.170  1.00  0.00    -0.390 OA
HETATM   30  H49 UNL     1      -4.604  15.000  23.517  1.00  0.00     0.210 HD
ENDBRANCH  23  29
ENDBRANCH  19  20
ENDBRANCH   1  19
BRANCH  17  31
HETATM   31  O7  UNL     1      -3.314   9.989  17.735  1.00  0.00    -0.389 OA
HETATM   32  H41 UNL     1      -3.425   9.956  18.703  1.00  0.00     0.210 HD
ENDBRANCH  17  31
BRANCH   4  33
HETATM   33  C9  UNL     1      -1.308  12.315  15.531  1.00  0.00     0.068 C 
HETATM   34  N1  UNL     1      -1.554  13.182  14.606  1.00  0.00    -0.399 N 
ATOM     35  H1  UNL     1      -2.419  13.190  14.066  1.00  0.00     0.158 HD
BRANCH  34  36
HETATM   36  C10 UNL     1      -0.472  14.158  14.405  1.00  0.00     0.144 C 
BRANCH  36  37
HETATM   37  C11 UNL     1      -0.835  15.020  13.197  1.00  0.00     0.183 C 
BRANCH  37  38
HETATM   38  O3  UNL     1      -2.120  14.630  12.709  1.00  0.00    -0.399 OA
HETATM   39  H18 UNL     1      -2.676  14.589  13.511  1.00  0.00     0.209 HD
ENDBRANCH  37  38
ENDBRANCH  36  37
ENDBRANCH  34  36
ENDBRANCH   4  33
BRANCH  13  40
HETATM   40  O6  UNL     1       0.635   7.109  16.484  1.00  0.00    -0.389 OA
HETATM   41  H35 UNL     1       0.154   6.857  17.292  1.00  0.00     0.210 HD
ENDBRANCH  13  40
BRANCH  10  42
HETATM   42  C18 UNL     1       0.925   6.256  12.217  1.00  0.00    -0.045 A 
HETATM   43  C19 UNL     1       1.127   7.175  11.272  1.00  0.00     0.087 A 
HETATM   44  C20 UNL     1       1.339   6.473  10.008  1.00  0.00     0.283 A 
HETATM   45  O4  UNL     1       1.562   7.016   8.941  1.00  0.00    -0.260 OA
HETATM   46  O5  UNL     1       1.235   5.137  10.221  1.00  0.00    -0.314 OA
HETATM   47  C21 UNL     1       0.999   4.902  11.609  1.00  0.00     0.213 A 
ENDBRANCH  10  42
TORSDOF 11
ENDMDL
