MODEL 1
REMARK minimizedAffinity -8.76571274
REMARK CNNscore 0.659206152
REMARK CNNaffinity 6.93520403
REMARK  9 active torsions:
REMARK  status: ('A' for Active; 'I' for Inactive)
REMARK    1  A    between atoms: C2_2  and  C4_4 
REMARK    2  A    between atoms: C4_4  and  O1_6 
REMARK    3  A    between atoms: C4_4  and  C6_7 
REMARK    4  A    between atoms: C7_9  and  C8_10 
REMARK    5  A    between atoms: C8_10  and  O3_12 
REMARK    6  A    between atoms: C8_10  and  C10_13 
REMARK    7  A    between atoms: C13_16  and  O4_17 
REMARK    8  A    between atoms: C19_24  and  O6_25 
REMARK    9  A    between atoms: C22_28  and  C23_29 
ROOT
HETATM    1  C10 UNL     1       3.615  10.053  15.803  1.00  0.00     0.034 C 
HETATM    2  C11 UNL     1       2.532  11.145  16.057  1.00  0.00     0.012 C 
HETATM    3  C12 UNL     1       1.310  10.793  15.189  1.00  0.00     0.044 C 
HETATM    4  C13 UNL     1       1.594   9.371  14.704  1.00  0.00     0.089 C 
HETATM    5  C14 UNL     1       0.824   8.760  13.555  1.00  0.00    -0.037 C 
HETATM    6  C15 UNL     1      -0.258   9.357  13.032  1.00  0.00     0.057 C 
HETATM    7  C16 UNL     1      -1.158   8.628  12.123  1.00  0.00     0.154 C 
HETATM    8  O5  UNL     1      -2.102   9.225  11.609  1.00  0.00    -0.293 OA
HETATM    9  C17 UNL     1      -0.951   7.140  11.934  1.00  0.00     0.071 C 
HETATM   10  C18 UNL     1      -1.702   6.363  13.025  1.00  0.00     0.045 C 
HETATM   11  C19 UNL     1      -1.650   4.854  12.770  1.00  0.00     0.119 C 
HETATM   12  C20 UNL     1      -0.622   4.449  11.715  1.00  0.00     0.032 C 
HETATM   13  C21 UNL     1       0.699   5.189  11.903  1.00  0.00     0.014 C 
HETATM   14  C22 UNL     1       0.569   6.756  11.836  1.00  0.00    -0.018 C 
HETATM   15  C29 UNL     1       1.298   7.358  13.142  1.00  0.00     0.027 C 
HETATM   16  C30 UNL     1       2.845   7.273  13.090  1.00  0.00     0.011 C 
HETATM   17  C31 UNL     1       3.580   7.926  14.273  1.00  0.00     0.014 C 
HETATM   18  C32 UNL     1       3.133   9.390  14.470  1.00  0.00    -0.002 C 
HETATM   19  C33 UNL     1       3.524  10.239  13.234  1.00  0.00     0.019 C 
ENDROOT
BRANCH   1  20
HETATM   20  C8  UNL     1       5.063  10.604  15.952  1.00  0.00     0.087 C 
HETATM   21  C9  UNL     1       5.258  11.959  15.262  1.00  0.00     0.049 C 
BRANCH  20  22
HETATM   22  C7  UNL     1       6.042   9.619  15.333  1.00  0.00     0.188 A 
HETATM   23  C6  UNL     1       7.540   9.695  15.553  1.00  0.00     0.188 A 
HETATM   24  O2  UNL     1       6.932  10.191  14.354  1.00  0.00    -0.369 OA
BRANCH  23  25
HETATM   25  C4  UNL     1       8.447   8.487  15.414  1.00  0.00     0.086 C 
HETATM   26  C5  UNL     1       8.019   7.524  14.296  1.00  0.00     0.049 C 
BRANCH  25  27
HETATM   27  C2  UNL     1       9.932   8.961  15.267  1.00  0.00     0.014 C 
HETATM   28  C1  UNL     1      10.080  10.488  15.253  1.00  0.00     0.012 C 
HETATM   29  C3  UNL     1      10.653   8.373  14.046  1.00  0.00     0.012 C 
ENDBRANCH  25  27
BRANCH  25  30
HETATM   30  O1  UNL     1       8.326   7.781  16.659  1.00  0.00    -0.387 OA
HETATM   31  H11 UNL     1       8.718   6.898  16.547  1.00  0.00     0.210 HD
ENDBRANCH  25  30
ENDBRANCH  23  25
ENDBRANCH  20  22
BRANCH  20  32
HETATM   32  O3  UNL     1       5.386  10.790  17.333  1.00  0.00    -0.387 OA
HETATM   33  H17 UNL     1       6.351  10.928  17.366  1.00  0.00     0.210 HD
ENDBRANCH  20  32
ENDBRANCH   1  20
BRANCH   4  34
HETATM   34  O4  UNL     1       1.289   8.509  15.823  1.00  0.00    -0.384 OA
HETATM   35  H23 UNL     1       0.342   8.620  16.021  1.00  0.00     0.211 HD
ENDBRANCH   4  34
BRANCH  14  36
HETATM   36  C23 UNL     1       1.205   7.350  10.481  1.00  0.00    -0.005 C 
HETATM   37  C24 UNL     1       2.160   6.421   9.692  1.00  0.00     0.005 C 
HETATM   38  C25 UNL     1       3.014   7.221   8.702  1.00  0.00     0.000 C 
HETATM   39  C26 UNL     1       2.263   8.401   8.085  1.00  0.00     0.000 C 
HETATM   40  C27 UNL     1       0.764   8.143   8.043  1.00  0.00     0.000 C 
HETATM   41  C28 UNL     1       0.175   7.871   9.437  1.00  0.00     0.005 C 
ENDBRANCH  14  36
BRANCH  11  42
HETATM   42  O6  UNL     1      -2.934   4.387  12.363  1.00  0.00    -0.396 OA
HETATM   43  H29 UNL     1      -3.195   4.874  11.562  1.00  0.00     0.210 HD
ENDBRANCH  11  42
TORSDOF 9
ENDMDL
MODEL 2
REMARK minimizedAffinity -8.23714542
REMARK CNNscore 0.622583926
REMARK CNNaffinity 6.98056173
REMARK  9 active torsions:
REMARK  status: ('A' for Active; 'I' for Inactive)
REMARK    1  A    between atoms: C2_2  and  C4_4 
REMARK    2  A    between atoms: C4_4  and  O1_6 
REMARK    3  A    between atoms: C4_4  and  C6_7 
REMARK    4  A    between atoms: C7_9  and  C8_10 
REMARK    5  A    between atoms: C8_10  and  O3_12 
REMARK    6  A    between atoms: C8_10  and  C10_13 
REMARK    7  A    between atoms: C13_16  and  O4_17 
REMARK    8  A    between atoms: C19_24  and  O6_25 
REMARK    9  A    between atoms: C22_28  and  C23_29 
ROOT
HETATM    1  C10 UNL     1       3.011   7.784  13.789  1.00  0.00     0.034 C 
HETATM    2  C11 UNL     1       3.374   7.564  15.289  1.00  0.00     0.012 C 
HETATM    3  C12 UNL     1       2.116   7.877  16.119  1.00  0.00     0.044 C 
HETATM    4  C13 UNL     1       0.997   7.965  15.080  1.00  0.00     0.089 C 
HETATM    5  C14 UNL     1      -0.341   8.588  15.412  1.00  0.00    -0.037 C 
HETATM    6  C15 UNL     1      -0.674   8.920  16.668  1.00  0.00     0.057 C 
HETATM    7  C16 UNL     1      -2.066   9.251  17.018  1.00  0.00     0.154 C 
HETATM    8  O5  UNL     1      -2.324   9.616  18.164  1.00  0.00    -0.293 OA
HETATM    9  C17 UNL     1      -3.149   9.029  15.983  1.00  0.00     0.071 C 
HETATM   10  C18 UNL     1      -3.654   7.581  16.055  1.00  0.00     0.045 C 
HETATM   11  C19 UNL     1      -4.860   7.367  15.137  1.00  0.00     0.119 C 
HETATM   12  C20 UNL     1      -5.077   8.504  14.140  1.00  0.00     0.032 C 
HETATM   13  C21 UNL     1      -3.766   8.954  13.505  1.00  0.00     0.014 C 
HETATM   14  C22 UNL     1      -2.692   9.455  14.541  1.00  0.00    -0.018 C 
HETATM   15  C29 UNL     1      -1.316   8.675  14.228  1.00  0.00     0.027 C 
HETATM   16  C30 UNL     1      -0.604   9.158  12.938  1.00  0.00     0.011 C 
HETATM   17  C31 UNL     1       0.761   8.507  12.657  1.00  0.00     0.014 C 
HETATM   18  C32 UNL     1       1.705   8.642  13.871  1.00  0.00    -0.002 C 
HETATM   19  C33 UNL     1       2.019  10.136  14.140  1.00  0.00     0.019 C 
ENDROOT
BRANCH   1  20
HETATM   20  C8  UNL     1       4.232   8.249  12.942  1.00  0.00     0.087 C 
HETATM   21  C9  UNL     1       4.799   9.595  13.408  1.00  0.00     0.049 C 
BRANCH  20  22
HETATM   22  C7  UNL     1       3.808   8.398  11.490  1.00  0.00     0.188 A 
HETATM   23  C6  UNL     1       3.737   7.230  10.527  1.00  0.00     0.188 A 
HETATM   24  O2  UNL     1       4.850   8.133  10.530  1.00  0.00    -0.369 OA
BRANCH  23  25
HETATM   25  C4  UNL     1       2.849   7.239   9.297  1.00  0.00     0.086 C 
HETATM   26  C5  UNL     1       2.967   5.965   8.446  1.00  0.00     0.049 C 
BRANCH  25  27
HETATM   27  C2  UNL     1       1.374   7.550   9.717  1.00  0.00     0.014 C 
HETATM   28  C1  UNL     1       0.606   6.309  10.192  1.00  0.00     0.012 C 
HETATM   29  C3  UNL     1       0.556   8.264   8.632  1.00  0.00     0.012 C 
ENDBRANCH  25  27
BRANCH  25  30
HETATM   30  O1  UNL     1       3.325   8.335   8.499  1.00  0.00    -0.387 OA
HETATM   31  H11 UNL     1       2.934   8.257   7.612  1.00  0.00     0.210 HD
ENDBRANCH  25  30
ENDBRANCH  23  25
ENDBRANCH  20  22
BRANCH  20  32
HETATM   32  O3  UNL     1       5.294   7.295  13.033  1.00  0.00    -0.387 OA
HETATM   33  H17 UNL     1       5.927   7.533  12.329  1.00  0.00     0.210 HD
ENDBRANCH  20  32
ENDBRANCH   1  20
BRANCH   4  34
HETATM   34  O4  UNL     1       0.669   6.600  14.742  1.00  0.00    -0.384 OA
HETATM   35  H23 UNL     1       0.348   6.172  15.555  1.00  0.00     0.211 HD
ENDBRANCH   4  34
BRANCH  14  36
HETATM   36  C23 UNL     1      -2.493  11.051  14.470  1.00  0.00    -0.005 C 
HETATM   37  C24 UNL     1      -3.416  11.910  15.370  1.00  0.00     0.005 C 
HETATM   38  C25 UNL     1      -3.437  13.370  14.902  1.00  0.00     0.000 C 
HETATM   39  C26 UNL     1      -2.087  13.841  14.361  1.00  0.00     0.000 C 
HETATM   40  C27 UNL     1      -0.937  13.069  14.989  1.00  0.00     0.000 C 
HETATM   41  C28 UNL     1      -1.049  11.553  14.755  1.00  0.00     0.005 C 
ENDBRANCH  14  36
BRANCH  11  42
HETATM   42  O6  UNL     1      -6.042   7.209  15.918  1.00  0.00    -0.396 OA
HETATM   43  H29 UNL     1      -6.152   8.004  16.468  1.00  0.00     0.210 HD
ENDBRANCH  11  42
TORSDOF 9
ENDMDL
MODEL 3
REMARK minimizedAffinity -6.86348248
REMARK CNNscore 0.580251515
REMARK CNNaffinity 6.34566879
REMARK  9 active torsions:
REMARK  status: ('A' for Active; 'I' for Inactive)
REMARK    1  A    between atoms: C2_2  and  C4_4 
REMARK    2  A    between atoms: C4_4  and  O1_6 
REMARK    3  A    between atoms: C4_4  and  C6_7 
REMARK    4  A    between atoms: C7_9  and  C8_10 
REMARK    5  A    between atoms: C8_10  and  O3_12 
REMARK    6  A    between atoms: C8_10  and  C10_13 
REMARK    7  A    between atoms: C13_16  and  O4_17 
REMARK    8  A    between atoms: C19_24  and  O6_25 
REMARK    9  A    between atoms: C22_28  and  C23_29 
ROOT
HETATM    1  C10 UNL     1      -5.929  -8.775  10.179  1.00  0.00     0.034 C 
HETATM    2  C11 UNL     1      -4.905  -9.762  10.817  1.00  0.00     0.012 C 
HETATM    3  C12 UNL     1      -4.365 -10.659   9.688  1.00  0.00     0.044 C 
HETATM    4  C13 UNL     1      -4.847  -9.977   8.407  1.00  0.00     0.089 C 
HETATM    5  C14 UNL     1      -4.835 -10.697   7.076  1.00  0.00    -0.037 C 
HETATM    6  C15 UNL     1      -4.235 -11.887   6.922  1.00  0.00     0.057 C 
HETATM    7  C16 UNL     1      -3.980 -12.436   5.580  1.00  0.00     0.154 C 
HETATM    8  O5  UNL     1      -3.489 -13.559   5.476  1.00  0.00    -0.293 OA
HETATM    9  C17 UNL     1      -4.233 -11.555   4.374  1.00  0.00     0.071 C 
HETATM   10  C18 UNL     1      -2.990 -10.704   4.076  1.00  0.00     0.045 C 
HETATM   11  C19 UNL     1      -3.151  -9.924   2.769  1.00  0.00     0.119 C 
HETATM   12  C20 UNL     1      -4.585  -9.903   2.243  1.00  0.00     0.032 C 
HETATM   13  C21 UNL     1      -5.591  -9.643   3.359  1.00  0.00     0.014 C 
HETATM   14  C22 UNL     1      -5.546 -10.705   4.521  1.00  0.00    -0.018 C 
HETATM   15  C29 UNL     1      -5.436  -9.896   5.912  1.00  0.00     0.027 C 
HETATM   16  C30 UNL     1      -6.750  -9.185   6.327  1.00  0.00     0.011 C 
HETATM   17  C31 UNL     1      -6.715  -8.486   7.696  1.00  0.00     0.014 C 
HETATM   18  C32 UNL     1      -6.257  -9.453   8.808  1.00  0.00    -0.002 C 
HETATM   19  C33 UNL     1      -7.283 -10.605   8.970  1.00  0.00     0.019 C 
ENDROOT
BRANCH   1  20
HETATM   20  C8  UNL     1      -7.060  -8.367  11.169  1.00  0.00     0.087 C 
HETATM   21  C9  UNL     1      -6.685  -7.158  12.034  1.00  0.00     0.049 C 
BRANCH  20  22
HETATM   22  C7  UNL     1      -7.358  -9.532  12.098  1.00  0.00     0.188 A 
HETATM   23  C6  UNL     1      -8.676  -9.687  12.830  1.00  0.00     0.188 A 
HETATM   24  O2  UNL     1      -7.510  -9.172  13.485  1.00  0.00    -0.369 OA
BRANCH  23  25
HETATM   25  C4  UNL     1      -9.192 -11.032  13.306  1.00  0.00     0.086 C 
HETATM   26  C5  UNL     1      -8.130 -12.142  13.276  1.00  0.00     0.049 C 
BRANCH  25  27
HETATM   27  C2  UNL     1      -9.858 -10.870  14.714  1.00  0.00     0.014 C 
HETATM   28  C1  UNL     1     -10.683 -12.092  15.136  1.00  0.00     0.012 C 
HETATM   29  C3  UNL     1     -10.721  -9.608  14.850  1.00  0.00     0.012 C 
ENDBRANCH  25  27
BRANCH  25  30
HETATM   30  O1  UNL     1     -10.218 -11.393  12.367  1.00  0.00    -0.387 OA
HETATM   31  H11 UNL     1     -10.435 -12.332  12.501  1.00  0.00     0.210 HD
ENDBRANCH  25  30
ENDBRANCH  23  25
ENDBRANCH  20  22
BRANCH  20  32
HETATM   32  O3  UNL     1      -8.246  -8.014  10.452  1.00  0.00    -0.387 OA
HETATM   33  H17 UNL     1      -8.959  -7.978  11.117  1.00  0.00     0.210 HD
ENDBRANCH  20  32
ENDBRANCH   1  20
BRANCH   4  34
HETATM   34  O4  UNL     1      -3.959  -8.856   8.203  1.00  0.00    -0.384 OA
HETATM   35  H23 UNL     1      -3.063  -9.218   8.081  1.00  0.00     0.211 HD
ENDBRANCH   4  34
BRANCH  14  36
HETATM   36  C23 UNL     1      -6.836 -11.668   4.500  1.00  0.00    -0.005 C 
HETATM   37  C24 UNL     1      -6.575 -13.188   4.634  1.00  0.00     0.005 C 
HETATM   38  C25 UNL     1      -7.791 -13.998   4.172  1.00  0.00     0.000 C 
HETATM   39  C26 UNL     1      -9.120 -13.323   4.510  1.00  0.00     0.000 C 
HETATM   40  C27 UNL     1      -8.994 -12.431   5.735  1.00  0.00     0.000 C 
HETATM   41  C28 UNL     1      -7.928 -11.337   5.558  1.00  0.00     0.005 C 
ENDBRANCH  14  36
BRANCH  11  42
HETATM   42  O6  UNL     1      -2.302 -10.477   1.766  1.00  0.00    -0.396 OA
HETATM   43  H29 UNL     1      -2.537 -11.414   1.652  1.00  0.00     0.210 HD
ENDBRANCH  11  42
TORSDOF 9
ENDMDL
MODEL 4
REMARK minimizedAffinity -6.99129391
REMARK CNNscore 0.536161005
REMARK CNNaffinity 7.09718132
REMARK  9 active torsions:
REMARK  status: ('A' for Active; 'I' for Inactive)
REMARK    1  A    between atoms: C2_2  and  C4_4 
REMARK    2  A    between atoms: C4_4  and  O1_6 
REMARK    3  A    between atoms: C4_4  and  C6_7 
REMARK    4  A    between atoms: C7_9  and  C8_10 
REMARK    5  A    between atoms: C8_10  and  O3_12 
REMARK    6  A    between atoms: C8_10  and  C10_13 
REMARK    7  A    between atoms: C13_16  and  O4_17 
REMARK    8  A    between atoms: C19_24  and  O6_25 
REMARK    9  A    between atoms: C22_28  and  C23_29 
ROOT
HETATM    1  C10 UNL     1      -2.065   8.007  15.070  1.00  0.00     0.034 C 
HETATM    2  C11 UNL     1      -1.847   8.522  13.614  1.00  0.00     0.012 C 
HETATM    3  C12 UNL     1      -1.648  10.047  13.690  1.00  0.00     0.044 C 
HETATM    4  C13 UNL     1      -1.451  10.324  15.181  1.00  0.00     0.089 C 
HETATM    5  C14 UNL     1      -1.561  11.723  15.746  1.00  0.00    -0.037 C 
HETATM    6  C15 UNL     1      -1.651  12.800  14.952  1.00  0.00     0.057 C 
HETATM    7  C16 UNL     1      -1.467  14.157  15.495  1.00  0.00     0.154 C 
HETATM    8  O5  UNL     1      -1.623  15.125  14.753  1.00  0.00    -0.293 OA
HETATM    9  C17 UNL     1      -0.990  14.309  16.924  1.00  0.00     0.071 C 
HETATM   10  C18 UNL     1       0.544  14.266  16.972  1.00  0.00     0.045 C 
HETATM   11  C19 UNL     1       1.065  14.581  18.377  1.00  0.00     0.119 C 
HETATM   12  C20 UNL     1      -0.018  14.539  19.454  1.00  0.00     0.032 C 
HETATM   13  C21 UNL     1      -0.933  13.331  19.284  1.00  0.00     0.014 C 
HETATM   14  C22 UNL     1      -1.669  13.276  17.893  1.00  0.00    -0.018 C 
HETATM   15  C29 UNL     1      -1.423  11.808  17.273  1.00  0.00     0.027 C 
HETATM   16  C30 UNL     1      -2.227  10.687  17.981  1.00  0.00     0.011 C 
HETATM   17  C31 UNL     1      -2.095   9.288  17.356  1.00  0.00     0.014 C 
HETATM   18  C32 UNL     1      -2.429   9.315  15.849  1.00  0.00    -0.002 C 
HETATM   19  C33 UNL     1      -3.913   9.712  15.637  1.00  0.00     0.019 C 
ENDROOT
BRANCH   1  20
HETATM   20  C8  UNL     1      -2.983   6.752  15.126  1.00  0.00     0.087 C 
HETATM   21  C9  UNL     1      -2.402   5.555  14.364  1.00  0.00     0.049 C 
BRANCH  20  22
HETATM   22  C7  UNL     1      -4.332   7.087  14.511  1.00  0.00     0.188 A 
HETATM   23  C6  UNL     1      -5.466   6.086  14.410  1.00  0.00     0.188 A 
HETATM   24  O2  UNL     1      -4.627   6.385  13.287  1.00  0.00    -0.369 OA
BRANCH  23  25
HETATM   25  C4  UNL     1      -6.920   6.507  14.312  1.00  0.00     0.086 C 
HETATM   26  C5  UNL     1      -7.619   6.003  13.038  1.00  0.00     0.049 C 
BRANCH  25  27
HETATM   27  C2  UNL     1      -7.675   6.094  15.619  1.00  0.00     0.014 C 
HETATM   28  C1  UNL     1      -7.793   4.574  15.794  1.00  0.00     0.012 C 
HETATM   29  C3  UNL     1      -9.067   6.726  15.757  1.00  0.00     0.012 C 
ENDBRANCH  25  27
BRANCH  25  30
HETATM   30  O1  UNL     1      -6.892   7.942  14.248  1.00  0.00    -0.387 OA
HETATM   31  H11 UNL     1      -7.772   8.251  13.974  1.00  0.00     0.210 HD
ENDBRANCH  25  30
ENDBRANCH  23  25
ENDBRANCH  20  22
BRANCH  20  32
HETATM   32  O3  UNL     1      -3.169   6.331  16.481  1.00  0.00    -0.387 OA
HETATM   33  H17 UNL     1      -3.906   5.691  16.462  1.00  0.00     0.210 HD
ENDBRANCH  20  32
ENDBRANCH   1  20
BRANCH   4  34
HETATM   34  O4  UNL     1      -0.090   9.939  15.473  1.00  0.00    -0.384 OA
HETATM   35  H23 UNL     1       0.491  10.509  14.939  1.00  0.00     0.211 HD
ENDBRANCH   4  34
BRANCH  14  36
HETATM   36  C23 UNL     1      -3.240  13.598  18.037  1.00  0.00    -0.005 C 
HETATM   37  C24 UNL     1      -3.868  13.405  19.439  1.00  0.00     0.005 C 
HETATM   38  C25 UNL     1      -5.395  13.317  19.351  1.00  0.00     0.000 C 
HETATM   39  C26 UNL     1      -5.983  14.220  18.266  1.00  0.00     0.000 C 
HETATM   40  C27 UNL     1      -5.091  15.425  18.004  1.00  0.00     0.000 C 
HETATM   41  C28 UNL     1      -3.669  15.023  17.581  1.00  0.00     0.005 C 
ENDBRANCH  14  36
BRANCH  11  42
HETATM   42  O6  UNL     1       1.676  15.869  18.391  1.00  0.00    -0.396 OA
HETATM   43  H29 UNL     1       1.015  16.522  18.103  1.00  0.00     0.210 HD
ENDBRANCH  11  42
TORSDOF 9
ENDMDL
MODEL 5
REMARK minimizedAffinity -8.22319508
REMARK CNNscore 0.491170317
REMARK CNNaffinity 6.77583551
REMARK  9 active torsions:
REMARK  status: ('A' for Active; 'I' for Inactive)
REMARK    1  A    between atoms: C2_2  and  C4_4 
REMARK    2  A    between atoms: C4_4  and  O1_6 
REMARK    3  A    between atoms: C4_4  and  C6_7 
REMARK    4  A    between atoms: C7_9  and  C8_10 
REMARK    5  A    between atoms: C8_10  and  O3_12 
REMARK    6  A    between atoms: C8_10  and  C10_13 
REMARK    7  A    between atoms: C13_16  and  O4_17 
REMARK    8  A    between atoms: C19_24  and  O6_25 
REMARK    9  A    between atoms: C22_28  and  C23_29 
ROOT
HETATM    1  C10 UNL     1       0.511   8.019  13.299  1.00  0.00     0.034 C 
HETATM    2  C11 UNL     1      -0.875   7.318  13.444  1.00  0.00     0.012 C 
HETATM    3  C12 UNL     1      -1.801   8.283  14.206  1.00  0.00     0.044 C 
HETATM    4  C13 UNL     1      -1.039   9.609  14.208  1.00  0.00     0.089 C 
HETATM    5  C14 UNL     1      -1.422  10.739  15.138  1.00  0.00    -0.037 C 
HETATM    6  C15 UNL     1      -2.550  10.705  15.864  1.00  0.00     0.057 C 
HETATM    7  C16 UNL     1      -3.053  11.916  16.534  1.00  0.00     0.154 C 
HETATM    8  O5  UNL     1      -4.053  11.834  17.246  1.00  0.00    -0.293 OA
HETATM    9  C17 UNL     1      -2.386  13.242  16.237  1.00  0.00     0.071 C 
HETATM   10  C18 UNL     1      -3.013  13.878  14.988  1.00  0.00     0.045 C 
HETATM   11  C19 UNL     1      -2.475  15.293  14.755  1.00  0.00     0.119 C 
HETATM   12  C20 UNL     1      -1.236  15.620  15.588  1.00  0.00     0.032 C 
HETATM   13  C21 UNL     1      -0.238  14.466  15.589  1.00  0.00     0.014 C 
HETATM   14  C22 UNL     1      -0.822  13.116  16.150  1.00  0.00    -0.018 C 
HETATM   15  C29 UNL     1      -0.497  11.963  15.070  1.00  0.00     0.027 C 
HETATM   16  C30 UNL     1       0.996  11.547  15.031  1.00  0.00     0.011 C 
HETATM   17  C31 UNL     1       1.329  10.381  14.084  1.00  0.00     0.014 C 
HETATM   18  C32 UNL     1       0.440   9.153  14.375  1.00  0.00    -0.002 C 
HETATM   19  C33 UNL     1       0.727   8.611  15.798  1.00  0.00     0.019 C 
ENDROOT
BRANCH   1  20
HETATM   20  C8  UNL     1       1.692   7.004  13.273  1.00  0.00     0.087 C 
HETATM   21  C9  UNL     1       2.977   7.573  13.885  1.00  0.00     0.049 C 
BRANCH  20  22
HETATM   22  C7  UNL     1       1.991   6.619  11.833  1.00  0.00     0.188 A 
HETATM   23  C6  UNL     1       1.841   7.582  10.672  1.00  0.00     0.188 A 
HETATM   24  O2  UNL     1       0.841   6.598  10.964  1.00  0.00    -0.369 OA
BRANCH  23  25
HETATM   25  C4  UNL     1       2.605   7.418   9.372  1.00  0.00     0.086 C 
HETATM   26  C5  UNL     1       2.949   5.956   9.043  1.00  0.00     0.049 C 
BRANCH  25  27
HETATM   27  C2  UNL     1       1.830   8.131   8.215  1.00  0.00     0.014 C 
HETATM   28  C1  UNL     1       0.379   8.472   8.579  1.00  0.00     0.012 C 
HETATM   29  C3  UNL     1       1.849   7.360   6.887  1.00  0.00     0.012 C 
ENDBRANCH  25  27
BRANCH  25  30
HETATM   30  O1  UNL     1       3.844   8.116   9.575  1.00  0.00    -0.387 OA
HETATM   31  H11 UNL     1       4.453   7.868   8.858  1.00  0.00     0.210 HD
ENDBRANCH  25  30
ENDBRANCH  23  25
ENDBRANCH  20  22
BRANCH  20  32
HETATM   32  O3  UNL     1       1.357   5.832  14.020  1.00  0.00    -0.387 OA
HETATM   33  H17 UNL     1       2.034   5.167  13.790  1.00  0.00     0.210 HD
ENDBRANCH  20  32
ENDBRANCH   1  20
BRANCH   4  34
HETATM   34  O4  UNL     1      -1.223  10.168  12.888  1.00  0.00    -0.384 OA
HETATM   35  H23 UNL     1      -2.178  10.322  12.773  1.00  0.00     0.211 HD
ENDBRANCH   4  34
BRANCH  14  36
HETATM   36  C23 UNL     1      -0.212  12.758  17.596  1.00  0.00    -0.005 C 
HETATM   37  C24 UNL     1      -0.654  13.650  18.781  1.00  0.00     0.005 C 
HETATM   38  C25 UNL     1       0.298  13.496  19.972  1.00  0.00     0.000 C 
HETATM   39  C26 UNL     1       0.835  12.073  20.125  1.00  0.00     0.000 C 
HETATM   40  C27 UNL     1      -0.135  11.049  19.555  1.00  0.00     0.000 C 
HETATM   41  C28 UNL     1      -0.441  11.293  18.069  1.00  0.00     0.005 C 
ENDBRANCH  14  36
BRANCH  11  42
HETATM   42  O6  UNL     1      -3.489  16.251  15.046  1.00  0.00    -0.396 OA
HETATM   43  H29 UNL     1      -3.771  16.126  15.969  1.00  0.00     0.210 HD
ENDBRANCH  11  42
TORSDOF 9
ENDMDL
MODEL 6
REMARK minimizedAffinity -8.30831432
REMARK CNNscore 0.454265356
REMARK CNNaffinity 6.99069548
REMARK  9 active torsions:
REMARK  status: ('A' for Active; 'I' for Inactive)
REMARK    1  A    between atoms: C2_2  and  C4_4 
REMARK    2  A    between atoms: C4_4  and  O1_6 
REMARK    3  A    between atoms: C4_4  and  C6_7 
REMARK    4  A    between atoms: C7_9  and  C8_10 
REMARK    5  A    between atoms: C8_10  and  O3_12 
REMARK    6  A    between atoms: C8_10  and  C10_13 
REMARK    7  A    between atoms: C13_16  and  O4_17 
REMARK    8  A    between atoms: C19_24  and  O6_25 
REMARK    9  A    between atoms: C22_28  and  C23_29 
ROOT
HETATM    1  C10 UNL     1      -4.279   7.623  15.160  1.00  0.00     0.034 C 
HETATM    2  C11 UNL     1      -3.472   7.399  13.844  1.00  0.00     0.012 C 
HETATM    3  C12 UNL     1      -2.183   8.234  13.946  1.00  0.00     0.044 C 
HETATM    4  C13 UNL     1      -2.131   8.663  15.413  1.00  0.00     0.089 C 
HETATM    5  C14 UNL     1      -1.217   9.775  15.879  1.00  0.00    -0.037 C 
HETATM    6  C15 UNL     1      -0.285  10.306  15.075  1.00  0.00     0.057 C 
HETATM    7  C16 UNL     1       0.776  11.172  15.618  1.00  0.00     0.154 C 
HETATM    8  O5  UNL     1       1.575  11.697  14.844  1.00  0.00    -0.293 OA
HETATM    9  C17 UNL     1       0.911  11.301  17.121  1.00  0.00     0.071 C 
HETATM   10  C18 UNL     1       1.791  10.168  17.668  1.00  0.00     0.045 C 
HETATM   11  C19 UNL     1       2.083  10.360  19.158  1.00  0.00     0.119 C 
HETATM   12  C20 UNL     1       1.196  11.412  19.823  1.00  0.00     0.032 C 
HETATM   13  C21 UNL     1      -0.261  11.274  19.391  1.00  0.00     0.014 C 
HETATM   14  C22 UNL     1      -0.483  11.405  17.838  1.00  0.00    -0.018 C 
HETATM   15  C29 UNL     1      -1.357  10.135  17.365  1.00  0.00     0.027 C 
HETATM   16  C30 UNL     1      -2.845  10.205  17.797  1.00  0.00     0.011 C 
HETATM   17  C31 UNL     1      -3.734   9.062  17.281  1.00  0.00     0.014 C 
HETATM   18  C32 UNL     1      -3.629   8.920  15.748  1.00  0.00    -0.002 C 
HETATM   19  C33 UNL     1      -4.172  10.196  15.055  1.00  0.00     0.019 C 
ENDROOT
BRANCH   1  20
HETATM   20  C8  UNL     1      -5.816   7.517  14.942  1.00  0.00     0.087 C 
HETATM   21  C9  UNL     1      -6.561   7.026  16.189  1.00  0.00     0.049 C 
BRANCH  20  22
HETATM   22  C7  UNL     1      -6.098   6.539  13.813  1.00  0.00     0.188 A 
HETATM   23  C6  UNL     1      -6.968   5.309  13.984  1.00  0.00     0.188 A 
HETATM   24  O2  UNL     1      -5.537   5.225  14.002  1.00  0.00    -0.369 OA
BRANCH  23  25
HETATM   25  C4  UNL     1      -7.680   4.645  12.822  1.00  0.00     0.086 C 
HETATM   26  C5  UNL     1      -8.294   5.643  11.827  1.00  0.00     0.049 C 
BRANCH  25  27
HETATM   27  C2  UNL     1      -6.717   3.621  12.133  1.00  0.00     0.014 C 
HETATM   28  C1  UNL     1      -6.987   2.168  12.542  1.00  0.00     0.012 C 
HETATM   29  C3  UNL     1      -5.228   3.934  12.339  1.00  0.00     0.012 C 
ENDBRANCH  25  27
BRANCH  25  30
HETATM   30  O1  UNL     1      -8.761   3.909  13.416  1.00  0.00    -0.387 OA
HETATM   31  H11 UNL     1      -9.370   3.638  12.707  1.00  0.00     0.210 HD
ENDBRANCH  25  30
ENDBRANCH  23  25
ENDBRANCH  20  22
BRANCH  20  32
HETATM   32  O3  UNL     1      -6.361   8.797  14.609  1.00  0.00    -0.387 OA
HETATM   33  H17 UNL     1      -7.265   8.626  14.283  1.00  0.00     0.210 HD
ENDBRANCH  20  32
ENDBRANCH   1  20
BRANCH   4  34
HETATM   34  O4  UNL     1      -1.668   7.505  16.142  1.00  0.00    -0.384 OA
HETATM   35  H23 UNL     1      -0.775   7.298  15.814  1.00  0.00     0.211 HD
ENDBRANCH   4  34
BRANCH  14  36
HETATM   36  C23 UNL     1      -1.203  12.792  17.453  1.00  0.00    -0.005 C 
HETATM   37  C24 UNL     1      -2.185  13.382  18.495  1.00  0.00     0.005 C 
HETATM   38  C25 UNL     1      -3.106  14.426  17.855  1.00  0.00     0.000 C 
HETATM   39  C26 UNL     1      -2.410  15.249  16.771  1.00  0.00     0.000 C 
HETATM   40  C27 UNL     1      -0.912  15.340  17.019  1.00  0.00     0.000 C 
HETATM   41  C28 UNL     1      -0.242  13.958  17.080  1.00  0.00     0.005 C 
ENDBRANCH  14  36
BRANCH  11  42
HETATM   42  O6  UNL     1       3.447  10.729  19.342  1.00  0.00    -0.396 OA
HETATM   43  H29 UNL     1       3.612  11.546  18.839  1.00  0.00     0.210 HD
ENDBRANCH  11  42
TORSDOF 9
ENDMDL
MODEL 7
REMARK minimizedAffinity -7.97075129
REMARK CNNscore 0.412809163
REMARK CNNaffinity 6.44951391
REMARK  9 active torsions:
REMARK  status: ('A' for Active; 'I' for Inactive)
REMARK    1  A    between atoms: C2_2  and  C4_4 
REMARK    2  A    between atoms: C4_4  and  O1_6 
REMARK    3  A    between atoms: C4_4  and  C6_7 
REMARK    4  A    between atoms: C7_9  and  C8_10 
REMARK    5  A    between atoms: C8_10  and  O3_12 
REMARK    6  A    between atoms: C8_10  and  C10_13 
REMARK    7  A    between atoms: C13_16  and  O4_17 
REMARK    8  A    between atoms: C19_24  and  O6_25 
REMARK    9  A    between atoms: C22_28  and  C23_29 
ROOT
HETATM    1  C10 UNL     1     -16.825   3.068  13.929  1.00  0.00     0.034 C 
HETATM    2  C11 UNL     1     -16.754   3.182  15.483  1.00  0.00     0.012 C 
HETATM    3  C12 UNL     1     -16.414   1.785  16.032  1.00  0.00     0.044 C 
HETATM    4  C13 UNL     1     -16.001   0.987  14.794  1.00  0.00     0.089 C 
HETATM    5  C14 UNL     1     -15.914  -0.523  14.821  1.00  0.00    -0.037 C 
HETATM    6  C15 UNL     1     -16.011  -1.217  15.964  1.00  0.00     0.057 C 
HETATM    7  C16 UNL     1     -15.641  -2.641  16.018  1.00  0.00     0.154 C 
HETATM    8  O5  UNL     1     -15.806  -3.264  17.066  1.00  0.00    -0.293 OA
HETATM    9  C17 UNL     1     -14.970  -3.264  14.811  1.00  0.00     0.071 C 
HETATM   10  C18 UNL     1     -13.453  -3.042  14.882  1.00  0.00     0.045 C 
HETATM   11  C19 UNL     1     -12.728  -3.798  13.765  1.00  0.00     0.119 C 
HETATM   12  C20 UNL     1     -13.661  -4.313  12.671  1.00  0.00     0.032 C 
HETATM   13  C21 UNL     1     -14.693  -3.263  12.271  1.00  0.00     0.014 C 
HETATM   14  C22 UNL     1     -15.606  -2.778  13.459  1.00  0.00    -0.018 C 
HETATM   15  C29 UNL     1     -15.571  -1.166  13.468  1.00  0.00     0.027 C 
HETATM   16  C30 UNL     1     -16.371  -0.517  12.310  1.00  0.00     0.011 C 
HETATM   17  C31 UNL     1     -16.445   1.019  12.341  1.00  0.00     0.014 C 
HETATM   18  C32 UNL     1     -16.968   1.527  13.701  1.00  0.00    -0.002 C 
HETATM   19  C33 UNL     1     -18.426   1.049  13.925  1.00  0.00     0.019 C 
ENDROOT
BRANCH   1  20
HETATM   20  C8  UNL     1     -17.834   4.074  13.304  1.00  0.00     0.087 C 
HETATM   21  C9  UNL     1     -18.811   3.407  12.329  1.00  0.00     0.049 C 
BRANCH  20  22
HETATM   22  C7  UNL     1     -17.070   5.144  12.540  1.00  0.00     0.188 A 
HETATM   23  C6  UNL     1     -16.749   6.505  13.125  1.00  0.00     0.188 A 
HETATM   24  O2  UNL     1     -17.841   6.317  12.214  1.00  0.00    -0.369 OA
BRANCH  23  25
HETATM   25  C4  UNL     1     -15.588   7.350  12.637  1.00  0.00     0.086 C 
HETATM   26  C5  UNL     1     -15.696   8.831  13.035  1.00  0.00     0.049 C 
BRANCH  25  27
HETATM   27  C2  UNL     1     -14.239   6.699  13.093  1.00  0.00     0.014 C 
HETATM   28  C1  UNL     1     -14.306   6.090  14.499  1.00  0.00     0.012 C 
HETATM   29  C3  UNL     1     -13.034   7.647  13.012  1.00  0.00     0.012 C 
ENDBRANCH  25  27
BRANCH  25  30
HETATM   30  O1  UNL     1     -15.652   7.285  11.203  1.00  0.00    -0.387 OA
HETATM   31  H11 UNL     1     -15.065   7.971  10.842  1.00  0.00     0.210 HD
ENDBRANCH  25  30
ENDBRANCH  23  25
ENDBRANCH  20  22
BRANCH  20  32
HETATM   32  O3  UNL     1     -18.621   4.691  14.326  1.00  0.00    -0.387 OA
HETATM   33  H17 UNL     1     -19.070   5.445  13.899  1.00  0.00     0.210 HD
ENDBRANCH  20  32
ENDBRANCH   1  20
BRANCH   4  34
HETATM   34  O4  UNL     1     -14.652   1.407  14.492  1.00  0.00    -0.384 OA
HETATM   35  H23 UNL     1     -14.098   1.165  15.255  1.00  0.00     0.211 HD
ENDBRANCH   4  34
BRANCH  14  36
HETATM   36  C23 UNL     1     -17.110  -3.334  13.321  1.00  0.00    -0.005 C 
HETATM   37  C24 UNL     1     -18.253  -2.356  13.688  1.00  0.00     0.005 C 
HETATM   38  C25 UNL     1     -19.565  -3.110  13.935  1.00  0.00     0.000 C 
HETATM   39  C26 UNL     1     -19.736  -4.323  13.020  1.00  0.00     0.000 C 
HETATM   40  C27 UNL     1     -18.986  -4.139  11.709  1.00  0.00     0.000 C 
HETATM   41  C28 UNL     1     -17.482  -3.902  11.920  1.00  0.00     0.005 C 
ENDBRANCH  14  36
BRANCH  11  42
HETATM   42  O6  UNL     1     -12.010  -4.901  14.313  1.00  0.00    -0.396 OA
HETATM   43  H29 UNL     1     -12.643  -5.475  14.778  1.00  0.00     0.210 HD
ENDBRANCH  11  42
TORSDOF 9
ENDMDL
MODEL 8
REMARK minimizedAffinity -8.11019611
REMARK CNNscore 0.388304561
REMARK CNNaffinity 6.29836988
REMARK  9 active torsions:
REMARK  status: ('A' for Active; 'I' for Inactive)
REMARK    1  A    between atoms: C2_2  and  C4_4 
REMARK    2  A    between atoms: C4_4  and  O1_6 
REMARK    3  A    between atoms: C4_4  and  C6_7 
REMARK    4  A    between atoms: C7_9  and  C8_10 
REMARK    5  A    between atoms: C8_10  and  O3_12 
REMARK    6  A    between atoms: C8_10  and  C10_13 
REMARK    7  A    between atoms: C13_16  and  O4_17 
REMARK    8  A    between atoms: C19_24  and  O6_25 
REMARK    9  A    between atoms: C22_28  and  C23_29 
ROOT
HETATM    1  C10 UNL     1       1.452  10.936  16.800  1.00  0.00     0.034 C 
HETATM    2  C11 UNL     1       0.362  11.954  16.345  1.00  0.00     0.012 C 
HETATM    3  C12 UNL     1      -0.303  11.383  15.080  1.00  0.00     0.044 C 
HETATM    4  C13 UNL     1       0.194   9.938  15.017  1.00  0.00     0.089 C 
HETATM    5  C14 UNL     1       0.063   9.112  13.756  1.00  0.00    -0.037 C 
HETATM    6  C15 UNL     1      -0.654   9.536  12.705  1.00  0.00     0.057 C 
HETATM    7  C16 UNL     1      -1.011   8.614  11.612  1.00  0.00     0.154 C 
HETATM    8  O5  UNL     1      -1.611   9.052  10.632  1.00  0.00    -0.293 OA
HETATM    9  C17 UNL     1      -0.720   7.138  11.782  1.00  0.00     0.071 C 
HETATM   10  C18 UNL     1      -1.885   6.454  12.512  1.00  0.00     0.045 C 
HETATM   11  C19 UNL     1      -1.699   4.935  12.555  1.00  0.00     0.119 C 
HETATM   12  C20 UNL     1      -0.290   4.482  12.176  1.00  0.00     0.032 C 
HETATM   13  C21 UNL     1       0.777   5.352  12.831  1.00  0.00     0.014 C 
HETATM   14  C22 UNL     1       0.673   6.879  12.461  1.00  0.00    -0.018 C 
HETATM   15  C29 UNL     1       0.694   7.714  13.840  1.00  0.00     0.027 C 
HETATM   16  C30 UNL     1       2.085   7.757  14.524  1.00  0.00     0.011 C 
HETATM   17  C31 UNL     1       2.168   8.626  15.790  1.00  0.00     0.014 C 
HETATM   18  C32 UNL     1       1.661  10.059  15.520  1.00  0.00    -0.002 C 
HETATM   19  C33 UNL     1       2.577  10.764  14.487  1.00  0.00     0.019 C 
ENDROOT
BRANCH   1  20
HETATM   20  C8  UNL     1       2.652  11.626  17.510  1.00  0.00     0.087 C 
HETATM   21  C9  UNL     1       4.009  11.067  17.064  1.00  0.00     0.049 C 
BRANCH  20  22
HETATM   22  C7  UNL     1       2.533  11.420  19.012  1.00  0.00     0.188 A 
HETATM   23  C6  UNL     1       3.661  10.869  19.862  1.00  0.00     0.188 A 
HETATM   24  O2  UNL     1       2.570  10.043  19.435  1.00  0.00    -0.369 OA
BRANCH  23  25
HETATM   25  C4  UNL     1       3.772  11.145  21.349  1.00  0.00     0.086 C 
HETATM   26  C5  UNL     1       2.613  11.989  21.905  1.00  0.00     0.049 C 
BRANCH  25  27
HETATM   27  C2  UNL     1       3.960   9.796  22.120  1.00  0.00     0.014 C 
HETATM   28  C1  UNL     1       2.635   9.091  22.438  1.00  0.00     0.012 C 
HETATM   29  C3  UNL     1       4.782   9.927  23.409  1.00  0.00     0.012 C 
ENDBRANCH  25  27
BRANCH  25  30
HETATM   30  O1  UNL     1       4.975  11.915  21.499  1.00  0.00    -0.387 OA
HETATM   31  H11 UNL     1       4.983  12.295  22.394  1.00  0.00     0.210 HD
ENDBRANCH  25  30
ENDBRANCH  23  25
ENDBRANCH  20  22
BRANCH  20  32
HETATM   32  O3  UNL     1       2.664  13.027  17.221  1.00  0.00    -0.387 OA
HETATM   33  H17 UNL     1       3.294  13.424  17.852  1.00  0.00     0.210 HD
ENDBRANCH  20  32
ENDBRANCH   1  20
BRANCH   4  34
HETATM   34  O4  UNL     1      -0.590   9.212  15.989  1.00  0.00    -0.384 OA
HETATM   35  H23 UNL     1      -1.520   9.266  15.707  1.00  0.00     0.211 HD
ENDBRANCH   4  34
BRANCH  14  36
HETATM   36  C23 UNL     1       1.864   7.336  11.478  1.00  0.00    -0.005 C 
HETATM   37  C24 UNL     1       3.245   6.674  11.699  1.00  0.00     0.005 C 
HETATM   38  C25 UNL     1       4.358   7.482  11.023  1.00  0.00     0.000 C 
HETATM   39  C26 UNL     1       3.915   8.122   9.707  1.00  0.00     0.000 C 
HETATM   40  C27 UNL     1       2.798   7.325   9.051  1.00  0.00     0.000 C 
HETATM   41  C28 UNL     1       1.565   7.183   9.958  1.00  0.00     0.005 C 
ENDBRANCH  14  36
BRANCH  11  42
HETATM   42  O6  UNL     1      -2.634   4.307  11.682  1.00  0.00    -0.396 OA
HETATM   43  H29 UNL     1      -2.495   4.656  10.784  1.00  0.00     0.210 HD
ENDBRANCH  11  42
TORSDOF 9
ENDMDL
MODEL 9
REMARK minimizedAffinity -6.67696524
REMARK CNNscore 0.332477748
REMARK CNNaffinity 5.92702675
REMARK  9 active torsions:
REMARK  status: ('A' for Active; 'I' for Inactive)
REMARK    1  A    between atoms: C2_2  and  C4_4 
REMARK    2  A    between atoms: C4_4  and  O1_6 
REMARK    3  A    between atoms: C4_4  and  C6_7 
REMARK    4  A    between atoms: C7_9  and  C8_10 
REMARK    5  A    between atoms: C8_10  and  O3_12 
REMARK    6  A    between atoms: C8_10  and  C10_13 
REMARK    7  A    between atoms: C13_16  and  O4_17 
REMARK    8  A    between atoms: C19_24  and  O6_25 
REMARK    9  A    between atoms: C22_28  and  C23_29 
ROOT
HETATM    1  C10 UNL     1     -13.676  -5.088  15.140  1.00  0.00     0.034 C 
HETATM    2  C11 UNL     1     -12.912  -4.767  13.819  1.00  0.00     0.012 C 
HETATM    3  C12 UNL     1     -13.502  -3.464  13.250  1.00  0.00     0.044 C 
HETATM    4  C13 UNL     1     -14.358  -2.913  14.391  1.00  0.00     0.089 C 
HETATM    5  C14 UNL     1     -15.387  -1.829  14.154  1.00  0.00    -0.037 C 
HETATM    6  C15 UNL     1     -15.468  -1.175  12.986  1.00  0.00     0.057 C 
HETATM    7  C16 UNL     1     -16.265   0.058  12.864  1.00  0.00     0.154 C 
HETATM    8  O5  UNL     1     -16.372   0.595  11.763  1.00  0.00    -0.293 OA
HETATM    9  C17 UNL     1     -16.839   0.680  14.120  1.00  0.00     0.071 C 
HETATM   10  C18 UNL     1     -15.805   1.615  14.762  1.00  0.00     0.045 C 
HETATM   11  C19 UNL     1     -16.408   2.385  15.940  1.00  0.00     0.119 C 
HETATM   12  C20 UNL     1     -17.751   1.829  16.409  1.00  0.00     0.032 C 
HETATM   13  C21 UNL     1     -17.735   0.306  16.483  1.00  0.00     0.014 C 
HETATM   14  C22 UNL     1     -17.403  -0.398  15.115  1.00  0.00    -0.018 C 
HETATM   15  C29 UNL     1     -16.218  -1.457  15.391  1.00  0.00     0.027 C 
HETATM   16  C30 UNL     1     -16.676  -2.717  16.170  1.00  0.00     0.011 C 
HETATM   17  C31 UNL     1     -15.598  -3.796  16.366  1.00  0.00     0.014 C 
HETATM   18  C32 UNL     1     -14.961  -4.202  15.020  1.00  0.00    -0.002 C 
HETATM   19  C33 UNL     1     -16.024  -4.858  14.102  1.00  0.00     0.019 C 
ENDROOT
BRANCH   1  20
HETATM   20  C8  UNL     1     -13.772  -6.617  15.416  1.00  0.00     0.087 C 
HETATM   21  C9  UNL     1     -14.705  -6.952  16.585  1.00  0.00     0.049 C 
BRANCH  20  22
HETATM   22  C7  UNL     1     -12.390  -7.155  15.751  1.00  0.00     0.188 A 
HETATM   23  C6  UNL     1     -12.005  -7.632  17.137  1.00  0.00     0.188 A 
HETATM   24  O2  UNL     1     -11.630  -6.334  16.660  1.00  0.00    -0.369 OA
BRANCH  23  25
HETATM   25  C4  UNL     1     -10.884  -8.626  17.375  1.00  0.00     0.086 C 
HETATM   26  C5  UNL     1      -9.688  -8.031  18.135  1.00  0.00     0.049 C 
BRANCH  25  27
HETATM   27  C2  UNL     1     -11.458  -9.910  18.062  1.00  0.00     0.014 C 
HETATM   28  C1  UNL     1     -12.914  -9.752  18.517  1.00  0.00     0.012 C 
HETATM   29  C3  UNL     1     -10.613 -10.413  19.241  1.00  0.00     0.012 C 
ENDBRANCH  25  27
BRANCH  25  30
HETATM   30  O1  UNL     1     -10.421  -8.991  16.065  1.00  0.00    -0.387 OA
HETATM   31  H11 UNL     1      -9.574  -9.458  16.161  1.00  0.00     0.210 HD
ENDBRANCH  25  30
ENDBRANCH  23  25
ENDBRANCH  20  22
BRANCH  20  32
HETATM   32  O3  UNL     1     -14.282  -7.299  14.267  1.00  0.00    -0.387 OA
HETATM   33  H17 UNL     1     -14.119  -8.248  14.426  1.00  0.00     0.210 HD
ENDBRANCH  20  32
ENDBRANCH   1  20
BRANCH   4  34
HETATM   34  O4  UNL     1     -13.430  -2.313  15.321  1.00  0.00    -0.384 OA
HETATM   35  H23 UNL     1     -12.980  -1.589  14.851  1.00  0.00     0.211 HD
ENDBRANCH   4  34
BRANCH  14  36
HETATM   36  C23 UNL     1     -18.698  -1.114  14.483  1.00  0.00    -0.005 C 
HETATM   37  C24 UNL     1     -19.760  -1.642  15.478  1.00  0.00     0.005 C 
HETATM   38  C25 UNL     1     -20.691  -2.657  14.804  1.00  0.00     0.000 C 
HETATM   39  C26 UNL     1     -20.980  -2.320  13.341  1.00  0.00     0.000 C 
HETATM   40  C27 UNL     1     -20.872  -0.824  13.084  1.00  0.00     0.000 C 
HETATM   41  C28 UNL     1     -19.486  -0.264  13.444  1.00  0.00     0.005 C 
ENDBRANCH  14  36
BRANCH  11  42
HETATM   42  O6  UNL     1     -16.576   3.756  15.588  1.00  0.00    -0.396 OA
HETATM   43  H29 UNL     1     -17.150   3.801  14.804  1.00  0.00     0.210 HD
ENDBRANCH  11  42
TORSDOF 9
ENDMDL
