MODEL 1
REMARK minimizedAffinity -8.40761375
REMARK CNNscore 0.766735017
REMARK CNNaffinity 7.08660269
REMARK  12 active torsions:
REMARK  status: ('A' for Active; 'I' for Inactive)
REMARK    1  A    between atoms: C2_2  and  C17_19 
REMARK    2  A    between atoms: C3_3  and  C4_4 
REMARK    3  A    between atoms: C4_4  and  C5_5 
REMARK    4  A    between atoms: C5_5  and  C6_6 
REMARK    5  A    between atoms: C12_12  and  O1_13 
REMARK    6  A    between atoms: C17_19  and  C18_20 
REMARK    7  A    between atoms: C19_21  and  C20_22 
REMARK    8  A    between atoms: C20_22  and  C22_24 
REMARK    9  A    between atoms: C22_24  and  C23_26 
REMARK   10  A    between atoms: C23_26  and  O4_27 
REMARK   11  A    between atoms: C23_26  and  C24_28 
REMARK   12  A    between atoms: C24_28  and  C25_29 
ROOT
HETATM    1  C1  UNL     1      -0.147   9.178  13.100  1.00  0.00     0.043 C 
HETATM    2  C2  UNL     1      -0.796   8.452  11.953  1.00  0.00    -0.084 C 
HETATM    3  C3  UNL     1      -2.124   8.233  11.855  1.00  0.00    -0.024 C 
ENDROOT
BRANCH   3   4
HETATM    4  C4  UNL     1      -3.202   8.741  12.772  1.00  0.00     0.030 C 
BRANCH   4   5
HETATM    5  C5  UNL     1      -4.270   7.731  13.210  1.00  0.00     0.042 C 
BRANCH   5   6
HETATM    6  C6  UNL     1      -3.889   6.635  14.239  1.00  0.00     0.065 C 
HETATM    7  C7  UNL     1      -3.078   7.233  15.401  1.00  0.00     0.046 C 
HETATM    8  C8  UNL     1      -3.106   5.448  13.661  1.00  0.00     0.043 C 
HETATM    9  C9  UNL     1      -3.933   4.689  12.637  1.00  0.00     0.044 C 
HETATM   10  C10 UNL     1      -5.315   4.437  13.165  1.00  0.00    -0.021 A 
HETATM   11  C11 UNL     1      -6.116   3.454  12.566  1.00  0.00     0.046 A 
HETATM   12  C16 UNL     1      -5.825   5.191  14.231  1.00  0.00     0.082 A 
HETATM   13  C12 UNL     1      -7.397   3.219  13.052  1.00  0.00     0.066 A 
HETATM   14  C13 UNL     1      -7.898   3.950  14.121  1.00  0.00     0.046 A 
HETATM   15  C14 UNL     1      -7.116   4.944  14.724  1.00  0.00    -0.025 A 
HETATM   16  C15 UNL     1      -7.663   5.726  15.884  1.00  0.00     0.051 C 
HETATM   17  O2  UNL     1      -5.117   6.183  14.856  1.00  0.00    -0.340 OA
BRANCH  13  18
HETATM   18  O1  UNL     1      -8.206   2.270  12.497  1.00  0.00    -0.361 OA
HETATM   19  H17 UNL     1      -7.710   1.807  11.800  1.00  0.00     0.217 HD
ENDBRANCH  13  18
ENDBRANCH   5   6
ENDBRANCH   4   5
ENDBRANCH   3   4
BRANCH   2  20
HETATM   20  C17 UNL     1       0.162   7.932  10.890  1.00  0.00     0.060 C 
BRANCH  20  21
HETATM   21  C18 UNL     1      -0.135   8.534   9.544  1.00  0.00    -0.026 C 
HETATM   22  C19 UNL     1       0.512   8.396   8.372  1.00  0.00    -0.019 C 
BRANCH  22  23
HETATM   23  C20 UNL     1       1.762   7.625   8.019  1.00  0.00     0.076 C 
HETATM   24  C21 UNL     1       1.768   6.992   6.626  1.00  0.00     0.022 C 
BRANCH  23  25
HETATM   25  C22 UNL     1       2.999   8.505   8.260  1.00  0.00     0.162 C 
HETATM   26  O3  UNL     1       3.363   9.374   7.458  1.00  0.00    -0.294 OA
BRANCH  25  27
HETATM   27  C23 UNL     1       3.745   8.357   9.601  1.00  0.00     0.188 C 
BRANCH  27  28
HETATM   28  O4  UNL     1       4.864   9.239   9.659  1.00  0.00    -0.388 OA
HETATM   29  H31 UNL     1       4.868   9.738   8.815  1.00  0.00     0.210 HD
ENDBRANCH  27  28
BRANCH  27  30
HETATM   30  C24 UNL     1       4.189   6.931   9.959  1.00  0.00     0.043 C 
BRANCH  30  31
HETATM   31  C25 UNL     1       3.504   6.186  11.129  1.00  0.00    -0.020 C 
HETATM   32  C26 UNL     1       2.352   5.276  10.691  1.00  0.00     0.009 C 
HETATM   33  C27 UNL     1       3.054   7.105  12.261  1.00  0.00     0.009 C 
ENDBRANCH  30  31
ENDBRANCH  27  30
ENDBRANCH  25  27
ENDBRANCH  23  25
ENDBRANCH  22  23
ENDBRANCH  20  21
ENDBRANCH   2  20
TORSDOF 12
ENDMDL
MODEL 2
REMARK minimizedAffinity -8.31010532
REMARK CNNscore 0.763371944
REMARK CNNaffinity 6.97986841
REMARK  12 active torsions:
REMARK  status: ('A' for Active; 'I' for Inactive)
REMARK    1  A    between atoms: C2_2  and  C17_19 
REMARK    2  A    between atoms: C3_3  and  C4_4 
REMARK    3  A    between atoms: C4_4  and  C5_5 
REMARK    4  A    between atoms: C5_5  and  C6_6 
REMARK    5  A    between atoms: C12_12  and  O1_13 
REMARK    6  A    between atoms: C17_19  and  C18_20 
REMARK    7  A    between atoms: C19_21  and  C20_22 
REMARK    8  A    between atoms: C20_22  and  C22_24 
REMARK    9  A    between atoms: C22_24  and  C23_26 
REMARK   10  A    between atoms: C23_26  and  O4_27 
REMARK   11  A    between atoms: C23_26  and  C24_28 
REMARK   12  A    between atoms: C24_28  and  C25_29 
ROOT
HETATM    1  C1  UNL     1      -1.605   5.701  14.700  1.00  0.00     0.043 C 
HETATM    2  C2  UNL     1      -1.215   7.075  15.175  1.00  0.00    -0.084 C 
HETATM    3  C3  UNL     1      -2.090   7.980  15.660  1.00  0.00    -0.024 C 
ENDROOT
BRANCH   3   4
HETATM    4  C4  UNL     1      -3.557   7.782  15.923  1.00  0.00     0.030 C 
BRANCH   4   5
HETATM    5  C5  UNL     1      -4.265   6.692  15.107  1.00  0.00     0.042 C 
BRANCH   5   6
HETATM    6  C6  UNL     1      -4.961   7.084  13.778  1.00  0.00     0.065 C 
HETATM    7  C7  UNL     1      -4.277   8.306  13.141  1.00  0.00     0.046 C 
HETATM    8  C8  UNL     1      -6.463   7.373  13.894  1.00  0.00     0.043 C 
HETATM    9  C9  UNL     1      -7.229   6.138  14.335  1.00  0.00     0.044 C 
HETATM   10  C10 UNL     1      -6.798   4.942  13.538  1.00  0.00    -0.021 A 
HETATM   11  C11 UNL     1      -7.610   3.799  13.508  1.00  0.00     0.046 A 
HETATM   12  C16 UNL     1      -5.580   4.945  12.843  1.00  0.00     0.082 A 
HETATM   13  C12 UNL     1      -7.212   2.690  12.771  1.00  0.00     0.066 A 
HETATM   14  C13 UNL     1      -6.016   2.697  12.066  1.00  0.00     0.046 A 
HETATM   15  C14 UNL     1      -5.187   3.825  12.093  1.00  0.00    -0.025 A 
HETATM   16  C15 UNL     1      -3.897   3.826  11.322  1.00  0.00     0.051 C 
HETATM   17  O2  UNL     1      -4.720   6.010  12.838  1.00  0.00    -0.340 OA
BRANCH  13  18
HETATM   18  O1  UNL     1      -7.976   1.560  12.717  1.00  0.00    -0.361 OA
HETATM   19  H17 UNL     1      -8.800   1.717  13.210  1.00  0.00     0.217 HD
ENDBRANCH  13  18
ENDBRANCH   5   6
ENDBRANCH   4   5
ENDBRANCH   3   4
BRANCH   2  20
HETATM   20  C17 UNL     1       0.264   7.410  15.042  1.00  0.00     0.060 C 
BRANCH  20  21
HETATM   21  C18 UNL     1       0.961   6.453  14.115  1.00  0.00    -0.026 C 
HETATM   22  C19 UNL     1       1.532   6.671  12.916  1.00  0.00    -0.019 C 
BRANCH  22  23
HETATM   23  C20 UNL     1       1.636   7.929  12.085  1.00  0.00     0.076 C 
HETATM   24  C21 UNL     1       2.938   8.084  11.296  1.00  0.00     0.022 C 
BRANCH  23  25
HETATM   25  C22 UNL     1       0.396   8.062  11.189  1.00  0.00     0.162 C 
HETATM   26  O3  UNL     1      -0.535   8.834  11.452  1.00  0.00    -0.294 OA
BRANCH  25  27
HETATM   27  C23 UNL     1       0.370   7.273   9.864  1.00  0.00     0.188 C 
BRANCH  27  28
HETATM   28  O4  UNL     1       1.161   6.092   9.960  1.00  0.00    -0.388 OA
HETATM   29  H31 UNL     1       1.521   6.072  10.872  1.00  0.00     0.210 HD
ENDBRANCH  27  28
BRANCH  27  30
HETATM   30  C24 UNL     1       0.773   8.068   8.612  1.00  0.00     0.043 C 
BRANCH  30  31
HETATM   31  C25 UNL     1       2.059   7.684   7.843  1.00  0.00    -0.020 C 
HETATM   32  C26 UNL     1       3.109   8.799   7.801  1.00  0.00     0.009 C 
HETATM   33  C27 UNL     1       1.797   7.147   6.438  1.00  0.00     0.009 C 
ENDBRANCH  30  31
ENDBRANCH  27  30
ENDBRANCH  25  27
ENDBRANCH  23  25
ENDBRANCH  22  23
ENDBRANCH  20  21
ENDBRANCH   2  20
TORSDOF 12
ENDMDL
MODEL 3
REMARK minimizedAffinity -8.90333271
REMARK CNNscore 0.728463888
REMARK CNNaffinity 7.33470869
REMARK  12 active torsions:
REMARK  status: ('A' for Active; 'I' for Inactive)
REMARK    1  A    between atoms: C2_2  and  C17_19 
REMARK    2  A    between atoms: C3_3  and  C4_4 
REMARK    3  A    between atoms: C4_4  and  C5_5 
REMARK    4  A    between atoms: C5_5  and  C6_6 
REMARK    5  A    between atoms: C12_12  and  O1_13 
REMARK    6  A    between atoms: C17_19  and  C18_20 
REMARK    7  A    between atoms: C19_21  and  C20_22 
REMARK    8  A    between atoms: C20_22  and  C22_24 
REMARK    9  A    between atoms: C22_24  and  C23_26 
REMARK   10  A    between atoms: C23_26  and  O4_27 
REMARK   11  A    between atoms: C23_26  and  C24_28 
REMARK   12  A    between atoms: C24_28  and  C25_29 
ROOT
HETATM    1  C1  UNL     1      -4.482   4.711  12.785  1.00  0.00     0.043 C 
HETATM    2  C2  UNL     1      -3.636   5.895  13.174  1.00  0.00    -0.084 C 
HETATM    3  C3  UNL     1      -4.127   7.134  13.385  1.00  0.00    -0.024 C 
ENDROOT
BRANCH   3   4
HETATM    4  C4  UNL     1      -5.570   7.555  13.388  1.00  0.00     0.030 C 
BRANCH   4   5
HETATM    5  C5  UNL     1      -6.138   8.071  14.716  1.00  0.00     0.042 C 
BRANCH   5   6
HETATM    6  C6  UNL     1      -7.605   7.731  15.086  1.00  0.00     0.065 C 
HETATM    7  C7  UNL     1      -8.422   9.013  15.321  1.00  0.00     0.046 C 
HETATM    8  C8  UNL     1      -7.771   6.820  16.310  1.00  0.00     0.043 C 
HETATM    9  C9  UNL     1      -7.149   5.454  16.067  1.00  0.00     0.044 C 
HETATM   10  C10 UNL     1      -7.563   4.922  14.726  1.00  0.00    -0.021 A 
HETATM   11  C11 UNL     1      -7.422   3.555  14.450  1.00  0.00     0.046 A 
HETATM   12  C16 UNL     1      -8.064   5.781  13.737  1.00  0.00     0.082 A 
HETATM   13  C12 UNL     1      -7.804   3.059  13.209  1.00  0.00     0.066 A 
HETATM   14  C13 UNL     1      -8.319   3.904  12.234  1.00  0.00     0.046 A 
HETATM   15  C14 UNL     1      -8.456   5.274  12.488  1.00  0.00    -0.025 A 
HETATM   16  C15 UNL     1      -9.020   6.179  11.430  1.00  0.00     0.051 C 
HETATM   17  O2  UNL     1      -8.212   7.130  13.918  1.00  0.00    -0.340 OA
BRANCH  13  18
HETATM   18  O1  UNL     1      -7.684   1.734  12.903  1.00  0.00    -0.361 OA
HETATM   19  H17 UNL     1      -7.362   1.261  13.690  1.00  0.00     0.217 HD
ENDBRANCH  13  18
ENDBRANCH   5   6
ENDBRANCH   4   5
ENDBRANCH   3   4
BRANCH   2  20
HETATM   20  C17 UNL     1      -2.144   5.615  13.286  1.00  0.00     0.060 C 
BRANCH  20  21
HETATM   21  C18 UNL     1      -1.663   4.749  12.155  1.00  0.00    -0.026 C 
HETATM   22  C19 UNL     1      -0.786   5.018  11.171  1.00  0.00    -0.019 C 
BRANCH  22  23
HETATM   23  C20 UNL     1      -0.020   6.280  10.848  1.00  0.00     0.076 C 
HETATM   24  C21 UNL     1      -0.460   7.526  11.620  1.00  0.00     0.022 C 
BRANCH  23  25
HETATM   25  C22 UNL     1       1.488   6.020  10.981  1.00  0.00     0.162 C 
HETATM   26  O3  UNL     1       2.087   6.119  12.060  1.00  0.00    -0.294 OA
BRANCH  25  27
HETATM   27  C23 UNL     1       2.251   5.519   9.738  1.00  0.00     0.188 C 
BRANCH  27  28
HETATM   28  O4  UNL     1       3.079   4.405  10.066  1.00  0.00    -0.388 OA
HETATM   29  H31 UNL     1       2.940   4.226  11.020  1.00  0.00     0.210 HD
ENDBRANCH  27  28
BRANCH  27  30
HETATM   30  C24 UNL     1       3.078   6.580   8.997  1.00  0.00     0.043 C 
BRANCH  30  31
HETATM   31  C25 UNL     1       2.368   7.590   8.065  1.00  0.00    -0.020 C 
HETATM   32  C26 UNL     1       1.938   6.993   6.722  1.00  0.00     0.009 C 
HETATM   33  C27 UNL     1       3.155   8.880   7.847  1.00  0.00     0.009 C 
ENDBRANCH  30  31
ENDBRANCH  27  30
ENDBRANCH  25  27
ENDBRANCH  23  25
ENDBRANCH  22  23
ENDBRANCH  20  21
ENDBRANCH   2  20
TORSDOF 12
ENDMDL
MODEL 4
REMARK minimizedAffinity -8.31652927
REMARK CNNscore 0.720640838
REMARK CNNaffinity 7.32796431
REMARK  12 active torsions:
REMARK  status: ('A' for Active; 'I' for Inactive)
REMARK    1  A    between atoms: C2_2  and  C17_19 
REMARK    2  A    between atoms: C3_3  and  C4_4 
REMARK    3  A    between atoms: C4_4  and  C5_5 
REMARK    4  A    between atoms: C5_5  and  C6_6 
REMARK    5  A    between atoms: C12_12  and  O1_13 
REMARK    6  A    between atoms: C17_19  and  C18_20 
REMARK    7  A    between atoms: C19_21  and  C20_22 
REMARK    8  A    between atoms: C20_22  and  C22_24 
REMARK    9  A    between atoms: C22_24  and  C23_26 
REMARK   10  A    between atoms: C23_26  and  O4_27 
REMARK   11  A    between atoms: C23_26  and  C24_28 
REMARK   12  A    between atoms: C24_28  and  C25_29 
ROOT
HETATM    1  C1  UNL     1      -3.346   6.700  15.187  1.00  0.00     0.043 C 
HETATM    2  C2  UNL     1      -3.194   7.541  13.948  1.00  0.00    -0.084 C 
HETATM    3  C3  UNL     1      -4.225   7.915  13.161  1.00  0.00    -0.024 C 
ENDROOT
BRANCH   3   4
HETATM    4  C4  UNL     1      -5.690   7.679  13.402  1.00  0.00     0.030 C 
BRANCH   4   5
HETATM    5  C5  UNL     1      -6.281   8.259  14.693  1.00  0.00     0.042 C 
BRANCH   5   6
HETATM    6  C6  UNL     1      -7.701   7.815  15.133  1.00  0.00     0.065 C 
HETATM    7  C7  UNL     1      -8.588   9.036  15.430  1.00  0.00     0.046 C 
HETATM    8  C8  UNL     1      -7.741   6.879  16.347  1.00  0.00     0.043 C 
HETATM    9  C9  UNL     1      -7.043   5.562  16.050  1.00  0.00     0.044 C 
HETATM   10  C10 UNL     1      -7.490   5.021  14.724  1.00  0.00    -0.021 A 
HETATM   11  C11 UNL     1      -7.273   3.670  14.418  1.00  0.00     0.046 A 
HETATM   12  C16 UNL     1      -8.098   5.857  13.776  1.00  0.00     0.082 A 
HETATM   13  C12 UNL     1      -7.686   3.167  13.190  1.00  0.00     0.066 A 
HETATM   14  C13 UNL     1      -8.306   3.987  12.257  1.00  0.00     0.046 A 
HETATM   15  C14 UNL     1      -8.521   5.341  12.541  1.00  0.00    -0.025 A 
HETATM   16  C15 UNL     1      -9.199   6.221  11.528  1.00  0.00     0.051 C 
HETATM   17  O2  UNL     1      -8.326   7.190  13.987  1.00  0.00    -0.340 OA
BRANCH  13  18
HETATM   18  O1  UNL     1      -7.494   1.857  12.856  1.00  0.00    -0.361 OA
HETATM   19  H17 UNL     1      -7.100   1.396  13.617  1.00  0.00     0.217 HD
ENDBRANCH  13  18
ENDBRANCH   5   6
ENDBRANCH   4   5
ENDBRANCH   3   4
BRANCH   2  20
HETATM   20  C17 UNL     1      -1.764   7.930  13.601  1.00  0.00     0.060 C 
BRANCH  20  21
HETATM   21  C18 UNL     1      -1.420   7.548  12.189  1.00  0.00    -0.026 C 
HETATM   22  C19 UNL     1      -0.591   6.593  11.728  1.00  0.00    -0.019 C 
BRANCH  22  23
HETATM   23  C20 UNL     1       0.293   5.613  12.464  1.00  0.00     0.076 C 
HETATM   24  C21 UNL     1      -0.162   5.261  13.882  1.00  0.00     0.022 C 
BRANCH  23  25
HETATM   25  C22 UNL     1       0.511   4.362  11.599  1.00  0.00     0.162 C 
HETATM   26  O3  UNL     1       1.499   4.225  10.865  1.00  0.00    -0.294 OA
BRANCH  25  27
HETATM   27  C23 UNL     1      -0.492   3.199  11.738  1.00  0.00     0.188 C 
BRANCH  27  28
HETATM   28  O4  UNL     1       0.019   2.013  11.132  1.00  0.00    -0.388 OA
HETATM   29  H31 UNL     1       0.907   2.240  10.783  1.00  0.00     0.210 HD
ENDBRANCH  27  28
BRANCH  27  30
HETATM   30  C24 UNL     1      -1.908   3.480  11.215  1.00  0.00     0.043 C 
BRANCH  30  31
HETATM   31  C25 UNL     1      -3.131   3.171  12.112  1.00  0.00    -0.020 C 
HETATM   32  C26 UNL     1      -3.872   1.888  11.724  1.00  0.00     0.009 C 
HETATM   33  C27 UNL     1      -4.111   4.335  12.235  1.00  0.00     0.009 C 
ENDBRANCH  30  31
ENDBRANCH  27  30
ENDBRANCH  25  27
ENDBRANCH  23  25
ENDBRANCH  22  23
ENDBRANCH  20  21
ENDBRANCH   2  20
TORSDOF 12
ENDMDL
MODEL 5
REMARK minimizedAffinity -8.38129139
REMARK CNNscore 0.720293701
REMARK CNNaffinity 6.72930717
REMARK  12 active torsions:
REMARK  status: ('A' for Active; 'I' for Inactive)
REMARK    1  A    between atoms: C2_2  and  C17_19 
REMARK    2  A    between atoms: C3_3  and  C4_4 
REMARK    3  A    between atoms: C4_4  and  C5_5 
REMARK    4  A    between atoms: C5_5  and  C6_6 
REMARK    5  A    between atoms: C12_12  and  O1_13 
REMARK    6  A    between atoms: C17_19  and  C18_20 
REMARK    7  A    between atoms: C19_21  and  C20_22 
REMARK    8  A    between atoms: C20_22  and  C22_24 
REMARK    9  A    between atoms: C22_24  and  C23_26 
REMARK   10  A    between atoms: C23_26  and  O4_27 
REMARK   11  A    between atoms: C23_26  and  C24_28 
REMARK   12  A    between atoms: C24_28  and  C25_29 
ROOT
HETATM    1  C1  UNL     1      -1.384   9.422  14.925  1.00  0.00     0.043 C 
HETATM    2  C2  UNL     1      -1.344   9.039  13.470  1.00  0.00    -0.084 C 
HETATM    3  C3  UNL     1      -2.435   8.711  12.747  1.00  0.00    -0.024 C 
ENDROOT
BRANCH   3   4
HETATM    4  C4  UNL     1      -3.872   8.764  13.189  1.00  0.00     0.030 C 
BRANCH   4   5
HETATM    5  C5  UNL     1      -4.647   7.440  13.184  1.00  0.00     0.042 C 
BRANCH   5   6
HETATM    6  C6  UNL     1      -4.137   6.270  14.065  1.00  0.00     0.065 C 
HETATM    7  C7  UNL     1      -3.901   6.737  15.512  1.00  0.00     0.046 C 
HETATM    8  C8  UNL     1      -2.860   5.587  13.561  1.00  0.00     0.043 C 
HETATM    9  C9  UNL     1      -3.084   4.930  12.209  1.00  0.00     0.044 C 
HETATM   10  C10 UNL     1      -4.356   4.135  12.219  1.00  0.00    -0.021 A 
HETATM   11  C11 UNL     1      -4.573   3.163  11.231  1.00  0.00     0.046 A 
HETATM   12  C16 UNL     1      -5.342   4.370  13.187  1.00  0.00     0.082 A 
HETATM   13  C12 UNL     1      -5.751   2.425  11.238  1.00  0.00     0.066 A 
HETATM   14  C13 UNL     1      -6.721   2.642  12.207  1.00  0.00     0.046 A 
HETATM   15  C14 UNL     1      -6.526   3.616  13.194  1.00  0.00    -0.025 A 
HETATM   16  C15 UNL     1      -7.578   3.840  14.244  1.00  0.00     0.051 C 
HETATM   17  O2  UNL     1      -5.219   5.314  14.171  1.00  0.00    -0.340 OA
BRANCH  13  18
HETATM   18  O1  UNL     1      -5.998   1.469  10.294  1.00  0.00    -0.361 OA
HETATM   19  H17 UNL     1      -5.218   1.392   9.718  1.00  0.00     0.217 HD
ENDBRANCH  13  18
ENDBRANCH   5   6
ENDBRANCH   4   5
ENDBRANCH   3   4
BRANCH   2  20
HETATM   20  C17 UNL     1       0.044   9.007  12.847  1.00  0.00     0.060 C 
BRANCH  20  21
HETATM   21  C18 UNL     1       0.007   8.439  11.456  1.00  0.00    -0.026 C 
HETATM   22  C19 UNL     1       0.559   7.314  10.964  1.00  0.00    -0.019 C 
BRANCH  22  23
HETATM   23  C20 UNL     1       1.425   6.269  11.627  1.00  0.00     0.076 C 
HETATM   24  C21 UNL     1       1.001   4.819  11.382  1.00  0.00     0.022 C 
BRANCH  23  25
HETATM   25  C22 UNL     1       2.898   6.510  11.265  1.00  0.00     0.162 C 
HETATM   26  O3  UNL     1       3.718   6.957  12.078  1.00  0.00    -0.294 OA
BRANCH  25  27
HETATM   27  C23 UNL     1       3.382   6.081   9.865  1.00  0.00     0.188 C 
BRANCH  27  28
HETATM   28  O4  UNL     1       4.538   6.821   9.479  1.00  0.00    -0.388 OA
HETATM   29  H31 UNL     1       4.745   7.422  10.225  1.00  0.00     0.210 HD
ENDBRANCH  27  28
BRANCH  27  30
HETATM   30  C24 UNL     1       2.327   6.146   8.751  1.00  0.00     0.043 C 
BRANCH  30  31
HETATM   31  C25 UNL     1       2.152   7.450   7.937  1.00  0.00    -0.020 C 
HETATM   32  C26 UNL     1       2.032   7.224   6.427  1.00  0.00     0.009 C 
HETATM   33  C27 UNL     1       3.214   8.506   8.235  1.00  0.00     0.009 C 
ENDBRANCH  30  31
ENDBRANCH  27  30
ENDBRANCH  25  27
ENDBRANCH  23  25
ENDBRANCH  22  23
ENDBRANCH  20  21
ENDBRANCH   2  20
TORSDOF 12
ENDMDL
MODEL 6
REMARK minimizedAffinity -8.65878296
REMARK CNNscore 0.693869472
REMARK CNNaffinity 6.61911535
REMARK  12 active torsions:
REMARK  status: ('A' for Active; 'I' for Inactive)
REMARK    1  A    between atoms: C2_2  and  C17_19 
REMARK    2  A    between atoms: C3_3  and  C4_4 
REMARK    3  A    between atoms: C4_4  and  C5_5 
REMARK    4  A    between atoms: C5_5  and  C6_6 
REMARK    5  A    between atoms: C12_12  and  O1_13 
REMARK    6  A    between atoms: C17_19  and  C18_20 
REMARK    7  A    between atoms: C19_21  and  C20_22 
REMARK    8  A    between atoms: C20_22  and  C22_24 
REMARK    9  A    between atoms: C22_24  and  C23_26 
REMARK   10  A    between atoms: C23_26  and  O4_27 
REMARK   11  A    between atoms: C23_26  and  C24_28 
REMARK   12  A    between atoms: C24_28  and  C25_29 
ROOT
HETATM    1  C1  UNL     1      -0.496   9.204  15.452  1.00  0.00     0.043 C 
HETATM    2  C2  UNL     1      -0.508   7.727  15.163  1.00  0.00    -0.084 C 
HETATM    3  C3  UNL     1      -1.574   6.928  15.374  1.00  0.00    -0.024 C 
ENDROOT
BRANCH   3   4
HETATM    4  C4  UNL     1      -2.950   7.340  15.819  1.00  0.00     0.030 C 
BRANCH   4   5
HETATM    5  C5  UNL     1      -4.128   6.527  15.267  1.00  0.00     0.042 C 
BRANCH   5   6
HETATM    6  C6  UNL     1      -4.819   6.999  13.962  1.00  0.00     0.065 C 
HETATM    7  C7  UNL     1      -4.111   8.236  13.383  1.00  0.00     0.046 C 
HETATM    8  C8  UNL     1      -6.314   7.316  14.097  1.00  0.00     0.043 C 
HETATM    9  C9  UNL     1      -7.107   6.077  14.480  1.00  0.00     0.044 C 
HETATM   10  C10 UNL     1      -6.704   4.913  13.623  1.00  0.00    -0.021 A 
HETATM   11  C11 UNL     1      -7.541   3.792  13.541  1.00  0.00     0.046 A 
HETATM   12  C16 UNL     1      -5.488   4.923  12.925  1.00  0.00     0.082 A 
HETATM   13  C12 UNL     1      -7.171   2.712  12.748  1.00  0.00     0.066 A 
HETATM   14  C13 UNL     1      -5.977   2.726  12.040  1.00  0.00     0.046 A 
HETATM   15  C14 UNL     1      -5.123   3.833  12.119  1.00  0.00    -0.025 A 
HETATM   16  C15 UNL     1      -3.836   3.843  11.344  1.00  0.00     0.051 C 
HETATM   17  O2  UNL     1      -4.605   5.968  12.969  1.00  0.00    -0.340 OA
BRANCH  13  18
HETATM   18  O1  UNL     1      -7.960   1.603  12.641  1.00  0.00    -0.361 OA
HETATM   19  H17 UNL     1      -8.779   1.753  13.145  1.00  0.00     0.217 HD
ENDBRANCH  13  18
ENDBRANCH   5   6
ENDBRANCH   4   5
ENDBRANCH   3   4
BRANCH   2  20
HETATM   20  C17 UNL     1       0.801   7.160  14.632  1.00  0.00     0.060 C 
BRANCH  20  21
HETATM   21  C18 UNL     1       1.292   7.938  13.442  1.00  0.00    -0.026 C 
HETATM   22  C19 UNL     1       1.788   7.503  12.269  1.00  0.00    -0.019 C 
BRANCH  22  23
HETATM   23  C20 UNL     1       2.051   6.103  11.766  1.00  0.00     0.076 C 
HETATM   24  C21 UNL     1       0.822   5.355  11.245  1.00  0.00     0.022 C 
BRANCH  23  25
HETATM   25  C22 UNL     1       3.192   6.129  10.738  1.00  0.00     0.162 C 
HETATM   26  O3  UNL     1       4.386   6.111  11.068  1.00  0.00    -0.294 OA
BRANCH  25  27
HETATM   27  C23 UNL     1       2.824   6.071   9.241  1.00  0.00     0.188 C 
BRANCH  27  28
HETATM   28  O4  UNL     1       3.459   4.965   8.604  1.00  0.00    -0.388 OA
HETATM   29  H31 UNL     1       3.973   4.502   9.299  1.00  0.00     0.210 HD
ENDBRANCH  27  28
BRANCH  27  30
HETATM   30  C24 UNL     1       3.094   7.356   8.444  1.00  0.00     0.043 C 
BRANCH  30  31
HETATM   31  C25 UNL     1       1.963   7.981   7.593  1.00  0.00    -0.020 C 
HETATM   32  C26 UNL     1       0.660   8.204   8.367  1.00  0.00     0.009 C 
HETATM   33  C27 UNL     1       1.688   7.231   6.292  1.00  0.00     0.009 C 
ENDBRANCH  30  31
ENDBRANCH  27  30
ENDBRANCH  25  27
ENDBRANCH  23  25
ENDBRANCH  22  23
ENDBRANCH  20  21
ENDBRANCH   2  20
TORSDOF 12
ENDMDL
MODEL 7
REMARK minimizedAffinity -8.37627792
REMARK CNNscore 0.615304649
REMARK CNNaffinity 6.55352592
REMARK  12 active torsions:
REMARK  status: ('A' for Active; 'I' for Inactive)
REMARK    1  A    between atoms: C2_2  and  C17_19 
REMARK    2  A    between atoms: C3_3  and  C4_4 
REMARK    3  A    between atoms: C4_4  and  C5_5 
REMARK    4  A    between atoms: C5_5  and  C6_6 
REMARK    5  A    between atoms: C12_12  and  O1_13 
REMARK    6  A    between atoms: C17_19  and  C18_20 
REMARK    7  A    between atoms: C19_21  and  C20_22 
REMARK    8  A    between atoms: C20_22  and  C22_24 
REMARK    9  A    between atoms: C22_24  and  C23_26 
REMARK   10  A    between atoms: C23_26  and  O4_27 
REMARK   11  A    between atoms: C23_26  and  C24_28 
REMARK   12  A    between atoms: C24_28  and  C25_29 
ROOT
HETATM    1  C1  UNL     1      -0.440   4.386  12.391  1.00  0.00     0.043 C 
HETATM    2  C2  UNL     1      -0.240   5.693  13.109  1.00  0.00    -0.084 C 
HETATM    3  C3  UNL     1      -1.065   6.159  14.070  1.00  0.00    -0.024 C 
ENDROOT
BRANCH   3   4
HETATM    4  C4  UNL     1      -2.245   5.453  14.679  1.00  0.00     0.030 C 
BRANCH   4   5
HETATM    5  C5  UNL     1      -3.507   6.293  14.916  1.00  0.00     0.042 C 
BRANCH   5   6
HETATM    6  C6  UNL     1      -4.290   6.832  13.692  1.00  0.00     0.065 C 
HETATM    7  C7  UNL     1      -3.550   8.016  13.046  1.00  0.00     0.046 C 
HETATM    8  C8  UNL     1      -5.733   7.263  13.983  1.00  0.00     0.043 C 
HETATM    9  C9  UNL     1      -6.577   6.086  14.443  1.00  0.00     0.044 C 
HETATM   10  C10 UNL     1      -6.359   4.904  13.545  1.00  0.00    -0.021 A 
HETATM   11  C11 UNL     1      -7.286   3.852  13.547  1.00  0.00     0.046 A 
HETATM   12  C16 UNL     1      -5.225   4.827  12.724  1.00  0.00     0.082 A 
HETATM   13  C12 UNL     1      -7.086   2.756  12.717  1.00  0.00     0.066 A 
HETATM   14  C13 UNL     1      -5.974   2.685  11.888  1.00  0.00     0.046 A 
HETATM   15  C14 UNL     1      -5.032   3.721  11.881  1.00  0.00    -0.025 A 
HETATM   16  C15 UNL     1      -3.835   3.639  10.976  1.00  0.00     0.051 C 
HETATM   17  O2  UNL     1      -4.262   5.799  12.679  1.00  0.00    -0.340 OA
BRANCH  13  18
HETATM   18  O1  UNL     1      -7.966   1.713  12.689  1.00  0.00    -0.361 OA
HETATM   19  H17 UNL     1      -8.714   1.921  13.276  1.00  0.00     0.217 HD
ENDBRANCH  13  18
ENDBRANCH   5   6
ENDBRANCH   4   5
ENDBRANCH   3   4
BRANCH   2  20
HETATM   20  C17 UNL     1       0.966   6.504  12.655  1.00  0.00     0.060 C 
BRANCH  20  21
HETATM   21  C18 UNL     1       1.746   7.029  13.828  1.00  0.00    -0.026 C 
HETATM   22  C19 UNL     1       2.832   7.823  13.861  1.00  0.00    -0.019 C 
BRANCH  22  23
HETATM   23  C20 UNL     1       3.649   8.425  12.742  1.00  0.00     0.076 C 
HETATM   24  C21 UNL     1       4.339   9.749  13.075  1.00  0.00     0.022 C 
BRANCH  23  25
HETATM   25  C22 UNL     1       4.636   7.378  12.201  1.00  0.00     0.162 C 
HETATM   26  O3  UNL     1       5.676   7.073  12.801  1.00  0.00    -0.294 OA
BRANCH  25  27
HETATM   27  C23 UNL     1       4.256   6.616  10.916  1.00  0.00     0.188 C 
BRANCH  27  28
HETATM   28  O4  UNL     1       5.224   5.614  10.615  1.00  0.00    -0.388 OA
HETATM   29  H31 UNL     1       5.897   5.655  11.326  1.00  0.00     0.210 HD
ENDBRANCH  27  28
BRANCH  27  30
HETATM   30  C24 UNL     1       4.011   7.490   9.677  1.00  0.00     0.043 C 
BRANCH  30  31
HETATM   31  C25 UNL     1       2.736   7.272   8.826  1.00  0.00    -0.020 C 
HETATM   32  C26 UNL     1       2.751   5.975   8.012  1.00  0.00     0.009 C 
HETATM   33  C27 UNL     1       2.387   8.458   7.931  1.00  0.00     0.009 C 
ENDBRANCH  30  31
ENDBRANCH  27  30
ENDBRANCH  25  27
ENDBRANCH  23  25
ENDBRANCH  22  23
ENDBRANCH  20  21
ENDBRANCH   2  20
TORSDOF 12
ENDMDL
MODEL 8
REMARK minimizedAffinity -8.56715775
REMARK CNNscore 0.571828127
REMARK CNNaffinity 6.62847948
REMARK  12 active torsions:
REMARK  status: ('A' for Active; 'I' for Inactive)
REMARK    1  A    between atoms: C2_2  and  C17_19 
REMARK    2  A    between atoms: C3_3  and  C4_4 
REMARK    3  A    between atoms: C4_4  and  C5_5 
REMARK    4  A    between atoms: C5_5  and  C6_6 
REMARK    5  A    between atoms: C12_12  and  O1_13 
REMARK    6  A    between atoms: C17_19  and  C18_20 
REMARK    7  A    between atoms: C19_21  and  C20_22 
REMARK    8  A    between atoms: C20_22  and  C22_24 
REMARK    9  A    between atoms: C22_24  and  C23_26 
REMARK   10  A    between atoms: C23_26  and  O4_27 
REMARK   11  A    between atoms: C23_26  and  C24_28 
REMARK   12  A    between atoms: C24_28  and  C25_29 
ROOT
HETATM    1  C1  UNL     1       0.095   9.713  14.335  1.00  0.00     0.043 C 
HETATM    2  C2  UNL     1      -0.030   9.096  12.968  1.00  0.00    -0.084 C 
HETATM    3  C3  UNL     1      -1.193   8.657  12.443  1.00  0.00    -0.024 C 
ENDROOT
BRANCH   3   4
HETATM    4  C4  UNL     1      -2.568   8.785  13.038  1.00  0.00     0.030 C 
BRANCH   4   5
HETATM    5  C5  UNL     1      -3.464   7.542  12.984  1.00  0.00     0.042 C 
BRANCH   5   6
HETATM    6  C6  UNL     1      -3.252   6.418  14.031  1.00  0.00     0.065 C 
HETATM    7  C7  UNL     1      -2.211   6.839  15.083  1.00  0.00     0.046 C 
HETATM    8  C8  UNL     1      -2.832   5.061  13.451  1.00  0.00     0.043 C 
HETATM    9  C9  UNL     1      -3.913   4.492  12.547  1.00  0.00     0.044 C 
HETATM   10  C10 UNL     1      -5.256   4.595  13.209  1.00  0.00    -0.021 A 
HETATM   11  C11 UNL     1      -6.322   3.815  12.738  1.00  0.00     0.046 A 
HETATM   12  C16 UNL     1      -5.465   5.482  14.275  1.00  0.00     0.082 A 
HETATM   13  C12 UNL     1      -7.567   3.909  13.348  1.00  0.00     0.066 A 
HETATM   14  C13 UNL     1      -7.772   4.772  14.417  1.00  0.00     0.046 A 
HETATM   15  C14 UNL     1      -6.722   5.566  14.893  1.00  0.00    -0.025 A 
HETATM   16  C15 UNL     1      -6.950   6.492  16.054  1.00  0.00     0.051 C 
HETATM   17  O2  UNL     1      -4.484   6.293  14.779  1.00  0.00    -0.340 OA
BRANCH  13  18
HETATM   18  O1  UNL     1      -8.628   3.165  12.920  1.00  0.00    -0.361 OA
HETATM   19  H17 UNL     1      -8.327   2.575  12.207  1.00  0.00     0.217 HD
ENDBRANCH  13  18
ENDBRANCH   5   6
ENDBRANCH   4   5
ENDBRANCH   3   4
BRANCH   2  20
HETATM   20  C17 UNL     1       1.276   8.959  12.197  1.00  0.00     0.060 C 
BRANCH  20  21
HETATM   21  C18 UNL     1       2.191   7.957  12.844  1.00  0.00    -0.026 C 
HETATM   22  C19 UNL     1       3.337   7.414  12.394  1.00  0.00    -0.019 C 
BRANCH  22  23
HETATM   23  C20 UNL     1       4.070   7.598  11.086  1.00  0.00     0.076 C 
HETATM   24  C21 UNL     1       5.397   8.355  11.180  1.00  0.00     0.022 C 
BRANCH  23  25
HETATM   25  C22 UNL     1       4.228   6.240  10.385  1.00  0.00     0.162 C 
HETATM   26  O3  UNL     1       5.287   5.600  10.406  1.00  0.00    -0.294 OA
BRANCH  25  27
HETATM   27  C23 UNL     1       2.984   5.616   9.720  1.00  0.00     0.188 C 
BRANCH  27  28
HETATM   28  O4  UNL     1       2.927   4.213   9.967  1.00  0.00    -0.388 OA
HETATM   29  H31 UNL     1       3.705   3.996  10.522  1.00  0.00     0.210 HD
ENDBRANCH  27  28
BRANCH  27  30
HETATM   30  C24 UNL     1       2.832   5.885   8.216  1.00  0.00     0.043 C 
BRANCH  30  31
HETATM   31  C25 UNL     1       2.217   7.221   7.736  1.00  0.00    -0.020 C 
HETATM   32  C26 UNL     1       1.194   7.815   8.709  1.00  0.00     0.009 C 
HETATM   33  C27 UNL     1       1.635   7.157   6.326  1.00  0.00     0.009 C 
ENDBRANCH  30  31
ENDBRANCH  27  30
ENDBRANCH  25  27
ENDBRANCH  23  25
ENDBRANCH  22  23
ENDBRANCH  20  21
ENDBRANCH   2  20
TORSDOF 12
ENDMDL
MODEL 9
REMARK minimizedAffinity -8.0525341
REMARK CNNscore 0.458479255
REMARK CNNaffinity 6.20319223
REMARK  12 active torsions:
REMARK  status: ('A' for Active; 'I' for Inactive)
REMARK    1  A    between atoms: C2_2  and  C17_19 
REMARK    2  A    between atoms: C3_3  and  C4_4 
REMARK    3  A    between atoms: C4_4  and  C5_5 
REMARK    4  A    between atoms: C5_5  and  C6_6 
REMARK    5  A    between atoms: C12_12  and  O1_13 
REMARK    6  A    between atoms: C17_19  and  C18_20 
REMARK    7  A    between atoms: C19_21  and  C20_22 
REMARK    8  A    between atoms: C20_22  and  C22_24 
REMARK    9  A    between atoms: C22_24  and  C23_26 
REMARK   10  A    between atoms: C23_26  and  O4_27 
REMARK   11  A    between atoms: C23_26  and  C24_28 
REMARK   12  A    between atoms: C24_28  and  C25_29 
ROOT
HETATM    1  C1  UNL     1      -1.109   9.518  14.246  1.00  0.00     0.043 C 
HETATM    2  C2  UNL     1      -0.596   8.150  14.612  1.00  0.00    -0.084 C 
HETATM    3  C3  UNL     1      -1.335   7.212  15.240  1.00  0.00    -0.024 C 
ENDROOT
BRANCH   3   4
HETATM    4  C4  UNL     1      -2.795   7.287  15.593  1.00  0.00     0.030 C 
BRANCH   4   5
HETATM    5  C5  UNL     1      -3.730   6.298  14.884  1.00  0.00     0.042 C 
BRANCH   5   6
HETATM    6  C6  UNL     1      -4.573   6.793  13.681  1.00  0.00     0.065 C 
HETATM    7  C7  UNL     1      -3.922   8.024  13.026  1.00  0.00     0.046 C 
HETATM    8  C8  UNL     1      -6.032   7.133  14.007  1.00  0.00     0.043 C 
HETATM    9  C9  UNL     1      -6.791   5.904  14.479  1.00  0.00     0.044 C 
HETATM   10  C10 UNL     1      -6.521   4.742  13.569  1.00  0.00    -0.021 A 
HETATM   11  C11 UNL     1      -7.381   3.635  13.585  1.00  0.00     0.046 A 
HETATM   12  C16 UNL     1      -5.404   4.739  12.722  1.00  0.00     0.082 A 
HETATM   13  C12 UNL     1      -7.133   2.557  12.744  1.00  0.00     0.066 A 
HETATM   14  C13 UNL     1      -6.038   2.558  11.890  1.00  0.00     0.046 A 
HETATM   15  C14 UNL     1      -5.162   3.651  11.868  1.00  0.00    -0.025 A 
HETATM   16  C15 UNL     1      -3.984   3.648  10.935  1.00  0.00     0.051 C 
HETATM   17  O2  UNL     1      -4.504   5.769  12.661  1.00  0.00    -0.340 OA
BRANCH  13  18
HETATM   18  O1  UNL     1      -7.948   1.462  12.729  1.00  0.00    -0.361 OA
HETATM   19  H17 UNL     1      -8.694   1.621  13.334  1.00  0.00     0.217 HD
ENDBRANCH  13  18
ENDBRANCH   5   6
ENDBRANCH   4   5
ENDBRANCH   3   4
BRANCH   2  20
HETATM   20  C17 UNL     1       0.860   7.887  14.253  1.00  0.00     0.060 C 
BRANCH  20  21
HETATM   21  C18 UNL     1       1.366   8.889  13.253  1.00  0.00    -0.026 C 
HETATM   22  C19 UNL     1       1.373   8.844  11.908  1.00  0.00    -0.019 C 
BRANCH  22  23
HETATM   23  C20 UNL     1       0.911   7.767  10.955  1.00  0.00     0.076 C 
HETATM   24  C21 UNL     1      -0.515   7.261  11.182  1.00  0.00     0.022 C 
BRANCH  23  25
HETATM   25  C22 UNL     1       1.138   8.225   9.506  1.00  0.00     0.162 C 
HETATM   26  O3  UNL     1       0.289   8.862   8.869  1.00  0.00    -0.294 OA
BRANCH  25  27
HETATM   27  C23 UNL     1       2.518   7.963   8.869  1.00  0.00     0.188 C 
BRANCH  27  28
HETATM   28  O4  UNL     1       2.695   8.758   7.698  1.00  0.00    -0.388 OA
HETATM   29  H31 UNL     1       1.880   9.292   7.599  1.00  0.00     0.210 HD
ENDBRANCH  27  28
BRANCH  27  30
HETATM   30  C24 UNL     1       2.833   6.494   8.552  1.00  0.00     0.043 C 
BRANCH  30  31
HETATM   31  C25 UNL     1       3.509   5.607   9.625  1.00  0.00    -0.020 C 
HETATM   32  C26 UNL     1       2.533   4.702  10.382  1.00  0.00     0.009 C 
HETATM   33  C27 UNL     1       4.381   6.388  10.605  1.00  0.00     0.009 C 
ENDBRANCH  30  31
ENDBRANCH  27  30
ENDBRANCH  25  27
ENDBRANCH  23  25
ENDBRANCH  22  23
ENDBRANCH  20  21
ENDBRANCH   2  20
TORSDOF 12
ENDMDL
