MODEL 1
REMARK minimizedAffinity -8.46146202
REMARK  11 active torsions:
REMARK  status: ('A' for Active; 'I' for Inactive)
REMARK    1  A    between atoms: C2_2  and  O1_3 
REMARK    2  A    between atoms: C2_2  and  C3_4 
REMARK    3  A    between atoms: C4_5  and  C5_6 
REMARK    4  A    between atoms: C5_6  and  O2_7 
REMARK    5  A    between atoms: C9_11  and  O3_12 
REMARK    6  A    between atoms: O3_12  and  C10_13 
REMARK    7  A    between atoms: C11_15  and  C12_16 
REMARK    8  A    between atoms: C12_16  and  O5_17 
REMARK    9  A    between atoms: C13_18  and  O6_19 
REMARK   10  A    between atoms: C14_20  and  O7_21 
REMARK   11  A    between atoms: C15_22  and  O8_23 
ROOT
HETATM    1  C5  UNL     1      -0.509  51.934 -19.791  1.00  0.00     0.086 C 
HETATM    2  C6  UNL     1       0.506  52.559 -20.820  1.00  0.00     0.023 C 
HETATM    3  C7  UNL     1       1.032  53.944 -20.412  1.00  0.00     0.013 C 
HETATM    4  C8  UNL     1      -0.113  52.656 -22.220  1.00  0.00     0.039 C 
HETATM    5  C9  UNL     1      -0.410  51.274 -22.804  1.00  0.00     0.126 C 
HETATM    6  C16 UNL     1      -0.666  50.219 -21.716  1.00  0.00     0.044 C 
HETATM    7  C17 UNL     1      -1.381  50.762 -20.451  1.00  0.00    -0.010 C 
HETATM    8  C18 UNL     1      -2.809  51.237 -20.832  1.00  0.00     0.018 C 
HETATM    9  C19 UNL     1      -1.596  49.550 -19.506  1.00  0.00     0.018 C 
ENDROOT
BRANCH   5  10
HETATM   10  O3  UNL     1      -1.548  51.301 -23.674  1.00  0.00    -0.353 OA
BRANCH  10  11
HETATM   11  C10 UNL     1      -1.306  50.761 -24.978  1.00  0.00     0.292 C 
HETATM   12  O4  UNL     1      -0.078  51.196 -25.559  1.00  0.00    -0.348 OA
HETATM   13  C11 UNL     1      -0.134  52.364 -26.402  1.00  0.00     0.179 C 
HETATM   14  C13 UNL     1      -1.149  52.192 -27.558  1.00  0.00     0.180 C 
HETATM   15  C14 UNL     1      -2.133  51.046 -27.305  1.00  0.00     0.183 C 
HETATM   16  C15 UNL     1      -2.546  51.065 -25.842  1.00  0.00     0.204 C 
BRANCH  13  17
HETATM   17  C12 UNL     1      -0.294  53.661 -25.588  1.00  0.00     0.198 C 
BRANCH  17  18
HETATM   18  O5  UNL     1       0.191  54.771 -26.347  1.00  0.00    -0.398 OA
HETATM   19  H20 UNL     1       0.343  55.499 -25.720  1.00  0.00     0.209 HD
ENDBRANCH  17  18
ENDBRANCH  13  17
BRANCH  14  20
HETATM   20  O6  UNL     1      -1.894  53.394 -27.798  1.00  0.00    -0.390 OA
HETATM   21  H22 UNL     1      -2.667  53.103 -28.330  1.00  0.00     0.210 HD
ENDBRANCH  14  20
BRANCH  15  22
HETATM   22  O7  UNL     1      -3.286  51.217 -28.148  1.00  0.00    -0.390 OA
HETATM   23  H24 UNL     1      -3.962  50.620 -27.766  1.00  0.00     0.210 HD
ENDBRANCH  15  22
BRANCH  16  24
HETATM   24  O8  UNL     1      -3.588  50.096 -25.627  1.00  0.00    -0.388 OA
HETATM   25  H26 UNL     1      -3.815  50.160 -24.679  1.00  0.00     0.210 HD
ENDBRANCH  16  24
ENDBRANCH  10  11
ENDBRANCH   5  10
BRANCH   1  26
HETATM   26  C4  UNL     1       0.152  51.510 -18.482  1.00  0.00     0.010 C 
HETATM   27  C3  UNL     1       0.763  52.264 -17.549  1.00  0.00     0.003 C 
BRANCH  27  28
HETATM   28  C2  UNL     1       1.390  51.774 -16.268  1.00  0.00     0.136 C 
HETATM   29  C1  UNL     1       0.816  50.427 -15.846  1.00  0.00     0.043 C 
BRANCH  28  30
HETATM   30  O1  UNL     1       1.198  52.706 -15.213  1.00  0.00    -0.392 OA
HETATM   31  H5  UNL     1       0.243  52.742 -15.033  1.00  0.00     0.210 HD
ENDBRANCH  28  30
ENDBRANCH  27  28
ENDBRANCH   1  26
BRANCH   1  32
HETATM   32  O2  UNL     1      -1.419  52.973 -19.391  1.00  0.00    -0.385 OA
HETATM   33  H8  UNL     1      -0.937  53.584 -18.806  1.00  0.00     0.211 HD
ENDBRANCH   1  32
TORSDOF 11
ENDMDL
MODEL 2
REMARK minimizedAffinity -8.42519951
REMARK  11 active torsions:
REMARK  status: ('A' for Active; 'I' for Inactive)
REMARK    1  A    between atoms: C2_2  and  O1_3 
REMARK    2  A    between atoms: C2_2  and  C3_4 
REMARK    3  A    between atoms: C4_5  and  C5_6 
REMARK    4  A    between atoms: C5_6  and  O2_7 
REMARK    5  A    between atoms: C9_11  and  O3_12 
REMARK    6  A    between atoms: O3_12  and  C10_13 
REMARK    7  A    between atoms: C11_15  and  C12_16 
REMARK    8  A    between atoms: C12_16  and  O5_17 
REMARK    9  A    between atoms: C13_18  and  O6_19 
REMARK   10  A    between atoms: C14_20  and  O7_21 
REMARK   11  A    between atoms: C15_22  and  O8_23 
ROOT
HETATM    1  C5  UNL     1      -0.672  51.773 -19.320  1.00  0.00     0.086 C 
HETATM    2  C6  UNL     1       0.273  52.637 -20.237  1.00  0.00     0.023 C 
HETATM    3  C7  UNL     1       0.451  54.086 -19.756  1.00  0.00     0.013 C 
HETATM    4  C8  UNL     1      -0.225  52.653 -21.687  1.00  0.00     0.039 C 
HETATM    5  C9  UNL     1      -0.165  51.262 -22.321  1.00  0.00     0.126 C 
HETATM    6  C16 UNL     1      -0.284  50.136 -21.281  1.00  0.00     0.044 C 
HETATM    7  C17 UNL     1      -1.209  50.468 -20.081  1.00  0.00    -0.010 C 
HETATM    8  C18 UNL     1      -2.665  50.642 -20.587  1.00  0.00     0.018 C 
HETATM    9  C19 UNL     1      -1.241  49.203 -19.181  1.00  0.00     0.018 C 
ENDROOT
BRANCH   5  10
HETATM   10  O3  UNL     1      -1.200  51.079 -23.295  1.00  0.00    -0.353 OA
BRANCH  10  11
HETATM   11  C10 UNL     1      -1.200  52.053 -24.344  1.00  0.00     0.292 C 
HETATM   12  O4  UNL     1      -2.422  52.782 -24.450  1.00  0.00    -0.348 OA
HETATM   13  C11 UNL     1      -3.412  52.266 -25.361  1.00  0.00     0.179 C 
HETATM   14  C13 UNL     1      -2.850  52.111 -26.794  1.00  0.00     0.180 C 
HETATM   15  C14 UNL     1      -1.319  52.130 -26.826  1.00  0.00     0.183 C 
HETATM   16  C15 UNL     1      -0.791  51.333 -25.644  1.00  0.00     0.204 C 
BRANCH  13  17
HETATM   17  C12 UNL     1      -4.118  51.016 -24.805  1.00  0.00     0.198 C 
BRANCH  17  18
HETATM   18  O5  UNL     1      -5.468  51.339 -24.458  1.00  0.00    -0.398 OA
HETATM   19  H20 UNL     1      -5.783  50.637 -23.862  1.00  0.00     0.209 HD
ENDBRANCH  17  18
ENDBRANCH  13  17
BRANCH  14  20
HETATM   20  O6  UNL     1      -3.309  50.906 -27.421  1.00  0.00    -0.390 OA
HETATM   21  H22 UNL     1      -2.696  50.773 -28.178  1.00  0.00     0.210 HD
ENDBRANCH  14  20
BRANCH  15  22
HETATM   22  O7  UNL     1      -0.863  51.548 -28.061  1.00  0.00    -0.390 OA
HETATM   23  H24 UNL     1       0.087  51.362 -27.910  1.00  0.00     0.210 HD
ENDBRANCH  15  22
BRANCH  16  24
HETATM   24  O8  UNL     1       0.639  51.209 -25.751  1.00  0.00    -0.388 OA
HETATM   25  H26 UNL     1       0.915  50.684 -24.974  1.00  0.00     0.210 HD
ENDBRANCH  16  24
ENDBRANCH  10  11
ENDBRANCH   5  10
BRANCH   1  26
HETATM   26  C4  UNL     1      -0.054  51.449 -17.962  1.00  0.00     0.010 C 
HETATM   27  C3  UNL     1       0.893  52.115 -17.273  1.00  0.00     0.003 C 
BRANCH  27  28
HETATM   28  C2  UNL     1       1.452  51.739 -15.924  1.00  0.00     0.136 C 
HETATM   29  C1  UNL     1       0.951  50.372 -15.474  1.00  0.00     0.043 C 
BRANCH  28  30
HETATM   30  O1  UNL     1       1.105  52.702 -14.938  1.00  0.00    -0.392 OA
HETATM   31  H5  UNL     1       0.139  52.669 -14.833  1.00  0.00     0.210 HD
ENDBRANCH  28  30
ENDBRANCH  27  28
ENDBRANCH   1  26
BRANCH   1  32
HETATM   32  O2  UNL     1      -1.816  52.579 -18.990  1.00  0.00    -0.385 OA
HETATM   33  H8  UNL     1      -1.530  53.255 -18.351  1.00  0.00     0.211 HD
ENDBRANCH   1  32
TORSDOF 11
ENDMDL
MODEL 3
REMARK minimizedAffinity -8.39117813
REMARK  11 active torsions:
REMARK  status: ('A' for Active; 'I' for Inactive)
REMARK    1  A    between atoms: C2_2  and  O1_3 
REMARK    2  A    between atoms: C2_2  and  C3_4 
REMARK    3  A    between atoms: C4_5  and  C5_6 
REMARK    4  A    between atoms: C5_6  and  O2_7 
REMARK    5  A    between atoms: C9_11  and  O3_12 
REMARK    6  A    between atoms: O3_12  and  C10_13 
REMARK    7  A    between atoms: C11_15  and  C12_16 
REMARK    8  A    between atoms: C12_16  and  O5_17 
REMARK    9  A    between atoms: C13_18  and  O6_19 
REMARK   10  A    between atoms: C14_20  and  O7_21 
REMARK   11  A    between atoms: C15_22  and  O8_23 
ROOT
HETATM    1  C5  UNL     1       0.441  52.684 -19.113  1.00  0.00     0.086 C 
HETATM    2  C6  UNL     1       1.046  52.730 -20.566  1.00  0.00     0.023 C 
HETATM    3  C7  UNL     1       1.662  54.087 -20.941  1.00  0.00     0.013 C 
HETATM    4  C8  UNL     1      -0.007  52.356 -21.617  1.00  0.00     0.039 C 
HETATM    5  C9  UNL     1      -0.467  50.905 -21.466  1.00  0.00     0.126 C 
HETATM    6  C16 UNL     1      -0.331  50.392 -20.023  1.00  0.00     0.044 C 
HETATM    7  C17 UNL     1      -0.588  51.467 -18.934  1.00  0.00    -0.010 C 
HETATM    8  C18 UNL     1      -2.066  51.934 -19.011  1.00  0.00     0.018 C 
HETATM    9  C19 UNL     1      -0.459  50.752 -17.563  1.00  0.00     0.018 C 
ENDROOT
BRANCH   5  10
HETATM   10  O3  UNL     1      -1.830  50.737 -21.872  1.00  0.00    -0.353 OA
BRANCH  10  11
HETATM   11  C10 UNL     1      -2.289  51.712 -22.814  1.00  0.00     0.292 C 
HETATM   12  O4  UNL     1      -3.405  52.473 -22.354  1.00  0.00    -0.348 OA
HETATM   13  C11 UNL     1      -4.716  51.984 -22.703  1.00  0.00     0.179 C 
HETATM   14  C13 UNL     1      -4.878  51.818 -24.233  1.00  0.00     0.180 C 
HETATM   15  C14 UNL     1      -3.532  51.797 -24.965  1.00  0.00     0.183 C 
HETATM   16  C15 UNL     1      -2.540  50.984 -24.149  1.00  0.00     0.204 C 
BRANCH  13  17
HETATM   17  C12 UNL     1      -5.117  50.752 -21.873  1.00  0.00     0.198 C 
BRANCH  17  18
HETATM   18  O5  UNL     1      -6.541  50.627 -21.850  1.00  0.00    -0.398 OA
HETATM   19  H20 UNL     1      -6.763  50.039 -21.108  1.00  0.00     0.209 HD
ENDBRANCH  17  18
ENDBRANCH  13  17
BRANCH  14  20
HETATM   20  O6  UNL     1      -5.602  50.625 -24.568  1.00  0.00    -0.390 OA
HETATM   21  H22 UNL     1      -5.408  50.478 -25.520  1.00  0.00     0.210 HD
ENDBRANCH  14  20
BRANCH  15  22
HETATM   22  O7  UNL     1      -3.708  51.206 -26.265  1.00  0.00    -0.390 OA
HETATM   23  H24 UNL     1      -2.800  50.995 -26.565  1.00  0.00     0.210 HD
ENDBRANCH  15  22
BRANCH  16  24
HETATM   24  O8  UNL     1      -1.322  50.824 -24.898  1.00  0.00    -0.388 OA
HETATM   25  H26 UNL     1      -0.732  50.291 -24.331  1.00  0.00     0.210 HD
ENDBRANCH  16  24
ENDBRANCH  10  11
ENDBRANCH   5  10
BRANCH   1  26
HETATM   26  C4  UNL     1       1.507  52.718 -18.021  1.00  0.00     0.010 C 
HETATM   27  C3  UNL     1       1.451  52.257 -16.756  1.00  0.00     0.003 C 
BRANCH  27  28
HETATM   28  C2  UNL     1       2.553  52.318 -15.729  1.00  0.00     0.136 C 
HETATM   29  C1  UNL     1       3.926  52.386 -16.388  1.00  0.00     0.043 C 
BRANCH  28  30
HETATM   30  O1  UNL     1       2.514  51.189 -14.866  1.00  0.00    -0.392 OA
HETATM   31  H5  UNL     1       2.712  50.407 -15.409  1.00  0.00     0.210 HD
ENDBRANCH  28  30
ENDBRANCH  27  28
ENDBRANCH   1  26
BRANCH   1  32
HETATM   32  O2  UNL     1      -0.295  53.902 -18.908  1.00  0.00    -0.385 OA
HETATM   33  H8  UNL     1       0.348  54.625 -18.802  1.00  0.00     0.211 HD
ENDBRANCH   1  32
TORSDOF 11
ENDMDL
MODEL 4
REMARK minimizedAffinity -8.3563242
REMARK  11 active torsions:
REMARK  status: ('A' for Active; 'I' for Inactive)
REMARK    1  A    between atoms: C2_2  and  O1_3 
REMARK    2  A    between atoms: C2_2  and  C3_4 
REMARK    3  A    between atoms: C4_5  and  C5_6 
REMARK    4  A    between atoms: C5_6  and  O2_7 
REMARK    5  A    between atoms: C9_11  and  O3_12 
REMARK    6  A    between atoms: O3_12  and  C10_13 
REMARK    7  A    between atoms: C11_15  and  C12_16 
REMARK    8  A    between atoms: C12_16  and  O5_17 
REMARK    9  A    between atoms: C13_18  and  O6_19 
REMARK   10  A    between atoms: C14_20  and  O7_21 
REMARK   11  A    between atoms: C15_22  and  O8_23 
ROOT
HETATM    1  C5  UNL     1      -1.393  51.154 -19.249  1.00  0.00     0.086 C 
HETATM    2  C6  UNL     1      -0.111  51.857 -19.834  1.00  0.00     0.023 C 
HETATM    3  C7  UNL     1       0.439  52.987 -18.948  1.00  0.00     0.013 C 
HETATM    4  C8  UNL     1      -0.374  52.412 -21.239  1.00  0.00     0.039 C 
HETATM    5  C9  UNL     1      -0.661  51.295 -22.244  1.00  0.00     0.126 C 
HETATM    6  C16 UNL     1      -1.264  50.046 -21.579  1.00  0.00     0.044 C 
HETATM    7  C17 UNL     1      -2.197  50.348 -20.378  1.00  0.00    -0.010 C 
HETATM    8  C18 UNL     1      -3.444  51.125 -20.876  1.00  0.00     0.018 C 
HETATM    9  C19 UNL     1      -2.742  48.981 -19.884  1.00  0.00     0.018 C 
ENDROOT
BRANCH   5  10
HETATM   10  O3  UNL     1      -1.557  51.727 -23.274  1.00  0.00    -0.353 OA
BRANCH  10  11
HETATM   11  C10 UNL     1      -1.073  51.513 -24.605  1.00  0.00     0.292 C 
HETATM   12  O4  UNL     1       0.333  51.711 -24.741  1.00  0.00    -0.348 OA
HETATM   13  C11 UNL     1       0.771  53.027 -25.135  1.00  0.00     0.179 C 
HETATM   14  C13 UNL     1       0.117  53.477 -26.463  1.00  0.00     0.180 C 
HETATM   15  C14 UNL     1      -1.118  52.645 -26.817  1.00  0.00     0.183 C 
HETATM   16  C15 UNL     1      -1.919  52.387 -25.551  1.00  0.00     0.204 C 
BRANCH  13  17
HETATM   17  C12 UNL     1       0.665  54.043 -23.984  1.00  0.00     0.198 C 
BRANCH  17  18
HETATM   18  O5  UNL     1       1.404  55.223 -24.311  1.00  0.00    -0.398 OA
HETATM   19  H20 UNL     1       1.554  55.703 -23.479  1.00  0.00     0.209 HD
ENDBRANCH  17  18
ENDBRANCH  13  17
BRANCH  14  20
HETATM   20  O6  UNL     1      -0.254  54.863 -26.433  1.00  0.00    -0.390 OA
HETATM   21  H22 UNL     1      -0.885  54.965 -27.179  1.00  0.00     0.210 HD
ENDBRANCH  14  20
BRANCH  15  22
HETATM   22  O7  UNL     1      -1.918  53.366 -27.772  1.00  0.00    -0.390 OA
HETATM   23  H24 UNL     1      -2.786  52.912 -27.760  1.00  0.00     0.210 HD
ENDBRANCH  15  22
BRANCH  16  24
HETATM   24  O8  UNL     1      -3.161  51.745 -25.893  1.00  0.00    -0.388 OA
HETATM   25  H26 UNL     1      -3.631  51.614 -25.046  1.00  0.00     0.210 HD
ENDBRANCH  16  24
ENDBRANCH  10  11
ENDBRANCH   5  10
BRANCH   1  26
HETATM   26  C4  UNL     1      -1.099  50.304 -18.015  1.00  0.00     0.010 C 
HETATM   27  C3  UNL     1      -0.146  50.461 -17.076  1.00  0.00     0.003 C 
BRANCH  27  28
HETATM   28  C2  UNL     1       0.081  49.581 -15.873  1.00  0.00     0.136 C 
HETATM   29  C1  UNL     1       1.259  50.070 -15.039  1.00  0.00     0.043 C 
BRANCH  28  30
HETATM   30  O1  UNL     1       0.320  48.234 -16.260  1.00  0.00    -0.392 OA
HETATM   31  H5  UNL     1       1.160  48.222 -16.749  1.00  0.00     0.210 HD
ENDBRANCH  28  30
ENDBRANCH  27  28
ENDBRANCH   1  26
BRANCH   1  32
HETATM   32  O2  UNL     1      -2.266  52.184 -18.753  1.00  0.00    -0.385 OA
HETATM   33  H8  UNL     1      -1.876  52.536 -17.933  1.00  0.00     0.211 HD
ENDBRANCH   1  32
TORSDOF 11
ENDMDL
MODEL 5
REMARK minimizedAffinity -8.0585928
REMARK  11 active torsions:
REMARK  status: ('A' for Active; 'I' for Inactive)
REMARK    1  A    between atoms: C2_2  and  O1_3 
REMARK    2  A    between atoms: C2_2  and  C3_4 
REMARK    3  A    between atoms: C4_5  and  C5_6 
REMARK    4  A    between atoms: C5_6  and  O2_7 
REMARK    5  A    between atoms: C9_11  and  O3_12 
REMARK    6  A    between atoms: O3_12  and  C10_13 
REMARK    7  A    between atoms: C11_15  and  C12_16 
REMARK    8  A    between atoms: C12_16  and  O5_17 
REMARK    9  A    between atoms: C13_18  and  O6_19 
REMARK   10  A    between atoms: C14_20  and  O7_21 
REMARK   11  A    between atoms: C15_22  and  O8_23 
ROOT
HETATM    1  C5  UNL     1      -2.432  50.917 -25.549  1.00  0.00     0.086 C 
HETATM    2  C6  UNL     1      -2.460  49.358 -25.327  1.00  0.00     0.023 C 
HETATM    3  C7  UNL     1      -3.204  48.587 -26.429  1.00  0.00     0.013 C 
HETATM    4  C8  UNL     1      -3.076  49.002 -23.969  1.00  0.00     0.039 C 
HETATM    5  C9  UNL     1      -2.222  49.514 -22.808  1.00  0.00     0.126 C 
HETATM    6  C16 UNL     1      -1.395  50.753 -23.189  1.00  0.00     0.044 C 
HETATM    7  C17 UNL     1      -2.093  51.706 -24.195  1.00  0.00    -0.010 C 
HETATM    8  C18 UNL     1      -3.361  52.310 -23.536  1.00  0.00     0.018 C 
HETATM    9  C19 UNL     1      -1.135  52.908 -24.409  1.00  0.00     0.018 C 
ENDROOT
BRANCH   5  10
HETATM   10  O3  UNL     1      -3.022  49.847 -21.668  1.00  0.00    -0.353 OA
BRANCH  10  11
HETATM   11  C10 UNL     1      -3.734  48.740 -21.105  1.00  0.00     0.292 C 
HETATM   12  O4  UNL     1      -4.793  48.259 -21.931  1.00  0.00    -0.348 OA
HETATM   13  C11 UNL     1      -6.104  48.811 -21.696  1.00  0.00     0.179 C 
HETATM   14  C13 UNL     1      -6.553  48.624 -20.227  1.00  0.00     0.180 C 
HETATM   15  C14 UNL     1      -5.381  48.298 -19.296  1.00  0.00     0.183 C 
HETATM   16  C15 UNL     1      -4.186  49.152 -19.690  1.00  0.00     0.204 C 
BRANCH  13  17
HETATM   17  C12 UNL     1      -6.235  50.247 -22.235  1.00  0.00     0.198 C 
BRANCH  17  18
HETATM   18  O5  UNL     1      -7.556  50.455 -22.740  1.00  0.00    -0.398 OA
HETATM   19  H20 UNL     1      -7.520  51.238 -23.315  1.00  0.00     0.209 HD
ENDBRANCH  17  18
ENDBRANCH  13  17
BRANCH  14  20
HETATM   20  O6  UNL     1      -7.232  49.783 -19.724  1.00  0.00    -0.390 OA
HETATM   21  H22 UNL     1      -7.220  49.672 -18.748  1.00  0.00     0.210 HD
ENDBRANCH  14  20
BRANCH  15  22
HETATM   22  O7  UNL     1      -5.763  48.578 -17.937  1.00  0.00    -0.390 OA
HETATM   23  H24 UNL     1      -4.919  48.594 -17.441  1.00  0.00     0.210 HD
ENDBRANCH  15  22
BRANCH  16  24
HETATM   24  O8  UNL     1      -3.132  48.973 -18.727  1.00  0.00    -0.388 OA
HETATM   25  H26 UNL     1      -2.401  49.547 -19.027  1.00  0.00     0.210 HD
ENDBRANCH  16  24
ENDBRANCH  10  11
ENDBRANCH   5  10
BRANCH   1  26
HETATM   26  C4  UNL     1      -1.540  51.339 -26.715  1.00  0.00     0.010 C 
HETATM   27  C3  UNL     1      -0.235  51.085 -26.928  1.00  0.00     0.003 C 
BRANCH  27  28
HETATM   28  C2  UNL     1       0.584  51.530 -28.114  1.00  0.00     0.136 C 
HETATM   29  C1  UNL     1       2.041  51.758 -27.732  1.00  0.00     0.043 C 
BRANCH  28  30
HETATM   30  O1  UNL     1       0.063  52.727 -28.677  1.00  0.00    -0.392 OA
HETATM   31  H5  UNL     1       0.174  53.427 -28.011  1.00  0.00     0.210 HD
ENDBRANCH  28  30
ENDBRANCH  27  28
ENDBRANCH   1  26
BRANCH   1  32
HETATM   32  O2  UNL     1      -3.748  51.322 -25.964  1.00  0.00    -0.385 OA
HETATM   33  H8  UNL     1      -3.878  51.022 -26.880  1.00  0.00     0.211 HD
ENDBRANCH   1  32
TORSDOF 11
ENDMDL
MODEL 6
REMARK minimizedAffinity -7.9490757
REMARK  11 active torsions:
REMARK  status: ('A' for Active; 'I' for Inactive)
REMARK    1  A    between atoms: C2_2  and  O1_3 
REMARK    2  A    between atoms: C2_2  and  C3_4 
REMARK    3  A    between atoms: C4_5  and  C5_6 
REMARK    4  A    between atoms: C5_6  and  O2_7 
REMARK    5  A    between atoms: C9_11  and  O3_12 
REMARK    6  A    between atoms: O3_12  and  C10_13 
REMARK    7  A    between atoms: C11_15  and  C12_16 
REMARK    8  A    between atoms: C12_16  and  O5_17 
REMARK    9  A    between atoms: C13_18  and  O6_19 
REMARK   10  A    between atoms: C14_20  and  O7_21 
REMARK   11  A    between atoms: C15_22  and  O8_23 
ROOT
HETATM    1  C5  UNL     1      -1.609  51.242 -19.362  1.00  0.00     0.086 C 
HETATM    2  C6  UNL     1      -0.395  52.008 -20.010  1.00  0.00     0.023 C 
HETATM    3  C7  UNL     1      -0.059  53.340 -19.320  1.00  0.00     0.013 C 
HETATM    4  C8  UNL     1      -0.638  52.271 -21.501  1.00  0.00     0.039 C 
HETATM    5  C9  UNL     1      -0.708  50.969 -22.301  1.00  0.00     0.126 C 
HETATM    6  C16 UNL     1      -1.183  49.781 -21.449  1.00  0.00     0.044 C 
HETATM    7  C17 UNL     1      -2.225  50.149 -20.360  1.00  0.00    -0.010 C 
HETATM    8  C18 UNL     1      -3.528  50.645 -21.040  1.00  0.00     0.018 C 
HETATM    9  C19 UNL     1      -2.615  48.824 -19.652  1.00  0.00     0.018 C 
ENDROOT
BRANCH   5  10
HETATM   10  O3  UNL     1      -1.585  51.087 -23.428  1.00  0.00    -0.353 OA
BRANCH  10  11
HETATM   11  C10 UNL     1      -1.368  52.258 -24.223  1.00  0.00     0.292 C 
HETATM   12  O4  UNL     1      -2.558  52.781 -24.809  1.00  0.00    -0.348 OA
HETATM   13  C11 UNL     1      -2.885  52.327 -26.138  1.00  0.00     0.179 C 
HETATM   14  C13 UNL     1      -1.732  52.592 -27.136  1.00  0.00     0.180 C 
HETATM   15  C14 UNL     1      -0.401  52.869 -26.430  1.00  0.00     0.183 C 
HETATM   16  C15 UNL     1      -0.265  51.924 -25.247  1.00  0.00     0.204 C 
BRANCH  13  17
HETATM   17  C12 UNL     1      -3.426  50.886 -26.143  1.00  0.00     0.198 C 
BRANCH  17  18
HETATM   18  O5  UNL     1      -4.374  50.722 -25.085  1.00  0.00    -0.398 OA
HETATM   19  H20 UNL     1      -4.471  49.766 -24.936  1.00  0.00     0.209 HD
ENDBRANCH  17  18
ENDBRANCH  13  17
BRANCH  14  20
HETATM   20  O6  UNL     1      -1.552  51.499 -28.048  1.00  0.00    -0.390 OA
HETATM   21  H22 UNL     1      -0.657  51.642 -28.429  1.00  0.00     0.210 HD
ENDBRANCH  14  20
BRANCH  15  22
HETATM   22  O7  UNL     1       0.679  52.661 -27.358  1.00  0.00    -0.390 OA
HETATM   23  H24 UNL     1       1.480  52.605 -26.796  1.00  0.00     0.210 HD
ENDBRANCH  15  22
BRANCH  16  24
HETATM   24  O8  UNL     1       1.047  52.064 -24.672  1.00  0.00    -0.388 OA
HETATM   25  H26 UNL     1       1.077  51.431 -23.928  1.00  0.00     0.210 HD
ENDBRANCH  16  24
ENDBRANCH  10  11
ENDBRANCH   5  10
BRANCH   1  26
HETATM   26  C4  UNL     1      -1.286  50.667 -17.985  1.00  0.00     0.010 C 
HETATM   27  C3  UNL     1      -0.129  50.156 -17.522  1.00  0.00     0.003 C 
BRANCH  27  28
HETATM   28  C2  UNL     1       0.121  49.611 -16.139  1.00  0.00     0.136 C 
HETATM   29  C1  UNL     1       1.185  50.417 -15.404  1.00  0.00     0.043 C 
BRANCH  28  30
HETATM   30  O1  UNL     1       0.530  48.250 -16.190  1.00  0.00    -0.392 OA
HETATM   31  H5  UNL     1       1.395  48.228 -16.634  1.00  0.00     0.210 HD
ENDBRANCH  28  30
ENDBRANCH  27  28
ENDBRANCH   1  26
BRANCH   1  32
HETATM   32  O2  UNL     1      -2.640  52.208 -19.094  1.00  0.00    -0.385 OA
HETATM   33  H8  UNL     1      -2.354  52.748 -18.336  1.00  0.00     0.211 HD
ENDBRANCH   1  32
TORSDOF 11
ENDMDL
MODEL 7
REMARK minimizedAffinity -7.9419775
REMARK  11 active torsions:
REMARK  status: ('A' for Active; 'I' for Inactive)
REMARK    1  A    between atoms: C2_2  and  O1_3 
REMARK    2  A    between atoms: C2_2  and  C3_4 
REMARK    3  A    between atoms: C4_5  and  C5_6 
REMARK    4  A    between atoms: C5_6  and  O2_7 
REMARK    5  A    between atoms: C9_11  and  O3_12 
REMARK    6  A    between atoms: O3_12  and  C10_13 
REMARK    7  A    between atoms: C11_15  and  C12_16 
REMARK    8  A    between atoms: C12_16  and  O5_17 
REMARK    9  A    between atoms: C13_18  and  O6_19 
REMARK   10  A    between atoms: C14_20  and  O7_21 
REMARK   11  A    between atoms: C15_22  and  O8_23 
ROOT
HETATM    1  C5  UNL     1      -2.500  50.820 -25.569  1.00  0.00     0.086 C 
HETATM    2  C6  UNL     1      -2.484  49.246 -25.514  1.00  0.00     0.023 C 
HETATM    3  C7  UNL     1      -3.209  48.575 -26.692  1.00  0.00     0.013 C 
HETATM    4  C8  UNL     1      -3.090  48.731 -24.203  1.00  0.00     0.039 C 
HETATM    5  C9  UNL     1      -2.248  49.140 -22.992  1.00  0.00     0.126 C 
HETATM    6  C16 UNL     1      -1.456  50.434 -23.238  1.00  0.00     0.044 C 
HETATM    7  C17 UNL     1      -2.181  51.469 -24.138  1.00  0.00    -0.010 C 
HETATM    8  C18 UNL     1      -3.465  51.965 -23.421  1.00  0.00     0.018 C 
HETATM    9  C19 UNL     1      -1.257  52.712 -24.221  1.00  0.00     0.018 C 
ENDROOT
BRANCH   5  10
HETATM   10  O3  UNL     1      -3.056  49.327 -21.824  1.00  0.00    -0.353 OA
BRANCH  10  11
HETATM   11  C10 UNL     1      -3.395  48.115 -21.142  1.00  0.00     0.292 C 
HETATM   12  O4  UNL     1      -4.799  47.924 -20.975  1.00  0.00    -0.348 OA
HETATM   13  C11 UNL     1      -5.380  48.404 -19.746  1.00  0.00     0.179 C 
HETATM   14  C13 UNL     1      -4.687  47.793 -18.505  1.00  0.00     0.180 C 
HETATM   15  C14 UNL     1      -3.324  47.181 -18.839  1.00  0.00     0.183 C 
HETATM   16  C15 UNL     1      -2.602  48.092 -19.820  1.00  0.00     0.204 C 
BRANCH  13  17
HETATM   17  C12 UNL     1      -5.510  49.938 -19.725  1.00  0.00     0.198 C 
BRANCH  17  18
HETATM   18  O5  UNL     1      -6.595  50.342 -20.565  1.00  0.00    -0.398 OA
HETATM   19  H20 UNL     1      -6.469  51.288 -20.755  1.00  0.00     0.209 HD
ENDBRANCH  17  18
ENDBRANCH  13  17
BRANCH  14  20
HETATM   20  O6  UNL     1      -4.515  48.760 -17.459  1.00  0.00    -0.390 OA
HETATM   21  H22 UNL     1      -3.844  48.360 -16.862  1.00  0.00     0.210 HD
ENDBRANCH  14  20
BRANCH  15  22
HETATM   22  O7  UNL     1      -2.555  47.047 -17.630  1.00  0.00    -0.390 OA
HETATM   23  H24 UNL     1      -1.637  46.898 -17.937  1.00  0.00     0.210 HD
ENDBRANCH  15  22
BRANCH  16  24
HETATM   24  O8  UNL     1      -1.260  47.612 -20.019  1.00  0.00    -0.388 OA
HETATM   25  H26 UNL     1      -0.848  48.237 -20.647  1.00  0.00     0.210 HD
ENDBRANCH  16  24
ENDBRANCH  10  11
ENDBRANCH   5  10
BRANCH   1  26
HETATM   26  C4  UNL     1      -1.621  51.387 -26.681  1.00  0.00     0.010 C 
HETATM   27  C3  UNL     1      -0.383  51.022 -27.063  1.00  0.00     0.003 C 
BRANCH  27  28
HETATM   28  C2  UNL     1       0.426  51.627 -28.183  1.00  0.00     0.136 C 
HETATM   29  C1  UNL     1       1.873  51.856 -27.766  1.00  0.00     0.043 C 
BRANCH  28  30
HETATM   30  O1  UNL     1      -0.131  52.864 -28.608  1.00  0.00    -0.392 OA
HETATM   31  H5  UNL     1      -0.046  53.486 -27.866  1.00  0.00     0.210 HD
ENDBRANCH  28  30
ENDBRANCH  27  28
ENDBRANCH   1  26
BRANCH   1  32
HETATM   32  O2  UNL     1      -3.827  51.230 -25.940  1.00  0.00    -0.385 OA
HETATM   33  H8  UNL     1      -3.950  51.025 -26.884  1.00  0.00     0.211 HD
ENDBRANCH   1  32
TORSDOF 11
ENDMDL
MODEL 8
REMARK minimizedAffinity -7.84555483
REMARK  11 active torsions:
REMARK  status: ('A' for Active; 'I' for Inactive)
REMARK    1  A    between atoms: C2_2  and  O1_3 
REMARK    2  A    between atoms: C2_2  and  C3_4 
REMARK    3  A    between atoms: C4_5  and  C5_6 
REMARK    4  A    between atoms: C5_6  and  O2_7 
REMARK    5  A    between atoms: C9_11  and  O3_12 
REMARK    6  A    between atoms: O3_12  and  C10_13 
REMARK    7  A    between atoms: C11_15  and  C12_16 
REMARK    8  A    between atoms: C12_16  and  O5_17 
REMARK    9  A    between atoms: C13_18  and  O6_19 
REMARK   10  A    between atoms: C14_20  and  O7_21 
REMARK   11  A    between atoms: C15_22  and  O8_23 
ROOT
HETATM    1  C5  UNL     1      -1.375  49.455 -20.456  1.00  0.00     0.086 C 
HETATM    2  C6  UNL     1      -2.401  48.667 -21.356  1.00  0.00     0.023 C 
HETATM    3  C7  UNL     1      -2.115  47.160 -21.451  1.00  0.00     0.013 C 
HETATM    4  C8  UNL     1      -2.458  49.251 -22.773  1.00  0.00     0.039 C 
HETATM    5  C9  UNL     1      -3.003  50.681 -22.774  1.00  0.00     0.126 C 
HETATM    6  C16 UNL     1      -2.740  51.411 -21.447  1.00  0.00     0.044 C 
HETATM    7  C17 UNL     1      -1.403  51.029 -20.759  1.00  0.00    -0.010 C 
HETATM    8  C18 UNL     1      -0.217  51.474 -21.655  1.00  0.00     0.018 C 
HETATM    9  C19 UNL     1      -1.295  51.901 -19.480  1.00  0.00     0.018 C 
ENDROOT
BRANCH   5  10
HETATM   10  O3  UNL     1      -2.438  51.462 -23.833  1.00  0.00    -0.353 OA
BRANCH  10  11
HETATM   11  C10 UNL     1      -1.944  50.693 -24.934  1.00  0.00     0.292 C 
HETATM   12  O4  UNL     1      -0.553  50.883 -25.188  1.00  0.00    -0.348 OA
HETATM   13  C11 UNL     1      -0.199  51.897 -26.150  1.00  0.00     0.179 C 
HETATM   14  C13 UNL     1      -0.882  51.656 -27.517  1.00  0.00     0.180 C 
HETATM   15  C14 UNL     1      -2.064  50.687 -27.417  1.00  0.00     0.183 C 
HETATM   16  C15 UNL     1      -2.845  50.991 -26.148  1.00  0.00     0.204 C 
BRANCH  13  17
HETATM   17  C12 UNL     1      -0.367  53.319 -25.584  1.00  0.00     0.198 C 
BRANCH  17  18
HETATM   18  O5  UNL     1       0.425  54.237 -26.342  1.00  0.00    -0.398 OA
HETATM   19  H20 UNL     1       0.524  55.040 -25.801  1.00  0.00     0.209 HD
ENDBRANCH  17  18
ENDBRANCH  13  17
BRANCH  14  20
HETATM   20  O6  UNL     1      -1.340  52.880 -28.109  1.00  0.00    -0.390 OA
HETATM   21  H22 UNL     1      -1.978  52.596 -28.800  1.00  0.00     0.210 HD
ENDBRANCH  14  20
BRANCH  15  22
HETATM   22  O7  UNL     1      -2.909  50.849 -28.570  1.00  0.00    -0.390 OA
HETATM   23  H24 UNL     1      -3.747  50.403 -28.327  1.00  0.00     0.210 HD
ENDBRANCH  15  22
BRANCH  16  24
HETATM   24  O8  UNL     1      -4.044  50.196 -26.122  1.00  0.00    -0.388 OA
HETATM   25  H26 UNL     1      -4.503  50.440 -25.295  1.00  0.00     0.210 HD
ENDBRANCH  16  24
ENDBRANCH  10  11
ENDBRANCH   5  10
BRANCH   1  26
HETATM   26  C4  UNL     1      -1.519  49.139 -18.969  1.00  0.00     0.010 C 
HETATM   27  C3  UNL     1      -0.595  49.190 -17.991  1.00  0.00     0.003 C 
BRANCH  27  28
HETATM   28  C2  UNL     1      -0.812  48.870 -16.534  1.00  0.00     0.136 C 
HETATM   29  C1  UNL     1      -0.860  50.136 -15.686  1.00  0.00     0.043 C 
BRANCH  28  30
HETATM   30  O1  UNL     1       0.215  48.023 -16.036  1.00  0.00    -0.392 OA
HETATM   31  H5  UNL     1       1.044  48.529 -16.066  1.00  0.00     0.210 HD
ENDBRANCH  28  30
ENDBRANCH  27  28
ENDBRANCH   1  26
BRANCH   1  32
HETATM   32  O2  UNL     1      -0.057  48.979 -20.779  1.00  0.00    -0.385 OA
HETATM   33  H8  UNL     1       0.038  48.086 -20.405  1.00  0.00     0.211 HD
ENDBRANCH   1  32
TORSDOF 11
ENDMDL
MODEL 9
REMARK minimizedAffinity -7.79374361
REMARK  11 active torsions:
REMARK  status: ('A' for Active; 'I' for Inactive)
REMARK    1  A    between atoms: C2_2  and  O1_3 
REMARK    2  A    between atoms: C2_2  and  C3_4 
REMARK    3  A    between atoms: C4_5  and  C5_6 
REMARK    4  A    between atoms: C5_6  and  O2_7 
REMARK    5  A    between atoms: C9_11  and  O3_12 
REMARK    6  A    between atoms: O3_12  and  C10_13 
REMARK    7  A    between atoms: C11_15  and  C12_16 
REMARK    8  A    between atoms: C12_16  and  O5_17 
REMARK    9  A    between atoms: C13_18  and  O6_19 
REMARK   10  A    between atoms: C14_20  and  O7_21 
REMARK   11  A    between atoms: C15_22  and  O8_23 
ROOT
HETATM    1  C5  UNL     1      -2.961  50.283 -20.572  1.00  0.00     0.086 C 
HETATM    2  C6  UNL     1      -1.398  50.086 -20.590  1.00  0.00     0.023 C 
HETATM    3  C7  UNL     1      -0.719  50.378 -19.243  1.00  0.00     0.013 C 
HETATM    4  C8  UNL     1      -0.743  50.951 -21.673  1.00  0.00     0.039 C 
HETATM    5  C9  UNL     1      -1.174  50.523 -23.077  1.00  0.00     0.126 C 
HETATM    6  C16 UNL     1      -2.562  49.863 -23.090  1.00  0.00     0.044 C 
HETATM    7  C17 UNL     1      -3.558  50.444 -22.052  1.00  0.00    -0.010 C 
HETATM    8  C18 UNL     1      -3.863  51.924 -22.403  1.00  0.00     0.018 C 
HETATM    9  C19 UNL     1      -4.901  49.694 -22.255  1.00  0.00     0.018 C 
ENDROOT
BRANCH   5  10
HETATM   10  O3  UNL     1      -1.200  51.632 -23.984  1.00  0.00    -0.353 OA
BRANCH  10  11
HETATM   11  C10 UNL     1      -1.531  51.283 -25.333  1.00  0.00     0.292 C 
HETATM   12  O4  UNL     1      -0.536  50.492 -25.981  1.00  0.00    -0.348 OA
HETATM   13  C11 UNL     1       0.462  51.198 -26.745  1.00  0.00     0.179 C 
HETATM   14  C13 UNL     1      -0.176  52.102 -27.827  1.00  0.00     0.180 C 
HETATM   15  C14 UNL     1      -1.663  52.363 -27.567  1.00  0.00     0.183 C 
HETATM   16  C15 UNL     1      -1.872  52.588 -26.078  1.00  0.00     0.204 C 
BRANCH  13  17
HETATM   17  C12 UNL     1       1.496  51.896 -25.844  1.00  0.00     0.198 C 
BRANCH  17  18
HETATM   18  O5  UNL     1       2.741  52.011 -26.539  1.00  0.00    -0.398 OA
HETATM   19  H20 UNL     1       3.425  52.182 -25.868  1.00  0.00     0.209 HD
ENDBRANCH  17  18
ENDBRANCH  13  17
BRANCH  14  20
HETATM   20  O6  UNL     1       0.501  53.362 -27.936  1.00  0.00    -0.390 OA
HETATM   21  H22 UNL     1      -0.129  53.938 -28.424  1.00  0.00     0.210 HD
ENDBRANCH  14  20
BRANCH  15  22
HETATM   22  O7  UNL     1      -2.076  53.526 -28.307  1.00  0.00    -0.390 OA
HETATM   23  H24 UNL     1      -2.935  53.779 -27.910  1.00  0.00     0.210 HD
ENDBRANCH  15  22
BRANCH  16  24
HETATM   24  O8  UNL     1      -3.233  52.990 -25.841  1.00  0.00    -0.388 OA
HETATM   25  H26 UNL     1      -3.303  53.126 -24.877  1.00  0.00     0.210 HD
ENDBRANCH  16  24
ENDBRANCH  10  11
ENDBRANCH   5  10
BRANCH   1  26
HETATM   26  C4  UNL     1      -3.688  49.216 -19.757  1.00  0.00     0.010 C 
HETATM   27  C3  UNL     1      -4.932  49.235 -19.241  1.00  0.00     0.003 C 
BRANCH  27  28
HETATM   28  C2  UNL     1      -5.591  48.135 -18.448  1.00  0.00     0.136 C 
HETATM   29  C1  UNL     1      -7.056  48.450 -18.168  1.00  0.00     0.043 C 
BRANCH  28  30
HETATM   30  O1  UNL     1      -4.923  47.921 -17.212  1.00  0.00    -0.392 OA
HETATM   31  H5  UNL     1      -5.040  48.727 -16.681  1.00  0.00     0.210 HD
ENDBRANCH  28  30
ENDBRANCH  27  28
ENDBRANCH   1  26
BRANCH   1  32
HETATM   32  O2  UNL     1      -3.238  51.502 -19.863  1.00  0.00    -0.385 OA
HETATM   33  H8  UNL     1      -3.076  51.341 -18.917  1.00  0.00     0.211 HD
ENDBRANCH   1  32
TORSDOF 11
ENDMDL
