MODEL 1
REMARK minimizedAffinity -5.96413136
REMARK CNNscore 0.545425594
REMARK CNNaffinity 4.71606064
REMARK  12 active torsions:
REMARK  status: ('A' for Active; 'I' for Inactive)
REMARK    1  A    between atoms: C3_3  and  O1_4 
REMARK    2  A    between atoms: O1_4  and  C4_5 
REMARK    3  A    between atoms: C5_7  and  C6_8 
REMARK    4  A    between atoms: C6_8  and  O3_9 
REMARK    5  A    between atoms: C7_10  and  O4_11 
REMARK    6  A    between atoms: C8_12  and  O5_13 
REMARK    7  A    between atoms: C9_14  and  O6_15 
REMARK    8  A    between atoms: C10_16  and  O7_17 
REMARK    9  A    between atoms: C15_22  and  O8_23 
REMARK   10  A    between atoms: C15_22  and  C16_24 
REMARK   11  A    between atoms: C17_25  and  C18_26 
REMARK   12  A    between atoms: C18_26  and  O9_28 
ROOT
HETATM    1  C1  UNL     1       3.515  14.438   3.030  1.00  0.00     0.016 C 
HETATM    2  C2  UNL     1       2.069  14.224   2.533  1.00  0.00     0.052 C 
HETATM    3  C3  UNL     1       1.875  14.830   1.121  1.00  0.00     0.160 C 
HETATM    4  C10 UNL     1       0.410  14.767   0.629  1.00  0.00     0.148 C 
HETATM    5  C11 UNL     1      -0.619  15.142   1.695  1.00  0.00     0.046 C 
HETATM    6  C12 UNL     1      -0.463  14.374   3.023  1.00  0.00    -0.010 C 
HETATM    7  C13 UNL     1      -1.581  14.861   3.983  1.00  0.00     0.018 C 
HETATM    8  C14 UNL     1      -0.738  12.866   2.791  1.00  0.00     0.018 C 
HETATM    9  C15 UNL     1       0.990  14.625   3.591  1.00  0.00     0.088 C 
ENDROOT
BRANCH   3  10
HETATM   10  O1  UNL     1       2.782  14.101   0.267  1.00  0.00    -0.350 OA
BRANCH  10  11
HETATM   11  C4  UNL     1       3.758  14.868  -0.422  1.00  0.00     0.292 C 
HETATM   12  O2  UNL     1       3.340  15.193  -1.749  1.00  0.00    -0.348 OA
HETATM   13  C5  UNL     1       3.128  14.074  -2.632  1.00  0.00     0.179 C 
HETATM   14  C7  UNL     1       3.870  12.793  -2.225  1.00  0.00     0.180 C 
HETATM   15  C8  UNL     1       5.235  13.194  -1.678  1.00  0.00     0.183 C 
HETATM   16  C9  UNL     1       5.096  14.084  -0.438  1.00  0.00     0.204 C 
BRANCH  13  17
HETATM   17  C6  UNL     1       1.635  13.842  -2.909  1.00  0.00     0.198 C 
BRANCH  17  18
HETATM   18  O3  UNL     1       1.409  12.909  -3.960  1.00  0.00    -0.398 OA
HETATM   19  H10 UNL     1       0.449  12.896  -4.123  1.00  0.00     0.209 HD
ENDBRANCH  17  18
ENDBRANCH  13  17
BRANCH  14  20
HETATM   20  O4  UNL     1       4.050  11.937  -3.363  1.00  0.00    -0.390 OA
HETATM   21  H12 UNL     1       4.725  11.287  -3.076  1.00  0.00     0.210 HD
ENDBRANCH  14  20
BRANCH  15  22
HETATM   22  O5  UNL     1       6.001  12.013  -1.379  1.00  0.00    -0.390 OA
HETATM   23  H14 UNL     1       6.805  12.319  -0.916  1.00  0.00     0.210 HD
ENDBRANCH  15  22
BRANCH  16  24
HETATM   24  O6  UNL     1       6.232  14.976  -0.419  1.00  0.00    -0.388 OA
HETATM   25  H16 UNL     1       6.064  15.662  -1.092  1.00  0.00     0.210 HD
ENDBRANCH  16  24
ENDBRANCH  10  11
ENDBRANCH   3  10
BRANCH   4  26
HETATM   26  O7  UNL     1       0.209  15.673  -0.469  1.00  0.00    -0.393 OA
HETATM   27  H18 UNL     1       0.281  16.582  -0.138  1.00  0.00     0.210 HD
ENDBRANCH   4  26
BRANCH   9  28
HETATM   28  O8  UNL     1       1.209  13.731   4.700  1.00  0.00    -0.385 OA
HETATM   29  H27 UNL     1       0.494  13.852   5.343  1.00  0.00     0.211 HD
ENDBRANCH   9  28
BRANCH   9  30
HETATM   30  C16 UNL     1       1.121  16.014   4.206  1.00  0.00     0.010 C 
HETATM   31  C17 UNL     1       1.333  16.393   5.482  1.00  0.00     0.003 C 
BRANCH  31  32
HETATM   32  C18 UNL     1       1.457  17.816   5.968  1.00  0.00     0.136 C 
HETATM   33  C19 UNL     1       0.091  18.481   6.056  1.00  0.00     0.043 C 
BRANCH  32  34
HETATM   34  O9  UNL     1       2.065  17.863   7.252  1.00  0.00    -0.392 OA
HETATM   35  H34 UNL     1       2.953  17.474   7.153  1.00  0.00     0.210 HD
ENDBRANCH  32  34
ENDBRANCH  31  32
ENDBRANCH   9  30
TORSDOF 12
ENDMDL
MODEL 2
REMARK minimizedAffinity -7.3657465
REMARK CNNscore 0.452099264
REMARK CNNaffinity 4.60002947
REMARK  12 active torsions:
REMARK  status: ('A' for Active; 'I' for Inactive)
REMARK    1  A    between atoms: C3_3  and  O1_4 
REMARK    2  A    between atoms: O1_4  and  C4_5 
REMARK    3  A    between atoms: C5_7  and  C6_8 
REMARK    4  A    between atoms: C6_8  and  O3_9 
REMARK    5  A    between atoms: C7_10  and  O4_11 
REMARK    6  A    between atoms: C8_12  and  O5_13 
REMARK    7  A    between atoms: C9_14  and  O6_15 
REMARK    8  A    between atoms: C10_16  and  O7_17 
REMARK    9  A    between atoms: C15_22  and  O8_23 
REMARK   10  A    between atoms: C15_22  and  C16_24 
REMARK   11  A    between atoms: C17_25  and  C18_26 
REMARK   12  A    between atoms: C18_26  and  O9_28 
ROOT
HETATM    1  C1  UNL     1      -7.316 -10.193   6.144  1.00  0.00     0.016 C 
HETATM    2  C2  UNL     1      -5.846 -10.587   6.403  1.00  0.00     0.052 C 
HETATM    3  C3  UNL     1      -5.074  -9.427   7.078  1.00  0.00     0.160 C 
HETATM    4  C10 UNL     1      -3.563  -9.716   7.237  1.00  0.00     0.148 C 
HETATM    5  C11 UNL     1      -2.921 -10.356   6.006  1.00  0.00     0.046 C 
HETATM    6  C12 UNL     1      -3.656 -11.607   5.487  1.00  0.00    -0.010 C 
HETATM    7  C13 UNL     1      -2.878 -12.135   4.253  1.00  0.00     0.018 C 
HETATM    8  C14 UNL     1      -3.577 -12.737   6.547  1.00  0.00     0.018 C 
HETATM    9  C15 UNL     1      -5.152 -11.220   5.153  1.00  0.00     0.088 C 
ENDROOT
BRANCH   3  10
HETATM   10  O1  UNL     1      -5.737  -9.216   8.343  1.00  0.00    -0.350 OA
BRANCH  10  11
HETATM   11  C4  UNL     1      -5.344 -10.062   9.413  1.00  0.00     0.292 C 
HETATM   12  O2  UNL     1      -6.378 -10.978   9.775  1.00  0.00    -0.348 OA
HETATM   13  C5  UNL     1      -7.598 -10.386  10.264  1.00  0.00     0.179 C 
HETATM   14  C7  UNL     1      -7.437  -8.965  10.823  1.00  0.00     0.180 C 
HETATM   15  C8  UNL     1      -6.107  -8.902  11.566  1.00  0.00     0.183 C 
HETATM   16  C9  UNL     1      -4.932  -9.184  10.623  1.00  0.00     0.204 C 
BRANCH  13  17
HETATM   17  C6  UNL     1      -8.738 -10.504   9.241  1.00  0.00     0.198 C 
BRANCH  17  18
HETATM   18  O3  UNL     1      -9.271 -11.821   9.159  1.00  0.00    -0.398 OA
HETATM   19  H10 UNL     1      -9.916 -11.820   8.430  1.00  0.00     0.209 HD
ENDBRANCH  17  18
ENDBRANCH  13  17
BRANCH  14  20
HETATM   20  O4  UNL     1      -8.503  -8.664  11.737  1.00  0.00    -0.390 OA
HETATM   21  H12 UNL     1      -8.195  -7.868  12.217  1.00  0.00     0.210 HD
ENDBRANCH  14  20
BRANCH  15  22
HETATM   22  O5  UNL     1      -5.966  -7.613  12.191  1.00  0.00    -0.390 OA
HETATM   23  H14 UNL     1      -5.054  -7.577  12.538  1.00  0.00     0.210 HD
ENDBRANCH  15  22
BRANCH  16  24
HETATM   24  O6  UNL     1      -3.895  -9.815  11.406  1.00  0.00    -0.388 OA
HETATM   25  H16 UNL     1      -4.173 -10.739  11.550  1.00  0.00     0.210 HD
ENDBRANCH  16  24
ENDBRANCH  10  11
ENDBRANCH   3  10
BRANCH   4  26
HETATM   26  O7  UNL     1      -2.842  -8.496   7.485  1.00  0.00    -0.393 OA
HETATM   27  H18 UNL     1      -2.869  -7.951   6.683  1.00  0.00     0.210 HD
ENDBRANCH   4  26
BRANCH   9  28
HETATM   28  O8  UNL     1      -5.891 -12.430   4.892  1.00  0.00    -0.385 OA
HETATM   29  H27 UNL     1      -5.435 -12.929   4.198  1.00  0.00     0.211 HD
ENDBRANCH   9  28
BRANCH   9  30
HETATM   30  C16 UNL     1      -5.252 -10.439   3.848  1.00  0.00     0.010 C 
HETATM   31  C17 UNL     1      -6.196 -10.450   2.888  1.00  0.00     0.003 C 
BRANCH  31  32
HETATM   32  C18 UNL     1      -6.187  -9.612   1.633  1.00  0.00     0.136 C 
HETATM   33  C19 UNL     1      -5.841 -10.457   0.417  1.00  0.00     0.043 C 
BRANCH  32  34
HETATM   34  O9  UNL     1      -7.456  -9.007   1.417  1.00  0.00    -0.392 OA
HETATM   35  H34 UNL     1      -7.627  -8.437   2.188  1.00  0.00     0.210 HD
ENDBRANCH  32  34
ENDBRANCH  31  32
ENDBRANCH   9  30
TORSDOF 12
ENDMDL
MODEL 3
REMARK minimizedAffinity -6.19611883
REMARK CNNscore 0.426228166
REMARK CNNaffinity 4.39248753
REMARK  12 active torsions:
REMARK  status: ('A' for Active; 'I' for Inactive)
REMARK    1  A    between atoms: C3_3  and  O1_4 
REMARK    2  A    between atoms: O1_4  and  C4_5 
REMARK    3  A    between atoms: C5_7  and  C6_8 
REMARK    4  A    between atoms: C6_8  and  O3_9 
REMARK    5  A    between atoms: C7_10  and  O4_11 
REMARK    6  A    between atoms: C8_12  and  O5_13 
REMARK    7  A    between atoms: C9_14  and  O6_15 
REMARK    8  A    between atoms: C10_16  and  O7_17 
REMARK    9  A    between atoms: C15_22  and  O8_23 
REMARK   10  A    between atoms: C15_22  and  C16_24 
REMARK   11  A    between atoms: C17_25  and  C18_26 
REMARK   12  A    between atoms: C18_26  and  O9_28 
ROOT
HETATM    1  C1  UNL     1       2.054  15.124  -1.213  1.00  0.00     0.016 C 
HETATM    2  C2  UNL     1       3.571  14.891  -1.054  1.00  0.00     0.052 C 
HETATM    3  C3  UNL     1       4.011  13.597  -1.782  1.00  0.00     0.160 C 
HETATM    4  C10 UNL     1       5.496  13.239  -1.542  1.00  0.00     0.148 C 
HETATM    5  C11 UNL     1       5.949  13.409  -0.092  1.00  0.00     0.046 C 
HETATM    6  C12 UNL     1       5.621  14.788   0.515  1.00  0.00    -0.010 C 
HETATM    7  C13 UNL     1       6.151  14.799   1.974  1.00  0.00     0.018 C 
HETATM    8  C14 UNL     1       6.419  15.890  -0.228  1.00  0.00     0.018 C 
HETATM    9  C15 UNL     1       4.062  15.030   0.424  1.00  0.00     0.088 C 
ENDROOT
BRANCH   3  10
HETATM   10  O1  UNL     1       3.710  13.826  -3.176  1.00  0.00    -0.350 OA
BRANCH  10  11
HETATM   11  C4  UNL     1       2.854  12.883  -3.802  1.00  0.00     0.292 C 
HETATM   12  O2  UNL     1       3.584  11.940  -4.588  1.00  0.00    -0.348 OA
HETATM   13  C5  UNL     1       4.325  12.486  -5.696  1.00  0.00     0.179 C 
HETATM   14  C7  UNL     1       3.818  13.848  -6.191  1.00  0.00     0.180 C 
HETATM   15  C8  UNL     1       2.296  13.839  -6.112  1.00  0.00     0.183 C 
HETATM   16  C9  UNL     1       1.817  13.643  -4.670  1.00  0.00     0.204 C 
BRANCH  13  17
HETATM   17  C6  UNL     1       5.839  12.467  -5.433  1.00  0.00     0.198 C 
BRANCH  17  18
HETATM   18  O3  UNL     1       6.605  12.721  -6.606  1.00  0.00    -0.398 OA
HETATM   19  H10 UNL     1       7.539  12.600  -6.364  1.00  0.00     0.209 HD
ENDBRANCH  17  18
ENDBRANCH  13  17
BRANCH  14  20
HETATM   20  O4  UNL     1       4.220  14.065  -7.552  1.00  0.00    -0.390 OA
HETATM   21  H12 UNL     1       3.663  14.812  -7.855  1.00  0.00     0.210 HD
ENDBRANCH  14  20
BRANCH  15  22
HETATM   22  O5  UNL     1       1.778  15.064  -6.664  1.00  0.00    -0.390 OA
HETATM   23  H14 UNL     1       0.821  15.065  -6.473  1.00  0.00     0.210 HD
ENDBRANCH  15  22
BRANCH  16  24
HETATM   24  O6  UNL     1       0.557  12.939  -4.727  1.00  0.00    -0.388 OA
HETATM   25  H16 UNL     1       0.764  12.006  -4.925  1.00  0.00     0.210 HD
ENDBRANCH  16  24
ENDBRANCH  10  11
ENDBRANCH   3  10
BRANCH   4  26
HETATM   26  O7  UNL     1       5.745  11.866  -1.889  1.00  0.00    -0.393 OA
HETATM   27  H18 UNL     1       5.285  11.297  -1.251  1.00  0.00     0.210 HD
ENDBRANCH   4  26
BRANCH   9  28
HETATM   28  O8  UNL     1       3.790  16.401   0.777  1.00  0.00    -0.385 OA
HETATM   29  H27 UNL     1       4.180  16.582   1.645  1.00  0.00     0.211 HD
ENDBRANCH   9  28
BRANCH   9  30
HETATM   30  C16 UNL     1       3.306  14.223   1.473  1.00  0.00     0.010 C 
HETATM   31  C17 UNL     1       2.067  14.382   1.979  1.00  0.00     0.003 C 
BRANCH  31  32
HETATM   32  C18 UNL     1       1.420  13.499   3.017  1.00  0.00     0.136 C 
HETATM   33  C19 UNL     1       0.957  14.317   4.214  1.00  0.00     0.043 C 
BRANCH  32  34
HETATM   34  O9  UNL     1       0.297  12.817   2.475  1.00  0.00    -0.392 OA
HETATM   35  H34 UNL     1       0.632  12.267   1.744  1.00  0.00     0.210 HD
ENDBRANCH  32  34
ENDBRANCH  31  32
ENDBRANCH   9  30
TORSDOF 12
ENDMDL
MODEL 4
REMARK minimizedAffinity -6.01417732
REMARK CNNscore 0.372568518
REMARK CNNaffinity 3.90508842
REMARK  12 active torsions:
REMARK  status: ('A' for Active; 'I' for Inactive)
REMARK    1  A    between atoms: C3_3  and  O1_4 
REMARK    2  A    between atoms: O1_4  and  C4_5 
REMARK    3  A    between atoms: C5_7  and  C6_8 
REMARK    4  A    between atoms: C6_8  and  O3_9 
REMARK    5  A    between atoms: C7_10  and  O4_11 
REMARK    6  A    between atoms: C8_12  and  O5_13 
REMARK    7  A    between atoms: C9_14  and  O6_15 
REMARK    8  A    between atoms: C10_16  and  O7_17 
REMARK    9  A    between atoms: C15_22  and  O8_23 
REMARK   10  A    between atoms: C15_22  and  C16_24 
REMARK   11  A    between atoms: C17_25  and  C18_26 
REMARK   12  A    between atoms: C18_26  and  O9_28 
ROOT
HETATM    1  C1  UNL     1     -11.023  -8.930   9.248  1.00  0.00     0.016 C 
HETATM    2  C2  UNL     1     -10.189  -9.398   8.036  1.00  0.00     0.052 C 
HETATM    3  C3  UNL     1      -8.746  -8.841   8.110  1.00  0.00     0.160 C 
HETATM    4  C10 UNL     1      -7.905  -9.164   6.852  1.00  0.00     0.148 C 
HETATM    5  C11 UNL     1      -8.659  -8.972   5.536  1.00  0.00     0.046 C 
HETATM    6  C12 UNL     1     -10.019  -9.695   5.475  1.00  0.00    -0.010 C 
HETATM    7  C13 UNL     1     -10.643  -9.409   4.083  1.00  0.00     0.018 C 
HETATM    8  C14 UNL     1      -9.799 -11.229   5.528  1.00  0.00     0.018 C 
HETATM    9  C15 UNL     1     -10.921  -9.189   6.670  1.00  0.00     0.088 C 
ENDROOT
BRANCH   3  10
HETATM   10  O1  UNL     1      -8.184  -9.402   9.315  1.00  0.00    -0.350 OA
BRANCH  10  11
HETATM   11  C4  UNL     1      -7.716  -8.478  10.286  1.00  0.00     0.292 C 
HETATM   12  O2  UNL     1      -6.298  -8.318  10.229  1.00  0.00    -0.348 OA
HETATM   13  C5  UNL     1      -5.521  -9.499  10.509  1.00  0.00     0.179 C 
HETATM   14  C7  UNL     1      -6.261 -10.568  11.327  1.00  0.00     0.180 C 
HETATM   15  C8  UNL     1      -7.121  -9.854  12.363  1.00  0.00     0.183 C 
HETATM   16  C9  UNL     1      -8.165  -8.955  11.692  1.00  0.00     0.204 C 
BRANCH  13  17
HETATM   17  C6  UNL     1      -4.863 -10.062   9.240  1.00  0.00     0.198 C 
BRANCH  17  18
HETATM   18  O3  UNL     1      -5.586 -11.155   8.683  1.00  0.00    -0.398 OA
HETATM   19  H10 UNL     1      -5.052 -11.499   7.946  1.00  0.00     0.209 HD
ENDBRANCH  17  18
ENDBRANCH  13  17
BRANCH  14  20
HETATM   20  O4  UNL     1      -5.321 -11.420  11.999  1.00  0.00    -0.390 OA
HETATM   21  H12 UNL     1      -5.857 -11.894  12.669  1.00  0.00     0.210 HD
ENDBRANCH  14  20
BRANCH  15  22
HETATM   22  O5  UNL     1      -7.753 -10.826  13.216  1.00  0.00    -0.390 OA
HETATM   23  H14 UNL     1      -8.386 -10.331  13.771  1.00  0.00     0.210 HD
ENDBRANCH  15  22
BRANCH  16  24
HETATM   24  O6  UNL     1      -8.404  -7.838  12.577  1.00  0.00    -0.388 OA
HETATM   25  H16 UNL     1      -7.638  -7.240  12.490  1.00  0.00     0.210 HD
ENDBRANCH  16  24
ENDBRANCH  10  11
ENDBRANCH   3  10
BRANCH   4  26
HETATM   26  O7  UNL     1      -6.749  -8.312   6.788  1.00  0.00    -0.393 OA
HETATM   27  H18 UNL     1      -7.043  -7.403   6.618  1.00  0.00     0.210 HD
ENDBRANCH   4  26
BRANCH   9  28
HETATM   28  O8  UNL     1     -12.092 -10.027   6.746  1.00  0.00    -0.385 OA
HETATM   29  H27 UNL     1     -12.528 -10.031   5.881  1.00  0.00     0.211 HD
ENDBRANCH   9  28
BRANCH   9  30
HETATM   30  C16 UNL     1     -11.481  -7.797   6.402  1.00  0.00     0.010 C 
HETATM   31  C17 UNL     1     -12.748  -7.339   6.428  1.00  0.00     0.003 C 
BRANCH  31  32
HETATM   32  C18 UNL     1     -13.178  -5.920   6.152  1.00  0.00     0.136 C 
HETATM   33  C19 UNL     1     -12.672  -5.452   4.796  1.00  0.00     0.043 C 
BRANCH  32  34
HETATM   34  O9  UNL     1     -14.595  -5.805   6.169  1.00  0.00    -0.392 OA
HETATM   35  H34 UNL     1     -14.884  -6.065   7.063  1.00  0.00     0.210 HD
ENDBRANCH  32  34
ENDBRANCH  31  32
ENDBRANCH   9  30
TORSDOF 12
ENDMDL
MODEL 5
REMARK minimizedAffinity -6.65347195
REMARK CNNscore 0.346523315
REMARK CNNaffinity 4.52014494
REMARK  12 active torsions:
REMARK  status: ('A' for Active; 'I' for Inactive)
REMARK    1  A    between atoms: C3_3  and  O1_4 
REMARK    2  A    between atoms: O1_4  and  C4_5 
REMARK    3  A    between atoms: C5_7  and  C6_8 
REMARK    4  A    between atoms: C6_8  and  O3_9 
REMARK    5  A    between atoms: C7_10  and  O4_11 
REMARK    6  A    between atoms: C8_12  and  O5_13 
REMARK    7  A    between atoms: C9_14  and  O6_15 
REMARK    8  A    between atoms: C10_16  and  O7_17 
REMARK    9  A    between atoms: C15_22  and  O8_23 
REMARK   10  A    between atoms: C15_22  and  C16_24 
REMARK   11  A    between atoms: C17_25  and  C18_26 
REMARK   12  A    between atoms: C18_26  and  O9_28 
ROOT
HETATM    1  C1  UNL     1       4.047  14.880   1.628  1.00  0.00     0.016 C 
HETATM    2  C2  UNL     1       3.048  15.320   0.536  1.00  0.00     0.052 C 
HETATM    3  C3  UNL     1       1.706  14.559   0.676  1.00  0.00     0.160 C 
HETATM    4  C10 UNL     1       0.717  14.858  -0.474  1.00  0.00     0.148 C 
HETATM    5  C11 UNL     1       1.363  14.880  -1.860  1.00  0.00     0.046 C 
HETATM    6  C12 UNL     1       2.602  15.790  -1.965  1.00  0.00    -0.010 C 
HETATM    7  C13 UNL     1       3.126  15.706  -3.423  1.00  0.00     0.018 C 
HETATM    8  C14 UNL     1       2.185  17.268  -1.755  1.00  0.00     0.018 C 
HETATM    9  C15 UNL     1       3.671  15.325  -0.899  1.00  0.00     0.088 C 
ENDROOT
BRANCH   3  10
HETATM   10  O1  UNL     1       1.190  14.939   1.969  1.00  0.00    -0.350 OA
BRANCH  10  11
HETATM   11  C4  UNL     1       1.338  13.989   3.014  1.00  0.00     0.292 C 
HETATM   12  O2  UNL     1       0.201  13.131   3.120  1.00  0.00    -0.348 OA
HETATM   13  C5  UNL     1      -1.044  13.777   3.448  1.00  0.00     0.179 C 
HETATM   14  C7  UNL     1      -0.892  15.137   4.145  1.00  0.00     0.180 C 
HETATM   15  C8  UNL     1       0.292  15.043   5.101  1.00  0.00     0.183 C 
HETATM   16  C9  UNL     1       1.591  14.742   4.346  1.00  0.00     0.204 C 
BRANCH  13  17
HETATM   17  C6  UNL     1      -1.997  13.823   2.243  1.00  0.00     0.198 C 
BRANCH  17  18
HETATM   18  O3  UNL     1      -3.246  14.430   2.553  1.00  0.00    -0.398 OA
HETATM   19  H10 UNL     1      -3.810  14.333   1.765  1.00  0.00     0.209 HD
ENDBRANCH  17  18
ENDBRANCH  13  17
BRANCH  14  20
HETATM   20  O4  UNL     1      -2.077  15.451   4.891  1.00  0.00    -0.390 OA
HETATM   21  H12 UNL     1      -1.807  16.184   5.482  1.00  0.00     0.210 HD
ENDBRANCH  14  20
BRANCH  15  22
HETATM   22  O5  UNL     1       0.405  16.269   5.848  1.00  0.00    -0.390 OA
HETATM   23  H14 UNL     1       1.245  16.209   6.344  1.00  0.00     0.210 HD
ENDBRANCH  15  22
BRANCH  16  24
HETATM   24  O6  UNL     1       2.437  13.977   5.233  1.00  0.00    -0.388 OA
HETATM   25  H16 UNL     1       2.080  13.069   5.250  1.00  0.00     0.210 HD
ENDBRANCH  16  24
ENDBRANCH  10  11
ENDBRANCH   3  10
BRANCH   4  26
HETATM   26  O7  UNL     1      -0.316  13.859  -0.521  1.00  0.00    -0.393 OA
HETATM   27  H18 UNL     1       0.080  13.017  -0.797  1.00  0.00     0.210 HD
ENDBRANCH   4  26
BRANCH   9  28
HETATM   28  O8  UNL     1       4.722  16.311  -0.842  1.00  0.00    -0.385 OA
HETATM   29  H27 UNL     1       5.070  16.446  -1.736  1.00  0.00     0.211 HD
ENDBRANCH   9  28
BRANCH   9  30
HETATM   30  C16 UNL     1       4.386  14.051  -1.337  1.00  0.00     0.010 C 
HETATM   31  C17 UNL     1       4.013  13.090  -2.204  1.00  0.00     0.003 C 
BRANCH  31  32
HETATM   32  C18 UNL     1       4.823  11.869  -2.566  1.00  0.00     0.136 C 
HETATM   33  C19 UNL     1       5.269  11.925  -4.020  1.00  0.00     0.043 C 
BRANCH  32  34
HETATM   34  O9  UNL     1       5.977  11.762  -1.743  1.00  0.00    -0.392 OA
HETATM   35  H34 UNL     1       5.658  11.681  -0.827  1.00  0.00     0.210 HD
ENDBRANCH  32  34
ENDBRANCH  31  32
ENDBRANCH   9  30
TORSDOF 12
ENDMDL
MODEL 6
REMARK minimizedAffinity -6.46044731
REMARK CNNscore 0.344230562
REMARK CNNaffinity 4.42636347
REMARK  12 active torsions:
REMARK  status: ('A' for Active; 'I' for Inactive)
REMARK    1  A    between atoms: C3_3  and  O1_4 
REMARK    2  A    between atoms: O1_4  and  C4_5 
REMARK    3  A    between atoms: C5_7  and  C6_8 
REMARK    4  A    between atoms: C6_8  and  O3_9 
REMARK    5  A    between atoms: C7_10  and  O4_11 
REMARK    6  A    between atoms: C8_12  and  O5_13 
REMARK    7  A    between atoms: C9_14  and  O6_15 
REMARK    8  A    between atoms: C10_16  and  O7_17 
REMARK    9  A    between atoms: C15_22  and  O8_23 
REMARK   10  A    between atoms: C15_22  and  C16_24 
REMARK   11  A    between atoms: C17_25  and  C18_26 
REMARK   12  A    between atoms: C18_26  and  O9_28 
ROOT
HETATM    1  C1  UNL     1      -7.358 -10.215  12.992  1.00  0.00     0.016 C 
HETATM    2  C2  UNL     1      -8.664 -10.471  12.208  1.00  0.00     0.052 C 
HETATM    3  C3  UNL     1      -8.941  -9.323  11.208  1.00  0.00     0.160 C 
HETATM    4  C10 UNL     1     -10.306  -9.457  10.493  1.00  0.00     0.148 C 
HETATM    5  C11 UNL     1     -11.453  -9.867  11.417  1.00  0.00     0.046 C 
HETATM    6  C12 UNL     1     -11.163 -11.121  12.266  1.00  0.00    -0.010 C 
HETATM    7  C13 UNL     1     -12.419 -11.405  13.132  1.00  0.00     0.018 C 
HETATM    8  C14 UNL     1     -11.006 -12.355  11.340  1.00  0.00     0.018 C 
HETATM    9  C15 UNL     1      -9.865 -10.866  13.129  1.00  0.00     0.088 C 
ENDROOT
BRANCH   3  10
HETATM   10  O1  UNL     1      -7.827  -9.342  10.290  1.00  0.00    -0.350 OA
BRANCH  10  11
HETATM   11  C4  UNL     1      -7.734 -10.467   9.430  1.00  0.00     0.292 C 
HETATM   12  O2  UNL     1      -6.461 -11.108   9.527  1.00  0.00    -0.348 OA
HETATM   13  C5  UNL     1      -5.326 -10.312   9.138  1.00  0.00     0.179 C 
HETATM   14  C7  UNL     1      -5.660  -9.142   8.200  1.00  0.00     0.180 C 
HETATM   15  C8  UNL     1      -6.738  -9.613   7.230  1.00  0.00     0.183 C 
HETATM   16  C9  UNL     1      -8.017 -10.013   7.974  1.00  0.00     0.204 C 
BRANCH  13  17
HETATM   17  C6  UNL     1      -4.484  -9.887  10.351  1.00  0.00     0.198 C 
BRANCH  17  18
HETATM   18  O3  UNL     1      -3.164  -9.492   9.995  1.00  0.00    -0.398 OA
HETATM   19  H10 UNL     1      -2.684  -9.330  10.826  1.00  0.00     0.209 HD
ENDBRANCH  17  18
ENDBRANCH  13  17
BRANCH  14  20
HETATM   20  O4  UNL     1      -4.496  -8.749   7.457  1.00  0.00    -0.390 OA
HETATM   21  H12 UNL     1      -4.845  -8.190   6.733  1.00  0.00     0.210 HD
ENDBRANCH  14  20
BRANCH  15  22
HETATM   22  O5  UNL     1      -7.007  -8.575   6.269  1.00  0.00    -0.390 OA
HETATM   23  H14 UNL     1      -7.785  -8.871   5.759  1.00  0.00     0.210 HD
ENDBRANCH  15  22
BRANCH  16  24
HETATM   24  O6  UNL     1      -8.651 -11.060   7.208  1.00  0.00    -0.388 OA
HETATM   25  H16 UNL     1      -8.142 -11.877   7.370  1.00  0.00     0.210 HD
ENDBRANCH  16  24
ENDBRANCH  10  11
ENDBRANCH   3  10
BRANCH   4  26
HETATM   26  O7  UNL     1     -10.688  -8.204   9.900  1.00  0.00    -0.393 OA
HETATM   27  H18 UNL     1     -10.884  -7.572  10.610  1.00  0.00     0.210 HD
ENDBRANCH   4  26
BRANCH   9  28
HETATM   28  O8  UNL     1      -9.469 -12.110  13.740  1.00  0.00    -0.385 OA
HETATM   29  H27 UNL     1     -10.222 -12.468  14.234  1.00  0.00     0.211 HD
ENDBRANCH   9  28
BRANCH   9  30
HETATM   30  C16 UNL     1     -10.148  -9.948  14.313  1.00  0.00     0.010 C 
HETATM   31  C17 UNL     1      -9.992 -10.148  15.636  1.00  0.00     0.003 C 
BRANCH  31  32
HETATM   32  C18 UNL     1     -10.301  -9.145  16.720  1.00  0.00     0.136 C 
HETATM   33  C19 UNL     1     -11.395  -9.661  17.642  1.00  0.00     0.043 C 
BRANCH  32  34
HETATM   34  O9  UNL     1      -9.145  -8.869  17.502  1.00  0.00    -0.392 OA
HETATM   35  H34 UNL     1      -8.481  -8.498  16.894  1.00  0.00     0.210 HD
ENDBRANCH  32  34
ENDBRANCH  31  32
ENDBRANCH   9  30
TORSDOF 12
ENDMDL
MODEL 7
REMARK minimizedAffinity -6.69018459
REMARK CNNscore 0.300800323
REMARK CNNaffinity 4.32915258
REMARK  12 active torsions:
REMARK  status: ('A' for Active; 'I' for Inactive)
REMARK    1  A    between atoms: C3_3  and  O1_4 
REMARK    2  A    between atoms: O1_4  and  C4_5 
REMARK    3  A    between atoms: C5_7  and  C6_8 
REMARK    4  A    between atoms: C6_8  and  O3_9 
REMARK    5  A    between atoms: C7_10  and  O4_11 
REMARK    6  A    between atoms: C8_12  and  O5_13 
REMARK    7  A    between atoms: C9_14  and  O6_15 
REMARK    8  A    between atoms: C10_16  and  O7_17 
REMARK    9  A    between atoms: C15_22  and  O8_23 
REMARK   10  A    between atoms: C15_22  and  C16_24 
REMARK   11  A    between atoms: C17_25  and  C18_26 
REMARK   12  A    between atoms: C18_26  and  O9_28 
ROOT
HETATM    1  C1  UNL     1       4.189   8.300  10.062  1.00  0.00     0.016 C 
HETATM    2  C2  UNL     1       2.990   8.022  10.993  1.00  0.00     0.052 C 
HETATM    3  C3  UNL     1       3.454   7.865  12.462  1.00  0.00     0.160 C 
HETATM    4  C10 UNL     1       2.313   7.448  13.419  1.00  0.00     0.148 C 
HETATM    5  C11 UNL     1       1.399   6.359  12.858  1.00  0.00     0.046 C 
HETATM    6  C12 UNL     1       0.841   6.662  11.453  1.00  0.00    -0.010 C 
HETATM    7  C13 UNL     1      -0.065   5.473  11.039  1.00  0.00     0.018 C 
HETATM    8  C14 UNL     1      -0.092   7.898  11.517  1.00  0.00     0.018 C 
HETATM    9  C15 UNL     1       2.050   6.891  10.461  1.00  0.00     0.088 C 
ENDROOT
BRANCH   3  10
HETATM   10  O1  UNL     1       4.040   9.137  12.812  1.00  0.00    -0.350 OA
BRANCH  10  11
HETATM   11  C4  UNL     1       5.329   9.408  12.284  1.00  0.00     0.292 C 
HETATM   12  O2  UNL     1       6.362   8.807  13.066  1.00  0.00    -0.348 OA
HETATM   13  C5  UNL     1       6.469   9.269  14.426  1.00  0.00     0.179 C 
HETATM   14  C7  UNL     1       5.862  10.657  14.676  1.00  0.00     0.180 C 
HETATM   15  C8  UNL     1       6.160  11.526  13.460  1.00  0.00     0.183 C 
HETATM   16  C9  UNL     1       5.523  10.944  12.193  1.00  0.00     0.204 C 
BRANCH  13  17
HETATM   17  C6  UNL     1       5.982   8.210  15.428  1.00  0.00     0.198 C 
BRANCH  17  18
HETATM   18  O3  UNL     1       5.700   6.959  14.811  1.00  0.00    -0.398 OA
HETATM   19  H10 UNL     1       5.316   6.387  15.498  1.00  0.00     0.209 HD
ENDBRANCH  17  18
ENDBRANCH  13  17
BRANCH  14  20
HETATM   20  O4  UNL     1       6.449  11.257  15.841  1.00  0.00    -0.390 OA
HETATM   21  H12 UNL     1       6.197  12.202  15.783  1.00  0.00     0.210 HD
ENDBRANCH  14  20
BRANCH  15  22
HETATM   22  O5  UNL     1       5.693  12.867  13.700  1.00  0.00    -0.390 OA
HETATM   23  H14 UNL     1       5.788  13.344  12.853  1.00  0.00     0.210 HD
ENDBRANCH  15  22
BRANCH  16  24
HETATM   24  O6  UNL     1       6.371  11.305  11.081  1.00  0.00    -0.388 OA
HETATM   25  H16 UNL     1       7.151  10.719  11.118  1.00  0.00     0.210 HD
ENDBRANCH  16  24
ENDBRANCH  10  11
ENDBRANCH   3  10
BRANCH   4  26
HETATM   26  O7  UNL     1       2.851   6.936  14.650  1.00  0.00    -0.393 OA
HETATM   27  H18 UNL     1       3.292   6.091  14.467  1.00  0.00     0.210 HD
ENDBRANCH   4  26
BRANCH   9  28
HETATM   28  O8  UNL     1       1.530   7.398   9.215  1.00  0.00    -0.385 OA
HETATM   29  H27 UNL     1       0.848   6.790   8.893  1.00  0.00     0.211 HD
ENDBRANCH   9  28
BRANCH   9  30
HETATM   30  C16 UNL     1       2.716   5.575  10.074  1.00  0.00     0.010 C 
HETATM   31  C17 UNL     1       3.254   5.173   8.906  1.00  0.00     0.003 C 
BRANCH  31  32
HETATM   32  C18 UNL     1       3.902   3.835   8.649  1.00  0.00     0.136 C 
HETATM   33  C19 UNL     1       4.144   3.625   7.162  1.00  0.00     0.043 C 
BRANCH  32  34
HETATM   34  O9  UNL     1       5.146   3.734   9.328  1.00  0.00    -0.392 OA
HETATM   35  H34 UNL     1       4.952   3.825  10.278  1.00  0.00     0.210 HD
ENDBRANCH  32  34
ENDBRANCH  31  32
ENDBRANCH   9  30
TORSDOF 12
ENDMDL
MODEL 8
REMARK minimizedAffinity -7.87785673
REMARK CNNscore 0.286798745
REMARK CNNaffinity 4.80957651
REMARK  12 active torsions:
REMARK  status: ('A' for Active; 'I' for Inactive)
REMARK    1  A    between atoms: C3_3  and  O1_4 
REMARK    2  A    between atoms: O1_4  and  C4_5 
REMARK    3  A    between atoms: C5_7  and  C6_8 
REMARK    4  A    between atoms: C6_8  and  O3_9 
REMARK    5  A    between atoms: C7_10  and  O4_11 
REMARK    6  A    between atoms: C8_12  and  O5_13 
REMARK    7  A    between atoms: C9_14  and  O6_15 
REMARK    8  A    between atoms: C10_16  and  O7_17 
REMARK    9  A    between atoms: C15_22  and  O8_23 
REMARK   10  A    between atoms: C15_22  and  C16_24 
REMARK   11  A    between atoms: C17_25  and  C18_26 
REMARK   12  A    between atoms: C18_26  and  O9_28 
ROOT
HETATM    1  C1  UNL     1      -0.224   5.549  10.958  1.00  0.00     0.016 C 
HETATM    2  C2  UNL     1       0.366   6.608  11.915  1.00  0.00     0.052 C 
HETATM    3  C3  UNL     1      -0.664   7.729  12.199  1.00  0.00     0.160 C 
HETATM    4  C10 UNL     1      -0.082   8.888  13.042  1.00  0.00     0.148 C 
HETATM    5  C11 UNL     1       1.320   9.323  12.614  1.00  0.00     0.046 C 
HETATM    6  C12 UNL     1       2.336   8.168  12.511  1.00  0.00    -0.010 C 
HETATM    7  C13 UNL     1       3.697   8.776  12.080  1.00  0.00     0.018 C 
HETATM    8  C14 UNL     1       2.576   7.556  13.915  1.00  0.00     0.018 C 
HETATM    9  C15 UNL     1       1.789   7.095  11.488  1.00  0.00     0.088 C 
ENDROOT
BRANCH   3  10
HETATM   10  O1  UNL     1      -1.772   7.069  12.848  1.00  0.00    -0.350 OA
BRANCH  10  11
HETATM   11  C4  UNL     1      -1.456   6.247  13.962  1.00  0.00     0.292 C 
HETATM   12  O2  UNL     1      -2.418   5.208  14.147  1.00  0.00    -0.348 OA
HETATM   13  C5  UNL     1      -3.762   5.641  14.438  1.00  0.00     0.179 C 
HETATM   14  C7  UNL     1      -3.862   7.056  15.026  1.00  0.00     0.180 C 
HETATM   15  C8  UNL     1      -2.684   7.254  15.972  1.00  0.00     0.183 C 
HETATM   16  C9  UNL     1      -1.349   7.136  15.228  1.00  0.00     0.204 C 
BRANCH  13  17
HETATM   17  C6  UNL     1      -4.703   5.418  13.244  1.00  0.00     0.198 C 
BRANCH  17  18
HETATM   18  O3  UNL     1      -6.075   5.396  13.621  1.00  0.00    -0.398 OA
HETATM   19  H10 UNL     1      -6.583   5.162  12.825  1.00  0.00     0.209 HD
ENDBRANCH  17  18
ENDBRANCH  13  17
BRANCH  14  20
HETATM   20  O4  UNL     1      -5.087   7.207  15.758  1.00  0.00    -0.390 OA
HETATM   21  H12 UNL     1      -4.957   8.020  16.287  1.00  0.00     0.210 HD
ENDBRANCH  14  20
BRANCH  15  22
HETATM   22  O5  UNL     1      -2.798   8.534  16.621  1.00  0.00    -0.390 OA
HETATM   23  H14 UNL     1      -1.963   8.667  17.110  1.00  0.00     0.210 HD
ENDBRANCH  15  22
BRANCH  16  24
HETATM   24  O6  UNL     1      -0.381   6.609  16.163  1.00  0.00    -0.388 OA
HETATM   25  H16 UNL     1      -0.567   5.655  16.254  1.00  0.00     0.210 HD
ENDBRANCH  16  24
ENDBRANCH  10  11
ENDBRANCH   3  10
BRANCH   4  26
HETATM   26  O7  UNL     1      -0.919  10.052  12.941  1.00  0.00    -0.393 OA
HETATM   27  H18 UNL     1      -0.860  10.399  12.036  1.00  0.00     0.210 HD
ENDBRANCH   4  26
BRANCH   9  28
HETATM   28  O8  UNL     1       2.621   5.920  11.568  1.00  0.00    -0.385 OA
HETATM   29  H27 UNL     1       3.544   6.183  11.429  1.00  0.00     0.211 HD
ENDBRANCH   9  28
BRANCH   9  30
HETATM   30  C16 UNL     1       1.948   7.561  10.045  1.00  0.00     0.010 C 
HETATM   31  C17 UNL     1       2.638   7.025   9.020  1.00  0.00     0.003 C 
BRANCH  31  32
HETATM   32  C18 UNL     1       2.707   7.581   7.619  1.00  0.00     0.136 C 
HETATM   33  C19 UNL     1       1.377   7.414   6.901  1.00  0.00     0.043 C 
BRANCH  32  34
HETATM   34  O9  UNL     1       3.040   8.963   7.637  1.00  0.00    -0.392 OA
HETATM   35  H34 UNL     1       3.916   9.032   8.059  1.00  0.00     0.210 HD
ENDBRANCH  32  34
ENDBRANCH  31  32
ENDBRANCH   9  30
TORSDOF 12
ENDMDL
MODEL 9
REMARK minimizedAffinity -8.11068535
REMARK CNNscore 0.284954429
REMARK CNNaffinity 4.58554029
REMARK  12 active torsions:
REMARK  status: ('A' for Active; 'I' for Inactive)
REMARK    1  A    between atoms: C3_3  and  O1_4 
REMARK    2  A    between atoms: O1_4  and  C4_5 
REMARK    3  A    between atoms: C5_7  and  C6_8 
REMARK    4  A    between atoms: C6_8  and  O3_9 
REMARK    5  A    between atoms: C7_10  and  O4_11 
REMARK    6  A    between atoms: C8_12  and  O5_13 
REMARK    7  A    between atoms: C9_14  and  O6_15 
REMARK    8  A    between atoms: C10_16  and  O7_17 
REMARK    9  A    between atoms: C15_22  and  O8_23 
REMARK   10  A    between atoms: C15_22  and  C16_24 
REMARK   11  A    between atoms: C17_25  and  C18_26 
REMARK   12  A    between atoms: C18_26  and  O9_28 
ROOT
HETATM    1  C1  UNL     1      -1.415   8.782  11.469  1.00  0.00     0.016 C 
HETATM    2  C2  UNL     1      -0.331   8.802  12.568  1.00  0.00     0.052 C 
HETATM    3  C3  UNL     1       0.355   7.420  12.692  1.00  0.00     0.160 C 
HETATM    4  C10 UNL     1       1.354   7.342  13.870  1.00  0.00     0.148 C 
HETATM    5  C11 UNL     1       0.844   7.984  15.160  1.00  0.00     0.046 C 
HETATM    6  C12 UNL     1       0.327   9.426  14.987  1.00  0.00    -0.010 C 
HETATM    7  C13 UNL     1      -0.140   9.930  16.378  1.00  0.00     0.018 C 
HETATM    8  C14 UNL     1       1.497  10.356  14.576  1.00  0.00     0.018 C 
HETATM    9  C15 UNL     1      -0.830   9.429  13.911  1.00  0.00     0.088 C 
ENDROOT
BRANCH   3  10
HETATM   10  O1  UNL     1       0.983   7.191  11.412  1.00  0.00    -0.350 OA
BRANCH  10  11
HETATM   11  C4  UNL     1       2.317   7.654  11.270  1.00  0.00     0.292 C 
HETATM   12  O2  UNL     1       2.500   8.385  10.056  1.00  0.00    -0.348 OA
HETATM   13  C5  UNL     1       2.285   7.645   8.839  1.00  0.00     0.179 C 
HETATM   14  C7  UNL     1       2.424   6.123   8.986  1.00  0.00     0.180 C 
HETATM   15  C8  UNL     1       3.570   5.848   9.954  1.00  0.00     0.183 C 
HETATM   16  C9  UNL     1       3.281   6.441  11.337  1.00  0.00     0.204 C 
BRANCH  13  17
HETATM   17  C6  UNL     1       0.982   8.065   8.140  1.00  0.00     0.198 C 
BRANCH  17  18
HETATM   18  O3  UNL     1       0.294   9.099   8.834  1.00  0.00    -0.398 OA
HETATM   19  H10 UNL     1      -0.552   9.233   8.373  1.00  0.00     0.209 HD
ENDBRANCH  17  18
ENDBRANCH  13  17
BRANCH  14  20
HETATM   20  O4  UNL     1       2.724   5.524   7.717  1.00  0.00    -0.390 OA
HETATM   21  H12 UNL     1       3.033   4.621   7.939  1.00  0.00     0.210 HD
ENDBRANCH  14  20
BRANCH  15  22
HETATM   22  O5  UNL     1       3.797   4.430  10.040  1.00  0.00    -0.390 OA
HETATM   23  H14 UNL     1       4.443   4.300  10.761  1.00  0.00     0.210 HD
ENDBRANCH  15  22
BRANCH  16  24
HETATM   24  O6  UNL     1       4.550   6.806  11.923  1.00  0.00    -0.388 OA
HETATM   25  H16 UNL     1       4.837   7.629  11.484  1.00  0.00     0.210 HD
ENDBRANCH  16  24
ENDBRANCH  10  11
ENDBRANCH   3  10
BRANCH   4  26
HETATM   26  O7  UNL     1       1.652   5.971  14.187  1.00  0.00    -0.393 OA
HETATM   27  H18 UNL     1       0.855   5.559  14.559  1.00  0.00     0.210 HD
ENDBRANCH   4  26
BRANCH   9  28
HETATM   28  O8  UNL     1      -1.150  10.796  13.585  1.00  0.00    -0.385 OA
HETATM   29  H27 UNL     1      -1.355  11.271  14.404  1.00  0.00     0.211 HD
ENDBRANCH   9  28
BRANCH   9  30
HETATM   30  C16 UNL     1      -2.130   8.872  14.481  1.00  0.00     0.010 C 
HETATM   31  C17 UNL     1      -2.519   7.602  14.705  1.00  0.00     0.003 C 
BRANCH  31  32
HETATM   32  C18 UNL     1      -3.842   7.176  15.292  1.00  0.00     0.136 C 
HETATM   33  C19 UNL     1      -4.729   6.543  14.230  1.00  0.00     0.043 C 
BRANCH  32  34
HETATM   34  O9  UNL     1      -3.653   6.236  16.341  1.00  0.00    -0.392 OA
HETATM   35  H34 UNL     1      -3.123   6.685  17.024  1.00  0.00     0.210 HD
ENDBRANCH  32  34
ENDBRANCH  31  32
ENDBRANCH   9  30
TORSDOF 12
ENDMDL
