MODEL 1
REMARK minimizedAffinity -7.74656391
REMARK  7 active torsions:
REMARK  status: ('A' for Active; 'I' for Inactive)
REMARK       I    between atoms: C1_2  and  N1_3 
REMARK    1  A    between atoms: C1_2  and  C8_12 
REMARK    2  A    between atoms: N1_3  and  C2_4 
REMARK    3  A    between atoms: C2_4  and  C3_5 
REMARK    4  A    between atoms: C14_19  and  C15_20 
REMARK    5  A    between atoms: C15_20  and  N4_21 
REMARK    6  A    between atoms: C17_23  and  C18_24 
REMARK    7  A    between atoms: C18_24  and  C19_25 
ROOT
HETATM    1  C8  UNL     1      17.895  36.523  13.604  1.00  0.00     0.110 C 
HETATM    2  C9  UNL     1      18.077  36.860  15.097  1.00  0.00     0.287 C 
HETATM    3  N3  UNL     1      17.797  35.685  15.968  1.00  0.00     0.095 N 
HETATM    4  C10 UNL     1      18.541  34.516  15.432  1.00  0.00     0.273 C 
HETATM    5  C11 UNL     1      18.004  34.092  14.052  1.00  0.00     0.036 C 
HETATM    6  C12 UNL     1      17.091  35.207  13.505  1.00  0.00     0.004 C 
HETATM    7  C13 UNL     1      15.864  35.295  14.439  1.00  0.00     0.043 C 
HETATM    8  C14 UNL     1      16.336  35.357  15.913  1.00  0.00     0.242 C 
ENDROOT
BRANCH   8   9
HETATM    9  C15 UNL     1      15.491  36.314  16.775  1.00  0.00     0.181 C 
BRANCH   9  10
HETATM   10  N4  UNL     1      14.168  35.791  17.043  1.00  0.00    -0.283 N 
HETATM   11  C16 UNL     1      12.976  36.443  16.946  1.00  0.00     0.134 A 
HETATM   12  C17 UNL     1      12.048  35.491  17.308  1.00  0.00     0.041 A 
HETATM   13  N5  UNL     1      12.699  34.319  17.592  1.00  0.00    -0.287 N 
HETATM   14  N6  UNL     1      13.999  34.515  17.422  1.00  0.00    -0.020 NA
ATOM     15  H5  UNL     1      12.258  33.447  17.884  1.00  0.00     0.184 HD
BRANCH  12  16
HETATM   16  C18 UNL     1      10.569  35.593  17.408  1.00  0.00     0.064 C 
BRANCH  16  17
HETATM   17  C19 UNL     1      10.085  36.125  18.773  1.00  0.00    -0.009 C 
HETATM   18  C20 UNL     1       8.785  36.942  18.616  1.00  0.00     0.005 C 
HETATM   19  C21 UNL     1       7.540  36.111  18.904  1.00  0.00     0.000 C 
HETATM   20  C22 UNL     1       7.536  35.574  20.336  1.00  0.00     0.000 C 
HETATM   21  C23 UNL     1       8.937  35.335  20.900  1.00  0.00     0.000 C 
HETATM   22  C24 UNL     1       9.930  34.981  19.800  1.00  0.00     0.005 C 
ENDBRANCH  16  17
ENDBRANCH  12  16
ENDBRANCH   9  10
ENDBRANCH   8   9
BRANCH   1  23
HETATM   23  C1  UNL     1      17.276  37.681  12.830  1.00  0.00     0.224 C 
HETATM   24  O1  UNL     1      17.266  37.743  11.607  1.00  0.00    -0.273 OA
HETATM   25  N1  UNL     1      16.755  38.672  13.637  1.00  0.00    -0.356 N 
HETATM   26  H1  UNL     1      16.995  38.678  14.619  1.00  0.00     0.162 HD
BRANCH  25  27
HETATM   27  C2  UNL     1      16.228  39.900  13.080  1.00  0.00     0.162 C 
BRANCH  27  28
HETATM   28  C3  UNL     1      16.562  41.075  13.950  1.00  0.00    -0.025 A 
HETATM   29  C4  UNL     1      16.270  41.075  15.317  1.00  0.00     0.011 A 
HETATM   30  C5  UNL     1      16.577  42.192  16.089  1.00  0.00     0.018 A 
HETATM   31  C6  UNL     1      17.165  43.279  15.466  1.00  0.00     0.087 A 
HETATM   32  N2  UNL     1      17.457  43.320  14.148  1.00  0.00    -0.375 N 
HETATM   33  C7  UNL     1      17.152  42.220  13.424  1.00  0.00     0.096 A 
ATOM     34  H2  UNL     1      17.886  44.140  13.720  1.00  0.00     0.164 HD
ENDBRANCH  27  28
ENDBRANCH  25  27
ENDBRANCH   1  23
TORSDOF 7
ENDMDL
MODEL 2
REMARK minimizedAffinity -7.54792881
REMARK  7 active torsions:
REMARK  status: ('A' for Active; 'I' for Inactive)
REMARK       I    between atoms: C1_2  and  N1_3 
REMARK    1  A    between atoms: C1_2  and  C8_12 
REMARK    2  A    between atoms: N1_3  and  C2_4 
REMARK    3  A    between atoms: C2_4  and  C3_5 
REMARK    4  A    between atoms: C14_19  and  C15_20 
REMARK    5  A    between atoms: C15_20  and  N4_21 
REMARK    6  A    between atoms: C17_23  and  C18_24 
REMARK    7  A    between atoms: C18_24  and  C19_25 
ROOT
HETATM    1  C8  UNL     1      12.735  34.817  19.067  1.00  0.00     0.110 C 
HETATM    2  C9  UNL     1      13.459  33.987  17.990  1.00  0.00     0.287 C 
HETATM    3  N3  UNL     1      14.915  34.296  17.937  1.00  0.00     0.095 N 
HETATM    4  C10 UNL     1      15.454  34.245  19.321  1.00  0.00     0.273 C 
HETATM    5  C11 UNL     1      14.866  35.370  20.195  1.00  0.00     0.036 C 
HETATM    6  C12 UNL     1      13.658  35.991  19.468  1.00  0.00     0.004 C 
HETATM    7  C13 UNL     1      14.192  36.671  18.188  1.00  0.00     0.043 C 
HETATM    8  C14 UNL     1      15.114  35.689  17.424  1.00  0.00     0.242 C 
ENDROOT
BRANCH   8   9
HETATM    9  C15 UNL     1      14.948  35.775  15.895  1.00  0.00     0.181 C 
BRANCH   9  10
HETATM   10  N4  UNL     1      16.124  35.318  15.186  1.00  0.00    -0.283 N 
HETATM   11  C16 UNL     1      16.299  35.207  13.840  1.00  0.00     0.134 A 
HETATM   12  C17 UNL     1      17.586  34.731  13.711  1.00  0.00     0.041 A 
HETATM   13  N5  UNL     1      18.135  34.588  14.959  1.00  0.00    -0.287 N 
HETATM   14  N6  UNL     1      17.230  34.955  15.855  1.00  0.00    -0.020 NA
ATOM     15  H5  UNL     1      19.078  34.256  15.162  1.00  0.00     0.184 HD
BRANCH  12  16
HETATM   16  C18 UNL     1      18.360  34.396  12.488  1.00  0.00     0.064 C 
BRANCH  16  17
HETATM   17  C19 UNL     1      17.732  33.254  11.663  1.00  0.00    -0.009 C 
HETATM   18  C20 UNL     1      18.518  33.024  10.353  1.00  0.00     0.005 C 
HETATM   19  C21 UNL     1      19.531  31.893  10.478  1.00  0.00     0.000 C 
HETATM   20  C22 UNL     1      18.857  30.561  10.810  1.00  0.00     0.000 C 
HETATM   21  C23 UNL     1      17.568  30.717  11.617  1.00  0.00     0.000 C 
HETATM   22  C24 UNL     1      17.606  31.960  12.498  1.00  0.00     0.005 C 
ENDBRANCH  16  17
ENDBRANCH  12  16
ENDBRANCH   9  10
ENDBRANCH   8   9
BRANCH   1  23
HETATM   23  C1  UNL     1      11.348  35.256  18.612  1.00  0.00     0.224 C 
HETATM   24  O1  UNL     1      10.782  34.787  17.631  1.00  0.00    -0.273 OA
HETATM   25  N1  UNL     1      10.799  36.257  19.387  1.00  0.00    -0.356 N 
HETATM   26  H1  UNL     1      11.397  36.759  20.030  1.00  0.00     0.162 HD
BRANCH  25  27
HETATM   27  C2  UNL     1       9.538  36.877  19.038  1.00  0.00     0.162 C 
BRANCH  27  28
HETATM   28  C3  UNL     1       8.383  36.112  19.612  1.00  0.00    -0.025 A 
HETATM   29  C4  UNL     1       7.296  35.731  18.818  1.00  0.00     0.011 A 
HETATM   30  C5  UNL     1       6.233  35.038  19.390  1.00  0.00     0.018 A 
HETATM   31  C6  UNL     1       6.288  34.751  20.743  1.00  0.00     0.087 A 
HETATM   32  N2  UNL     1       7.316  35.108  21.543  1.00  0.00    -0.375 N 
HETATM   33  C7  UNL     1       8.336  35.775  20.961  1.00  0.00     0.096 A 
ATOM     34  H2  UNL     1       7.322  34.884  22.538  1.00  0.00     0.164 HD
ENDBRANCH  27  28
ENDBRANCH  25  27
ENDBRANCH   1  23
TORSDOF 7
ENDMDL
MODEL 3
REMARK minimizedAffinity -7.4355669
REMARK  7 active torsions:
REMARK  status: ('A' for Active; 'I' for Inactive)
REMARK       I    between atoms: C1_2  and  N1_3 
REMARK    1  A    between atoms: C1_2  and  C8_12 
REMARK    2  A    between atoms: N1_3  and  C2_4 
REMARK    3  A    between atoms: C2_4  and  C3_5 
REMARK    4  A    between atoms: C14_19  and  C15_20 
REMARK    5  A    between atoms: C15_20  and  N4_21 
REMARK    6  A    between atoms: C17_23  and  C18_24 
REMARK    7  A    between atoms: C18_24  and  C19_25 
ROOT
HETATM    1  C8  UNL     1      17.742  35.966  15.700  1.00  0.00     0.110 C 
HETATM    2  C9  UNL     1      17.291  37.283  16.359  1.00  0.00     0.287 C 
HETATM    3  N3  UNL     1      16.882  37.083  17.777  1.00  0.00     0.095 N 
HETATM    4  C10 UNL     1      17.941  36.298  18.463  1.00  0.00     0.273 C 
HETATM    5  C11 UNL     1      18.037  34.869  17.898  1.00  0.00     0.036 C 
HETATM    6  C12 UNL     1      17.243  34.796  16.579  1.00  0.00     0.004 C 
HETATM    7  C13 UNL     1      15.756  35.025  16.926  1.00  0.00     0.043 C 
HETATM    8  C14 UNL     1      15.618  36.279  17.825  1.00  0.00     0.242 C 
ENDROOT
BRANCH   8   9
HETATM    9  C15 UNL     1      14.376  37.126  17.491  1.00  0.00     0.181 C 
BRANCH   9  10
HETATM   10  N4  UNL     1      13.141  36.405  17.716  1.00  0.00    -0.283 N 
HETATM   11  C16 UNL     1      12.623  35.983  18.903  1.00  0.00     0.134 A 
HETATM   12  C17 UNL     1      11.446  35.362  18.547  1.00  0.00     0.041 A 
HETATM   13  N5  UNL     1      11.292  35.441  17.188  1.00  0.00    -0.287 N 
HETATM   14  N6  UNL     1      12.336  36.087  16.689  1.00  0.00    -0.020 NA
ATOM     15  H5  UNL     1      10.508  35.067  16.653  1.00  0.00     0.184 HD
BRANCH  12  16
HETATM   16  C18 UNL     1      10.430  34.688  19.398  1.00  0.00     0.064 C 
BRANCH  16  17
HETATM   17  C19 UNL     1       9.605  35.670  20.256  1.00  0.00    -0.009 C 
HETATM   18  C20 UNL     1       8.419  36.243  19.451  1.00  0.00     0.005 C 
HETATM   19  C21 UNL     1       7.123  35.487  19.713  1.00  0.00     0.000 C 
HETATM   20  C22 UNL     1       6.713  35.558  21.185  1.00  0.00     0.000 C 
HETATM   21  C23 UNL     1       7.899  35.684  22.141  1.00  0.00     0.000 C 
HETATM   22  C24 UNL     1       9.146  35.014  21.577  1.00  0.00     0.005 C 
ENDBRANCH  16  17
ENDBRANCH  12  16
ENDBRANCH   9  10
ENDBRANCH   8   9
BRANCH   1  23
HETATM   23  C1  UNL     1      17.295  35.874  14.246  1.00  0.00     0.224 C 
HETATM   24  O1  UNL     1      17.100  36.856  13.539  1.00  0.00    -0.273 OA
HETATM   25  N1  UNL     1      17.096  34.582  13.806  1.00  0.00    -0.356 N 
HETATM   26  H1  UNL     1      17.046  33.836  14.488  1.00  0.00     0.162 HD
BRANCH  25  27
HETATM   27  C2  UNL     1      16.562  34.305  12.489  1.00  0.00     0.162 C 
BRANCH  27  28
HETATM   28  C3  UNL     1      17.359  33.241  11.795  1.00  0.00    -0.025 A 
HETATM   29  C4  UNL     1      18.282  33.559  10.793  1.00  0.00     0.011 A 
HETATM   30  C5  UNL     1      18.990  32.543  10.158  1.00  0.00     0.018 A 
HETATM   31  C6  UNL     1      18.749  31.236  10.543  1.00  0.00     0.087 A 
HETATM   32  N2  UNL     1      17.862  30.888  11.501  1.00  0.00    -0.375 N 
HETATM   33  C7  UNL     1      17.193  31.895  12.104  1.00  0.00     0.096 A 
ATOM     34  H2  UNL     1      17.706  29.913  11.757  1.00  0.00     0.164 HD
ENDBRANCH  27  28
ENDBRANCH  25  27
ENDBRANCH   1  23
TORSDOF 7
ENDMDL
MODEL 4
REMARK minimizedAffinity -7.26955843
REMARK  7 active torsions:
REMARK  status: ('A' for Active; 'I' for Inactive)
REMARK       I    between atoms: C1_2  and  N1_3 
REMARK    1  A    between atoms: C1_2  and  C8_12 
REMARK    2  A    between atoms: N1_3  and  C2_4 
REMARK    3  A    between atoms: C2_4  and  C3_5 
REMARK    4  A    between atoms: C14_19  and  C15_20 
REMARK    5  A    between atoms: C15_20  and  N4_21 
REMARK    6  A    between atoms: C17_23  and  C18_24 
REMARK    7  A    between atoms: C18_24  and  C19_25 
ROOT
HETATM    1  C8  UNL     1      13.143  34.352  20.892  1.00  0.00     0.110 C 
HETATM    2  C9  UNL     1      13.942  34.119  19.595  1.00  0.00     0.287 C 
HETATM    3  N3  UNL     1      14.867  35.248  19.302  1.00  0.00     0.095 N 
HETATM    4  C10 UNL     1      15.635  35.555  20.537  1.00  0.00     0.273 C 
HETATM    5  C11 UNL     1      14.719  36.103  21.647  1.00  0.00     0.036 C 
HETATM    6  C12 UNL     1      13.250  35.850  21.256  1.00  0.00     0.004 C 
HETATM    7  C13 UNL     1      12.958  36.697  19.998  1.00  0.00     0.043 C 
HETATM    8  C14 UNL     1      14.072  36.468  18.947  1.00  0.00     0.242 C 
ENDROOT
BRANCH   8   9
HETATM    9  C15 UNL     1      13.536  36.413  17.504  1.00  0.00     0.181 C 
BRANCH   9  10
HETATM   10  N4  UNL     1      14.585  36.578  16.520  1.00  0.00    -0.283 N 
HETATM   11  C16 UNL     1      15.469  35.643  16.076  1.00  0.00     0.134 A 
HETATM   12  C17 UNL     1      16.234  36.323  15.153  1.00  0.00     0.041 A 
HETATM   13  N5  UNL     1      15.784  37.614  15.065  1.00  0.00    -0.287 N 
HETATM   14  N6  UNL     1      14.769  37.758  15.906  1.00  0.00    -0.020 NA
ATOM     15  H5  UNL     1      16.165  38.340  14.458  1.00  0.00     0.184 HD
BRANCH  12  16
HETATM   16  C18 UNL     1      17.375  35.849  14.327  1.00  0.00     0.064 C 
BRANCH  16  17
HETATM   17  C19 UNL     1      17.030  34.621  13.458  1.00  0.00    -0.009 C 
HETATM   18  C20 UNL     1      16.692  35.047  12.013  1.00  0.00     0.005 C 
HETATM   19  C21 UNL     1      17.889  34.922  11.078  1.00  0.00     0.000 C 
HETATM   20  C22 UNL     1      18.393  33.481  10.991  1.00  0.00     0.000 C 
HETATM   21  C23 UNL     1      18.150  32.674  12.267  1.00  0.00     0.000 C 
HETATM   22  C24 UNL     1      18.157  33.565  13.503  1.00  0.00     0.005 C 
ENDBRANCH  16  17
ENDBRANCH  12  16
ENDBRANCH   9  10
ENDBRANCH   8   9
BRANCH   1  23
HETATM   23  C1  UNL     1      11.708  33.849  20.776  1.00  0.00     0.224 C 
HETATM   24  O1  UNL     1      11.387  32.885  20.092  1.00  0.00    -0.273 OA
HETATM   25  N1  UNL     1      10.796  34.603  21.485  1.00  0.00    -0.356 N 
HETATM   26  H1  UNL     1      11.079  35.509  21.836  1.00  0.00     0.162 HD
BRANCH  25  27
HETATM   27  C2  UNL     1       9.374  34.344  21.402  1.00  0.00     0.162 C 
BRANCH  27  28
HETATM   28  C3  UNL     1       8.726  35.213  20.366  1.00  0.00    -0.025 A 
HETATM   29  C4  UNL     1       9.478  35.840  19.367  1.00  0.00     0.011 A 
HETATM   30  C5  UNL     1       8.844  36.654  18.433  1.00  0.00     0.018 A 
HETATM   31  C6  UNL     1       7.474  36.821  18.531  1.00  0.00     0.087 A 
HETATM   32  N2  UNL     1       6.714  36.238  19.484  1.00  0.00    -0.375 N 
HETATM   33  C7  UNL     1       7.356  35.449  20.374  1.00  0.00     0.096 A 
ATOM     34  H2  UNL     1       5.706  36.386  19.530  1.00  0.00     0.164 HD
ENDBRANCH  27  28
ENDBRANCH  25  27
ENDBRANCH   1  23
TORSDOF 7
ENDMDL
MODEL 5
REMARK minimizedAffinity -7.23483658
REMARK  7 active torsions:
REMARK  status: ('A' for Active; 'I' for Inactive)
REMARK       I    between atoms: C1_2  and  N1_3 
REMARK    1  A    between atoms: C1_2  and  C8_12 
REMARK    2  A    between atoms: N1_3  and  C2_4 
REMARK    3  A    between atoms: C2_4  and  C3_5 
REMARK    4  A    between atoms: C14_19  and  C15_20 
REMARK    5  A    between atoms: C15_20  and  N4_21 
REMARK    6  A    between atoms: C17_23  and  C18_24 
REMARK    7  A    between atoms: C18_24  and  C19_25 
ROOT
HETATM    1  C8  UNL     1      17.044  44.964   5.279  1.00  0.00     0.110 C 
HETATM    2  C9  UNL     1      16.795  45.756   6.578  1.00  0.00     0.287 C 
HETATM    3  N3  UNL     1      16.077  47.034   6.320  1.00  0.00     0.095 N 
HETATM    4  C10 UNL     1      14.903  46.745   5.456  1.00  0.00     0.273 C 
HETATM    5  C11 UNL     1      15.339  46.274   4.056  1.00  0.00     0.036 C 
HETATM    6  C12 UNL     1      16.840  45.927   4.087  1.00  0.00     0.004 C 
HETATM    7  C13 UNL     1      17.608  47.238   4.361  1.00  0.00     0.043 C 
HETATM    8  C14 UNL     1      16.974  47.970   5.569  1.00  0.00     0.242 C 
ENDROOT
BRANCH   8   9
HETATM    9  C15 UNL     1      18.019  48.636   6.485  1.00  0.00     0.181 C 
BRANCH   9  10
HETATM   10  N4  UNL     1      18.038  50.076   6.344  1.00  0.00    -0.283 N 
HETATM   11  C16 UNL     1      17.689  50.815   5.254  1.00  0.00     0.134 A 
HETATM   12  C17 UNL     1      17.890  52.116   5.658  1.00  0.00     0.041 A 
HETATM   13  N5  UNL     1      18.331  52.118   6.955  1.00  0.00    -0.287 N 
HETATM   14  N6  UNL     1      18.414  50.860   7.367  1.00  0.00    -0.020 NA
ATOM     15  H5  UNL     1      18.557  52.945   7.508  1.00  0.00     0.184 HD
BRANCH  12  16
HETATM   16  C18 UNL     1      17.695  53.387   4.911  1.00  0.00     0.064 C 
BRANCH  16  17
HETATM   17  C19 UNL     1      16.476  54.198   5.396  1.00  0.00    -0.009 C 
HETATM   18  C20 UNL     1      16.507  55.633   4.827  1.00  0.00     0.005 C 
HETATM   19  C21 UNL     1      15.652  55.778   3.575  1.00  0.00     0.000 C 
HETATM   20  C22 UNL     1      14.182  55.462   3.852  1.00  0.00     0.000 C 
HETATM   21  C23 UNL     1      13.981  54.445   4.976  1.00  0.00     0.000 C 
HETATM   22  C24 UNL     1      15.151  53.474   5.069  1.00  0.00     0.005 C 
ENDBRANCH  16  17
ENDBRANCH  12  16
ENDBRANCH   9  10
ENDBRANCH   8   9
BRANCH   1  23
HETATM   23  C1  UNL     1      18.403  44.274   5.285  1.00  0.00     0.224 C 
HETATM   24  O1  UNL     1      19.430  44.814   5.677  1.00  0.00    -0.273 OA
HETATM   25  N1  UNL     1      18.377  42.992   4.773  1.00  0.00    -0.356 N 
HETATM   26  H1  UNL     1      17.561  42.689   4.258  1.00  0.00     0.162 HD
BRANCH  25  27
HETATM   27  C2  UNL     1      19.591  42.225   4.595  1.00  0.00     0.162 C 
BRANCH  27  28
HETATM   28  C3  UNL     1      19.360  41.048   3.694  1.00  0.00    -0.025 A 
HETATM   29  C4  UNL     1      19.795  39.766   4.044  1.00  0.00     0.011 A 
HETATM   30  C5  UNL     1      19.579  38.701   3.174  1.00  0.00     0.018 A 
HETATM   31  C6  UNL     1      18.936  38.954   1.975  1.00  0.00     0.087 A 
HETATM   32  N2  UNL     1      18.507  40.178   1.598  1.00  0.00    -0.375 N 
HETATM   33  C7  UNL     1      18.726  41.192   2.464  1.00  0.00     0.096 A 
ATOM     34  H2  UNL     1      18.040  40.330   0.704  1.00  0.00     0.164 HD
ENDBRANCH  27  28
ENDBRANCH  25  27
ENDBRANCH   1  23
TORSDOF 7
ENDMDL
MODEL 6
REMARK minimizedAffinity -7.03163147
REMARK  7 active torsions:
REMARK  status: ('A' for Active; 'I' for Inactive)
REMARK       I    between atoms: C1_2  and  N1_3 
REMARK    1  A    between atoms: C1_2  and  C8_12 
REMARK    2  A    between atoms: N1_3  and  C2_4 
REMARK    3  A    between atoms: C2_4  and  C3_5 
REMARK    4  A    between atoms: C14_19  and  C15_20 
REMARK    5  A    between atoms: C15_20  and  N4_21 
REMARK    6  A    between atoms: C17_23  and  C18_24 
REMARK    7  A    between atoms: C18_24  and  C19_25 
ROOT
HETATM    1  C8  UNL     1      16.524  48.415   4.689  1.00  0.00     0.110 C 
HETATM    2  C9  UNL     1      17.073  47.470   3.602  1.00  0.00     0.287 C 
HETATM    3  N3  UNL     1      16.717  46.050   3.871  1.00  0.00     0.095 N 
HETATM    4  C10 UNL     1      15.263  45.980   4.171  1.00  0.00     0.273 C 
HETATM    5  C11 UNL     1      14.927  46.704   5.489  1.00  0.00     0.036 C 
HETATM    6  C12 UNL     1      16.136  47.559   5.915  1.00  0.00     0.004 C 
HETATM    7  C13 UNL     1      17.293  46.587   6.238  1.00  0.00     0.043 C 
HETATM    8  C14 UNL     1      17.454  45.568   5.083  1.00  0.00     0.242 C 
ENDROOT
BRANCH   8   9
HETATM    9  C15 UNL     1      18.927  45.237   4.775  1.00  0.00     0.181 C 
BRANCH   9  10
HETATM   10  N4  UNL     1      19.151  43.815   4.623  1.00  0.00    -0.283 N 
HETATM   11  C16 UNL     1      20.184  43.195   3.987  1.00  0.00     0.134 A 
HETATM   12  C17 UNL     1      19.910  41.853   4.143  1.00  0.00     0.041 A 
HETATM   13  N5  UNL     1      18.753  41.714   4.864  1.00  0.00    -0.287 N 
HETATM   14  N6  UNL     1      18.299  42.926   5.157  1.00  0.00    -0.020 NA
ATOM     15  H5  UNL     1      18.316  40.832   5.130  1.00  0.00     0.184 HD
BRANCH  12  16
HETATM   16  C18 UNL     1      20.663  40.665   3.663  1.00  0.00     0.064 C 
BRANCH  16  17
HETATM   17  C19 UNL     1      19.825  39.369   3.670  1.00  0.00    -0.009 C 
HETATM   18  C20 UNL     1      18.977  39.255   2.385  1.00  0.00     0.005 C 
HETATM   19  C21 UNL     1      19.647  38.391   1.324  1.00  0.00     0.000 C 
HETATM   20  C22 UNL     1      19.870  36.960   1.816  1.00  0.00     0.000 C 
HETATM   21  C23 UNL     1      20.074  36.862   3.328  1.00  0.00     0.000 C 
HETATM   22  C24 UNL     1      20.715  38.125   3.889  1.00  0.00     0.005 C 
ENDBRANCH  16  17
ENDBRANCH  12  16
ENDBRANCH   9  10
ENDBRANCH   8   9
BRANCH   1  23
HETATM   23  C1  UNL     1      17.500  49.541   5.010  1.00  0.00     0.224 C 
HETATM   24  O1  UNL     1      18.642  49.347   5.410  1.00  0.00    -0.273 OA
HETATM   25  N1  UNL     1      16.967  50.803   4.843  1.00  0.00    -0.356 N 
HETATM   26  H1  UNL     1      15.966  50.900   4.739  1.00  0.00     0.162 HD
BRANCH  25  27
HETATM   27  C2  UNL     1      17.709  51.991   5.208  1.00  0.00     0.162 C 
BRANCH  27  28
HETATM   28  C3  UNL     1      16.808  53.187   5.293  1.00  0.00    -0.025 A 
HETATM   29  C4  UNL     1      15.425  53.070   5.121  1.00  0.00     0.011 A 
HETATM   30  C5  UNL     1      14.622  54.205   5.188  1.00  0.00     0.018 A 
HETATM   31  C6  UNL     1      15.231  55.426   5.421  1.00  0.00     0.087 A 
HETATM   32  N2  UNL     1      16.562  55.581   5.586  1.00  0.00    -0.375 N 
HETATM   33  C7  UNL     1      17.317  54.461   5.521  1.00  0.00     0.096 A 
ATOM     34  H2  UNL     1      16.978  56.497   5.752  1.00  0.00     0.164 HD
ENDBRANCH  27  28
ENDBRANCH  25  27
ENDBRANCH   1  23
TORSDOF 7
ENDMDL
MODEL 7
REMARK minimizedAffinity -6.96349096
REMARK  7 active torsions:
REMARK  status: ('A' for Active; 'I' for Inactive)
REMARK       I    between atoms: C1_2  and  N1_3 
REMARK    1  A    between atoms: C1_2  and  C8_12 
REMARK    2  A    between atoms: N1_3  and  C2_4 
REMARK    3  A    between atoms: C2_4  and  C3_5 
REMARK    4  A    between atoms: C14_19  and  C15_20 
REMARK    5  A    between atoms: C15_20  and  N4_21 
REMARK    6  A    between atoms: C17_23  and  C18_24 
REMARK    7  A    between atoms: C18_24  and  C19_25 
ROOT
HETATM    1  C8  UNL     1       8.741  31.847  -5.306  1.00  0.00     0.110 C 
HETATM    2  C9  UNL     1       7.228  31.961  -5.575  1.00  0.00     0.287 C 
HETATM    3  N3  UNL     1       6.916  33.060  -6.530  1.00  0.00     0.095 N 
HETATM    4  C10 UNL     1       7.816  32.928  -7.706  1.00  0.00     0.273 C 
HETATM    5  C11 UNL     1       9.286  33.176  -7.320  1.00  0.00     0.036 C 
HETATM    6  C12 UNL     1       9.412  33.154  -5.784  1.00  0.00     0.004 C 
HETATM    7  C13 UNL     1       8.613  34.359  -5.241  1.00  0.00     0.043 C 
HETATM    8  C14 UNL     1       7.205  34.382  -5.886  1.00  0.00     0.242 C 
ENDROOT
BRANCH   8   9
HETATM    9  C15 UNL     1       6.099  34.802  -4.899  1.00  0.00     0.181 C 
BRANCH   9  10
HETATM   10  N4  UNL     1       5.969  36.240  -4.796  1.00  0.00    -0.283 N 
HETATM   11  C16 UNL     1       6.566  37.191  -5.568  1.00  0.00     0.134 A 
HETATM   12  C17 UNL     1       6.101  38.378  -5.047  1.00  0.00     0.041 A 
HETATM   13  N5  UNL     1       5.247  38.108  -4.010  1.00  0.00    -0.287 N 
HETATM   14  N6  UNL     1       5.171  36.792  -3.869  1.00  0.00    -0.020 NA
ATOM     15  H5  UNL     1       4.755  38.800  -3.445  1.00  0.00     0.184 HD
BRANCH  12  16
HETATM   16  C18 UNL     1       6.396  39.777  -5.454  1.00  0.00     0.064 C 
BRANCH  16  17
HETATM   17  C19 UNL     1       7.174  40.572  -4.385  1.00  0.00    -0.009 C 
HETATM   18  C20 UNL     1       8.616  40.863  -4.855  1.00  0.00     0.005 C 
HETATM   19  C21 UNL     1       8.755  42.250  -5.470  1.00  0.00     0.000 C 
HETATM   20  C22 UNL     1       8.403  43.352  -4.470  1.00  0.00     0.000 C 
HETATM   21  C23 UNL     1       7.369  42.920  -3.430  1.00  0.00     0.000 C 
HETATM   22  C24 UNL     1       6.424  41.862  -3.985  1.00  0.00     0.005 C 
ENDBRANCH  16  17
ENDBRANCH  12  16
ENDBRANCH   9  10
ENDBRANCH   8   9
BRANCH   1  23
HETATM   23  C1  UNL     1       9.036  31.502  -3.851  1.00  0.00     0.224 C 
HETATM   24  O1  UNL     1       9.820  32.136  -3.155  1.00  0.00    -0.273 OA
HETATM   25  N1  UNL     1       8.364  30.386  -3.397  1.00  0.00    -0.356 N 
HETATM   26  H1  UNL     1       7.919  29.777  -4.070  1.00  0.00     0.162 HD
BRANCH  25  27
HETATM   27  C2  UNL     1       8.605  29.843  -2.077  1.00  0.00     0.162 C 
BRANCH  27  28
HETATM   28  C3  UNL     1       9.610  28.730  -2.125  1.00  0.00    -0.025 A 
HETATM   29  C4  UNL     1       9.817  27.987  -3.291  1.00  0.00     0.011 A 
HETATM   30  C5  UNL     1      10.745  26.949  -3.293  1.00  0.00     0.018 A 
HETATM   31  C6  UNL     1      11.435  26.684  -2.124  1.00  0.00     0.087 A 
HETATM   32  N2  UNL     1      11.259  27.375  -0.976  1.00  0.00    -0.375 N 
HETATM   33  C7  UNL     1      10.355  28.379  -1.005  1.00  0.00     0.096 A 
ATOM     34  H2  UNL     1      11.781  27.149  -0.130  1.00  0.00     0.164 HD
ENDBRANCH  27  28
ENDBRANCH  25  27
ENDBRANCH   1  23
TORSDOF 7
ENDMDL
MODEL 8
REMARK minimizedAffinity -6.94202185
REMARK  7 active torsions:
REMARK  status: ('A' for Active; 'I' for Inactive)
REMARK       I    between atoms: C1_2  and  N1_3 
REMARK    1  A    between atoms: C1_2  and  C8_12 
REMARK    2  A    between atoms: N1_3  and  C2_4 
REMARK    3  A    between atoms: C2_4  and  C3_5 
REMARK    4  A    between atoms: C14_19  and  C15_20 
REMARK    5  A    between atoms: C15_20  and  N4_21 
REMARK    6  A    between atoms: C17_23  and  C18_24 
REMARK    7  A    between atoms: C18_24  and  C19_25 
ROOT
HETATM    1  C8  UNL     1      14.037  58.549   2.262  1.00  0.00     0.110 C 
HETATM    2  C9  UNL     1      15.295  58.000   1.562  1.00  0.00     0.287 C 
HETATM    3  N3  UNL     1      15.264  58.244   0.093  1.00  0.00     0.095 N 
HETATM    4  C10 UNL     1      14.915  59.670  -0.137  1.00  0.00     0.273 C 
HETATM    5  C11 UNL     1      13.478  59.979   0.323  1.00  0.00     0.036 C 
HETATM    6  C12 UNL     1      12.963  58.808   1.181  1.00  0.00     0.004 C 
HETATM    7  C13 UNL     1      12.866  57.572   0.260  1.00  0.00     0.043 C 
HETATM    8  C14 UNL     1      14.188  57.408  -0.531  1.00  0.00     0.242 C 
ENDROOT
BRANCH   8   9
HETATM    9  C15 UNL     1      14.614  55.937  -0.692  1.00  0.00     0.181 C 
BRANCH   9  10
HETATM   10  N4  UNL     1      13.629  55.153  -1.408  1.00  0.00    -0.283 N 
HETATM   11  C16 UNL     1      13.701  53.840  -1.760  1.00  0.00     0.134 A 
HETATM   12  C17 UNL     1      12.510  53.607  -2.413  1.00  0.00     0.041 A 
HETATM   13  N5  UNL     1      11.772  54.761  -2.421  1.00  0.00    -0.287 N 
HETATM   14  N6  UNL     1      12.468  55.702  -1.797  1.00  0.00    -0.020 NA
ATOM     15  H5  UNL     1      10.847  54.876  -2.834  1.00  0.00     0.184 HD
BRANCH  12  16
HETATM   16  C18 UNL     1      11.996  52.362  -3.041  1.00  0.00     0.064 C 
BRANCH  16  17
HETATM   17  C19 UNL     1      11.908  51.175  -2.060  1.00  0.00    -0.009 C 
HETATM   18  C20 UNL     1      10.690  50.282  -2.383  1.00  0.00     0.005 C 
HETATM   19  C21 UNL     1      11.065  49.080  -3.240  1.00  0.00     0.000 C 
HETATM   20  C22 UNL     1      12.080  48.178  -2.538  1.00  0.00     0.000 C 
HETATM   21  C23 UNL     1      13.002  48.931  -1.579  1.00  0.00     0.000 C 
HETATM   22  C24 UNL     1      13.226  50.369  -2.031  1.00  0.00     0.005 C 
ENDBRANCH  16  17
ENDBRANCH  12  16
ENDBRANCH   9  10
ENDBRANCH   8   9
BRANCH   1  23
HETATM   23  C1  UNL     1      13.567  57.634   3.387  1.00  0.00     0.224 C 
HETATM   24  O1  UNL     1      12.953  58.035   4.368  1.00  0.00    -0.273 OA
HETATM   25  N1  UNL     1      13.928  56.313   3.217  1.00  0.00    -0.356 N 
HETATM   26  H1  UNL     1      14.623  56.083   2.518  1.00  0.00     0.162 HD
BRANCH  25  27
HETATM   27  C2  UNL     1      13.667  55.320   4.237  1.00  0.00     0.162 C 
BRANCH  27  28
HETATM   28  C3  UNL     1      14.915  54.564   4.588  1.00  0.00    -0.025 A 
HETATM   29  C4  UNL     1      16.183  55.084   4.312  1.00  0.00     0.011 A 
HETATM   30  C5  UNL     1      17.318  54.345   4.634  1.00  0.00     0.018 A 
HETATM   31  C6  UNL     1      17.147  53.103   5.220  1.00  0.00     0.087 A 
HETATM   32  N2  UNL     1      15.940  52.564   5.497  1.00  0.00    -0.375 N 
HETATM   33  C7  UNL     1      14.856  53.305   5.177  1.00  0.00     0.096 A 
ATOM     34  H2  UNL     1      15.850  51.643   5.925  1.00  0.00     0.164 HD
ENDBRANCH  27  28
ENDBRANCH  25  27
ENDBRANCH   1  23
TORSDOF 7
ENDMDL
MODEL 9
REMARK minimizedAffinity -6.94120932
REMARK  7 active torsions:
REMARK  status: ('A' for Active; 'I' for Inactive)
REMARK       I    between atoms: C1_2  and  N1_3 
REMARK    1  A    between atoms: C1_2  and  C8_12 
REMARK    2  A    between atoms: N1_3  and  C2_4 
REMARK    3  A    between atoms: C2_4  and  C3_5 
REMARK    4  A    between atoms: C14_19  and  C15_20 
REMARK    5  A    between atoms: C15_20  and  N4_21 
REMARK    6  A    between atoms: C17_23  and  C18_24 
REMARK    7  A    between atoms: C18_24  and  C19_25 
ROOT
HETATM    1  C8  UNL     1      14.036  36.822  18.534  1.00  0.00     0.110 C 
HETATM    2  C9  UNL     1      15.370  36.230  19.030  1.00  0.00     0.287 C 
HETATM    3  N3  UNL     1      16.539  36.833  18.330  1.00  0.00     0.095 N 
HETATM    4  C10 UNL     1      16.390  38.311  18.360  1.00  0.00     0.273 C 
HETATM    5  C11 UNL     1      15.179  38.771  17.527  1.00  0.00     0.036 C 
HETATM    6  C12 UNL     1      14.303  37.547  17.196  1.00  0.00     0.004 C 
HETATM    7  C13 UNL     1      15.134  36.623  16.279  1.00  0.00     0.043 C 
HETATM    8  C14 UNL     1      16.538  36.406  16.894  1.00  0.00     0.242 C 
ENDROOT
BRANCH   8   9
HETATM    9  C15 UNL     1      17.058  34.967  16.715  1.00  0.00     0.181 C 
BRANCH   9  10
HETATM   10  N4  UNL     1      17.689  34.765  15.428  1.00  0.00    -0.283 N 
HETATM   11  C16 UNL     1      17.127  34.884  14.193  1.00  0.00     0.134 A 
HETATM   12  C17 UNL     1      18.160  34.589  13.330  1.00  0.00     0.041 A 
HETATM   13  N5  UNL     1      19.289  34.321  14.059  1.00  0.00    -0.287 N 
HETATM   14  N6  UNL     1      18.988  34.436  15.346  1.00  0.00    -0.020 NA
ATOM     15  H5  UNL     1      20.202  34.075  13.678  1.00  0.00     0.184 HD
BRANCH  12  16
HETATM   16  C18 UNL     1      18.175  34.539  11.844  1.00  0.00     0.064 C 
BRANCH  16  17
HETATM   17  C19 UNL     1      17.718  33.180  11.275  1.00  0.00    -0.009 C 
HETATM   18  C20 UNL     1      18.770  32.609  10.299  1.00  0.00     0.005 C 
HETATM   19  C21 UNL     1      19.701  31.608  10.972  1.00  0.00     0.000 C 
HETATM   20  C22 UNL     1      18.935  30.405  11.524  1.00  0.00     0.000 C 
HETATM   21  C23 UNL     1      17.502  30.737  11.944  1.00  0.00     0.000 C 
HETATM   22  C24 UNL     1      17.374  32.183  12.405  1.00  0.00     0.005 C 
ENDBRANCH  16  17
ENDBRANCH  12  16
ENDBRANCH   9  10
ENDBRANCH   8   9
BRANCH   1  23
HETATM   23  C1  UNL     1      12.940  35.767  18.453  1.00  0.00     0.224 C 
HETATM   24  O1  UNL     1      13.112  34.593  18.761  1.00  0.00    -0.273 OA
HETATM   25  N1  UNL     1      11.741  36.247  17.966  1.00  0.00    -0.356 N 
HETATM   26  H1  UNL     1      11.725  37.153  17.516  1.00  0.00     0.162 HD
BRANCH  25  27
HETATM   27  C2  UNL     1      10.621  35.366  17.713  1.00  0.00     0.162 C 
BRANCH  27  28
HETATM   28  C3  UNL     1       9.498  35.629  18.672  1.00  0.00    -0.025 A 
HETATM   29  C4  UNL     1       9.560  35.198  20.001  1.00  0.00     0.011 A 
HETATM   30  C5  UNL     1       8.490  35.444  20.856  1.00  0.00     0.018 A 
HETATM   31  C6  UNL     1       7.387  36.112  20.353  1.00  0.00     0.087 A 
HETATM   32  N2  UNL     1       7.288  36.539  19.075  1.00  0.00    -0.375 N 
HETATM   33  C7  UNL     1       8.343  36.290  18.268  1.00  0.00     0.096 A 
ATOM     34  H2  UNL     1       6.458  37.024  18.736  1.00  0.00     0.164 HD
ENDBRANCH  27  28
ENDBRANCH  25  27
ENDBRANCH   1  23
TORSDOF 7
ENDMDL
