MODEL 1
REMARK minimizedAffinity -7.18560028
REMARK CNNscore 0.550185919
REMARK CNNaffinity 5.8894062
REMARK  4 active torsions:
REMARK  status: ('A' for Active; 'I' for Inactive)
REMARK    1  A    between atoms: C4_4  and  C5_5 
REMARK    2  A    between atoms: C5_5  and  C6_7 
REMARK    3  A    between atoms: C6_7  and  C7_8 
REMARK    4  A    between atoms: C7_8  and  C9_10 
ROOT
HETATM    1  C9  UNL     1     -11.078  46.245 -27.936  1.00  0.00    -0.001 C 
HETATM    2  C10 UNL     1     -11.007  44.834 -28.594  1.00  0.00     0.007 C 
HETATM    3  C11 UNL     1     -12.305  44.084 -28.223  1.00  0.00     0.015 C 
HETATM    4  C12 UNL     1     -13.223  45.169 -27.634  1.00  0.00    -0.013 C 
HETATM    5  C13 UNL     1     -13.880  45.892 -28.867  1.00  0.00     0.021 C 
HETATM    6  C14 UNL     1     -14.397  44.741 -26.751  1.00  0.00    -0.070 C 
HETATM    7  C15 UNL     1     -15.172  43.696 -27.097  1.00  0.00    -0.022 C 
HETATM    8  C16 UNL     1     -16.531  43.447 -26.522  1.00  0.00     0.034 C 
HETATM    9  C17 UNL     1     -17.147  44.760 -25.989  1.00  0.00     0.013 C 
HETATM   10  C18 UNL     1     -18.670  44.635 -25.622  1.00  0.00     0.018 C 
HETATM   11  C19 UNL     1     -19.487  44.442 -26.928  1.00  0.00     0.023 C 
HETATM   12  C20 UNL     1     -19.037  43.469 -24.690  1.00  0.00     0.023 C 
HETATM   13  C21 UNL     1     -19.141  45.937 -24.957  1.00  0.00     0.135 C 
HETATM   14  O2  UNL     1     -20.234  46.451 -25.208  1.00  0.00    -0.297 OA
HETATM   15  C22 UNL     1     -18.258  46.536 -23.889  1.00  0.00     0.080 C 
HETATM   16  C23 UNL     1     -16.845  46.721 -24.418  1.00  0.00     0.017 C 
HETATM   17  C24 UNL     1     -16.193  45.412 -24.925  1.00  0.00    -0.031 C 
HETATM   18  C25 UNL     1     -15.946  44.485 -23.700  1.00  0.00     0.016 C 
HETATM   19  C26 UNL     1     -14.750  45.666 -25.574  1.00  0.00     0.024 C 
HETATM   20  C27 UNL     1     -14.370  47.130 -25.898  1.00  0.00     0.010 C 
HETATM   21  C28 UNL     1     -12.901  47.334 -26.367  1.00  0.00     0.011 C 
HETATM   22  C29 UNL     1     -12.186  46.049 -26.848  1.00  0.00    -0.029 C 
HETATM   23  C30 UNL     1     -11.527  45.323 -25.633  1.00  0.00     0.016 C 
ENDROOT
BRANCH   1  24
HETATM   24  C7  UNL     1      -9.674  46.781 -27.532  1.00  0.00    -0.007 C 
HETATM   25  C8  UNL     1      -9.743  48.106 -26.768  1.00  0.00     0.011 C 
BRANCH  24  26
HETATM   26  C6  UNL     1      -8.711  46.921 -28.735  1.00  0.00     0.087 C 
BRANCH  26  27
HETATM   27  C5  UNL     1      -7.329  46.329 -28.505  1.00  0.00     0.149 C 
HETATM   28  O1  UNL     1      -7.072  45.156 -28.769  1.00  0.00    -0.293 OA
BRANCH  27  29
HETATM   29  C4  UNL     1      -6.294  47.236 -27.922  1.00  0.00     0.052 C 
HETATM   30  C2  UNL     1      -5.331  47.860 -28.623  1.00  0.00    -0.084 C 
HETATM   31  C1  UNL     1      -5.173  47.796 -30.117  1.00  0.00     0.043 C 
HETATM   32  C3  UNL     1      -4.300  48.703 -27.919  1.00  0.00     0.043 C 
ENDBRANCH  27  29
ENDBRANCH  26  27
ENDBRANCH  24  26
ENDBRANCH   1  24
TORSDOF 4
ENDMDL
MODEL 2
REMARK minimizedAffinity -7.59808016
REMARK CNNscore 0.469356328
REMARK CNNaffinity 6.03586912
REMARK  4 active torsions:
REMARK  status: ('A' for Active; 'I' for Inactive)
REMARK    1  A    between atoms: C4_4  and  C5_5 
REMARK    2  A    between atoms: C5_5  and  C6_7 
REMARK    3  A    between atoms: C6_7  and  C7_8 
REMARK    4  A    between atoms: C7_8  and  C9_10 
ROOT
HETATM    1  C9  UNL     1     -13.220  45.748 -26.748  1.00  0.00    -0.001 C 
HETATM    2  C10 UNL     1     -14.296  45.987 -27.850  1.00  0.00     0.007 C 
HETATM    3  C11 UNL     1     -13.551  46.333 -29.158  1.00  0.00     0.015 C 
HETATM    4  C12 UNL     1     -12.081  45.983 -28.869  1.00  0.00    -0.013 C 
HETATM    5  C13 UNL     1     -11.955  44.433 -29.095  1.00  0.00     0.021 C 
HETATM    6  C14 UNL     1     -10.990  46.604 -29.744  1.00  0.00    -0.070 C 
HETATM    7  C15 UNL     1     -11.137  46.671 -31.081  1.00  0.00    -0.022 C 
HETATM    8  C16 UNL     1     -10.002  46.899 -32.029  1.00  0.00     0.034 C 
HETATM    9  C17 UNL     1      -8.663  46.465 -31.390  1.00  0.00     0.013 C 
HETATM   10  C18 UNL     1      -7.468  46.416 -32.410  1.00  0.00     0.018 C 
HETATM   11  C19 UNL     1      -7.705  45.248 -33.405  1.00  0.00     0.023 C 
HETATM   12  C20 UNL     1      -7.259  47.684 -33.253  1.00  0.00     0.023 C 
HETATM   13  C21 UNL     1      -6.163  46.133 -31.651  1.00  0.00     0.135 C 
HETATM   14  O2  UNL     1      -5.300  45.364 -32.081  1.00  0.00    -0.297 OA
HETATM   15  C22 UNL     1      -5.909  46.911 -30.383  1.00  0.00     0.080 C 
HETATM   16  C23 UNL     1      -7.087  46.769 -29.433  1.00  0.00     0.017 C 
HETATM   17  C24 UNL     1      -8.435  47.231 -30.039  1.00  0.00    -0.031 C 
HETATM   18  C25 UNL     1      -8.378  48.775 -30.231  1.00  0.00     0.016 C 
HETATM   19  C26 UNL     1      -9.666  46.965 -29.048  1.00  0.00     0.024 C 
HETATM   20  C27 UNL     1      -9.412  46.030 -27.843  1.00  0.00     0.010 C 
HETATM   21  C28 UNL     1     -10.588  45.941 -26.828  1.00  0.00     0.011 C 
HETATM   22  C29 UNL     1     -11.953  46.428 -27.368  1.00  0.00    -0.029 C 
HETATM   23  C30 UNL     1     -12.091  47.968 -27.146  1.00  0.00     0.016 C 
ENDROOT
BRANCH   1  24
HETATM   24  C7  UNL     1     -13.718  46.168 -25.335  1.00  0.00    -0.007 C 
HETATM   25  C8  UNL     1     -13.021  45.398 -24.208  1.00  0.00     0.011 C 
BRANCH  24  26
HETATM   26  C6  UNL     1     -15.253  46.052 -25.175  1.00  0.00     0.087 C 
BRANCH  26  27
HETATM   27  C5  UNL     1     -15.848  46.987 -24.135  1.00  0.00     0.149 C 
HETATM   28  O1  UNL     1     -15.551  48.179 -24.086  1.00  0.00    -0.293 OA
BRANCH  27  29
HETATM   29  C4  UNL     1     -16.804  46.387 -23.155  1.00  0.00     0.052 C 
HETATM   30  C2  UNL     1     -18.141  46.348 -23.304  1.00  0.00    -0.084 C 
HETATM   31  C1  UNL     1     -18.889  46.848 -24.509  1.00  0.00     0.043 C 
HETATM   32  C3  UNL     1     -19.012  45.773 -22.219  1.00  0.00     0.043 C 
ENDBRANCH  27  29
ENDBRANCH  26  27
ENDBRANCH  24  26
ENDBRANCH   1  24
TORSDOF 4
ENDMDL
MODEL 3
REMARK minimizedAffinity -7.20198345
REMARK CNNscore 0.466931939
REMARK CNNaffinity 6.79678345
REMARK  4 active torsions:
REMARK  status: ('A' for Active; 'I' for Inactive)
REMARK    1  A    between atoms: C4_4  and  C5_5 
REMARK    2  A    between atoms: C5_5  and  C6_7 
REMARK    3  A    between atoms: C6_7  and  C7_8 
REMARK    4  A    between atoms: C7_8  and  C9_10 
ROOT
HETATM    1  C9  UNL     1      -0.991  51.214 -11.621  1.00  0.00    -0.001 C 
HETATM    2  C10 UNL     1      -0.053  50.018 -11.966  1.00  0.00     0.007 C 
HETATM    3  C11 UNL     1       1.383  50.425 -11.567  1.00  0.00     0.015 C 
HETATM    4  C12 UNL     1       1.203  51.699 -10.723  1.00  0.00    -0.013 C 
HETATM    5  C13 UNL     1       0.837  51.208  -9.275  1.00  0.00     0.021 C 
HETATM    6  C14 UNL     1       2.399  52.634 -10.536  1.00  0.00    -0.070 C 
HETATM    7  C15 UNL     1       3.623  52.140 -10.270  1.00  0.00    -0.022 C 
HETATM    8  C16 UNL     1       4.742  52.958  -9.707  1.00  0.00     0.034 C 
HETATM    9  C17 UNL     1       4.191  54.187  -8.949  1.00  0.00     0.013 C 
HETATM   10  C18 UNL     1       5.280  54.941  -8.102  1.00  0.00     0.018 C 
HETATM   11  C19 UNL     1       5.707  54.037  -6.915  1.00  0.00     0.023 C 
HETATM   12  C20 UNL     1       6.564  55.324  -8.856  1.00  0.00     0.023 C 
HETATM   13  C21 UNL     1       4.672  56.227  -7.522  1.00  0.00     0.135 C 
HETATM   14  O2  UNL     1       4.899  56.605  -6.370  1.00  0.00    -0.297 OA
HETATM   15  C22 UNL     1       3.848  57.090  -8.447  1.00  0.00     0.080 C 
HETATM   16  C23 UNL     1       2.754  56.264  -9.102  1.00  0.00     0.017 C 
HETATM   17  C24 UNL     1       3.284  55.047  -9.899  1.00  0.00    -0.031 C 
HETATM   18  C25 UNL     1       4.057  55.577 -11.141  1.00  0.00     0.016 C 
HETATM   19  C26 UNL     1       2.097  54.142 -10.482  1.00  0.00     0.024 C 
HETATM   20  C27 UNL     1       0.677  54.392  -9.920  1.00  0.00     0.010 C 
HETATM   21  C28 UNL     1      -0.456  53.606 -10.639  1.00  0.00     0.011 C 
HETATM   22  C29 UNL     1       0.021  52.401 -11.483  1.00  0.00    -0.029 C 
HETATM   23  C30 UNL     1       0.385  52.876 -12.926  1.00  0.00     0.016 C 
ENDROOT
BRANCH   1  24
HETATM   24  C7  UNL     1      -2.194  51.323 -12.601  1.00  0.00    -0.007 C 
HETATM   25  C8  UNL     1      -1.770  51.246 -14.071  1.00  0.00     0.011 C 
BRANCH  24  26
HETATM   26  C6  UNL     1      -3.048  52.593 -12.370  1.00  0.00     0.087 C 
BRANCH  26  27
HETATM   27  C5  UNL     1      -3.890  52.561 -11.104  1.00  0.00     0.149 C 
HETATM   28  O1  UNL     1      -4.033  53.553 -10.392  1.00  0.00    -0.293 OA
BRANCH  27  29
HETATM   29  C4  UNL     1      -4.527  51.256 -10.748  1.00  0.00     0.052 C 
HETATM   30  C2  UNL     1      -4.093  50.422  -9.786  1.00  0.00    -0.084 C 
HETATM   31  C1  UNL     1      -2.932  50.693  -8.869  1.00  0.00     0.043 C 
HETATM   32  C3  UNL     1      -4.778  49.100  -9.557  1.00  0.00     0.043 C 
ENDBRANCH  27  29
ENDBRANCH  26  27
ENDBRANCH  24  26
ENDBRANCH   1  24
TORSDOF 4
ENDMDL
MODEL 4
REMARK minimizedAffinity -7.26335192
REMARK CNNscore 0.447290242
REMARK CNNaffinity 6.17834282
REMARK  4 active torsions:
REMARK  status: ('A' for Active; 'I' for Inactive)
REMARK    1  A    between atoms: C4_4  and  C5_5 
REMARK    2  A    between atoms: C5_5  and  C6_7 
REMARK    3  A    between atoms: C6_7  and  C7_8 
REMARK    4  A    between atoms: C7_8  and  C9_10 
ROOT
HETATM    1  C9  UNL     1       2.682  55.297  -9.313  1.00  0.00    -0.001 C 
HETATM    2  C10 UNL     1       1.567  55.987  -8.469  1.00  0.00     0.007 C 
HETATM    3  C11 UNL     1       2.247  56.628  -7.239  1.00  0.00     0.015 C 
HETATM    4  C12 UNL     1       3.752  56.570  -7.556  1.00  0.00    -0.013 C 
HETATM    5  C13 UNL     1       4.045  57.806  -8.482  1.00  0.00     0.021 C 
HETATM    6  C14 UNL     1       4.752  56.689  -6.403  1.00  0.00    -0.070 C 
HETATM    7  C15 UNL     1       4.575  57.604  -5.432  1.00  0.00    -0.022 C 
HETATM    8  C16 UNL     1       5.661  58.047  -4.503  1.00  0.00     0.034 C 
HETATM    9  C17 UNL     1       7.050  57.807  -5.135  1.00  0.00     0.013 C 
HETATM   10  C18 UNL     1       8.226  58.490  -4.346  1.00  0.00     0.018 C 
HETATM   11  C19 UNL     1       8.102  60.030  -4.496  1.00  0.00     0.023 C 
HETATM   12  C20 UNL     1       8.278  58.191  -2.839  1.00  0.00     0.023 C 
HETATM   13  C21 UNL     1       9.567  58.061  -4.959  1.00  0.00     0.135 C 
HETATM   14  O2  UNL     1      10.502  58.848  -5.122  1.00  0.00    -0.297 OA
HETATM   15  C22 UNL     1       9.755  56.597  -5.275  1.00  0.00     0.080 C 
HETATM   16  C23 UNL     1       8.617  56.097  -6.149  1.00  0.00     0.017 C 
HETATM   17  C24 UNL     1       7.216  56.294  -5.520  1.00  0.00    -0.031 C 
HETATM   18  C25 UNL     1       7.098  55.349  -4.289  1.00  0.00     0.016 C 
HETATM   19  C26 UNL     1       6.039  55.855  -6.516  1.00  0.00     0.024 C 
HETATM   20  C27 UNL     1       6.416  55.632  -7.999  1.00  0.00     0.010 C 
HETATM   21  C28 UNL     1       5.276  55.047  -8.881  1.00  0.00     0.011 C 
HETATM   22  C29 UNL     1       3.855  55.181  -8.282  1.00  0.00    -0.029 C 
HETATM   23  C30 UNL     1       3.551  53.957  -7.362  1.00  0.00     0.016 C 
ENDROOT
BRANCH   1  24
HETATM   24  C7  UNL     1       2.166  54.030 -10.053  1.00  0.00    -0.007 C 
HETATM   25  C8  UNL     1       3.183  53.472 -11.053  1.00  0.00     0.011 C 
BRANCH  24  26
HETATM   26  C6  UNL     1       0.807  54.254 -10.759  1.00  0.00     0.087 C 
BRANCH  26  27
HETATM   27  C5  UNL     1      -0.071  53.015 -10.836  1.00  0.00     0.149 C 
HETATM   28  O1  UNL     1       0.385  51.883 -10.689  1.00  0.00    -0.293 OA
BRANCH  27  29
HETATM   29  C4  UNL     1      -1.522  53.232 -11.122  1.00  0.00     0.052 C 
HETATM   30  C2  UNL     1      -2.505  53.190 -10.203  1.00  0.00    -0.084 C 
HETATM   31  C1  UNL     1      -2.298  52.978  -8.729  1.00  0.00     0.043 C 
HETATM   32  C3  UNL     1      -3.943  53.363 -10.617  1.00  0.00     0.043 C 
ENDBRANCH  27  29
ENDBRANCH  26  27
ENDBRANCH  24  26
ENDBRANCH   1  24
TORSDOF 4
ENDMDL
MODEL 5
REMARK minimizedAffinity -7.15872765
REMARK CNNscore 0.390688121
REMARK CNNaffinity 6.52381516
REMARK  4 active torsions:
REMARK  status: ('A' for Active; 'I' for Inactive)
REMARK    1  A    between atoms: C4_4  and  C5_5 
REMARK    2  A    between atoms: C5_5  and  C6_7 
REMARK    3  A    between atoms: C6_7  and  C7_8 
REMARK    4  A    between atoms: C7_8  and  C9_10 
ROOT
HETATM    1  C9  UNL     1       4.337  54.776  -8.821  1.00  0.00    -0.001 C 
HETATM    2  C10 UNL     1       4.955  53.352  -8.962  1.00  0.00     0.007 C 
HETATM    3  C11 UNL     1       3.816  52.390  -9.365  1.00  0.00     0.015 C 
HETATM    4  C12 UNL     1       2.648  53.314  -9.751  1.00  0.00    -0.013 C 
HETATM    5  C13 UNL     1       2.925  53.760 -11.233  1.00  0.00     0.021 C 
HETATM    6  C14 UNL     1       1.229  52.742  -9.766  1.00  0.00    -0.070 C 
HETATM    7  C15 UNL     1       0.983  51.530 -10.298  1.00  0.00    -0.022 C 
HETATM    8  C16 UNL     1      -0.381  51.063 -10.696  1.00  0.00     0.034 C 
HETATM    9  C17 UNL     1      -1.310  52.266 -10.977  1.00  0.00     0.013 C 
HETATM   10  C18 UNL     1      -2.667  51.865 -11.660  1.00  0.00     0.018 C 
HETATM   11  C19 UNL     1      -2.378  51.380 -13.106  1.00  0.00     0.023 C 
HETATM   12  C20 UNL     1      -3.459  50.746 -10.964  1.00  0.00     0.023 C 
HETATM   13  C21 UNL     1      -3.576  53.101 -11.749  1.00  0.00     0.135 C 
HETATM   14  O2  UNL     1      -4.259  53.350 -12.745  1.00  0.00    -0.297 OA
HETATM   15  C22 UNL     1      -3.693  53.972 -10.522  1.00  0.00     0.080 C 
HETATM   16  C23 UNL     1      -2.314  54.392 -10.041  1.00  0.00     0.017 C 
HETATM   17  C24 UNL     1      -1.377  53.203  -9.719  1.00  0.00    -0.031 C 
HETATM   18  C25 UNL     1      -1.933  52.473  -8.462  1.00  0.00     0.016 C 
HETATM   19  C26 UNL     1       0.098  53.685  -9.321  1.00  0.00     0.024 C 
HETATM   20  C27 UNL     1       0.466  55.157  -9.626  1.00  0.00     0.010 C 
HETATM   21  C28 UNL     1       1.844  55.613  -9.069  1.00  0.00     0.011 C 
HETATM   22  C29 UNL     1       2.808  54.463  -8.692  1.00  0.00    -0.029 C 
HETATM   23  C30 UNL     1       2.545  54.013  -7.220  1.00  0.00     0.016 C 
ENDROOT
BRANCH   1  24
HETATM   24  C7  UNL     1       5.053  55.628  -7.734  1.00  0.00    -0.007 C 
HETATM   25  C8  UNL     1       4.641  57.103  -7.769  1.00  0.00     0.011 C 
BRANCH  24  26
HETATM   26  C6  UNL     1       6.595  55.514  -7.796  1.00  0.00     0.087 C 
BRANCH  26  27
HETATM   27  C5  UNL     1       7.249  55.110  -6.484  1.00  0.00     0.149 C 
HETATM   28  O1  UNL     1       6.870  54.131  -5.844  1.00  0.00    -0.293 OA
BRANCH  27  29
HETATM   29  C4  UNL     1       8.367  55.971  -5.992  1.00  0.00     0.052 C 
HETATM   30  C2  UNL     1       8.214  57.105  -5.284  1.00  0.00    -0.084 C 
HETATM   31  C1  UNL     1       6.895  57.661  -4.820  1.00  0.00     0.043 C 
HETATM   32  C3  UNL     1       9.413  57.928  -4.895  1.00  0.00     0.043 C 
ENDBRANCH  27  29
ENDBRANCH  26  27
ENDBRANCH  24  26
ENDBRANCH   1  24
TORSDOF 4
ENDMDL
MODEL 6
REMARK minimizedAffinity -7.86363029
REMARK CNNscore 0.36500755
REMARK CNNaffinity 6.69377661
REMARK  4 active torsions:
REMARK  status: ('A' for Active; 'I' for Inactive)
REMARK    1  A    between atoms: C4_4  and  C5_5 
REMARK    2  A    between atoms: C5_5  and  C6_7 
REMARK    3  A    between atoms: C6_7  and  C7_8 
REMARK    4  A    between atoms: C7_8  and  C9_10 
ROOT
HETATM    1  C9  UNL     1      -2.267  49.933 -23.332  1.00  0.00    -0.001 C 
HETATM    2  C10 UNL     1      -2.011  51.379 -22.809  1.00  0.00     0.007 C 
HETATM    3  C11 UNL     1      -2.091  51.335 -21.266  1.00  0.00     0.015 C 
HETATM    4  C12 UNL     1      -2.078  49.835 -20.922  1.00  0.00    -0.013 C 
HETATM    5  C13 UNL     1      -0.567  49.400 -20.952  1.00  0.00     0.021 C 
HETATM    6  C14 UNL     1      -2.595  49.389 -19.553  1.00  0.00    -0.070 C 
HETATM    7  C15 UNL     1      -2.260  50.065 -18.438  1.00  0.00    -0.022 C 
HETATM    8  C16 UNL     1      -2.392  49.504 -17.058  1.00  0.00     0.034 C 
HETATM    9  C17 UNL     1      -2.376  47.959 -17.093  1.00  0.00     0.013 C 
HETATM   10  C18 UNL     1      -2.235  47.300 -15.673  1.00  0.00     0.018 C 
HETATM   11  C19 UNL     1      -0.813  47.590 -15.124  1.00  0.00     0.023 C 
HETATM   12  C20 UNL     1      -3.233  47.788 -14.610  1.00  0.00     0.023 C 
HETATM   13  C21 UNL     1      -2.391  45.777 -15.802  1.00  0.00     0.135 C 
HETATM   14  O2  UNL     1      -1.681  44.984 -15.178  1.00  0.00    -0.297 OA
HETATM   15  C22 UNL     1      -3.524  45.260 -16.654  1.00  0.00     0.080 C 
HETATM   16  C23 UNL     1      -3.467  45.881 -18.040  1.00  0.00     0.017 C 
HETATM   17  C24 UNL     1      -3.517  47.428 -18.032  1.00  0.00    -0.031 C 
HETATM   18  C25 UNL     1      -4.933  47.866 -17.556  1.00  0.00     0.016 C 
HETATM   19  C26 UNL     1      -3.345  48.047 -19.500  1.00  0.00     0.024 C 
HETATM   20  C27 UNL     1      -2.839  47.096 -20.611  1.00  0.00     0.010 C 
HETATM   21  C28 UNL     1      -2.851  47.703 -22.043  1.00  0.00     0.011 C 
HETATM   22  C29 UNL     1      -2.941  49.247 -22.096  1.00  0.00    -0.029 C 
HETATM   23  C30 UNL     1      -4.437  49.692 -22.070  1.00  0.00     0.016 C 
ENDROOT
BRANCH   1  24
HETATM   24  C7  UNL     1      -2.981  49.923 -24.714  1.00  0.00    -0.007 C 
HETATM   25  C8  UNL     1      -2.694  48.652 -25.520  1.00  0.00     0.011 C 
BRANCH  24  26
HETATM   26  C6  UNL     1      -2.656  51.169 -25.572  1.00  0.00     0.087 C 
BRANCH  26  27
HETATM   27  C5  UNL     1      -1.613  50.933 -26.653  1.00  0.00     0.149 C 
HETATM   28  O1  UNL     1      -1.922  50.774 -27.832  1.00  0.00    -0.293 OA
BRANCH  27  29
HETATM   29  C4  UNL     1      -0.185  50.882 -26.215  1.00  0.00     0.052 C 
HETATM   30  C2  UNL     1       0.853  51.397 -26.900  1.00  0.00    -0.084 C 
HETATM   31  C1  UNL     1       0.739  52.160 -28.191  1.00  0.00     0.043 C 
HETATM   32  C3  UNL     1       2.260  51.231 -26.391  1.00  0.00     0.043 C 
ENDBRANCH  27  29
ENDBRANCH  26  27
ENDBRANCH  24  26
ENDBRANCH   1  24
TORSDOF 4
ENDMDL
MODEL 7
REMARK minimizedAffinity -9.75321865
REMARK CNNscore 0.285769135
REMARK CNNaffinity 6.67076302
REMARK  4 active torsions:
REMARK  status: ('A' for Active; 'I' for Inactive)
REMARK    1  A    between atoms: C4_4  and  C5_5 
REMARK    2  A    between atoms: C5_5  and  C6_7 
REMARK    3  A    between atoms: C6_7  and  C7_8 
REMARK    4  A    between atoms: C7_8  and  C9_10 
ROOT
HETATM    1  C9  UNL     1      -1.190  50.437 -22.563  1.00  0.00    -0.001 C 
HETATM    2  C10 UNL     1      -1.381  50.376 -21.017  1.00  0.00     0.007 C 
HETATM    3  C11 UNL     1      -2.733  49.679 -20.745  1.00  0.00     0.015 C 
HETATM    4  C12 UNL     1      -3.139  49.079 -22.103  1.00  0.00    -0.013 C 
HETATM    5  C13 UNL     1      -2.355  47.722 -22.225  1.00  0.00     0.021 C 
HETATM    6  C14 UNL     1      -4.606  48.715 -22.338  1.00  0.00    -0.070 C 
HETATM    7  C15 UNL     1      -5.319  48.085 -21.385  1.00  0.00    -0.022 C 
HETATM    8  C16 UNL     1      -6.603  47.364 -21.652  1.00  0.00     0.034 C 
HETATM    9  C17 UNL     1      -6.689  46.935 -23.134  1.00  0.00     0.013 C 
HETATM   10  C18 UNL     1      -7.871  45.942 -23.431  1.00  0.00     0.018 C 
HETATM   11  C19 UNL     1      -7.565  44.580 -22.753  1.00  0.00     0.023 C 
HETATM   12  C20 UNL     1      -9.256  46.386 -22.934  1.00  0.00     0.023 C 
HETATM   13  C21 UNL     1      -7.967  45.705 -24.946  1.00  0.00     0.135 C 
HETATM   14  O2  UNL     1      -8.186  44.592 -25.430  1.00  0.00    -0.297 OA
HETATM   15  C22 UNL     1      -7.883  46.912 -25.849  1.00  0.00     0.080 C 
HETATM   16  C23 UNL     1      -6.629  47.714 -25.541  1.00  0.00     0.017 C 
HETATM   17  C24 UNL     1      -6.537  48.186 -24.070  1.00  0.00    -0.031 C 
HETATM   18  C25 UNL     1      -7.650  49.248 -23.829  1.00  0.00     0.016 C 
HETATM   19  C26 UNL     1      -5.154  48.932 -23.759  1.00  0.00     0.024 C 
HETATM   20  C27 UNL     1      -4.024  48.788 -24.806  1.00  0.00     0.010 C 
HETATM   21  C28 UNL     1      -2.768  49.666 -24.535  1.00  0.00     0.011 C 
HETATM   22  C29 UNL     1      -2.646  50.199 -23.088  1.00  0.00    -0.029 C 
HETATM   23  C30 UNL     1      -3.419  51.550 -22.954  1.00  0.00     0.016 C 
ENDROOT
BRANCH   1  24
HETATM   24  C7  UNL     1      -0.396  51.697 -23.011  1.00  0.00    -0.007 C 
HETATM   25  C8  UNL     1       0.162  52.498 -21.830  1.00  0.00     0.011 C 
BRANCH  24  26
HETATM   26  C6  UNL     1      -1.213  52.631 -23.936  1.00  0.00     0.087 C 
BRANCH  26  27
HETATM   27  C5  UNL     1      -0.739  52.657 -25.380  1.00  0.00     0.149 C 
HETATM   28  O1  UNL     1      -1.495  52.936 -26.308  1.00  0.00    -0.293 OA
BRANCH  27  29
HETATM   29  C4  UNL     1       0.693  52.307 -25.627  1.00  0.00     0.052 C 
HETATM   30  C2  UNL     1       1.199  51.913 -26.810  1.00  0.00    -0.084 C 
HETATM   31  C1  UNL     1       0.419  51.819 -28.093  1.00  0.00     0.043 C 
HETATM   32  C3  UNL     1       2.649  51.524 -26.928  1.00  0.00     0.043 C 
ENDBRANCH  27  29
ENDBRANCH  26  27
ENDBRANCH  24  26
ENDBRANCH   1  24
TORSDOF 4
ENDMDL
MODEL 8
REMARK minimizedAffinity -8.65235233
REMARK CNNscore 0.260341018
REMARK CNNaffinity 6.54738379
REMARK  4 active torsions:
REMARK  status: ('A' for Active; 'I' for Inactive)
REMARK    1  A    between atoms: C4_4  and  C5_5 
REMARK    2  A    between atoms: C5_5  and  C6_7 
REMARK    3  A    between atoms: C6_7  and  C7_8 
REMARK    4  A    between atoms: C7_8  and  C9_10 
ROOT
HETATM    1  C9  UNL     1      -1.435  52.505 -24.066  1.00  0.00    -0.001 C 
HETATM    2  C10 UNL     1      -1.372  51.900 -25.501  1.00  0.00     0.007 C 
HETATM    3  C11 UNL     1      -2.363  50.716 -25.548  1.00  0.00     0.015 C 
HETATM    4  C12 UNL     1      -3.195  50.858 -24.262  1.00  0.00    -0.013 C 
HETATM    5  C13 UNL     1      -4.305  51.925 -24.582  1.00  0.00     0.021 C 
HETATM    6  C14 UNL     1      -3.955  49.637 -23.738  1.00  0.00    -0.070 C 
HETATM    7  C15 UNL     1      -4.640  48.841 -24.580  1.00  0.00    -0.022 C 
HETATM    8  C16 UNL     1      -5.696  47.879 -24.136  1.00  0.00     0.034 C 
HETATM    9  C17 UNL     1      -6.295  48.316 -22.779  1.00  0.00     0.013 C 
HETATM   10  C18 UNL     1      -7.590  47.519 -22.379  1.00  0.00     0.018 C 
HETATM   11  C19 UNL     1      -8.740  47.913 -23.344  1.00  0.00     0.023 C 
HETATM   12  C20 UNL     1      -7.471  45.987 -22.429  1.00  0.00     0.023 C 
HETATM   13  C21 UNL     1      -8.010  47.913 -20.955  1.00  0.00     0.135 C 
HETATM   14  O2  UNL     1      -9.188  48.094 -20.639  1.00  0.00    -0.297 OA
HETATM   15  C22 UNL     1      -6.931  47.981 -19.902  1.00  0.00     0.080 C 
HETATM   16  C23 UNL     1      -5.800  48.885 -20.364  1.00  0.00     0.017 C 
HETATM   17  C24 UNL     1      -5.160  48.447 -21.703  1.00  0.00    -0.031 C 
HETATM   18  C25 UNL     1      -4.406  47.106 -21.466  1.00  0.00     0.016 C 
HETATM   19  C26 UNL     1      -4.048  49.484 -22.210  1.00  0.00     0.024 C 
HETATM   20  C27 UNL     1      -4.006  50.867 -21.520  1.00  0.00     0.010 C 
HETATM   21  C28 UNL     1      -2.806  51.766 -21.933  1.00  0.00     0.011 C 
HETATM   22  C29 UNL     1      -2.102  51.350 -23.247  1.00  0.00    -0.029 C 
HETATM   23  C30 UNL     1      -0.995  50.292 -22.941  1.00  0.00     0.016 C 
ENDROOT
BRANCH   1  24
HETATM   24  C7  UNL     1      -0.068  53.095 -23.612  1.00  0.00    -0.007 C 
HETATM   25  C8  UNL     1       1.037  52.902 -24.655  1.00  0.00     0.011 C 
BRANCH  24  26
HETATM   26  C6  UNL     1       0.403  52.545 -22.244  1.00  0.00     0.087 C 
BRANCH  26  27
HETATM   27  C5  UNL     1       1.088  53.573 -21.357  1.00  0.00     0.149 C 
HETATM   28  O1  UNL     1       1.315  54.718 -21.744  1.00  0.00    -0.293 OA
BRANCH  27  29
HETATM   29  C4  UNL     1       1.494  53.123 -19.991  1.00  0.00     0.052 C 
HETATM   30  C2  UNL     1       0.643  52.787 -19.004  1.00  0.00    -0.084 C 
HETATM   31  C1  UNL     1      -0.855  52.751 -19.132  1.00  0.00     0.043 C 
HETATM   32  C3  UNL     1       1.166  52.407 -17.643  1.00  0.00     0.043 C 
ENDBRANCH  27  29
ENDBRANCH  26  27
ENDBRANCH  24  26
ENDBRANCH   1  24
TORSDOF 4
ENDMDL
MODEL 9
REMARK minimizedAffinity -7.26843691
REMARK CNNscore 0.244776964
REMARK CNNaffinity 6.11829519
REMARK  4 active torsions:
REMARK  status: ('A' for Active; 'I' for Inactive)
REMARK    1  A    between atoms: C4_4  and  C5_5 
REMARK    2  A    between atoms: C5_5  and  C6_7 
REMARK    3  A    between atoms: C6_7  and  C7_8 
REMARK    4  A    between atoms: C7_8  and  C9_10 
ROOT
HETATM    1  C9  UNL     1      -9.364  46.928 -23.520  1.00  0.00    -0.001 C 
HETATM    2  C10 UNL     1      -9.050  45.483 -23.027  1.00  0.00     0.007 C 
HETATM    3  C11 UNL     1      -7.599  45.480 -22.496  1.00  0.00     0.015 C 
HETATM    4  C12 UNL     1      -7.219  46.968 -22.402  1.00  0.00    -0.013 C 
HETATM    5  C13 UNL     1      -7.817  47.480 -21.042  1.00  0.00     0.021 C 
HETATM    6  C14 UNL     1      -5.738  47.349 -22.355  1.00  0.00    -0.070 C 
HETATM    7  C15 UNL     1      -4.875  46.660 -21.584  1.00  0.00    -0.022 C 
HETATM    8  C16 UNL     1      -3.529  47.174 -21.183  1.00  0.00     0.034 C 
HETATM    9  C17 UNL     1      -3.497  48.718 -21.238  1.00  0.00     0.013 C 
HETATM   10  C18 UNL     1      -2.217  49.344 -20.574  1.00  0.00     0.018 C 
HETATM   11  C19 UNL     1      -2.283  49.111 -19.041  1.00  0.00     0.023 C 
HETATM   12  C20 UNL     1      -0.872  48.775 -21.055  1.00  0.00     0.023 C 
HETATM   13  C21 UNL     1      -2.205  50.860 -20.823  1.00  0.00     0.135 C 
HETATM   14  O2  UNL     1      -1.873  51.670 -19.954  1.00  0.00    -0.297 OA
HETATM   15  C22 UNL     1      -2.520  51.342 -22.218  1.00  0.00     0.080 C 
HETATM   16  C23 UNL     1      -3.845  50.764 -22.687  1.00  0.00     0.017 C 
HETATM   17  C24 UNL     1      -3.889  49.217 -22.675  1.00  0.00    -0.031 C 
HETATM   18  C25 UNL     1      -2.917  48.694 -23.772  1.00  0.00     0.016 C 
HETATM   19  C26 UNL     1      -5.334  48.649 -23.071  1.00  0.00     0.024 C 
HETATM   20  C27 UNL     1      -6.510  49.654 -23.078  1.00  0.00     0.010 C 
HETATM   21  C28 UNL     1      -7.849  49.088 -23.630  1.00  0.00     0.011 C 
HETATM   22  C29 UNL     1      -7.933  47.544 -23.678  1.00  0.00    -0.029 C 
HETATM   23  C30 UNL     1      -7.344  47.023 -25.027  1.00  0.00     0.016 C 
ENDROOT
BRANCH   1  24
HETATM   24  C7  UNL     1     -10.355  46.940 -24.720  1.00  0.00    -0.007 C 
HETATM   25  C8  UNL     1     -10.541  45.556 -25.349  1.00  0.00     0.011 C 
BRANCH  24  26
HETATM   26  C6  UNL     1      -9.967  47.964 -25.814  1.00  0.00     0.087 C 
BRANCH  26  27
HETATM   27  C5  UNL     1     -11.026  48.168 -26.886  1.00  0.00     0.149 C 
HETATM   28  O1  UNL     1     -12.122  48.663 -26.632  1.00  0.00    -0.293 OA
BRANCH  27  29
HETATM   29  C4  UNL     1     -10.682  47.719 -28.269  1.00  0.00     0.052 C 
HETATM   30  C2  UNL     1     -11.515  47.063 -29.098  1.00  0.00    -0.084 C 
HETATM   31  C1  UNL     1     -12.948  46.727 -28.791  1.00  0.00     0.043 C 
HETATM   32  C3  UNL     1     -11.038  46.603 -30.451  1.00  0.00     0.043 C 
ENDBRANCH  27  29
ENDBRANCH  26  27
ENDBRANCH  24  26
ENDBRANCH   1  24
TORSDOF 4
ENDMDL
