MODEL 1
REMARK minimizedAffinity -6.31727743
REMARK CNNscore 0.383067369
REMARK CNNaffinity 5.30837774
REMARK  3 active torsions:
REMARK  status: ('A' for Active; 'I' for Inactive)
REMARK    1  A    between atoms: C2_2  and  O1_3 
REMARK    2  A    between atoms: C2_2  and  C3_4 
REMARK    3  A    between atoms: C23_31  and  O9_32 
ROOT
HETATM    1  C3  UNL     1     -17.870   4.951  13.746  1.00  0.00     0.133 C 
HETATM    2  C4  UNL     1     -18.156   3.790  12.792  1.00  0.00     0.016 C 
HETATM    3  C5  UNL     1     -18.982   2.753  13.012  1.00  0.00    -0.001 C 
HETATM    4  C6  UNL     1     -19.082   1.591  12.161  1.00  0.00     0.006 C 
HETATM    5  C7  UNL     1     -18.011   0.856  11.827  1.00  0.00     0.082 C 
HETATM    6  C8  UNL     1     -18.200  -0.461  11.200  1.00  0.00     0.283 C 
HETATM    7  O2  UNL     1     -19.016  -0.733  10.338  1.00  0.00    -0.260 OA
HETATM    8  O3  UNL     1     -17.363  -1.317  11.841  1.00  0.00    -0.312 OA
HETATM    9  C9  UNL     1     -17.635  -2.701  11.661  1.00  0.00     0.146 C 
HETATM   10  C10 UNL     1     -16.787  -3.343  10.536  1.00  0.00     0.068 C 
HETATM   11  C11 UNL     1     -16.262  -4.658  11.153  1.00  0.00     0.162 C 
HETATM   12  O4  UNL     1     -14.934  -4.504  11.699  1.00  0.00    -0.377 OA
HETATM   13  C12 UNL     1     -14.785  -3.378  12.583  1.00  0.00     0.127 C 
HETATM   14  C13 UNL     1     -13.398  -3.395  13.251  1.00  0.00     0.032 C 
HETATM   15  C14 UNL     1     -13.439  -3.589  14.771  1.00  0.00     0.003 C 
HETATM   16  C15 UNL     1     -14.435  -2.681  15.515  1.00  0.00     0.007 C 
HETATM   17  C16 UNL     1     -15.652  -2.211  14.667  1.00  0.00     0.017 C 
HETATM   18  C17 UNL     1     -15.344  -0.808  14.098  1.00  0.00     0.183 C 
HETATM   19  O5  UNL     1     -16.262   0.154  14.655  1.00  0.00    -0.319 OA
HETATM   20  C18 UNL     1     -15.736   1.112  15.462  1.00  0.00     0.291 C 
HETATM   21  O6  UNL     1     -14.568   1.202  15.806  1.00  0.00    -0.262 OA
HETATM   22  C19 UNL     1     -16.766   2.120  15.811  1.00  0.00     0.259 A 
HETATM   23  O7  UNL     1     -16.400   3.115  16.778  1.00  0.00    -0.356 OA
HETATM   24  C20 UNL     1     -16.582   3.585  15.432  1.00  0.00     0.128 A 
HETATM   25  C21 UNL     1     -15.317   4.052  14.761  1.00  0.00     0.070 C 
HETATM   26  C22 UNL     1     -15.504   5.446  14.173  1.00  0.00     0.172 C 
HETATM   27  O8  UNL     1     -16.596   5.481  13.253  1.00  0.00    -0.371 OA
HETATM   28  C23 UNL     1     -17.791   4.471  15.243  1.00  0.00     0.197 C 
HETATM   29  C24 UNL     1     -15.924  -3.325  13.625  1.00  0.00     0.034 C 
HETATM   30  C25 UNL     1     -17.334  -3.524  12.953  1.00  0.00     0.025 C 
HETATM   31  C26 UNL     1     -18.471  -3.395  13.963  1.00  0.00     0.022 C 
HETATM   32  C27 UNL     1     -17.190  -4.885  12.304  1.00  0.00     0.118 A 
HETATM   33  C28 UNL     1     -17.454  -6.229  12.934  1.00  0.00     0.210 A 
HETATM   34  O10 UNL     1     -18.387  -5.614  12.022  1.00  0.00    -0.371 OA
ENDROOT
BRANCH   1  35
HETATM   35  C2  UNL     1     -18.873   6.135  13.564  1.00  0.00     0.155 C 
HETATM   36  C1  UNL     1     -20.349   5.772  13.670  1.00  0.00     0.042 C 
BRANCH  35  37
HETATM   37  O1  UNL     1     -18.667   6.770  12.287  1.00  0.00    -0.393 OA
HETATM   38  H5  UNL     1     -17.696   6.847  12.199  1.00  0.00     0.210 HD
ENDBRANCH  35  37
ENDBRANCH   1  35
BRANCH  28  39
HETATM   39  O9  UNL     1     -17.697   5.568  16.160  1.00  0.00    -0.389 OA
HETATM   40  H30 UNL     1     -17.414   5.191  17.015  1.00  0.00     0.210 HD
ENDBRANCH  28  39
TORSDOF 3
ENDMDL
MODEL 2
REMARK minimizedAffinity -6.88250732
REMARK CNNscore 0.354076028
REMARK CNNaffinity 5.11993265
REMARK  3 active torsions:
REMARK  status: ('A' for Active; 'I' for Inactive)
REMARK    1  A    between atoms: C2_2  and  O1_3 
REMARK    2  A    between atoms: C2_2  and  C3_4 
REMARK    3  A    between atoms: C23_31  and  O9_32 
ROOT
HETATM    1  C3  UNL     1     -10.165  -9.210   6.930  1.00  0.00     0.133 C 
HETATM    2  C4  UNL     1      -9.222  -9.569   5.781  1.00  0.00     0.016 C 
HETATM    3  C5  UNL     1      -8.559  -8.712   4.987  1.00  0.00    -0.001 C 
HETATM    4  C6  UNL     1      -7.823  -9.094   3.804  1.00  0.00     0.006 C 
HETATM    5  C7  UNL     1      -8.381  -9.807   2.815  1.00  0.00     0.082 C 
HETATM    6  C8  UNL     1      -7.687  -9.925   1.524  1.00  0.00     0.283 C 
HETATM    7  O2  UNL     1      -6.492 -10.102   1.366  1.00  0.00    -0.260 OA
HETATM    8  O3  UNL     1      -8.620  -9.701   0.562  1.00  0.00    -0.312 OA
HETATM    9  C9  UNL     1      -8.115  -9.402  -0.733  1.00  0.00     0.146 C 
HETATM   10  C10 UNL     1      -8.041 -10.643  -1.656  1.00  0.00     0.068 C 
HETATM   11  C11 UNL     1      -8.651 -10.166  -2.992  1.00  0.00     0.162 C 
HETATM   12  O4  UNL     1     -10.051 -10.504  -3.096  1.00  0.00    -0.377 OA
HETATM   13  C12 UNL     1     -10.840 -10.117  -1.957  1.00  0.00     0.127 C 
HETATM   14  C13 UNL     1     -12.336 -10.355  -2.229  1.00  0.00     0.032 C 
HETATM   15  C14 UNL     1     -13.176  -9.074  -2.265  1.00  0.00     0.003 C 
HETATM   16  C15 UNL     1     -12.943  -8.110  -1.087  1.00  0.00     0.007 C 
HETATM   17  C16 UNL     1     -11.535  -8.207  -0.431  1.00  0.00     0.017 C 
HETATM   18  C17 UNL     1     -11.627  -9.131   0.803  1.00  0.00     0.183 C 
HETATM   19  O5  UNL     1     -11.352  -8.373   1.998  1.00  0.00    -0.319 OA
HETATM   20  C18 UNL     1     -12.374  -8.222   2.881  1.00  0.00     0.291 C 
HETATM   21  O6  UNL     1     -13.518  -8.620   2.733  1.00  0.00    -0.262 OA
HETATM   22  C19 UNL     1     -11.892  -7.578   4.127  1.00  0.00     0.259 A 
HETATM   23  O7  UNL     1     -12.886  -7.217   5.098  1.00  0.00    -0.356 OA
HETATM   24  C20 UNL     1     -12.008  -8.294   5.469  1.00  0.00     0.128 A 
HETATM   25  C21 UNL     1     -12.680  -9.638   5.567  1.00  0.00     0.070 C 
HETATM   26  C22 UNL     1     -12.366 -10.297   6.905  1.00  0.00     0.172 C 
HETATM   27  O8  UNL     1     -10.958 -10.430   7.104  1.00  0.00    -0.371 OA
HETATM   28  C23 UNL     1     -11.050  -7.953   6.587  1.00  0.00     0.197 C 
HETATM   29  C24 UNL     1     -10.556  -8.656  -1.547  1.00  0.00     0.034 C 
HETATM   30  C25 UNL     1      -9.010  -8.362  -1.478  1.00  0.00     0.025 C 
HETATM   31  C26 UNL     1      -8.720  -6.943  -0.997  1.00  0.00     0.022 C 
HETATM   32  C27 UNL     1      -8.563  -8.676  -2.890  1.00  0.00     0.118 A 
HETATM   33  C28 UNL     1      -8.549  -7.740  -4.072  1.00  0.00     0.210 A 
HETATM   34  O10 UNL     1      -7.347  -8.078  -3.348  1.00  0.00    -0.371 OA
ENDROOT
BRANCH   1  35
HETATM   35  C2  UNL     1      -9.415  -9.042   8.289  1.00  0.00     0.155 C 
HETATM   36  C1  UNL     1      -9.984  -9.834   9.459  1.00  0.00     0.042 C 
BRANCH  35  37
HETATM   37  O1  UNL     1      -9.384  -7.653   8.672  1.00  0.00    -0.393 OA
HETATM   38  H5  UNL     1      -9.159  -7.172   7.852  1.00  0.00     0.210 HD
ENDBRANCH  35  37
ENDBRANCH   1  35
BRANCH  28  39
HETATM   39  O9  UNL     1     -11.811  -7.503   7.714  1.00  0.00    -0.389 OA
HETATM   40  H30 UNL     1     -12.492  -6.897   7.364  1.00  0.00     0.210 HD
ENDBRANCH  28  39
TORSDOF 3
ENDMDL
MODEL 3
REMARK minimizedAffinity -6.989223
REMARK CNNscore 0.3518731
REMARK CNNaffinity 5.50247383
REMARK  3 active torsions:
REMARK  status: ('A' for Active; 'I' for Inactive)
REMARK    1  A    between atoms: C2_2  and  O1_3 
REMARK    2  A    between atoms: C2_2  and  C3_4 
REMARK    3  A    between atoms: C23_31  and  O9_32 
ROOT
HETATM    1  C3  UNL     1      -7.381 -10.430   5.896  1.00  0.00     0.133 C 
HETATM    2  C4  UNL     1      -6.887 -10.552   4.454  1.00  0.00     0.016 C 
HETATM    3  C5  UNL     1      -6.515  -9.548   3.644  1.00  0.00    -0.001 C 
HETATM    4  C6  UNL     1      -6.228  -9.694   2.236  1.00  0.00     0.006 C 
HETATM    5  C7  UNL     1      -7.100 -10.253   1.384  1.00  0.00     0.082 C 
HETATM    6  C8  UNL     1      -6.885 -10.124  -0.065  1.00  0.00     0.283 C 
HETATM    7  O2  UNL     1      -5.816 -10.223  -0.641  1.00  0.00    -0.260 OA
HETATM    8  O3  UNL     1      -8.082  -9.779  -0.604  1.00  0.00    -0.312 OA
HETATM    9  C9  UNL     1      -8.039  -9.247  -1.922  1.00  0.00     0.146 C 
HETATM   10  C10 UNL     1      -8.303 -10.310  -3.015  1.00  0.00     0.068 C 
HETATM   11  C11 UNL     1      -9.318  -9.641  -3.966  1.00  0.00     0.162 C 
HETATM   12  O4  UNL     1     -10.678 -10.014  -3.652  1.00  0.00    -0.377 OA
HETATM   13  C12 UNL     1     -11.029  -9.856  -2.265  1.00  0.00     0.127 C 
HETATM   14  C13 UNL     1     -12.534 -10.106  -2.057  1.00  0.00     0.032 C 
HETATM   15  C14 UNL     1     -13.313  -8.872  -1.588  1.00  0.00     0.003 C 
HETATM   16  C15 UNL     1     -12.678  -8.112  -0.409  1.00  0.00     0.007 C 
HETATM   17  C16 UNL     1     -11.133  -8.260  -0.290  1.00  0.00     0.017 C 
HETATM   18  C17 UNL     1     -10.821  -9.381   0.725  1.00  0.00     0.183 C 
HETATM   19  O5  UNL     1     -10.145  -8.824   1.870  1.00  0.00    -0.319 OA
HETATM   20  C18 UNL     1     -10.807  -8.866   3.057  1.00  0.00     0.291 C 
HETATM   21  O6  UNL     1     -11.941  -9.280   3.234  1.00  0.00    -0.262 OA
HETATM   22  C19 UNL     1      -9.922  -8.422   4.160  1.00  0.00     0.259 A 
HETATM   23  O7  UNL     1     -10.523  -8.270   5.454  1.00  0.00    -0.356 OA
HETATM   24  C20 UNL     1      -9.591  -9.357   5.318  1.00  0.00     0.128 A 
HETATM   25  C21 UNL     1     -10.215 -10.725   5.404  1.00  0.00     0.070 C 
HETATM   26  C22 UNL     1      -9.481 -11.587   6.424  1.00  0.00     0.172 C 
HETATM   27  O8  UNL     1      -8.091 -11.693   6.113  1.00  0.00    -0.371 OA
HETATM   28  C23 UNL     1      -8.307  -9.171   6.092  1.00  0.00     0.197 C 
HETATM   29  C24 UNL     1     -10.596  -8.474  -1.729  1.00  0.00     0.034 C 
HETATM   30  C25 UNL     1      -9.113  -8.133  -2.133  1.00  0.00     0.025 C 
HETATM   31  C26 UNL     1      -8.651  -6.805  -1.541  1.00  0.00     0.022 C 
HETATM   32  C27 UNL     1      -9.174  -8.187  -3.645  1.00  0.00     0.118 A 
HETATM   33  C28 UNL     1      -9.541  -7.066  -4.584  1.00  0.00     0.210 A 
HETATM   34  O10 UNL     1      -8.173  -7.471  -4.374  1.00  0.00    -0.371 OA
ENDROOT
BRANCH   1  35
HETATM   35  C2  UNL     1      -6.214 -10.463   6.933  1.00  0.00     0.155 C 
HETATM   36  C1  UNL     1      -5.232  -9.301   6.860  1.00  0.00     0.042 C 
BRANCH  35  37
HETATM   37  O1  UNL     1      -5.461 -11.684   6.795  1.00  0.00    -0.393 OA
HETATM   38  H5  UNL     1      -6.135 -12.385   6.696  1.00  0.00     0.210 HD
ENDBRANCH  35  37
ENDBRANCH   1  35
BRANCH  28  39
HETATM   39  O9  UNL     1      -8.634  -8.948   7.468  1.00  0.00    -0.389 OA
HETATM   40  H30 UNL     1      -9.382  -8.320   7.476  1.00  0.00     0.210 HD
ENDBRANCH  28  39
TORSDOF 3
ENDMDL
MODEL 4
REMARK minimizedAffinity -6.75775194
REMARK CNNscore 0.324603856
REMARK CNNaffinity 5.45489931
REMARK  3 active torsions:
REMARK  status: ('A' for Active; 'I' for Inactive)
REMARK    1  A    between atoms: C2_2  and  O1_3 
REMARK    2  A    between atoms: C2_2  and  C3_4 
REMARK    3  A    between atoms: C23_31  and  O9_32 
ROOT
HETATM    1  C3  UNL     1     -14.941  -5.186  28.930  1.00  0.00     0.133 C 
HETATM    2  C4  UNL     1     -14.818  -5.813  27.540  1.00  0.00     0.016 C 
HETATM    3  C5  UNL     1     -15.631  -6.736  27.000  1.00  0.00    -0.001 C 
HETATM    4  C6  UNL     1     -15.374  -7.429  25.760  1.00  0.00     0.006 C 
HETATM    5  C7  UNL     1     -14.230  -8.095  25.538  1.00  0.00     0.082 C 
HETATM    6  C8  UNL     1     -14.132  -9.009  24.390  1.00  0.00     0.283 C 
HETATM    7  O2  UNL     1     -14.566  -8.801  23.271  1.00  0.00    -0.260 OA
HETATM    8  O3  UNL     1     -13.560 -10.150  24.853  1.00  0.00    -0.312 OA
HETATM    9  C9  UNL     1     -13.699 -11.294  24.021  1.00  0.00     0.146 C 
HETATM   10  C10 UNL     1     -12.477 -11.528  23.100  1.00  0.00     0.068 C 
HETATM   11  C11 UNL     1     -12.171 -13.034  23.241  1.00  0.00     0.162 C 
HETATM   12  O4  UNL     1     -11.142 -13.285  24.222  1.00  0.00    -0.377 OA
HETATM   13  C12 UNL     1     -11.364 -12.644  25.490  1.00  0.00     0.127 C 
HETATM   14  C13 UNL     1     -10.319 -13.107  26.521  1.00  0.00     0.032 C 
HETATM   15  C14 UNL     1     -10.907 -13.894  27.698  1.00  0.00     0.003 C 
HETATM   16  C15 UNL     1     -12.137 -13.248  28.362  1.00  0.00     0.007 C 
HETATM   17  C16 UNL     1     -12.974 -12.323  27.431  1.00  0.00     0.017 C 
HETATM   18  C17 UNL     1     -12.526 -10.862  27.655  1.00  0.00     0.183 C 
HETATM   19  O5  UNL     1     -13.617 -10.101  28.212  1.00  0.00    -0.319 OA
HETATM   20  C18 UNL     1     -13.456  -9.628  29.476  1.00  0.00     0.291 C 
HETATM   21  O6  UNL     1     -12.499  -9.835  30.205  1.00  0.00    -0.262 OA
HETATM   22  C19 UNL     1     -14.575  -8.727  29.839  1.00  0.00     0.259 A 
HETATM   23  O7  UNL     1     -14.623  -8.265  31.198  1.00  0.00    -0.356 OA
HETATM   24  C20 UNL     1     -14.314  -7.270  30.207  1.00  0.00     0.128 A 
HETATM   25  C21 UNL     1     -12.908  -6.736  30.281  1.00  0.00     0.070 C 
HETATM   26  C22 UNL     1     -12.914  -5.212  30.314  1.00  0.00     0.172 C 
HETATM   27  O8  UNL     1     -13.593  -4.668  29.182  1.00  0.00    -0.371 OA
HETATM   28  C23 UNL     1     -15.399  -6.238  30.007  1.00  0.00     0.197 C 
HETATM   29  C24 UNL     1     -12.807 -12.875  25.992  1.00  0.00     0.034 C 
HETATM   30  C25 UNL     1     -13.865 -12.602  24.858  1.00  0.00     0.025 C 
HETATM   31  C26 UNL     1     -15.297 -12.751  25.366  1.00  0.00     0.022 C 
HETATM   32  C27 UNL     1     -13.448 -13.589  23.787  1.00  0.00     0.118 A 
HETATM   33  C28 UNL     1     -13.879 -15.027  23.654  1.00  0.00     0.210 A 
HETATM   34  O10 UNL     1     -14.433 -13.982  22.829  1.00  0.00    -0.371 OA
ENDROOT
BRANCH   1  35
HETATM   35  C2  UNL     1     -15.847  -3.913  28.933  1.00  0.00     0.155 C 
HETATM   36  C1  UNL     1     -16.226  -3.369  27.562  1.00  0.00     0.042 C 
BRANCH  35  37
HETATM   37  O1  UNL     1     -15.208  -2.850  29.667  1.00  0.00    -0.393 OA
HETATM   38  H5  UNL     1     -14.850  -3.279  30.470  1.00  0.00     0.210 HD
ENDBRANCH  35  37
ENDBRANCH   1  35
BRANCH  28  39
HETATM   39  O9  UNL     1     -15.685  -5.629  31.272  1.00  0.00    -0.389 OA
HETATM   40  H30 UNL     1     -15.722  -6.354  31.926  1.00  0.00     0.210 HD
ENDBRANCH  28  39
TORSDOF 3
ENDMDL
MODEL 5
REMARK minimizedAffinity -9.22918987
REMARK CNNscore 0.316729933
REMARK CNNaffinity 6.34170294
REMARK  3 active torsions:
REMARK  status: ('A' for Active; 'I' for Inactive)
REMARK    1  A    between atoms: C2_2  and  O1_3 
REMARK    2  A    between atoms: C2_2  and  C3_4 
REMARK    3  A    between atoms: C23_31  and  O9_32 
ROOT
HETATM    1  C3  UNL     1       2.522   8.070  11.196  1.00  0.00     0.133 C 
HETATM    2  C4  UNL     1       1.289   8.717  11.830  1.00  0.00     0.016 C 
HETATM    3  C5  UNL     1       0.866   8.571  13.096  1.00  0.00    -0.001 C 
HETATM    4  C6  UNL     1      -0.398   9.055  13.599  1.00  0.00     0.006 C 
HETATM    5  C7  UNL     1      -1.565   8.741  13.017  1.00  0.00     0.082 C 
HETATM    6  C8  UNL     1      -2.826   9.021  13.721  1.00  0.00     0.283 C 
HETATM    7  O2  UNL     1      -3.083  10.028  14.356  1.00  0.00    -0.260 OA
HETATM    8  O3  UNL     1      -3.589   7.904  13.603  1.00  0.00    -0.312 OA
HETATM    9  C9  UNL     1      -4.685   7.805  14.503  1.00  0.00     0.146 C 
HETATM   10  C10 UNL     1      -6.019   8.299  13.892  1.00  0.00     0.068 C 
HETATM   11  C11 UNL     1      -7.042   7.204  14.265  1.00  0.00     0.162 C 
HETATM   12  O4  UNL     1      -7.218   6.247  13.198  1.00  0.00    -0.377 OA
HETATM   13  C12 UNL     1      -5.990   5.705  12.681  1.00  0.00     0.127 C 
HETATM   14  C13 UNL     1      -6.278   4.572  11.679  1.00  0.00     0.032 C 
HETATM   15  C14 UNL     1      -5.783   3.195  12.134  1.00  0.00     0.003 C 
HETATM   16  C15 UNL     1      -4.333   3.163  12.651  1.00  0.00     0.007 C 
HETATM   17  C16 UNL     1      -3.818   4.509  13.240  1.00  0.00     0.017 C 
HETATM   18  C17 UNL     1      -3.037   5.261  12.141  1.00  0.00     0.183 C 
HETATM   19  O5  UNL     1      -1.652   5.379  12.526  1.00  0.00    -0.319 OA
HETATM   20  C18 UNL     1      -0.743   4.714  11.766  1.00  0.00     0.291 C 
HETATM   21  O6  UNL     1      -0.991   3.981  10.822  1.00  0.00    -0.262 OA
HETATM   22  C19 UNL     1       0.637   5.072  12.175  1.00  0.00     0.259 A 
HETATM   23  O7  UNL     1       1.707   4.338  11.563  1.00  0.00    -0.356 OA
HETATM   24  C20 UNL     1       1.599   5.721  11.186  1.00  0.00     0.128 A 
HETATM   25  C21 UNL     1       1.194   5.945   9.753  1.00  0.00     0.070 C 
HETATM   26  C22 UNL     1       2.159   6.904   9.066  1.00  0.00     0.172 C 
HETATM   27  O8  UNL     1       2.238   8.150   9.760  1.00  0.00    -0.371 OA
HETATM   28  C23 UNL     1       2.726   6.590  11.694  1.00  0.00     0.197 C 
HETATM   29  C24 UNL     1      -5.056   5.241  13.820  1.00  0.00     0.034 C 
HETATM   30  C25 UNL     1      -4.935   6.330  14.951  1.00  0.00     0.025 C 
HETATM   31  C26 UNL     1      -3.953   5.913  16.042  1.00  0.00     0.022 C 
HETATM   32  C27 UNL     1      -6.374   6.489  15.396  1.00  0.00     0.118 A 
HETATM   33  C28 UNL     1      -7.101   5.681  16.441  1.00  0.00     0.210 A 
HETATM   34  O10 UNL     1      -6.608   7.011  16.706  1.00  0.00    -0.371 OA
ENDROOT
BRANCH   1  35
HETATM   35  C2  UNL     1       3.812   8.931  11.380  1.00  0.00     0.155 C 
HETATM   36  C1  UNL     1       4.777   8.935  10.202  1.00  0.00     0.042 C 
BRANCH  35  37
HETATM   37  O1  UNL     1       4.540   8.493  12.544  1.00  0.00    -0.393 OA
HETATM   38  H5  UNL     1       3.858   8.361  13.232  1.00  0.00     0.210 HD
ENDBRANCH  35  37
ENDBRANCH   1  35
BRANCH  28  39
HETATM   39  O9  UNL     1       3.967   6.034  11.244  1.00  0.00    -0.389 OA
HETATM   40  H30 UNL     1       3.904   5.069  11.384  1.00  0.00     0.210 HD
ENDBRANCH  28  39
TORSDOF 3
ENDMDL
MODEL 6
REMARK minimizedAffinity -8.72770596
REMARK CNNscore 0.253680378
REMARK CNNaffinity 6.29251623
REMARK  3 active torsions:
REMARK  status: ('A' for Active; 'I' for Inactive)
REMARK    1  A    between atoms: C2_2  and  O1_3 
REMARK    2  A    between atoms: C2_2  and  C3_4 
REMARK    3  A    between atoms: C23_31  and  O9_32 
ROOT
HETATM    1  C3  UNL     1      -8.323   7.125  15.469  1.00  0.00     0.133 C 
HETATM    2  C4  UNL     1      -6.993   7.829  15.742  1.00  0.00     0.016 C 
HETATM    3  C5  UNL     1      -6.354   8.684  14.927  1.00  0.00    -0.001 C 
HETATM    4  C6  UNL     1      -5.017   9.183  15.150  1.00  0.00     0.006 C 
HETATM    5  C7  UNL     1      -3.973   8.364  15.351  1.00  0.00     0.082 C 
HETATM    6  C8  UNL     1      -2.606   8.902  15.291  1.00  0.00     0.283 C 
HETATM    7  O2  UNL     1      -2.233   9.964  15.757  1.00  0.00    -0.260 OA
HETATM    8  O3  UNL     1      -1.884   8.035  14.535  1.00  0.00    -0.312 OA
HETATM    9  C9  UNL     1      -0.646   8.529  14.038  1.00  0.00     0.146 C 
HETATM   10  C10 UNL     1       0.562   8.141  14.925  1.00  0.00     0.068 C 
HETATM   11  C11 UNL     1       1.626   7.638  13.926  1.00  0.00     0.162 C 
HETATM   12  O4  UNL     1       1.604   6.200  13.794  1.00  0.00    -0.377 OA
HETATM   13  C12 UNL     1       0.299   5.650  13.538  1.00  0.00     0.127 C 
HETATM   14  C13 UNL     1       0.397   4.144  13.237  1.00  0.00     0.032 C 
HETATM   15  C14 UNL     1      -0.020   3.762  11.813  1.00  0.00     0.003 C 
HETATM   16  C15 UNL     1      -1.356   4.367  11.342  1.00  0.00     0.007 C 
HETATM   17  C16 UNL     1      -1.748   5.705  12.032  1.00  0.00     0.017 C 
HETATM   18  C17 UNL     1      -2.706   5.395  13.203  1.00  0.00     0.183 C 
HETATM   19  O5  UNL     1      -4.000   5.973  12.937  1.00  0.00    -0.319 OA
HETATM   20  C18 UNL     1      -5.034   5.111  12.754  1.00  0.00     0.291 C 
HETATM   21  O6  UNL     1      -4.962   3.892  12.738  1.00  0.00    -0.262 OA
HETATM   22  C19 UNL     1      -6.317   5.850  12.667  1.00  0.00     0.259 A 
HETATM   23  O7  UNL     1      -7.484   5.087  12.326  1.00  0.00    -0.356 OA
HETATM   24  C20 UNL     1      -7.434   5.592  13.672  1.00  0.00     0.128 A 
HETATM   25  C21 UNL     1      -7.287   4.529  14.728  1.00  0.00     0.070 C 
HETATM   26  C22 UNL     1      -8.352   4.693  15.807  1.00  0.00     0.172 C 
HETATM   27  O8  UNL     1      -8.298   5.992  16.399  1.00  0.00    -0.371 OA
HETATM   28  C23 UNL     1      -8.447   6.674  13.965  1.00  0.00     0.197 C 
HETATM   29  C24 UNL     1      -0.422   6.416  12.407  1.00  0.00     0.034 C 
HETATM   30  C25 UNL     1      -0.332   7.975  12.613  1.00  0.00     0.025 C 
HETATM   31  C26 UNL     1      -1.109   8.738  11.543  1.00  0.00     0.022 C 
HETATM   32  C27 UNL     1       1.165   8.209  12.624  1.00  0.00     0.118 A 
HETATM   33  C28 UNL     1       2.058   8.453  11.434  1.00  0.00     0.210 A 
HETATM   34  O10 UNL     1       1.631   9.522  12.303  1.00  0.00    -0.371 OA
ENDROOT
BRANCH   1  35
HETATM   35  C2  UNL     1      -9.553   7.970  15.928  1.00  0.00     0.155 C 
HETATM   36  C1  UNL     1     -10.777   7.902  15.023  1.00  0.00     0.042 C 
BRANCH  35  37
HETATM   37  O1  UNL     1      -9.182   9.356  16.061  1.00  0.00    -0.393 OA
HETATM   38  H5  UNL     1      -8.317   9.342  16.517  1.00  0.00     0.210 HD
ENDBRANCH  35  37
ENDBRANCH   1  35
BRANCH  28  39
HETATM   39  O9  UNL     1      -9.752   6.171  13.656  1.00  0.00    -0.389 OA
HETATM   40  H30 UNL     1      -9.672   5.702  12.803  1.00  0.00     0.210 HD
ENDBRANCH  28  39
TORSDOF 3
ENDMDL
MODEL 7
REMARK minimizedAffinity -6.773839
REMARK CNNscore 0.239673749
REMARK CNNaffinity 4.81778717
REMARK  3 active torsions:
REMARK  status: ('A' for Active; 'I' for Inactive)
REMARK    1  A    between atoms: C2_2  and  O1_3 
REMARK    2  A    between atoms: C2_2  and  C3_4 
REMARK    3  A    between atoms: C23_31  and  O9_32 
ROOT
HETATM    1  C3  UNL     1     -14.161  -4.320  12.868  1.00  0.00     0.133 C 
HETATM    2  C4  UNL     1     -14.219  -3.249  13.958  1.00  0.00     0.016 C 
HETATM    3  C5  UNL     1     -15.144  -3.136  14.925  1.00  0.00    -0.001 C 
HETATM    4  C6  UNL     1     -15.259  -2.008  15.820  1.00  0.00     0.006 C 
HETATM    5  C7  UNL     1     -15.362  -0.748  15.372  1.00  0.00     0.082 C 
HETATM    6  C8  UNL     1     -15.757   0.323  16.299  1.00  0.00     0.283 C 
HETATM    7  O2  UNL     1     -15.369   0.457  17.446  1.00  0.00    -0.260 OA
HETATM    8  O3  UNL     1     -16.702   1.058  15.658  1.00  0.00    -0.312 OA
HETATM    9  C9  UNL     1     -17.486   1.912  16.481  1.00  0.00     0.146 C 
HETATM   10  C10 UNL     1     -16.956   3.366  16.527  1.00  0.00     0.068 C 
HETATM   11  C11 UNL     1     -18.212   4.240  16.324  1.00  0.00     0.162 C 
HETATM   12  O4  UNL     1     -18.381   4.629  14.944  1.00  0.00    -0.377 OA
HETATM   13  C12 UNL     1     -18.308   3.538  14.009  1.00  0.00     0.127 C 
HETATM   14  C13 UNL     1     -18.672   4.015  12.591  1.00  0.00     0.032 C 
HETATM   15  C14 UNL     1     -19.951   3.386  12.029  1.00  0.00     0.003 C 
HETATM   16  C15 UNL     1     -20.040   1.856  12.171  1.00  0.00     0.007 C 
HETATM   17  C16 UNL     1     -19.229   1.260  13.359  1.00  0.00     0.017 C 
HETATM   18  C17 UNL     1     -17.860   0.778  12.829  1.00  0.00     0.183 C 
HETATM   19  O5  UNL     1     -17.763  -0.653  12.969  1.00  0.00    -0.319 OA
HETATM   20  C18 UNL     1     -17.699  -1.382  11.823  1.00  0.00     0.291 C 
HETATM   21  O6  UNL     1     -17.773  -0.944  10.686  1.00  0.00    -0.262 OA
HETATM   22  C19 UNL     1     -17.427  -2.807  12.129  1.00  0.00     0.259 A 
HETATM   23  O7  UNL     1     -17.478  -3.729  11.030  1.00  0.00    -0.356 OA
HETATM   24  C20 UNL     1     -16.176  -3.493  11.592  1.00  0.00     0.128 A 
HETATM   25  C21 UNL     1     -15.229  -2.760  10.679  1.00  0.00     0.070 C 
HETATM   26  C22 UNL     1     -13.906  -3.509  10.564  1.00  0.00     0.172 C 
HETATM   27  O8  UNL     1     -13.307  -3.709  11.846  1.00  0.00    -0.371 OA
HETATM   28  C23 UNL     1     -15.595  -4.680  12.326  1.00  0.00     0.197 C 
HETATM   29  C24 UNL     1     -19.187   2.351  14.459  1.00  0.00     0.034 C 
HETATM   30  C25 UNL     1     -18.962   2.006  15.979  1.00  0.00     0.025 C 
HETATM   31  C26 UNL     1     -19.768   0.784  16.412  1.00  0.00     0.022 C 
HETATM   32  C27 UNL     1     -19.331   3.307  16.660  1.00  0.00     0.118 A 
HETATM   33  C28 UNL     1     -20.703   3.746  17.106  1.00  0.00     0.210 A 
HETATM   34  O10 UNL     1     -19.719   3.247  18.035  1.00  0.00    -0.371 OA
ENDROOT
BRANCH   1  35
HETATM   35  C2  UNL     1     -13.371  -5.590  13.318  1.00  0.00     0.155 C 
HETATM   36  C1  UNL     1     -13.943  -6.332  14.519  1.00  0.00     0.042 C 
BRANCH  35  37
HETATM   37  O1  UNL     1     -12.006  -5.245  13.623  1.00  0.00    -0.393 OA
HETATM   38  H5  UNL     1     -11.730  -4.647  12.900  1.00  0.00     0.210 HD
ENDBRANCH  35  37
ENDBRANCH   1  35
BRANCH  28  39
HETATM   39  O9  UNL     1     -15.572  -5.799  11.433  1.00  0.00    -0.389 OA
HETATM   40  H30 UNL     1     -16.431  -5.800  10.968  1.00  0.00     0.210 HD
ENDBRANCH  28  39
TORSDOF 3
ENDMDL
MODEL 8
REMARK minimizedAffinity -8.3537941
REMARK CNNscore 0.218062252
REMARK CNNaffinity 5.13827562
REMARK  3 active torsions:
REMARK  status: ('A' for Active; 'I' for Inactive)
REMARK    1  A    between atoms: C2_2  and  O1_3 
REMARK    2  A    between atoms: C2_2  and  C3_4 
REMARK    3  A    between atoms: C23_31  and  O9_32 
ROOT
HETATM    1  C3  UNL     1      -4.369  -9.950   7.192  1.00  0.00     0.133 C 
HETATM    2  C4  UNL     1      -5.782  -9.449   6.889  1.00  0.00     0.016 C 
HETATM    3  C5  UNL     1      -6.866 -10.203   6.642  1.00  0.00    -0.001 C 
HETATM    4  C6  UNL     1      -8.135  -9.687   6.185  1.00  0.00     0.006 C 
HETATM    5  C7  UNL     1      -8.241  -8.916   5.092  1.00  0.00     0.082 C 
HETATM    6  C8  UNL     1      -9.567  -8.654   4.513  1.00  0.00     0.283 C 
HETATM    7  O2  UNL     1     -10.585  -8.411   5.136  1.00  0.00    -0.260 OA
HETATM    8  O3  UNL     1      -9.446  -8.836   3.173  1.00  0.00    -0.312 OA
HETATM    9  C9  UNL     1     -10.663  -8.997   2.456  1.00  0.00     0.146 C 
HETATM   10  C10 UNL     1     -11.177  -7.678   1.828  1.00  0.00     0.068 C 
HETATM   11  C11 UNL     1     -11.561  -8.064   0.384  1.00  0.00     0.162 C 
HETATM   12  O4  UNL     1     -10.497  -7.781  -0.551  1.00  0.00    -0.377 OA
HETATM   13  C12 UNL     1      -9.213  -8.302  -0.160  1.00  0.00     0.127 C 
HETATM   14  C13 UNL     1      -8.185  -8.109  -1.290  1.00  0.00     0.032 C 
HETATM   15  C14 UNL     1      -7.663  -9.418  -1.890  1.00  0.00     0.003 C 
HETATM   16  C15 UNL     1      -7.209 -10.470  -0.860  1.00  0.00     0.007 C 
HETATM   17  C16 UNL     1      -7.903 -10.367   0.529  1.00  0.00     0.017 C 
HETATM   18  C17 UNL     1      -6.990  -9.560   1.478  1.00  0.00     0.183 C 
HETATM   19  O5  UNL     1      -6.540 -10.406   2.555  1.00  0.00    -0.319 OA
HETATM   20  C18 UNL     1      -5.210 -10.679   2.609  1.00  0.00     0.291 C 
HETATM   21  O6  UNL     1      -4.368 -10.322   1.801  1.00  0.00    -0.262 OA
HETATM   22  C19 UNL     1      -4.881 -11.407   3.858  1.00  0.00     0.259 A 
HETATM   23  O7  UNL     1      -3.537 -11.896   3.991  1.00  0.00    -0.356 OA
HETATM   24  C20 UNL     1      -3.903 -10.817   4.869  1.00  0.00     0.128 A 
HETATM   25  C21 UNL     1      -3.195  -9.519   4.585  1.00  0.00     0.070 C 
HETATM   26  C22 UNL     1      -2.560  -8.965   5.856  1.00  0.00     0.172 C 
HETATM   27  O8  UNL     1      -3.532  -8.787   6.888  1.00  0.00    -0.371 OA
HETATM   28  C23 UNL     1      -3.998 -11.211   6.324  1.00  0.00     0.197 C 
HETATM   29  C24 UNL     1      -9.315  -9.779   0.277  1.00  0.00     0.034 C 
HETATM   30  C25 UNL     1     -10.511 -10.008   1.275  1.00  0.00     0.025 C 
HETATM   31  C26 UNL     1     -10.571 -11.449   1.775  1.00  0.00     0.022 C 
HETATM   32  C27 UNL     1     -11.701  -9.551   0.457  1.00  0.00     0.118 A 
HETATM   33  C28 UNL     1     -12.522 -10.379  -0.500  1.00  0.00     0.210 A 
HETATM   34  O10 UNL     1     -12.989 -10.052   0.825  1.00  0.00    -0.371 OA
ENDROOT
BRANCH   1  35
HETATM   35  C2  UNL     1      -4.138 -10.202   8.716  1.00  0.00     0.155 C 
HETATM   36  C1  UNL     1      -5.352  -9.993   9.612  1.00  0.00     0.042 C 
BRANCH  35  37
HETATM   37  O1  UNL     1      -3.080  -9.353   9.205  1.00  0.00    -0.393 OA
HETATM   38  H5  UNL     1      -2.382  -9.404   8.522  1.00  0.00     0.210 HD
ENDBRANCH  35  37
ENDBRANCH   1  35
BRANCH  28  39
HETATM   39  O9  UNL     1      -2.750 -11.792   6.720  1.00  0.00    -0.389 OA
HETATM   40  H30 UNL     1      -2.484 -12.394   5.999  1.00  0.00     0.210 HD
ENDBRANCH  28  39
TORSDOF 3
ENDMDL
MODEL 9
REMARK minimizedAffinity -6.60792303
REMARK CNNscore 0.217117622
REMARK CNNaffinity 5.09352255
REMARK  3 active torsions:
REMARK  status: ('A' for Active; 'I' for Inactive)
REMARK    1  A    between atoms: C2_2  and  O1_3 
REMARK    2  A    between atoms: C2_2  and  C3_4 
REMARK    3  A    between atoms: C23_31  and  O9_32 
ROOT
HETATM    1  C3  UNL     1      -8.213  -8.428  -4.137  1.00  0.00     0.133 C 
HETATM    2  C4  UNL     1      -7.044  -9.057  -3.378  1.00  0.00     0.016 C 
HETATM    3  C5  UNL     1      -6.943 -10.334  -2.973  1.00  0.00    -0.001 C 
HETATM    4  C6  UNL     1      -5.905 -10.838  -2.105  1.00  0.00     0.006 C 
HETATM    5  C7  UNL     1      -5.642 -10.285  -0.911  1.00  0.00     0.082 C 
HETATM    6  C8  UNL     1      -4.781 -10.997   0.045  1.00  0.00     0.283 C 
HETATM    7  O2  UNL     1      -3.758 -11.601  -0.224  1.00  0.00    -0.260 OA
HETATM    8  O3  UNL     1      -5.404 -10.929   1.250  1.00  0.00    -0.312 OA
HETATM    9  C9  UNL     1      -4.951 -11.848   2.235  1.00  0.00     0.146 C 
HETATM   10  C10 UNL     1      -3.897 -11.240   3.193  1.00  0.00     0.068 C 
HETATM   11  C11 UNL     1      -4.367 -11.665   4.601  1.00  0.00     0.162 C 
HETATM   12  O4  UNL     1      -5.151 -10.636   5.241  1.00  0.00    -0.377 OA
HETATM   13  C12 UNL     1      -6.223 -10.119   4.431  1.00  0.00     0.127 C 
HETATM   14  C13 UNL     1      -7.107  -9.162   5.251  1.00  0.00     0.032 C 
HETATM   15  C14 UNL     1      -8.543  -9.657   5.454  1.00  0.00     0.003 C 
HETATM   16  C15 UNL     1      -9.246 -10.153   4.178  1.00  0.00     0.007 C 
HETATM   17  C16 UNL     1      -8.292 -10.688   3.070  1.00  0.00     0.017 C 
HETATM   18  C17 UNL     1      -8.026  -9.552   2.058  1.00  0.00     0.183 C 
HETATM   19  O5  UNL     1      -8.570  -9.911   0.772  1.00  0.00    -0.319 OA
HETATM   20  C18 UNL     1      -9.605  -9.162   0.309  1.00  0.00     0.291 C 
HETATM   21  O6  UNL     1     -10.155  -8.248   0.903  1.00  0.00    -0.262 OA
HETATM   22  C19 UNL     1      -9.935  -9.538  -1.087  1.00  0.00     0.259 A 
HETATM   23  O7  UNL     1     -11.103  -8.936  -1.664  1.00  0.00    -0.356 OA
HETATM   24  C20 UNL     1      -9.843  -8.513  -2.212  1.00  0.00     0.128 A 
HETATM   25  C21 UNL     1      -9.488  -7.080  -1.919  1.00  0.00     0.070 C 
HETATM   26  C22 UNL     1      -9.118  -6.345  -3.203  1.00  0.00     0.172 C 
HETATM   27  O8  UNL     1      -8.042  -6.995  -3.883  1.00  0.00    -0.371 OA
HETATM   28  C23 UNL     1      -9.601  -8.974  -3.631  1.00  0.00     0.197 C 
HETATM   29  C24 UNL     1      -7.047 -11.260   3.795  1.00  0.00     0.034 C 
HETATM   30  C25 UNL     1      -6.119 -12.351   3.141  1.00  0.00     0.025 C 
HETATM   31  C26 UNL     1      -6.927 -13.441   2.441  1.00  0.00     0.022 C 
HETATM   32  C27 UNL     1      -5.287 -12.810   4.319  1.00  0.00     0.118 A 
HETATM   33  C28 UNL     1      -5.629 -13.894   5.310  1.00  0.00     0.210 A 
HETATM   34  O10 UNL     1      -4.685 -14.105   4.239  1.00  0.00    -0.371 OA
ENDROOT
BRANCH   1  35
HETATM   35  C2  UNL     1      -8.063  -8.563  -5.686  1.00  0.00     0.155 C 
HETATM   36  C1  UNL     1      -8.539  -9.881  -6.283  1.00  0.00     0.042 C 
BRANCH  35  37
HETATM   37  O1  UNL     1      -6.686  -8.379  -6.069  1.00  0.00    -0.393 OA
HETATM   38  H5  UNL     1      -6.380  -7.611  -5.547  1.00  0.00     0.210 HD
ENDBRANCH  35  37
ENDBRANCH   1  35
BRANCH  28  39
HETATM   39  O9  UNL     1     -10.689  -8.526  -4.446  1.00  0.00    -0.389 OA
HETATM   40  H30 UNL     1     -11.505  -8.700  -3.938  1.00  0.00     0.210 HD
ENDBRANCH  28  39
TORSDOF 3
ENDMDL
