MODEL 1
REMARK minimizedAffinity -9.53327656
REMARK  4 active torsions:
REMARK  status: ('A' for Active; 'I' for Inactive)
REMARK    1  A    between atoms: C4_4  and  C5_5 
REMARK    2  A    between atoms: C5_5  and  C6_6 
REMARK    3  A    between atoms: C6_6  and  C7_7 
REMARK    4  A    between atoms: C7_7  and  C9_9 
ROOT
HETATM    1  C9  UNL     1       0.704   7.390  12.246  1.00  0.00    -0.002 C 
HETATM    2  C10 UNL     1       0.621   6.147  11.308  1.00  0.00     0.007 C 
HETATM    3  C11 UNL     1      -0.761   5.500  11.516  1.00  0.00     0.015 C 
HETATM    4  C12 UNL     1      -1.319   6.168  12.788  1.00  0.00    -0.013 C 
HETATM    5  C13 UNL     1      -0.690   5.393  13.991  1.00  0.00     0.021 C 
HETATM    6  C14 UNL     1      -2.828   6.144  13.010  1.00  0.00    -0.070 C 
HETATM    7  C15 UNL     1      -3.599   5.125  12.591  1.00  0.00    -0.022 C 
HETATM    8  C16 UNL     1      -5.061   4.990  12.884  1.00  0.00     0.034 C 
HETATM    9  C17 UNL     1      -5.721   6.235  13.520  1.00  0.00     0.013 C 
HETATM   10  C18 UNL     1      -7.183   5.955  14.031  1.00  0.00     0.018 C 
HETATM   11  C19 UNL     1      -7.395   4.561  14.654  1.00  0.00     0.023 C 
HETATM   12  C20 UNL     1      -8.173   6.083  12.853  1.00  0.00     0.023 C 
HETATM   13  C21 UNL     1      -7.582   7.022  15.057  1.00  0.00     0.135 C 
HETATM   14  O1  UNL     1      -8.436   6.830  15.920  1.00  0.00    -0.297 OA
HETATM   15  C22 UNL     1      -6.931   8.369  14.908  1.00  0.00     0.080 C 
HETATM   16  C23 UNL     1      -5.422   8.274  15.066  1.00  0.00     0.017 C 
HETATM   17  C24 UNL     1      -4.767   6.952  14.549  1.00  0.00    -0.031 C 
HETATM   18  C25 UNL     1      -4.474   6.048  15.771  1.00  0.00     0.016 C 
HETATM   19  C26 UNL     1      -3.428   7.319  13.784  1.00  0.00     0.024 C 
HETATM   20  C27 UNL     1      -2.372   8.058  14.641  1.00  0.00     0.010 C 
HETATM   21  C28 UNL     1      -1.066   8.436  13.902  1.00  0.00     0.011 C 
HETATM   22  C29 UNL     1      -0.800   7.640  12.604  1.00  0.00    -0.029 C 
HETATM   23  C30 UNL     1      -1.465   8.391  11.405  1.00  0.00     0.016 C 
ENDROOT
BRANCH   1  24
HETATM   24  C7  UNL     1       1.564   8.536  11.631  1.00  0.00    -0.014 C 
HETATM   25  C8  UNL     1       2.102   9.486  12.706  1.00  0.00     0.010 C 
BRANCH  24  26
HETATM   26  C6  UNL     1       2.743   7.938  10.811  1.00  0.00     0.008 C 
BRANCH  26  27
HETATM   27  C5  UNL     1       2.542   6.511  10.279  1.00  0.00     0.028 C 
BRANCH  27  28
HETATM   28  C4  UNL     1       2.138   6.480   8.829  1.00  0.00    -0.025 C 
HETATM   29  C2  UNL     1       2.381   7.398   7.874  1.00  0.00    -0.091 C 
HETATM   30  C1  UNL     1       3.138   8.684   8.065  1.00  0.00     0.042 C 
HETATM   31  C3  UNL     1       1.879   7.187   6.468  1.00  0.00     0.042 C 
ENDBRANCH  27  28
ENDBRANCH  26  27
ENDBRANCH  24  26
ENDBRANCH   1  24
TORSDOF 4
ENDMDL
MODEL 2
REMARK minimizedAffinity -9.32892704
REMARK  4 active torsions:
REMARK  status: ('A' for Active; 'I' for Inactive)
REMARK    1  A    between atoms: C4_4  and  C5_5 
REMARK    2  A    between atoms: C5_5  and  C6_6 
REMARK    3  A    between atoms: C6_6  and  C7_7 
REMARK    4  A    between atoms: C7_7  and  C9_9 
ROOT
HETATM    1  C9  UNL     1      -3.970   7.095  14.621  1.00  0.00    -0.002 C 
HETATM    2  C10 UNL     1      -4.462   8.371  13.873  1.00  0.00     0.007 C 
HETATM    3  C11 UNL     1      -3.379   8.755  12.847  1.00  0.00     0.015 C 
HETATM    4  C12 UNL     1      -2.152   7.908  13.239  1.00  0.00    -0.013 C 
HETATM    5  C13 UNL     1      -1.443   8.688  14.394  1.00  0.00     0.021 C 
HETATM    6  C14 UNL     1      -1.084   7.657  12.180  1.00  0.00    -0.070 C 
HETATM    7  C15 UNL     1      -0.796   8.557  11.223  1.00  0.00    -0.022 C 
HETATM    8  C16 UNL     1       0.318   8.418  10.233  1.00  0.00     0.034 C 
HETATM    9  C17 UNL     1       1.008   7.035  10.211  1.00  0.00     0.013 C 
HETATM   10  C18 UNL     1       2.319   7.021   9.341  1.00  0.00     0.018 C 
HETATM   11  C19 UNL     1       3.164   8.308   9.422  1.00  0.00     0.023 C 
HETATM   12  C20 UNL     1       1.948   6.814   7.856  1.00  0.00     0.023 C 
HETATM   13  C21 UNL     1       3.192   5.828   9.745  1.00  0.00     0.135 C 
HETATM   14  O1  UNL     1       4.410   5.806   9.576  1.00  0.00    -0.297 OA
HETATM   15  C22 UNL     1       2.472   4.627  10.292  1.00  0.00     0.080 C 
HETATM   16  C23 UNL     1       1.724   4.967  11.572  1.00  0.00     0.017 C 
HETATM   17  C24 UNL     1       1.144   6.417  11.655  1.00  0.00    -0.031 C 
HETATM   18  C25 UNL     1       2.087   7.264  12.543  1.00  0.00     0.016 C 
HETATM   19  C26 UNL     1      -0.309   6.343  12.283  1.00  0.00     0.024 C 
HETATM   20  C27 UNL     1      -0.372   5.733  13.704  1.00  0.00     0.010 C 
HETATM   21  C28 UNL     1      -1.788   5.641  14.322  1.00  0.00     0.011 C 
HETATM   22  C29 UNL     1      -2.842   6.565  13.673  1.00  0.00    -0.029 C 
HETATM   23  C30 UNL     1      -3.522   5.803  12.490  1.00  0.00     0.016 C 
ENDROOT
BRANCH   1  24
HETATM   24  C7  UNL     1      -5.150   6.162  15.033  1.00  0.00    -0.014 C 
HETATM   25  C8  UNL     1      -6.352   6.958  15.555  1.00  0.00     0.010 C 
BRANCH  24  26
HETATM   26  C6  UNL     1      -5.581   5.281  13.825  1.00  0.00     0.008 C 
BRANCH  26  27
HETATM   27  C5  UNL     1      -7.041   4.804  13.822  1.00  0.00     0.028 C 
BRANCH  27  28
HETATM   28  C4  UNL     1      -7.771   5.167  12.557  1.00  0.00    -0.025 C 
HETATM   29  C2  UNL     1      -8.888   5.909  12.420  1.00  0.00    -0.091 C 
HETATM   30  C1  UNL     1      -9.655   6.554  13.541  1.00  0.00     0.042 C 
HETATM   31  C3  UNL     1      -9.477   6.154  11.054  1.00  0.00     0.042 C 
ENDBRANCH  27  28
ENDBRANCH  26  27
ENDBRANCH  24  26
ENDBRANCH   1  24
TORSDOF 4
ENDMDL
MODEL 3
REMARK minimizedAffinity -9.26353645
REMARK  4 active torsions:
REMARK  status: ('A' for Active; 'I' for Inactive)
REMARK    1  A    between atoms: C4_4  and  C5_5 
REMARK    2  A    between atoms: C5_5  and  C6_6 
REMARK    3  A    between atoms: C6_6  and  C7_7 
REMARK    4  A    between atoms: C7_7  and  C9_9 
ROOT
HETATM    1  C9  UNL     1      -5.069   6.989  15.134  1.00  0.00    -0.002 C 
HETATM    2  C10 UNL     1      -5.467   8.359  14.505  1.00  0.00     0.007 C 
HETATM    3  C11 UNL     1      -4.290   8.829  13.631  1.00  0.00     0.015 C 
HETATM    4  C12 UNL     1      -3.120   7.905  14.022  1.00  0.00    -0.013 C 
HETATM    5  C13 UNL     1      -2.502   8.521  15.319  1.00  0.00     0.021 C 
HETATM    6  C14 UNL     1      -1.966   7.749  13.036  1.00  0.00    -0.070 C 
HETATM    7  C15 UNL     1      -1.576   8.747  12.223  1.00  0.00    -0.022 C 
HETATM    8  C16 UNL     1      -0.381   8.693  11.323  1.00  0.00     0.034 C 
HETATM    9  C17 UNL     1       0.281   7.301  11.195  1.00  0.00     0.013 C 
HETATM   10  C18 UNL     1       1.664   7.352  10.445  1.00  0.00     0.018 C 
HETATM   11  C19 UNL     1       2.522   8.594  10.754  1.00  0.00     0.023 C 
HETATM   12  C20 UNL     1       1.423   7.333   8.920  1.00  0.00     0.023 C 
HETATM   13  C21 UNL     1       2.474   6.093  10.777  1.00  0.00     0.135 C 
HETATM   14  O1  UNL     1       3.702   6.055  10.712  1.00  0.00    -0.297 OA
HETATM   15  C22 UNL     1       1.685   4.859  11.111  1.00  0.00     0.080 C 
HETATM   16  C23 UNL     1       0.832   5.067  12.353  1.00  0.00     0.017 C 
HETATM   17  C24 UNL     1       0.275   6.514  12.560  1.00  0.00    -0.031 C 
HETATM   18  C25 UNL     1       1.151   7.220  13.622  1.00  0.00     0.016 C 
HETATM   19  C26 UNL     1      -1.229   6.409  13.046  1.00  0.00     0.024 C 
HETATM   20  C27 UNL     1      -1.431   5.638  14.373  1.00  0.00     0.010 C 
HETATM   21  C28 UNL     1      -2.898   5.515  14.851  1.00  0.00     0.011 C 
HETATM   22  C29 UNL     1      -3.872   6.541  14.229  1.00  0.00    -0.029 C 
HETATM   23  C30 UNL     1      -4.458   5.945  12.909  1.00  0.00     0.016 C 
ENDROOT
BRANCH   1  24
HETATM   24  C7  UNL     1      -6.300   6.049  15.326  1.00  0.00    -0.014 C 
HETATM   25  C8  UNL     1      -7.120   6.430  16.564  1.00  0.00     0.010 C 
BRANCH  24  26
HETATM   26  C6  UNL     1      -7.201   6.083  14.059  1.00  0.00     0.008 C 
BRANCH  26  27
HETATM   27  C5  UNL     1      -7.692   4.723  13.541  1.00  0.00     0.028 C 
BRANCH  27  28
HETATM   28  C4  UNL     1      -6.754   4.107  12.538  1.00  0.00    -0.025 C 
HETATM   29  C2  UNL     1      -6.672   2.819  12.151  1.00  0.00    -0.091 C 
HETATM   30  C1  UNL     1      -7.537   1.696  12.654  1.00  0.00     0.042 C 
HETATM   31  C3  UNL     1      -5.648   2.392  11.131  1.00  0.00     0.042 C 
ENDBRANCH  27  28
ENDBRANCH  26  27
ENDBRANCH  24  26
ENDBRANCH   1  24
TORSDOF 4
ENDMDL
MODEL 4
REMARK minimizedAffinity -8.70575619
REMARK  4 active torsions:
REMARK  status: ('A' for Active; 'I' for Inactive)
REMARK    1  A    between atoms: C4_4  and  C5_5 
REMARK    2  A    between atoms: C5_5  and  C6_6 
REMARK    3  A    between atoms: C6_6  and  C7_7 
REMARK    4  A    between atoms: C7_7  and  C9_9 
ROOT
HETATM    1  C9  UNL     1      -3.745   6.183  12.836  1.00  0.00    -0.002 C 
HETATM    2  C10 UNL     1      -2.265   5.728  12.656  1.00  0.00     0.007 C 
HETATM    3  C11 UNL     1      -1.379   6.694  13.465  1.00  0.00     0.015 C 
HETATM    4  C12 UNL     1      -2.310   7.869  13.823  1.00  0.00    -0.013 C 
HETATM    5  C13 UNL     1      -2.321   8.805  12.571  1.00  0.00     0.021 C 
HETATM    6  C14 UNL     1      -1.930   8.751  15.008  1.00  0.00    -0.070 C 
HETATM    7  C15 UNL     1      -0.650   8.996  15.340  1.00  0.00    -0.022 C 
HETATM    8  C16 UNL     1      -0.218   9.944  16.415  1.00  0.00     0.034 C 
HETATM    9  C17 UNL     1      -1.355  10.479  17.316  1.00  0.00     0.013 C 
HETATM   10  C18 UNL     1      -0.887  11.650  18.257  1.00  0.00     0.018 C 
HETATM   11  C19 UNL     1       0.124  12.625  17.623  1.00  0.00     0.023 C 
HETATM   12  C20 UNL     1      -0.220  11.060  19.519  1.00  0.00     0.023 C 
HETATM   13  C21 UNL     1      -2.108  12.443  18.736  1.00  0.00     0.135 C 
HETATM   14  O1  UNL     1      -2.041  13.618  19.095  1.00  0.00    -0.297 OA
HETATM   15  C22 UNL     1      -3.402  11.685  18.831  1.00  0.00     0.080 C 
HETATM   16  C23 UNL     1      -3.835  11.158  17.472  1.00  0.00     0.017 C 
HETATM   17  C24 UNL     1      -2.678  10.747  16.504  1.00  0.00    -0.031 C 
HETATM   18  C25 UNL     1      -2.486  11.884  15.472  1.00  0.00     0.016 C 
HETATM   19  C26 UNL     1      -3.081   9.394  15.784  1.00  0.00     0.024 C 
HETATM   20  C27 UNL     1      -4.384   9.463  14.952  1.00  0.00     0.010 C 
HETATM   21  C28 UNL     1      -4.797   8.143  14.257  1.00  0.00     0.011 C 
HETATM   22  C29 UNL     1      -3.659   7.110  14.095  1.00  0.00    -0.029 C 
HETATM   23  C30 UNL     1      -3.618   6.200  15.365  1.00  0.00     0.016 C 
ENDROOT
BRANCH   1  24
HETATM   24  C7  UNL     1      -4.739   4.981  12.815  1.00  0.00    -0.014 C 
HETATM   25  C8  UNL     1      -4.005   3.635  12.832  1.00  0.00     0.010 C 
BRANCH  24  26
HETATM   26  C6  UNL     1      -5.713   5.072  14.024  1.00  0.00     0.008 C 
BRANCH  26  27
HETATM   27  C5  UNL     1      -7.107   4.460  13.817  1.00  0.00     0.028 C 
BRANCH  27  28
HETATM   28  C4  UNL     1      -7.768   4.928  12.549  1.00  0.00    -0.025 C 
HETATM   29  C2  UNL     1      -8.797   5.787  12.411  1.00  0.00    -0.091 C 
HETATM   30  C1  UNL     1      -9.515   6.484  13.534  1.00  0.00     0.042 C 
HETATM   31  C3  UNL     1      -9.329   6.126  11.041  1.00  0.00     0.042 C 
ENDBRANCH  27  28
ENDBRANCH  26  27
ENDBRANCH  24  26
ENDBRANCH   1  24
TORSDOF 4
ENDMDL
MODEL 5
REMARK minimizedAffinity -8.57562542
REMARK  4 active torsions:
REMARK  status: ('A' for Active; 'I' for Inactive)
REMARK    1  A    between atoms: C4_4  and  C5_5 
REMARK    2  A    between atoms: C5_5  and  C6_6 
REMARK    3  A    between atoms: C6_6  and  C7_7 
REMARK    4  A    between atoms: C7_7  and  C9_9 
ROOT
HETATM    1  C9  UNL     1      -1.047   5.879  11.671  1.00  0.00    -0.002 C 
HETATM    2  C10 UNL     1       0.501   6.058  11.643  1.00  0.00     0.007 C 
HETATM    3  C11 UNL     1       0.855   7.190  12.626  1.00  0.00     0.015 C 
HETATM    4  C12 UNL     1      -0.494   7.860  12.952  1.00  0.00    -0.013 C 
HETATM    5  C13 UNL     1      -0.772   8.859  11.781  1.00  0.00     0.021 C 
HETATM    6  C14 UNL     1      -0.600   8.675  14.237  1.00  0.00    -0.070 C 
HETATM    7  C15 UNL     1       0.442   9.357  14.744  1.00  0.00    -0.022 C 
HETATM    8  C16 UNL     1       0.368  10.265  15.931  1.00  0.00     0.034 C 
HETATM    9  C17 UNL     1      -0.960  10.206  16.720  1.00  0.00     0.013 C 
HETATM   10  C18 UNL     1      -1.081  11.347  17.798  1.00  0.00     0.018 C 
HETATM   11  C19 UNL     1      -0.493  12.706  17.368  1.00  0.00     0.023 C 
HETATM   12  C20 UNL     1      -0.343  10.919  19.085  1.00  0.00     0.023 C 
HETATM   13  C21 UNL     1      -2.552  11.541  18.179  1.00  0.00     0.135 C 
HETATM   14  O1  UNL     1      -2.991  12.598  18.629  1.00  0.00    -0.297 OA
HETATM   15  C22 UNL     1      -3.440  10.334  18.055  1.00  0.00     0.080 C 
HETATM   16  C23 UNL     1      -3.509   9.844  16.617  1.00  0.00     0.017 C 
HETATM   17  C24 UNL     1      -2.207  10.032  15.772  1.00  0.00    -0.031 C 
HETATM   18  C25 UNL     1      -2.398  11.267  14.860  1.00  0.00     0.016 C 
HETATM   19  C26 UNL     1      -1.973   8.723  14.910  1.00  0.00     0.024 C 
HETATM   20  C27 UNL     1      -3.120   8.378  13.929  1.00  0.00     0.010 C 
HETATM   21  C28 UNL     1      -2.911   7.093  13.092  1.00  0.00     0.011 C 
HETATM   22  C29 UNL     1      -1.446   6.611  12.997  1.00  0.00    -0.029 C 
HETATM   23  C30 UNL     1      -1.152   5.645  14.190  1.00  0.00     0.016 C 
ENDROOT
BRANCH   1  24
HETATM   24  C7  UNL     1      -1.472   4.396  11.437  1.00  0.00    -0.014 C 
HETATM   25  C8  UNL     1      -0.385   3.413  11.885  1.00  0.00     0.010 C 
BRANCH  24  26
HETATM   26  C6  UNL     1      -2.802   4.097  12.187  1.00  0.00     0.008 C 
BRANCH  26  27
HETATM   27  C5  UNL     1      -3.950   3.537  11.332  1.00  0.00     0.028 C 
BRANCH  27  28
HETATM   28  C4  UNL     1      -5.271   3.543  12.053  1.00  0.00    -0.025 C 
HETATM   29  C2  UNL     1      -6.230   2.597  12.048  1.00  0.00    -0.091 C 
HETATM   30  C1  UNL     1      -6.172   1.293  11.301  1.00  0.00     0.042 C 
HETATM   31  C3  UNL     1      -7.501   2.795  12.835  1.00  0.00     0.042 C 
ENDBRANCH  27  28
ENDBRANCH  26  27
ENDBRANCH  24  26
ENDBRANCH   1  24
TORSDOF 4
ENDMDL
MODEL 6
REMARK minimizedAffinity -8.55605698
REMARK  4 active torsions:
REMARK  status: ('A' for Active; 'I' for Inactive)
REMARK    1  A    between atoms: C4_4  and  C5_5 
REMARK    2  A    between atoms: C5_5  and  C6_6 
REMARK    3  A    between atoms: C6_6  and  C7_7 
REMARK    4  A    between atoms: C7_7  and  C9_9 
ROOT
HETATM    1  C9  UNL     1      -3.240   6.790  14.303  1.00  0.00    -0.002 C 
HETATM    2  C10 UNL     1      -3.497   5.525  13.429  1.00  0.00     0.007 C 
HETATM    3  C11 UNL     1      -5.022   5.359  13.289  1.00  0.00     0.015 C 
HETATM    4  C12 UNL     1      -5.617   6.319  14.338  1.00  0.00    -0.013 C 
HETATM    5  C13 UNL     1      -5.581   5.546  15.696  1.00  0.00     0.021 C 
HETATM    6  C14 UNL     1      -7.058   6.783  14.153  1.00  0.00    -0.070 C 
HETATM    7  C15 UNL     1      -7.997   6.004  13.587  1.00  0.00    -0.022 C 
HETATM    8  C16 UNL     1      -9.448   6.357  13.486  1.00  0.00     0.034 C 
HETATM    9  C17 UNL     1      -9.797   7.813  13.872  1.00  0.00     0.013 C 
HETATM   10  C18 UNL     1     -11.348   8.058  13.988  1.00  0.00     0.018 C 
HETATM   11  C19 UNL     1     -12.144   6.883  14.589  1.00  0.00     0.023 C 
HETATM   12  C20 UNL     1     -11.931   8.332  12.585  1.00  0.00     0.023 C 
HETATM   13  C21 UNL     1     -11.608   9.315  14.825  1.00  0.00     0.135 C 
HETATM   14  O1  UNL     1     -12.658   9.501  15.438  1.00  0.00    -0.297 OA
HETATM   15  C22 UNL     1     -10.538  10.370  14.798  1.00  0.00     0.080 C 
HETATM   16  C23 UNL     1      -9.226   9.841  15.355  1.00  0.00     0.017 C 
HETATM   17  C24 UNL     1      -8.935   8.328  15.086  1.00  0.00    -0.031 C 
HETATM   18  C25 UNL     1      -9.253   7.538  16.378  1.00  0.00     0.016 C 
HETATM   19  C26 UNL     1      -7.408   8.172  14.690  1.00  0.00     0.024 C 
HETATM   20  C27 UNL     1      -6.405   8.656  15.765  1.00  0.00     0.010 C 
HETATM   21  C28 UNL     1      -4.911   8.523  15.384  1.00  0.00     0.011 C 
HETATM   22  C29 UNL     1      -4.619   7.529  14.238  1.00  0.00    -0.029 C 
HETATM   23  C30 UNL     1      -4.697   8.290  12.875  1.00  0.00     0.016 C 
ENDROOT
BRANCH   1  24
HETATM   24  C7  UNL     1      -1.932   7.534  13.890  1.00  0.00    -0.014 C 
HETATM   25  C8  UNL     1      -0.880   7.499  15.005  1.00  0.00     0.010 C 
BRANCH  24  26
HETATM   26  C6  UNL     1      -1.350   6.911  12.590  1.00  0.00     0.008 C 
BRANCH  26  27
HETATM   27  C5  UNL     1      -0.660   7.884  11.622  1.00  0.00     0.028 C 
BRANCH  27  28
HETATM   28  C4  UNL     1       0.489   7.256  10.881  1.00  0.00    -0.025 C 
HETATM   29  C2  UNL     1       0.851   7.432   9.596  1.00  0.00    -0.091 C 
HETATM   30  C1  UNL     1       0.161   8.329   8.605  1.00  0.00     0.042 C 
HETATM   31  C3  UNL     1       2.040   6.697   9.030  1.00  0.00     0.042 C 
ENDBRANCH  27  28
ENDBRANCH  26  27
ENDBRANCH  24  26
ENDBRANCH   1  24
TORSDOF 4
ENDMDL
MODEL 7
REMARK minimizedAffinity -8.51006889
REMARK  4 active torsions:
REMARK  status: ('A' for Active; 'I' for Inactive)
REMARK    1  A    between atoms: C4_4  and  C5_5 
REMARK    2  A    between atoms: C5_5  and  C6_6 
REMARK    3  A    between atoms: C6_6  and  C7_7 
REMARK    4  A    between atoms: C7_7  and  C9_9 
ROOT
HETATM    1  C9  UNL     1      -4.479   5.600  14.140  1.00  0.00    -0.002 C 
HETATM    2  C10 UNL     1      -5.147   4.501  13.260  1.00  0.00     0.007 C 
HETATM    3  C11 UNL     1      -6.655   4.809  13.196  1.00  0.00     0.015 C 
HETATM    4  C12 UNL     1      -6.882   5.870  14.291  1.00  0.00    -0.013 C 
HETATM    5  C13 UNL     1      -7.023   5.080  15.633  1.00  0.00     0.021 C 
HETATM    6  C14 UNL     1      -8.122   6.754  14.189  1.00  0.00    -0.070 C 
HETATM    7  C15 UNL     1      -9.277   6.314  13.660  1.00  0.00    -0.022 C 
HETATM    8  C16 UNL     1     -10.555   7.093  13.640  1.00  0.00     0.034 C 
HETATM    9  C17 UNL     1     -10.427   8.573  14.068  1.00  0.00     0.013 C 
HETATM   10  C18 UNL     1     -11.824   9.272  14.269  1.00  0.00     0.018 C 
HETATM   11  C19 UNL     1     -12.912   8.375  14.891  1.00  0.00     0.023 C 
HETATM   12  C20 UNL     1     -12.358   9.754  12.902  1.00  0.00     0.023 C 
HETATM   13  C21 UNL     1     -11.652  10.521  15.139  1.00  0.00     0.135 C 
HETATM   14  O1  UNL     1     -12.568  10.997  15.809  1.00  0.00    -0.297 OA
HETATM   15  C22 UNL     1     -10.315  11.203  15.074  1.00  0.00     0.080 C 
HETATM   16  C23 UNL     1      -9.202  10.285  15.553  1.00  0.00     0.017 C 
HETATM   17  C24 UNL     1      -9.396   8.764  15.244  1.00  0.00    -0.031 C 
HETATM   18  C25 UNL     1      -9.882   8.067  16.538  1.00  0.00     0.016 C 
HETATM   19  C26 UNL     1      -8.009   8.166  14.767  1.00  0.00     0.024 C 
HETATM   20  C27 UNL     1      -6.859   8.289  15.796  1.00  0.00     0.010 C 
HETATM   21  C28 UNL     1      -5.495   7.723  15.335  1.00  0.00     0.011 C 
HETATM   22  C29 UNL     1      -5.569   6.724  14.159  1.00  0.00    -0.029 C 
HETATM   23  C30 UNL     1      -5.473   7.516  12.815  1.00  0.00     0.016 C 
ENDROOT
BRANCH   1  24
HETATM   24  C7  UNL     1      -3.026   5.926  13.673  1.00  0.00    -0.014 C 
HETATM   25  C8  UNL     1      -2.019   5.820  14.823  1.00  0.00     0.010 C 
BRANCH  24  26
HETATM   26  C6  UNL     1      -2.612   4.976  12.513  1.00  0.00     0.008 C 
BRANCH  26  27
HETATM   27  C5  UNL     1      -1.105   4.726  12.348  1.00  0.00     0.028 C 
BRANCH  27  28
HETATM   28  C4  UNL     1      -0.802   3.436  11.635  1.00  0.00    -0.025 C 
HETATM   29  C2  UNL     1      -1.629   2.400  11.393  1.00  0.00    -0.091 C 
HETATM   30  C1  UNL     1      -3.076   2.321  11.795  1.00  0.00     0.042 C 
HETATM   31  C3  UNL     1      -1.129   1.179  10.663  1.00  0.00     0.042 C 
ENDBRANCH  27  28
ENDBRANCH  26  27
ENDBRANCH  24  26
ENDBRANCH   1  24
TORSDOF 4
ENDMDL
MODEL 8
REMARK minimizedAffinity -8.48856068
REMARK  4 active torsions:
REMARK  status: ('A' for Active; 'I' for Inactive)
REMARK    1  A    between atoms: C4_4  and  C5_5 
REMARK    2  A    between atoms: C5_5  and  C6_6 
REMARK    3  A    between atoms: C6_6  and  C7_7 
REMARK    4  A    between atoms: C7_7  and  C9_9 
ROOT
HETATM    1  C9  UNL     1       0.555   7.787  13.127  1.00  0.00    -0.002 C 
HETATM    2  C10 UNL     1       0.668   6.607  12.113  1.00  0.00     0.007 C 
HETATM    3  C11 UNL     1      -0.681   5.864  12.113  1.00  0.00     0.015 C 
HETATM    4  C12 UNL     1      -1.428   6.410  13.345  1.00  0.00    -0.013 C 
HETATM    5  C13 UNL     1      -0.893   5.596  14.568  1.00  0.00     0.021 C 
HETATM    6  C14 UNL     1      -2.948   6.279  13.381  1.00  0.00    -0.070 C 
HETATM    7  C15 UNL     1      -3.593   5.245  12.812  1.00  0.00    -0.022 C 
HETATM    8  C16 UNL     1      -5.066   5.001  12.916  1.00  0.00     0.034 C 
HETATM    9  C17 UNL     1      -5.880   6.158  13.540  1.00  0.00     0.013 C 
HETATM   10  C18 UNL     1      -7.370   5.756  13.853  1.00  0.00     0.018 C 
HETATM   11  C19 UNL     1      -7.557   4.313  14.361  1.00  0.00     0.023 C 
HETATM   12  C20 UNL     1      -8.221   5.902  12.572  1.00  0.00     0.023 C 
HETATM   13  C21 UNL     1      -7.958   6.726  14.883  1.00  0.00     0.135 C 
HETATM   14  O1  UNL     1      -8.893   6.424  15.624  1.00  0.00    -0.297 OA
HETATM   15  C22 UNL     1      -7.388   8.117  14.895  1.00  0.00     0.080 C 
HETATM   16  C23 UNL     1      -5.905   8.104  15.229  1.00  0.00     0.017 C 
HETATM   17  C24 UNL     1      -5.105   6.862  14.718  1.00  0.00    -0.031 C 
HETATM   18  C25 UNL     1      -4.896   5.898  15.910  1.00  0.00     0.016 C 
HETATM   19  C26 UNL     1      -3.714   7.360  14.145  1.00  0.00     0.024 C 
HETATM   20  C27 UNL     1      -2.819   8.104  15.165  1.00  0.00     0.010 C 
HETATM   21  C28 UNL     1      -1.465   8.610  14.614  1.00  0.00     0.011 C 
HETATM   22  C29 UNL     1      -0.994   7.920  13.313  1.00  0.00    -0.029 C 
HETATM   23  C30 UNL     1      -1.564   8.707  12.089  1.00  0.00     0.016 C 
ENDROOT
BRANCH   1  24
HETATM   24  C7  UNL     1       1.401   9.023  12.689  1.00  0.00    -0.014 C 
HETATM   25  C8  UNL     1       1.793   9.897  13.885  1.00  0.00     0.010 C 
BRANCH  24  26
HETATM   26  C6  UNL     1       2.675   8.556  11.930  1.00  0.00     0.008 C 
BRANCH  26  27
HETATM   27  C5  UNL     1       3.963   8.463  12.763  1.00  0.00     0.028 C 
BRANCH  27  28
HETATM   28  C4  UNL     1       4.879   7.362  12.301  1.00  0.00    -0.025 C 
HETATM   29  C2  UNL     1       5.925   7.444  11.455  1.00  0.00    -0.091 C 
HETATM   30  C1  UNL     1       6.412   8.698  10.782  1.00  0.00     0.042 C 
HETATM   31  C3  UNL     1       6.722   6.213  11.106  1.00  0.00     0.042 C 
ENDBRANCH  27  28
ENDBRANCH  26  27
ENDBRANCH  24  26
ENDBRANCH   1  24
TORSDOF 4
ENDMDL
MODEL 9
REMARK minimizedAffinity -8.44361305
REMARK  4 active torsions:
REMARK  status: ('A' for Active; 'I' for Inactive)
REMARK    1  A    between atoms: C4_4  and  C5_5 
REMARK    2  A    between atoms: C5_5  and  C6_6 
REMARK    3  A    between atoms: C6_6  and  C7_7 
REMARK    4  A    between atoms: C7_7  and  C9_9 
ROOT
HETATM    1  C9  UNL     1      -1.670   6.626  13.517  1.00  0.00    -0.002 C 
HETATM    2  C10 UNL     1      -1.896   6.278  12.015  1.00  0.00     0.007 C 
HETATM    3  C11 UNL     1      -0.566   6.518  11.277  1.00  0.00     0.015 C 
HETATM    4  C12 UNL     1       0.301   7.303  12.280  1.00  0.00    -0.013 C 
HETATM    5  C13 UNL     1      -0.134   8.799  12.144  1.00  0.00     0.021 C 
HETATM    6  C14 UNL     1       1.814   7.283  12.093  1.00  0.00    -0.070 C 
HETATM    7  C15 UNL     1       2.387   7.205  10.879  1.00  0.00    -0.022 C 
HETATM    8  C16 UNL     1       3.859   7.300  10.625  1.00  0.00     0.034 C 
HETATM    9  C17 UNL     1       4.747   7.262  11.890  1.00  0.00     0.013 C 
HETATM   10  C18 UNL     1       6.251   7.613  11.590  1.00  0.00     0.018 C 
HETATM   11  C19 UNL     1       6.460   8.711  10.528  1.00  0.00     0.023 C 
HETATM   12  C20 UNL     1       6.983   6.349  11.088  1.00  0.00     0.023 C 
HETATM   13  C21 UNL     1       6.949   8.038  12.887  1.00  0.00     0.135 C 
HETATM   14  O1  UNL     1       7.942   8.763  12.903  1.00  0.00    -0.297 OA
HETATM   15  C22 UNL     1       6.406   7.453  14.161  1.00  0.00     0.080 C 
HETATM   16  C23 UNL     1       4.960   7.864  14.387  1.00  0.00     0.017 C 
HETATM   17  C24 UNL     1       4.095   8.040  13.096  1.00  0.00    -0.031 C 
HETATM   18  C25 UNL     1       3.981   9.554  12.794  1.00  0.00     0.016 C 
HETATM   19  C26 UNL     1       2.666   7.407  13.357  1.00  0.00     0.024 C 
HETATM   20  C27 UNL     1       1.882   8.037  14.534  1.00  0.00     0.010 C 
HETATM   21  C28 UNL     1       0.491   7.417  14.810  1.00  0.00     0.011 C 
HETATM   22  C29 UNL     1      -0.109   6.615  13.633  1.00  0.00    -0.029 C 
HETATM   23  C30 UNL     1       0.359   5.128  13.742  1.00  0.00     0.016 C 
ENDROOT
BRANCH   1  24
HETATM   24  C7  UNL     1      -2.532   5.734  14.465  1.00  0.00    -0.014 C 
HETATM   25  C8  UNL     1      -3.314   6.573  15.482  1.00  0.00     0.010 C 
BRANCH  24  26
HETATM   26  C6  UNL     1      -3.510   4.860  13.631  1.00  0.00     0.008 C 
BRANCH  26  27
HETATM   27  C5  UNL     1      -4.883   5.480  13.328  1.00  0.00     0.028 C 
BRANCH  27  28
HETATM   28  C4  UNL     1      -6.011   4.493  13.451  1.00  0.00    -0.025 C 
HETATM   29  C2  UNL     1      -6.354   3.504  12.602  1.00  0.00    -0.091 C 
HETATM   30  C1  UNL     1      -5.650   3.170  11.315  1.00  0.00     0.042 C 
HETATM   31  C3  UNL     1      -7.536   2.617  12.901  1.00  0.00     0.042 C 
ENDBRANCH  27  28
ENDBRANCH  26  27
ENDBRANCH  24  26
ENDBRANCH   1  24
TORSDOF 4
ENDMDL
