MODEL 1
REMARK minimizedAffinity -8.3243618
REMARK CNNscore 0.474221945
REMARK CNNaffinity 6.84909821
REMARK  12 active torsions:
REMARK  status: ('A' for Active; 'I' for Inactive)
REMARK    1  A    between atoms: C2_2  and  C3_3 
REMARK    2  A    between atoms: C2_2  and  C9_10 
REMARK    3  A    between atoms: C3_3  and  C4_4 
REMARK    4  A    between atoms: C5_5  and  C6_6 
REMARK    5  A    between atoms: C6_6  and  O1_9 
REMARK    6  A    between atoms: C27_29  and  O3_30 
REMARK    7  A    between atoms: O3_30  and  C28_31 
REMARK    8  A    between atoms: C29_33  and  C30_34 
REMARK    9  A    between atoms: C30_34  and  O5_35 
REMARK   10  A    between atoms: C31_36  and  O6_37 
REMARK   11  A    between atoms: C32_38  and  O7_39 
REMARK   12  A    between atoms: C33_40  and  O8_41 
ROOT
HETATM    1  C9  UNL     1      -3.376  14.238  19.782  1.00  0.00    -0.002 C 
HETATM    2  C10 UNL     1      -4.885  13.870  19.689  1.00  0.00     0.006 C 
HETATM    3  C11 UNL     1      -5.081  13.096  18.359  1.00  0.00     0.011 C 
HETATM    4  C12 UNL     1      -3.655  12.705  17.931  1.00  0.00    -0.029 C 
HETATM    5  C13 UNL     1      -3.297  11.452  18.799  1.00  0.00     0.016 C 
HETATM    6  C14 UNL     1      -3.440  12.411  16.412  1.00  0.00     0.028 C 
HETATM    7  C15 UNL     1      -4.265  11.249  15.897  1.00  0.00    -0.021 C 
HETATM    8  C16 UNL     1      -3.707  10.254  15.181  1.00  0.00     0.008 C 
HETATM    9  C17 UNL     1      -2.207  10.192  14.932  1.00  0.00     0.092 C 
HETATM   10  O2  UNL     1      -1.973  11.155  13.876  1.00  0.00    -0.374 OA
HETATM   11  C18 UNL     1      -1.752  12.439  14.486  1.00  0.00     0.179 C 
HETATM   12  C19 UNL     1      -1.895  12.280  16.023  1.00  0.00    -0.004 C 
HETATM   13  C20 UNL     1      -1.026  13.369  16.708  1.00  0.00     0.014 C 
HETATM   14  C21 UNL     1      -1.367  13.735  18.164  1.00  0.00     0.011 C 
HETATM   15  C22 UNL     1      -2.871  14.014  18.329  1.00  0.00    -0.032 C 
HETATM   16  C23 UNL     1      -3.230  15.258  17.465  1.00  0.00     0.016 C 
HETATM   17  C24 UNL     1      -1.474  10.788  16.164  1.00  0.00     0.036 C 
HETATM   18  C25 UNL     1       0.021  10.443  16.214  1.00  0.00     0.011 C 
HETATM   19  C26 UNL     1       0.603  10.039  14.877  1.00  0.00     0.033 C 
HETATM   20  C27 UNL     1      -0.114   8.832  14.249  1.00  0.00     0.136 C 
HETATM   21  C34 UNL     1      -1.673   8.791  14.486  1.00  0.00     0.014 C 
HETATM   22  C35 UNL     1      -2.388   8.301  13.197  1.00  0.00     0.021 C 
HETATM   23  C36 UNL     1      -1.966   7.736  15.586  1.00  0.00     0.021 C 
ENDROOT
BRANCH  20  24
HETATM   24  O3  UNL     1       0.176   8.765  12.842  1.00  0.00    -0.352 OA
BRANCH  24  25
HETATM   25  C28 UNL     1       1.428   8.152  12.522  1.00  0.00     0.292 C 
HETATM   26  O4  UNL     1       1.962   8.728  11.330  1.00  0.00    -0.348 OA
HETATM   27  C29 UNL     1       1.530   8.135  10.097  1.00  0.00     0.179 C 
HETATM   28  C31 UNL     1       1.969   6.655  10.021  1.00  0.00     0.180 C 
HETATM   29  C32 UNL     1       2.179   6.021  11.409  1.00  0.00     0.183 C 
HETATM   30  C33 UNL     1       1.228   6.616  12.439  1.00  0.00     0.204 C 
BRANCH  27  31
HETATM   31  C30 UNL     1       0.019   8.299   9.839  1.00  0.00     0.198 C 
BRANCH  31  32
HETATM   32  O5  UNL     1      -0.226   9.116   8.698  1.00  0.00    -0.398 OA
HETATM   33  H46 UNL     1      -0.296  10.038   9.025  1.00  0.00     0.209 HD
ENDBRANCH  31  32
ENDBRANCH  27  31
BRANCH  28  34
HETATM   34  O6  UNL     1       3.225   6.559   9.317  1.00  0.00    -0.390 OA
HETATM   35  H48 UNL     1       3.403   5.614   9.160  1.00  0.00     0.210 HD
ENDBRANCH  28  34
BRANCH  29  36
HETATM   36  O7  UNL     1       3.534   6.210  11.874  1.00  0.00    -0.390 OA
HETATM   37  H50 UNL     1       3.992   6.709  11.159  1.00  0.00     0.210 HD
ENDBRANCH  29  36
BRANCH  30  38
HETATM   38  O8  UNL     1       1.483   5.995  13.716  1.00  0.00    -0.388 OA
HETATM   39  H52 UNL     1       2.449   6.075  13.840  1.00  0.00     0.210 HD
ENDBRANCH  30  38
ENDBRANCH  24  25
ENDBRANCH  20  24
BRANCH   1  40
HETATM   40  C2  UNL     1      -2.981  15.518  20.577  1.00  0.00    -0.010 C 
HETATM   41  C1  UNL     1      -1.442  15.630  20.607  1.00  0.00     0.010 C 
BRANCH  40  42
HETATM   42  C3  UNL     1      -3.534  15.788  22.002  1.00  0.00     0.031 C 
BRANCH  42  43
HETATM   43  C4  UNL     1      -4.721  14.988  22.464  1.00  0.00    -0.027 C 
HETATM   44  C5  UNL     1      -5.942  15.499  22.683  1.00  0.00     0.006 C 
BRANCH  44  45
HETATM   45  C6  UNL     1      -7.172  14.762  23.163  1.00  0.00     0.068 C 
HETATM   46  C7  UNL     1      -7.104  13.235  23.070  1.00  0.00     0.050 C 
HETATM   47  C8  UNL     1      -7.483  15.165  24.608  1.00  0.00     0.050 C 
BRANCH  45  48
HETATM   48  O1  UNL     1      -8.267  15.173  22.347  1.00  0.00    -0.387 OA
HETATM   49  H15 UNL     1      -8.223  16.137  22.245  1.00  0.00     0.211 HD
ENDBRANCH  45  48
ENDBRANCH  44  45
ENDBRANCH  42  43
ENDBRANCH  40  42
ENDBRANCH   1  40
TORSDOF 12
ENDMDL
MODEL 2
REMARK minimizedAffinity -9.70691395
REMARK CNNscore 0.343675464
REMARK CNNaffinity 7.05179071
REMARK  12 active torsions:
REMARK  status: ('A' for Active; 'I' for Inactive)
REMARK    1  A    between atoms: C2_2  and  C3_3 
REMARK    2  A    between atoms: C2_2  and  C9_10 
REMARK    3  A    between atoms: C3_3  and  C4_4 
REMARK    4  A    between atoms: C5_5  and  C6_6 
REMARK    5  A    between atoms: C6_6  and  O1_9 
REMARK    6  A    between atoms: C27_29  and  O3_30 
REMARK    7  A    between atoms: O3_30  and  C28_31 
REMARK    8  A    between atoms: C29_33  and  C30_34 
REMARK    9  A    between atoms: C30_34  and  O5_35 
REMARK   10  A    between atoms: C31_36  and  O6_37 
REMARK   11  A    between atoms: C32_38  and  O7_39 
REMARK   12  A    between atoms: C33_40  and  O8_41 
ROOT
HETATM    1  C9  UNL     1      -5.529   6.490  14.923  1.00  0.00    -0.002 C 
HETATM    2  C10 UNL     1      -6.075   6.983  13.552  1.00  0.00     0.006 C 
HETATM    3  C11 UNL     1      -4.961   7.847  12.905  1.00  0.00     0.011 C 
HETATM    4  C12 UNL     1      -3.696   7.509  13.715  1.00  0.00    -0.029 C 
HETATM    5  C13 UNL     1      -3.197   6.140  13.140  1.00  0.00     0.016 C 
HETATM    6  C14 UNL     1      -2.552   8.572  13.695  1.00  0.00     0.028 C 
HETATM    7  C15 UNL     1      -1.993   8.834  12.312  1.00  0.00    -0.021 C 
HETATM    8  C16 UNL     1      -0.668   8.815  12.075  1.00  0.00     0.008 C 
HETATM    9  C17 UNL     1       0.333   8.434  13.157  1.00  0.00     0.092 C 
HETATM   10  O2  UNL     1       0.444   9.619  13.983  1.00  0.00    -0.374 OA
HETATM   11  C18 UNL     1      -0.575   9.553  14.995  1.00  0.00     0.179 C 
HETATM   12  C19 UNL     1      -1.407   8.262  14.766  1.00  0.00    -0.004 C 
HETATM   13  C20 UNL     1      -1.991   7.812  16.132  1.00  0.00     0.014 C 
HETATM   14  C21 UNL     1      -3.214   6.877  16.106  1.00  0.00     0.011 C 
HETATM   15  C22 UNL     1      -4.306   7.418  15.166  1.00  0.00    -0.032 C 
HETATM   16  C23 UNL     1      -4.802   8.780  15.734  1.00  0.00     0.016 C 
HETATM   17  C24 UNL     1      -0.320   7.378  14.087  1.00  0.00     0.036 C 
HETATM   18  C25 UNL     1       0.688   6.634  14.975  1.00  0.00     0.011 C 
HETATM   19  C26 UNL     1       2.002   7.364  15.155  1.00  0.00     0.033 C 
HETATM   20  C27 UNL     1       2.712   7.663  13.824  1.00  0.00     0.136 C 
HETATM   21  C34 UNL     1       1.750   8.033  12.629  1.00  0.00     0.014 C 
HETATM   22  C35 UNL     1       2.379   9.174  11.783  1.00  0.00     0.021 C 
HETATM   23  C36 UNL     1       1.639   6.797  11.698  1.00  0.00     0.021 C 
ENDROOT
BRANCH  20  24
HETATM   24  O3  UNL     1       3.693   8.697  14.010  1.00  0.00    -0.352 OA
BRANCH  24  25
HETATM   25  C28 UNL     1       4.596   8.470  15.096  1.00  0.00     0.292 C 
HETATM   26  O4  UNL     1       4.652   9.625  15.933  1.00  0.00    -0.348 OA
HETATM   27  C29 UNL     1       5.602  10.631  15.552  1.00  0.00     0.179 C 
HETATM   28  C31 UNL     1       7.041  10.068  15.602  1.00  0.00     0.180 C 
HETATM   29  C32 UNL     1       7.092   8.538  15.432  1.00  0.00     0.183 C 
HETATM   30  C33 UNL     1       5.973   8.045  14.522  1.00  0.00     0.204 C 
BRANCH  27  31
HETATM   31  C30 UNL     1       5.288  11.282  14.190  1.00  0.00     0.198 C 
BRANCH  31  32
HETATM   32  O5  UNL     1       6.080  10.717  13.150  1.00  0.00    -0.398 OA
HETATM   33  H46 UNL     1       6.895  11.259  13.095  1.00  0.00     0.209 HD
ENDBRANCH  31  32
ENDBRANCH  27  31
BRANCH  28  34
HETATM   34  O6  UNL     1       7.634  10.372  16.882  1.00  0.00    -0.390 OA
HETATM   35  H48 UNL     1       8.578  10.134  16.833  1.00  0.00     0.210 HD
ENDBRANCH  28  34
BRANCH  29  36
HETATM   36  O7  UNL     1       6.978   7.864  16.704  1.00  0.00    -0.390 OA
HETATM   37  H50 UNL     1       6.899   8.578  17.377  1.00  0.00     0.210 HD
ENDBRANCH  29  36
BRANCH  30  38
HETATM   38  O8  UNL     1       6.065   6.610  14.414  1.00  0.00    -0.388 OA
HETATM   39  H52 UNL     1       6.116   6.296  15.339  1.00  0.00     0.210 HD
ENDBRANCH  30  38
ENDBRANCH  24  25
ENDBRANCH  20  24
BRANCH   1  40
HETATM   40  C2  UNL     1      -6.553   6.203  16.061  1.00  0.00    -0.010 C 
HETATM   41  C1  UNL     1      -7.379   4.955  15.684  1.00  0.00     0.010 C 
BRANCH  40  42
HETATM   42  C3  UNL     1      -7.514   7.305  16.581  1.00  0.00     0.031 C 
BRANCH  42  43
HETATM   43  C4  UNL     1      -8.646   7.736  15.690  1.00  0.00    -0.027 C 
HETATM   44  C5  UNL     1      -9.642   6.932  15.285  1.00  0.00     0.006 C 
BRANCH  44  45
HETATM   45  C6  UNL     1     -10.798   7.289  14.378  1.00  0.00     0.068 C 
HETATM   46  C7  UNL     1     -11.249   8.752  14.430  1.00  0.00     0.050 C 
HETATM   47  C8  UNL     1     -10.451   6.920  12.932  1.00  0.00     0.050 C 
BRANCH  45  48
HETATM   48  O1  UNL     1     -11.918   6.502  14.777  1.00  0.00    -0.387 OA
HETATM   49  H15 UNL     1     -11.610   5.593  14.924  1.00  0.00     0.211 HD
ENDBRANCH  45  48
ENDBRANCH  44  45
ENDBRANCH  42  43
ENDBRANCH  40  42
ENDBRANCH   1  40
TORSDOF 12
ENDMDL
MODEL 3
REMARK minimizedAffinity -8.11487675
REMARK CNNscore 0.339920253
REMARK CNNaffinity 6.84912825
REMARK  12 active torsions:
REMARK  status: ('A' for Active; 'I' for Inactive)
REMARK    1  A    between atoms: C2_2  and  C3_3 
REMARK    2  A    between atoms: C2_2  and  C9_10 
REMARK    3  A    between atoms: C3_3  and  C4_4 
REMARK    4  A    between atoms: C5_5  and  C6_6 
REMARK    5  A    between atoms: C6_6  and  O1_9 
REMARK    6  A    between atoms: C27_29  and  O3_30 
REMARK    7  A    between atoms: O3_30  and  C28_31 
REMARK    8  A    between atoms: C29_33  and  C30_34 
REMARK    9  A    between atoms: C30_34  and  O5_35 
REMARK   10  A    between atoms: C31_36  and  O6_37 
REMARK   11  A    between atoms: C32_38  and  O7_39 
REMARK   12  A    between atoms: C33_40  and  O8_41 
ROOT
HETATM    1  C9  UNL     1      -4.857   6.453  14.426  1.00  0.00    -0.002 C 
HETATM    2  C10 UNL     1      -3.558   5.792  13.883  1.00  0.00     0.006 C 
HETATM    3  C11 UNL     1      -2.422   6.838  14.030  1.00  0.00     0.011 C 
HETATM    4  C12 UNL     1      -2.997   7.894  14.991  1.00  0.00    -0.029 C 
HETATM    5  C13 UNL     1      -2.837   7.274  16.422  1.00  0.00     0.016 C 
HETATM    6  C14 UNL     1      -2.357   9.317  14.926  1.00  0.00     0.028 C 
HETATM    7  C15 UNL     1      -0.881   9.334  15.268  1.00  0.00    -0.021 C 
HETATM    8  C16 UNL     1      -0.378  10.203  16.165  1.00  0.00     0.008 C 
HETATM    9  C17 UNL     1      -1.274  11.148  16.953  1.00  0.00     0.092 C 
HETATM   10  O2  UNL     1      -1.592  12.210  16.022  1.00  0.00    -0.374 OA
HETATM   11  C18 UNL     1      -2.763  11.820  15.284  1.00  0.00     0.179 C 
HETATM   12  C19 UNL     1      -3.186  10.403  15.755  1.00  0.00    -0.004 C 
HETATM   13  C20 UNL     1      -4.717  10.257  15.542  1.00  0.00     0.014 C 
HETATM   14  C21 UNL     1      -5.288   8.829  15.465  1.00  0.00     0.011 C 
HETATM   15  C22 UNL     1      -4.486   7.962  14.479  1.00  0.00    -0.032 C 
HETATM   16  C23 UNL     1      -4.642   8.577  13.057  1.00  0.00     0.016 C 
HETATM   17  C24 UNL     1      -2.633  10.443  17.210  1.00  0.00     0.036 C 
HETATM   18  C25 UNL     1      -3.476  11.116  18.303  1.00  0.00     0.011 C 
HETATM   19  C26 UNL     1      -3.095  12.556  18.572  1.00  0.00     0.033 C 
HETATM   20  C27 UNL     1      -1.621  12.724  18.976  1.00  0.00     0.136 C 
HETATM   21  C34 UNL     1      -0.618  11.758  18.235  1.00  0.00     0.014 C 
HETATM   22  C35 UNL     1       0.689  12.524  17.888  1.00  0.00     0.021 C 
HETATM   23  C36 UNL     1      -0.222  10.625  19.219  1.00  0.00     0.021 C 
ENDROOT
BRANCH  20  24
HETATM   24  O3  UNL     1      -1.215  14.092  18.800  1.00  0.00    -0.352 OA
BRANCH  24  25
HETATM   25  C28 UNL     1      -1.278  14.887  19.988  1.00  0.00     0.292 C 
HETATM   26  O4  UNL     1      -2.333  15.843  19.878  1.00  0.00    -0.348 OA
HETATM   27  C29 UNL     1      -1.991  17.085  19.247  1.00  0.00     0.179 C 
HETATM   28  C31 UNL     1      -0.902  17.827  20.056  1.00  0.00     0.180 C 
HETATM   29  C32 UNL     1      -0.043  16.878  20.912  1.00  0.00     0.183 C 
HETATM   30  C33 UNL     1       0.115  15.518  20.243  1.00  0.00     0.204 C 
BRANCH  27  31
HETATM   31  C30 UNL     1      -1.597  16.927  17.765  1.00  0.00     0.198 C 
BRANCH  31  32
HETATM   32  O5  UNL     1      -2.555  16.149  17.053  1.00  0.00    -0.398 OA
HETATM   33  H46 UNL     1      -2.258  15.217  17.116  1.00  0.00     0.209 HD
ENDBRANCH  31  32
ENDBRANCH  27  31
BRANCH  28  34
HETATM   34  O6  UNL     1      -1.526  18.764  20.958  1.00  0.00    -0.390 OA
HETATM   35  H48 UNL     1      -0.820  19.313  21.347  1.00  0.00     0.210 HD
ENDBRANCH  28  34
BRANCH  29  36
HETATM   36  O7  UNL     1      -0.623  16.679  22.220  1.00  0.00    -0.390 OA
HETATM   37  H50 UNL     1      -1.444  17.222  22.231  1.00  0.00     0.210 HD
ENDBRANCH  29  36
BRANCH  30  38
HETATM   38  O8  UNL     1       0.915  14.674  21.096  1.00  0.00    -0.388 OA
HETATM   39  H52 UNL     1       0.489  14.739  21.975  1.00  0.00     0.210 HD
ENDBRANCH  30  38
ENDBRANCH  24  25
ENDBRANCH  20  24
BRANCH   1  40
HETATM   40  C2  UNL     1      -6.221   5.986  13.836  1.00  0.00    -0.010 C 
HETATM   41  C1  UNL     1      -7.315   6.992  14.253  1.00  0.00     0.010 C 
BRANCH  40  42
HETATM   42  C3  UNL     1      -6.749   4.544  14.064  1.00  0.00     0.031 C 
BRANCH  42  43
HETATM   43  C4  UNL     1      -6.456   3.509  13.012  1.00  0.00    -0.027 C 
HETATM   44  C5  UNL     1      -5.251   3.310  12.457  1.00  0.00     0.006 C 
BRANCH  44  45
HETATM   45  C6  UNL     1      -4.888   2.307  11.386  1.00  0.00     0.068 C 
HETATM   46  C7  UNL     1      -3.574   1.551  11.609  1.00  0.00     0.050 C 
HETATM   47  C8  UNL     1      -6.027   1.297  11.218  1.00  0.00     0.050 C 
BRANCH  45  48
HETATM   48  O1  UNL     1      -4.746   3.019  10.159  1.00  0.00    -0.387 OA
HETATM   49  H15 UNL     1      -5.487   3.641  10.084  1.00  0.00     0.211 HD
ENDBRANCH  45  48
ENDBRANCH  44  45
ENDBRANCH  42  43
ENDBRANCH  40  42
ENDBRANCH   1  40
TORSDOF 12
ENDMDL
MODEL 4
REMARK minimizedAffinity -9.54035568
REMARK CNNscore 0.317242354
REMARK CNNaffinity 6.84730577
REMARK  12 active torsions:
REMARK  status: ('A' for Active; 'I' for Inactive)
REMARK    1  A    between atoms: C2_2  and  C3_3 
REMARK    2  A    between atoms: C2_2  and  C9_10 
REMARK    3  A    between atoms: C3_3  and  C4_4 
REMARK    4  A    between atoms: C5_5  and  C6_6 
REMARK    5  A    between atoms: C6_6  and  O1_9 
REMARK    6  A    between atoms: C27_29  and  O3_30 
REMARK    7  A    between atoms: O3_30  and  C28_31 
REMARK    8  A    between atoms: C29_33  and  C30_34 
REMARK    9  A    between atoms: C30_34  and  O5_35 
REMARK   10  A    between atoms: C31_36  and  O6_37 
REMARK   11  A    between atoms: C32_38  and  O7_39 
REMARK   12  A    between atoms: C33_40  and  O8_41 
ROOT
HETATM    1  C9  UNL     1      -3.182   7.788  14.050  1.00  0.00    -0.002 C 
HETATM    2  C10 UNL     1      -3.393   8.172  15.542  1.00  0.00     0.006 C 
HETATM    3  C11 UNL     1      -1.984   8.309  16.178  1.00  0.00     0.011 C 
HETATM    4  C12 UNL     1      -1.028   8.389  14.974  1.00  0.00    -0.029 C 
HETATM    5  C13 UNL     1      -1.126   9.870  14.472  1.00  0.00     0.016 C 
HETATM    6  C14 UNL     1       0.458   7.987  15.238  1.00  0.00     0.028 C 
HETATM    7  C15 UNL     1       1.150   8.864  16.262  1.00  0.00    -0.021 C 
HETATM    8  C16 UNL     1       2.352   9.417  16.016  1.00  0.00     0.008 C 
HETATM    9  C17 UNL     1       3.037   9.273  14.664  1.00  0.00     0.092 C 
HETATM   10  O2  UNL     1       3.595   7.937  14.679  1.00  0.00    -0.374 OA
HETATM   11  C18 UNL     1       2.591   7.030  14.193  1.00  0.00     0.179 C 
HETATM   12  C19 UNL     1       1.304   7.843  13.890  1.00  0.00    -0.004 C 
HETATM   13  C20 UNL     1       0.512   7.104  12.779  1.00  0.00     0.014 C 
HETATM   14  C21 UNL     1      -0.989   7.421  12.648  1.00  0.00     0.011 C 
HETATM   15  C22 UNL     1      -1.696   7.334  14.012  1.00  0.00    -0.032 C 
HETATM   16  C23 UNL     1      -1.598   5.863  14.515  1.00  0.00     0.016 C 
HETATM   17  C24 UNL     1       1.948   9.222  13.560  1.00  0.00     0.036 C 
HETATM   18  C25 UNL     1       2.496   9.462  12.145  1.00  0.00     0.011 C 
HETATM   19  C26 UNL     1       3.984   9.215  12.015  1.00  0.00     0.033 C 
HETATM   20  C27 UNL     1       4.824  10.075  12.973  1.00  0.00     0.136 C 
HETATM   21  C34 UNL     1       4.176  10.310  14.392  1.00  0.00     0.014 C 
HETATM   22  C35 UNL     1       5.274  10.241  15.489  1.00  0.00     0.021 C 
HETATM   23  C36 UNL     1       3.602  11.751  14.427  1.00  0.00     0.021 C 
ENDROOT
BRANCH  20  24
HETATM   24  O3  UNL     1       6.140   9.512  13.115  1.00  0.00    -0.352 OA
BRANCH  24  25
HETATM   25  C28 UNL     1       6.538   9.267  14.466  1.00  0.00     0.292 C 
HETATM   26  O4  UNL     1       7.433  10.291  14.902  1.00  0.00    -0.348 OA
HETATM   27  C29 UNL     1       8.822  10.076  14.614  1.00  0.00     0.179 C 
HETATM   28  C31 UNL     1       9.337   8.806  15.329  1.00  0.00     0.180 C 
HETATM   29  C32 UNL     1       8.217   7.793  15.630  1.00  0.00     0.183 C 
HETATM   30  C33 UNL     1       7.129   7.837  14.564  1.00  0.00     0.204 C 
BRANCH  27  31
HETATM   31  C30 UNL     1       9.134  10.052  13.104  1.00  0.00     0.198 C 
BRANCH  31  32
HETATM   32  O5  UNL     1      10.517   9.806  12.864  1.00  0.00    -0.398 OA
HETATM   33  H46 UNL     1      10.953  10.683  12.826  1.00  0.00     0.209 HD
ENDBRANCH  31  32
ENDBRANCH  27  31
BRANCH  28  34
HETATM   34  O6  UNL     1       9.931   9.170  16.592  1.00  0.00    -0.390 OA
HETATM   35  H48 UNL     1      10.370   8.377  16.951  1.00  0.00     0.210 HD
ENDBRANCH  28  34
BRANCH  29  36
HETATM   36  O7  UNL     1       7.608   8.050  16.915  1.00  0.00    -0.390 OA
HETATM   37  H50 UNL     1       8.084   8.829  17.283  1.00  0.00     0.210 HD
ENDBRANCH  29  36
BRANCH  30  38
HETATM   38  O8  UNL     1       6.106   6.881  14.909  1.00  0.00    -0.388 OA
HETATM   39  H52 UNL     1       5.885   7.082  15.840  1.00  0.00     0.210 HD
ENDBRANCH  30  38
ENDBRANCH  24  25
ENDBRANCH  20  24
BRANCH   1  40
HETATM   40  C2  UNL     1      -4.291   6.953  13.343  1.00  0.00    -0.010 C 
HETATM   41  C1  UNL     1      -5.582   7.797  13.274  1.00  0.00     0.010 C 
BRANCH  40  42
HETATM   42  C3  UNL     1      -4.651   5.520  13.818  1.00  0.00     0.031 C 
BRANCH  42  43
HETATM   43  C4  UNL     1      -4.327   4.370  12.905  1.00  0.00    -0.027 C 
HETATM   44  C5  UNL     1      -5.243   3.623  12.269  1.00  0.00     0.006 C 
BRANCH  44  45
HETATM   45  C6  UNL     1      -4.993   2.445  11.356  1.00  0.00     0.068 C 
HETATM   46  C7  UNL     1      -3.691   1.679  11.610  1.00  0.00     0.050 C 
HETATM   47  C8  UNL     1      -6.173   1.472  11.433  1.00  0.00     0.050 C 
BRANCH  45  48
HETATM   48  O1  UNL     1      -4.919   2.943  10.021  1.00  0.00    -0.387 OA
HETATM   49  H15 UNL     1      -5.643   3.577   9.896  1.00  0.00     0.211 HD
ENDBRANCH  45  48
ENDBRANCH  44  45
ENDBRANCH  42  43
ENDBRANCH  40  42
ENDBRANCH   1  40
TORSDOF 12
ENDMDL
MODEL 5
REMARK minimizedAffinity -7.77077484
REMARK CNNscore 0.280021995
REMARK CNNaffinity 6.4449687
REMARK  12 active torsions:
REMARK  status: ('A' for Active; 'I' for Inactive)
REMARK    1  A    between atoms: C2_2  and  C3_3 
REMARK    2  A    between atoms: C2_2  and  C9_10 
REMARK    3  A    between atoms: C3_3  and  C4_4 
REMARK    4  A    between atoms: C5_5  and  C6_6 
REMARK    5  A    between atoms: C6_6  and  O1_9 
REMARK    6  A    between atoms: C27_29  and  O3_30 
REMARK    7  A    between atoms: O3_30  and  C28_31 
REMARK    8  A    between atoms: C29_33  and  C30_34 
REMARK    9  A    between atoms: C30_34  and  O5_35 
REMARK   10  A    between atoms: C31_36  and  O6_37 
REMARK   11  A    between atoms: C32_38  and  O7_39 
REMARK   12  A    between atoms: C33_40  and  O8_41 
ROOT
HETATM    1  C9  UNL     1      -1.693   6.082  12.169  1.00  0.00    -0.002 C 
HETATM    2  C10 UNL     1      -3.100   5.524  12.528  1.00  0.00     0.006 C 
HETATM    3  C11 UNL     1      -3.574   6.274  13.800  1.00  0.00     0.011 C 
HETATM    4  C12 UNL     1      -2.631   7.486  13.903  1.00  0.00    -0.029 C 
HETATM    5  C13 UNL     1      -3.194   8.529  12.878  1.00  0.00     0.016 C 
HETATM    6  C14 UNL     1      -2.472   8.126  15.318  1.00  0.00     0.028 C 
HETATM    7  C15 UNL     1      -3.766   8.672  15.886  1.00  0.00    -0.021 C 
HETATM    8  C16 UNL     1      -3.842   9.917  16.391  1.00  0.00     0.008 C 
HETATM    9  C17 UNL     1      -2.663  10.878  16.331  1.00  0.00     0.092 C 
HETATM   10  O2  UNL     1      -1.785  10.442  17.397  1.00  0.00    -0.374 OA
HETATM   11  C18 UNL     1      -0.907   9.435  16.867  1.00  0.00     0.179 C 
HETATM   12  C19 UNL     1      -1.283   9.193  15.380  1.00  0.00    -0.004 C 
HETATM   13  C20 UNL     1      -0.016   8.700  14.632  1.00  0.00     0.014 C 
HETATM   14  C21 UNL     1      -0.225   7.941  13.308  1.00  0.00     0.011 C 
HETATM   15  C22 UNL     1      -1.268   6.822  13.468  1.00  0.00    -0.032 C 
HETATM   16  C23 UNL     1      -0.713   5.785  14.489  1.00  0.00     0.016 C 
HETATM   17  C24 UNL     1      -1.860  10.597  15.033  1.00  0.00     0.036 C 
HETATM   18  C25 UNL     1      -0.886  11.724  14.659  1.00  0.00     0.011 C 
HETATM   19  C26 UNL     1      -0.521  12.630  15.816  1.00  0.00     0.033 C 
HETATM   20  C27 UNL     1      -1.744  13.293  16.469  1.00  0.00     0.136 C 
HETATM   21  C34 UNL     1      -3.031  12.383  16.542  1.00  0.00     0.014 C 
HETATM   22  C35 UNL     1      -3.751  12.601  17.902  1.00  0.00     0.021 C 
HETATM   23  C36 UNL     1      -4.016  12.850  15.438  1.00  0.00     0.021 C 
ENDROOT
BRANCH  20  24
HETATM   24  O3  UNL     1      -1.401  13.775  17.780  1.00  0.00    -0.352 OA
BRANCH  24  25
HETATM   25  C28 UNL     1      -0.586  14.951  17.785  1.00  0.00     0.292 C 
HETATM   26  O4  UNL     1      -0.120  15.213  19.109  1.00  0.00    -0.348 OA
HETATM   27  C29 UNL     1      -0.990  15.997  19.938  1.00  0.00     0.179 C 
HETATM   28  C31 UNL     1      -1.197  17.404  19.334  1.00  0.00     0.180 C 
HETATM   29  C32 UNL     1      -0.980  17.438  17.809  1.00  0.00     0.183 C 
HETATM   30  C33 UNL     1      -1.389  16.121  17.162  1.00  0.00     0.204 C 
BRANCH  27  31
HETATM   31  C30 UNL     1      -2.331  15.300  20.243  1.00  0.00     0.198 C 
BRANCH  31  32
HETATM   32  O5  UNL     1      -2.701  15.461  21.610  1.00  0.00    -0.398 OA
HETATM   33  H46 UNL     1      -2.322  14.697  22.092  1.00  0.00     0.209 HD
ENDBRANCH  31  32
ENDBRANCH  27  31
BRANCH  28  34
HETATM   34  O6  UNL     1      -0.252  18.324  19.917  1.00  0.00    -0.390 OA
HETATM   35  H48 UNL     1      -0.497  19.222  19.627  1.00  0.00     0.210 HD
ENDBRANCH  28  34
BRANCH  29  36
HETATM   36  O7  UNL     1       0.403  17.699  17.481  1.00  0.00    -0.390 OA
HETATM   37  H50 UNL     1       0.866  17.796  18.344  1.00  0.00     0.210 HD
ENDBRANCH  29  36
BRANCH  30  38
HETATM   38  O8  UNL     1      -1.149  16.211  15.742  1.00  0.00    -0.388 OA
HETATM   39  H52 UNL     1      -0.226  16.525  15.668  1.00  0.00     0.210 HD
ENDBRANCH  30  38
ENDBRANCH  24  25
ENDBRANCH  20  24
BRANCH   1  40
HETATM   40  C2  UNL     1      -0.699   5.144  11.422  1.00  0.00    -0.010 C 
HETATM   41  C1  UNL     1      -1.296   3.722  11.376  1.00  0.00     0.010 C 
BRANCH  40  42
HETATM   42  C3  UNL     1       0.794   5.052  11.838  1.00  0.00     0.031 C 
BRANCH  42  43
HETATM   43  C4  UNL     1       1.836   5.420  10.819  1.00  0.00    -0.027 C 
HETATM   44  C5  UNL     1       1.643   6.289   9.815  1.00  0.00     0.006 C 
BRANCH  44  45
HETATM   45  C6  UNL     1       2.634   6.692   8.746  1.00  0.00     0.068 C 
HETATM   46  C7  UNL     1       2.023   7.116   7.407  1.00  0.00     0.050 C 
HETATM   47  C8  UNL     1       3.529   7.819   9.271  1.00  0.00     0.050 C 
BRANCH  45  48
HETATM   48  O1  UNL     1       3.461   5.562   8.478  1.00  0.00    -0.387 OA
HETATM   49  H15 UNL     1       3.716   5.166   9.327  1.00  0.00     0.211 HD
ENDBRANCH  45  48
ENDBRANCH  44  45
ENDBRANCH  42  43
ENDBRANCH  40  42
ENDBRANCH   1  40
TORSDOF 12
ENDMDL
MODEL 6
REMARK minimizedAffinity -7.76031208
REMARK CNNscore 0.258201182
REMARK CNNaffinity 6.4412303
REMARK  12 active torsions:
REMARK  status: ('A' for Active; 'I' for Inactive)
REMARK    1  A    between atoms: C2_2  and  C3_3 
REMARK    2  A    between atoms: C2_2  and  C9_10 
REMARK    3  A    between atoms: C3_3  and  C4_4 
REMARK    4  A    between atoms: C5_5  and  C6_6 
REMARK    5  A    between atoms: C6_6  and  O1_9 
REMARK    6  A    between atoms: C27_29  and  O3_30 
REMARK    7  A    between atoms: O3_30  and  C28_31 
REMARK    8  A    between atoms: C29_33  and  C30_34 
REMARK    9  A    between atoms: C30_34  and  O5_35 
REMARK   10  A    between atoms: C31_36  and  O6_37 
REMARK   11  A    between atoms: C32_38  and  O7_39 
REMARK   12  A    between atoms: C33_40  and  O8_41 
ROOT
HETATM    1  C9  UNL     1      -5.627 -12.707  -1.852  1.00  0.00    -0.002 C 
HETATM    2  C10 UNL     1      -4.155 -13.124  -2.134  1.00  0.00     0.006 C 
HETATM    3  C11 UNL     1      -3.309 -12.638  -0.928  1.00  0.00     0.011 C 
HETATM    4  C12 UNL     1      -4.346 -12.319   0.164  1.00  0.00    -0.029 C 
HETATM    5  C13 UNL     1      -4.730 -13.707   0.781  1.00  0.00     0.016 C 
HETATM    6  C14 UNL     1      -3.901 -11.318   1.277  1.00  0.00     0.028 C 
HETATM    7  C15 UNL     1      -2.715 -11.801   2.086  1.00  0.00    -0.021 C 
HETATM    8  C16 UNL     1      -2.732 -11.792   3.432  1.00  0.00     0.008 C 
HETATM    9  C17 UNL     1      -3.975 -11.388   4.214  1.00  0.00     0.092 C 
HETATM   10  O2  UNL     1      -3.991  -9.942   4.150  1.00  0.00    -0.374 OA
HETATM   11  C18 UNL     1      -4.696  -9.557   2.957  1.00  0.00     0.179 C 
HETATM   12  C19 UNL     1      -5.116 -10.845   2.201  1.00  0.00    -0.004 C 
HETATM   13  C20 UNL     1      -6.391 -10.530   1.374  1.00  0.00     0.014 C 
HETATM   14  C21 UNL     1      -6.715 -11.459   0.189  1.00  0.00     0.011 C 
HETATM   15  C22 UNL     1      -5.483 -11.663  -0.710  1.00  0.00    -0.032 C 
HETATM   16  C23 UNL     1      -5.098 -10.284  -1.323  1.00  0.00     0.016 C 
HETATM   17  C24 UNL     1      -5.229 -11.822   3.408  1.00  0.00     0.036 C 
HETATM   18  C25 UNL     1      -6.521 -11.824   4.238  1.00  0.00     0.011 C 
HETATM   19  C26 UNL     1      -6.450 -10.968   5.485  1.00  0.00     0.033 C 
HETATM   20  C27 UNL     1      -5.308 -11.375   6.431  1.00  0.00     0.136 C 
HETATM   21  C34 UNL     1      -3.986 -11.844   5.709  1.00  0.00     0.014 C 
HETATM   22  C35 UNL     1      -2.749 -11.298   6.474  1.00  0.00     0.021 C 
HETATM   23  C36 UNL     1      -3.914 -13.392   5.794  1.00  0.00     0.021 C 
ENDROOT
BRANCH  20  24
HETATM   24  O3  UNL     1      -5.022 -10.302   7.346  1.00  0.00    -0.352 OA
BRANCH  24  25
HETATM   25  C28 UNL     1      -5.126 -10.657   8.727  1.00  0.00     0.292 C 
HETATM   26  O4  UNL     1      -6.477 -10.998   9.041  1.00  0.00    -0.348 OA
HETATM   27  C29 UNL     1      -7.330  -9.906   9.413  1.00  0.00     0.179 C 
HETATM   28  C31 UNL     1      -6.813  -9.224  10.700  1.00  0.00     0.180 C 
HETATM   29  C32 UNL     1      -5.300  -9.421  10.915  1.00  0.00     0.183 C 
HETATM   30  C33 UNL     1      -4.558  -9.498   9.587  1.00  0.00     0.204 C 
BRANCH  27  31
HETATM   31  C30 UNL     1      -7.552  -8.891   8.274  1.00  0.00     0.198 C 
BRANCH  31  32
HETATM   32  O5  UNL     1      -8.858  -8.325   8.330  1.00  0.00    -0.398 OA
HETATM   33  H46 UNL     1      -9.433  -8.898   7.781  1.00  0.00     0.209 HD
ENDBRANCH  31  32
ENDBRANCH  27  31
BRANCH  28  34
HETATM   34  O6  UNL     1      -7.481  -9.787  11.848  1.00  0.00    -0.390 OA
HETATM   35  H48 UNL     1      -7.243  -9.246  12.622  1.00  0.00     0.210 HD
ENDBRANCH  28  34
BRANCH  29  36
HETATM   36  O7  UNL     1      -5.028 -10.627  11.662  1.00  0.00    -0.390 OA
HETATM   37  H50 UNL     1      -5.908 -11.025  11.852  1.00  0.00     0.210 HD
ENDBRANCH  29  36
BRANCH  30  38
HETATM   38  O8  UNL     1      -3.154  -9.697   9.854  1.00  0.00    -0.388 OA
HETATM   39  H52 UNL     1      -3.126 -10.453  10.473  1.00  0.00     0.210 HD
ENDBRANCH  30  38
ENDBRANCH  24  25
ENDBRANCH  20  24
BRANCH   1  40
HETATM   40  C2  UNL     1      -6.559 -12.435  -3.071  1.00  0.00    -0.010 C 
HETATM   41  C1  UNL     1      -5.702 -11.923  -4.248  1.00  0.00     0.010 C 
BRANCH  40  42
HETATM   42  C3  UNL     1      -7.821 -11.541  -2.940  1.00  0.00     0.031 C 
BRANCH  42  43
HETATM   43  C4  UNL     1      -7.929 -10.334  -3.830  1.00  0.00    -0.027 C 
HETATM   44  C5  UNL     1      -8.303  -9.114  -3.413  1.00  0.00     0.006 C 
BRANCH  44  45
HETATM   45  C6  UNL     1      -8.451  -7.864  -4.250  1.00  0.00     0.068 C 
HETATM   46  C7  UNL     1      -9.825  -7.664  -4.899  1.00  0.00     0.050 C 
HETATM   47  C8  UNL     1      -8.110  -6.633  -3.405  1.00  0.00     0.050 C 
BRANCH  45  48
HETATM   48  O1  UNL     1      -7.505  -7.943  -5.314  1.00  0.00    -0.387 OA
HETATM   49  H15 UNL     1      -6.661  -8.246  -4.944  1.00  0.00     0.211 HD
ENDBRANCH  45  48
ENDBRANCH  44  45
ENDBRANCH  42  43
ENDBRANCH  40  42
ENDBRANCH   1  40
TORSDOF 12
ENDMDL
MODEL 7
REMARK minimizedAffinity -7.50618124
REMARK CNNscore 0.232792988
REMARK CNNaffinity 5.43883896
REMARK  12 active torsions:
REMARK  status: ('A' for Active; 'I' for Inactive)
REMARK    1  A    between atoms: C2_2  and  C3_3 
REMARK    2  A    between atoms: C2_2  and  C9_10 
REMARK    3  A    between atoms: C3_3  and  C4_4 
REMARK    4  A    between atoms: C5_5  and  C6_6 
REMARK    5  A    between atoms: C6_6  and  O1_9 
REMARK    6  A    between atoms: C27_29  and  O3_30 
REMARK    7  A    between atoms: O3_30  and  C28_31 
REMARK    8  A    between atoms: C29_33  and  C30_34 
REMARK    9  A    between atoms: C30_34  and  O5_35 
REMARK   10  A    between atoms: C31_36  and  O6_37 
REMARK   11  A    between atoms: C32_38  and  O7_39 
REMARK   12  A    between atoms: C33_40  and  O8_41 
ROOT
HETATM    1  C9  UNL     1       6.276  12.759  22.125  1.00  0.00    -0.002 C 
HETATM    2  C10 UNL     1       5.961  11.524  23.016  1.00  0.00     0.006 C 
HETATM    3  C11 UNL     1       4.464  11.180  22.801  1.00  0.00     0.011 C 
HETATM    4  C12 UNL     1       4.073  11.955  21.530  1.00  0.00    -0.029 C 
HETATM    5  C13 UNL     1       4.613  11.088  20.341  1.00  0.00     0.016 C 
HETATM    6  C14 UNL     1       2.554  12.269  21.345  1.00  0.00     0.028 C 
HETATM    7  C15 UNL     1       1.686  11.031  21.252  1.00  0.00    -0.021 C 
HETATM    8  C16 UNL     1       0.787  10.876  20.262  1.00  0.00     0.008 C 
HETATM    9  C17 UNL     1       0.660  11.887  19.131  1.00  0.00     0.092 C 
HETATM   10  O2  UNL     1      -0.085  12.987  19.709  1.00  0.00    -0.374 OA
HETATM   11  C18 UNL     1       0.854  13.888  20.321  1.00  0.00     0.179 C 
HETATM   12  C19 UNL     1       2.279  13.296  20.151  1.00  0.00    -0.004 C 
HETATM   13  C20 UNL     1       3.295  14.469  20.145  1.00  0.00     0.014 C 
HETATM   14  C21 UNL     1       4.762  14.138  20.478  1.00  0.00     0.011 C 
HETATM   15  C22 UNL     1       4.864  13.299  21.762  1.00  0.00    -0.032 C 
HETATM   16  C23 UNL     1       4.326  14.156  22.945  1.00  0.00     0.016 C 
HETATM   17  C24 UNL     1       2.063  12.484  18.841  1.00  0.00     0.036 C 
HETATM   18  C25 UNL     1       2.150  13.218  17.495  1.00  0.00     0.011 C 
HETATM   19  C26 UNL     1       0.808  13.652  16.944  1.00  0.00     0.033 C 
HETATM   20  C27 UNL     1      -0.171  12.482  16.754  1.00  0.00     0.136 C 
HETATM   21  C34 UNL     1      -0.087  11.362  17.862  1.00  0.00     0.014 C 
HETATM   22  C35 UNL     1      -1.516  10.865  18.215  1.00  0.00     0.021 C 
HETATM   23  C36 UNL     1       0.671  10.147  17.264  1.00  0.00     0.021 C 
ENDROOT
BRANCH  20  24
HETATM   24  O3  UNL     1      -1.517  12.979  16.650  1.00  0.00    -0.352 OA
BRANCH  24  25
HETATM   25  C28 UNL     1      -1.660  14.135  15.820  1.00  0.00     0.292 C 
HETATM   26  O4  UNL     1      -2.515  15.086  16.455  1.00  0.00    -0.348 OA
HETATM   27  C29 UNL     1      -3.921  14.926  16.215  1.00  0.00     0.179 C 
HETATM   28  C31 UNL     1      -4.239  15.088  14.711  1.00  0.00     0.180 C 
HETATM   29  C32 UNL     1      -3.034  14.769  13.807  1.00  0.00     0.183 C 
HETATM   30  C33 UNL     1      -2.153  13.688  14.419  1.00  0.00     0.204 C 
BRANCH  27  31
HETATM   31  C30 UNL     1      -4.490  13.610  16.783  1.00  0.00     0.198 C 
BRANCH  31  32
HETATM   32  O5  UNL     1      -5.340  12.963  15.840  1.00  0.00    -0.398 OA
HETATM   33  H46 UNL     1      -6.247  13.297  16.008  1.00  0.00     0.209 HD
ENDBRANCH  31  32
ENDBRANCH  27  31
BRANCH  28  34
HETATM   34  O6  UNL     1      -4.621  16.454  14.443  1.00  0.00    -0.390 OA
HETATM   35  H48 UNL     1      -4.950  16.493  13.526  1.00  0.00     0.210 HD
ENDBRANCH  28  34
BRANCH  29  36
HETATM   36  O7  UNL     1      -2.224  15.944  13.576  1.00  0.00    -0.390 OA
HETATM   37  H50 UNL     1      -2.667  16.672  14.069  1.00  0.00     0.210 HD
ENDBRANCH  29  36
BRANCH  30  38
HETATM   38  O8  UNL     1      -1.038  13.445  13.536  1.00  0.00    -0.388 OA
HETATM   39  H52 UNL     1      -0.669  14.333  13.357  1.00  0.00     0.210 HD
ENDBRANCH  30  38
ENDBRANCH  24  25
ENDBRANCH  20  24
BRANCH   1  40
HETATM   40  C2  UNL     1       7.408  13.726  22.584  1.00  0.00    -0.010 C 
HETATM   41  C1  UNL     1       8.561  12.895  23.185  1.00  0.00     0.010 C 
BRANCH  40  42
HETATM   42  C3  UNL     1       7.113  14.930  23.519  1.00  0.00     0.031 C 
BRANCH  42  43
HETATM   43  C4  UNL     1       7.941  16.174  23.353  1.00  0.00    -0.027 C 
HETATM   44  C5  UNL     1       8.909  16.561  24.197  1.00  0.00     0.006 C 
BRANCH  44  45
HETATM   45  C6  UNL     1       9.766  17.804  24.105  1.00  0.00     0.068 C 
HETATM   46  C7  UNL     1       9.334  18.823  23.046  1.00  0.00     0.050 C 
HETATM   47  C8  UNL     1       9.826  18.492  25.472  1.00  0.00     0.050 C 
BRANCH  45  48
HETATM   48  O1  UNL     1      11.087  17.392  23.760  1.00  0.00    -0.387 OA
HETATM   49  H15 UNL     1      11.314  16.621  24.305  1.00  0.00     0.211 HD
ENDBRANCH  45  48
ENDBRANCH  44  45
ENDBRANCH  42  43
ENDBRANCH  40  42
ENDBRANCH   1  40
TORSDOF 12
ENDMDL
MODEL 8
REMARK minimizedAffinity -7.60175943
REMARK CNNscore 0.230624005
REMARK CNNaffinity 6.32552338
REMARK  12 active torsions:
REMARK  status: ('A' for Active; 'I' for Inactive)
REMARK    1  A    between atoms: C2_2  and  C3_3 
REMARK    2  A    between atoms: C2_2  and  C9_10 
REMARK    3  A    between atoms: C3_3  and  C4_4 
REMARK    4  A    between atoms: C5_5  and  C6_6 
REMARK    5  A    between atoms: C6_6  and  O1_9 
REMARK    6  A    between atoms: C27_29  and  O3_30 
REMARK    7  A    between atoms: O3_30  and  C28_31 
REMARK    8  A    between atoms: C29_33  and  C30_34 
REMARK    9  A    between atoms: C30_34  and  O5_35 
REMARK   10  A    between atoms: C31_36  and  O6_37 
REMARK   11  A    between atoms: C32_38  and  O7_39 
REMARK   12  A    between atoms: C33_40  and  O8_41 
ROOT
HETATM    1  C9  UNL     1      -0.374   6.480  11.673  1.00  0.00    -0.002 C 
HETATM    2  C10 UNL     1      -1.400   5.419  12.163  1.00  0.00     0.006 C 
HETATM    3  C11 UNL     1      -1.840   5.838  13.590  1.00  0.00     0.011 C 
HETATM    4  C12 UNL     1      -1.373   7.299  13.720  1.00  0.00    -0.029 C 
HETATM    5  C13 UNL     1      -2.453   8.142  12.960  1.00  0.00     0.016 C 
HETATM    6  C14 UNL     1      -1.165   7.838  15.171  1.00  0.00     0.028 C 
HETATM    7  C15 UNL     1      -2.427   7.824  16.009  1.00  0.00    -0.021 C 
HETATM    8  C16 UNL     1      -2.826   8.910  16.696  1.00  0.00     0.008 C 
HETATM    9  C17 UNL     1      -2.088  10.238  16.594  1.00  0.00     0.092 C 
HETATM   10  O2  UNL     1      -0.919  10.070  17.433  1.00  0.00    -0.374 OA
HETATM   11  C18 UNL     1       0.128   9.500  16.628  1.00  0.00     0.179 C 
HETATM   12  C19 UNL     1      -0.431   9.257  15.201  1.00  0.00    -0.004 C 
HETATM   13  C20 UNL     1       0.752   9.324  14.198  1.00  0.00     0.014 C 
HETATM   14  C21 UNL     1       0.558   8.650  12.827  1.00  0.00     0.011 C 
HETATM   15  C22 UNL     1       0.019   7.218  12.984  1.00  0.00    -0.032 C 
HETATM   16  C23 UNL     1       1.090   6.378  13.741  1.00  0.00     0.016 C 
HETATM   17  C24 UNL     1      -1.513  10.375  15.159  1.00  0.00     0.036 C 
HETATM   18  C25 UNL     1      -1.083  11.807  14.804  1.00  0.00     0.011 C 
HETATM   19  C26 UNL     1      -0.831  12.687  16.010  1.00  0.00     0.033 C 
HETATM   20  C27 UNL     1      -2.051  12.802  16.938  1.00  0.00     0.136 C 
HETATM   21  C34 UNL     1      -2.903  11.481  17.078  1.00  0.00     0.014 C 
HETATM   22  C35 UNL     1      -3.367  11.311  18.551  1.00  0.00     0.021 C 
HETATM   23  C36 UNL     1      -4.187  11.641  16.223  1.00  0.00     0.021 C 
ENDROOT
BRANCH  20  24
HETATM   24  O3  UNL     1      -1.641  13.270  18.234  1.00  0.00    -0.352 OA
BRANCH  24  25
HETATM   25  C28 UNL     1      -1.892  14.658  18.471  1.00  0.00     0.292 C 
HETATM   26  O4  UNL     1      -0.673  15.396  18.375  1.00  0.00    -0.348 OA
HETATM   27  C29 UNL     1       0.103  15.486  19.578  1.00  0.00     0.179 C 
HETATM   28  C31 UNL     1      -0.688  16.222  20.684  1.00  0.00     0.180 C 
HETATM   29  C32 UNL     1      -2.213  16.130  20.490  1.00  0.00     0.183 C 
HETATM   30  C33 UNL     1      -2.610  14.812  19.837  1.00  0.00     0.204 C 
BRANCH  27  31
HETATM   31  C30 UNL     1       0.635  14.123  20.064  1.00  0.00     0.198 C 
BRANCH  31  32
HETATM   32  O5  UNL     1       1.298  14.243  21.320  1.00  0.00    -0.398 OA
HETATM   33  H46 UNL     1       2.242  14.415  21.121  1.00  0.00     0.209 HD
ENDBRANCH  31  32
ENDBRANCH  27  31
BRANCH  28  34
HETATM   34  O6  UNL     1      -0.344  17.623  20.673  1.00  0.00    -0.390 OA
HETATM   35  H48 UNL     1      -0.744  18.031  21.463  1.00  0.00     0.210 HD
ENDBRANCH  28  34
BRANCH  29  36
HETATM   36  O7  UNL     1      -2.705  17.213  19.669  1.00  0.00    -0.390 OA
HETATM   37  H50 UNL     1      -1.915  17.752  19.440  1.00  0.00     0.210 HD
ENDBRANCH  29  36
BRANCH  30  38
HETATM   38  O8  UNL     1      -4.043  14.792  19.670  1.00  0.00    -0.388 OA
HETATM   39  H52 UNL     1      -4.250  15.638  19.225  1.00  0.00     0.210 HD
ENDBRANCH  30  38
ENDBRANCH  24  25
ENDBRANCH  20  24
BRANCH   1  40
HETATM   40  C2  UNL     1       0.712   6.035  10.650  1.00  0.00    -0.010 C 
HETATM   41  C1  UNL     1       1.387   4.747  11.169  1.00  0.00     0.010 C 
BRANCH  40  42
HETATM   42  C3  UNL     1       1.810   7.015  10.157  1.00  0.00     0.031 C 
BRANCH  42  43
HETATM   43  C4  UNL     1       3.094   7.090  10.936  1.00  0.00    -0.027 C 
HETATM   44  C5  UNL     1       4.296   6.736  10.455  1.00  0.00     0.006 C 
BRANCH  44  45
HETATM   45  C6  UNL     1       5.620   6.766  11.184  1.00  0.00     0.068 C 
HETATM   46  C7  UNL     1       6.572   5.607  10.869  1.00  0.00     0.050 C 
HETATM   47  C8  UNL     1       6.333   8.092  10.905  1.00  0.00     0.050 C 
BRANCH  45  48
HETATM   48  O1  UNL     1       5.345   6.699  12.582  1.00  0.00    -0.387 OA
HETATM   49  H15 UNL     1       4.612   7.306  12.773  1.00  0.00     0.211 HD
ENDBRANCH  45  48
ENDBRANCH  44  45
ENDBRANCH  42  43
ENDBRANCH  40  42
ENDBRANCH   1  40
TORSDOF 12
ENDMDL
MODEL 9
REMARK minimizedAffinity -7.78775167
REMARK CNNscore 0.228760228
REMARK CNNaffinity 6.57474184
REMARK  12 active torsions:
REMARK  status: ('A' for Active; 'I' for Inactive)
REMARK    1  A    between atoms: C2_2  and  C3_3 
REMARK    2  A    between atoms: C2_2  and  C9_10 
REMARK    3  A    between atoms: C3_3  and  C4_4 
REMARK    4  A    between atoms: C5_5  and  C6_6 
REMARK    5  A    between atoms: C6_6  and  O1_9 
REMARK    6  A    between atoms: C27_29  and  O3_30 
REMARK    7  A    between atoms: O3_30  and  C28_31 
REMARK    8  A    between atoms: C29_33  and  C30_34 
REMARK    9  A    between atoms: C30_34  and  O5_35 
REMARK   10  A    between atoms: C31_36  and  O6_37 
REMARK   11  A    between atoms: C32_38  and  O7_39 
REMARK   12  A    between atoms: C33_40  and  O8_41 
ROOT
HETATM    1  C9  UNL     1       3.824   8.298  12.582  1.00  0.00    -0.002 C 
HETATM    2  C10 UNL     1       4.141   8.594  11.088  1.00  0.00     0.006 C 
HETATM    3  C11 UNL     1       5.361   9.553  11.064  1.00  0.00     0.011 C 
HETATM    4  C12 UNL     1       5.942   9.466  12.487  1.00  0.00    -0.029 C 
HETATM    5  C13 UNL     1       6.775   8.140  12.508  1.00  0.00     0.016 C 
HETATM    6  C14 UNL     1       6.808  10.676  12.960  1.00  0.00     0.028 C 
HETATM    7  C15 UNL     1       8.046  10.902  12.116  1.00  0.00    -0.021 C 
HETATM    8  C16 UNL     1       9.261  11.053  12.676  1.00  0.00     0.008 C 
HETATM    9  C17 UNL     1       9.473  10.909  14.177  1.00  0.00     0.092 C 
HETATM   10  O2  UNL     1       9.003  12.160  14.732  1.00  0.00    -0.374 OA
HETATM   11  C18 UNL     1       7.593  12.032  14.986  1.00  0.00     0.179 C 
HETATM   12  C19 UNL     1       7.140  10.622  14.523  1.00  0.00    -0.004 C 
HETATM   13  C20 UNL     1       5.905  10.206  15.367  1.00  0.00     0.014 C 
HETATM   14  C21 UNL     1       4.992   9.108  14.793  1.00  0.00     0.011 C 
HETATM   15  C22 UNL     1       4.612   9.408  13.333  1.00  0.00    -0.032 C 
HETATM   16  C23 UNL     1       3.786  10.727  13.309  1.00  0.00     0.016 C 
HETATM   17  C24 UNL     1       8.477   9.849  14.719  1.00  0.00     0.036 C 
HETATM   18  C25 UNL     1       8.833   9.333  16.120  1.00  0.00     0.011 C 
HETATM   19  C26 UNL     1       9.745  10.255  16.900  1.00  0.00     0.033 C 
HETATM   20  C27 UNL     1      11.072  10.542  16.178  1.00  0.00     0.136 C 
HETATM   21  C34 UNL     1      10.957  10.671  14.610  1.00  0.00     0.014 C 
HETATM   22  C35 UNL     1      11.879  11.817  14.109  1.00  0.00     0.021 C 
HETATM   23  C36 UNL     1      11.492   9.360  13.976  1.00  0.00     0.021 C 
ENDROOT
BRANCH  20  24
HETATM   24  O3  UNL     1      11.689  11.718  16.730  1.00  0.00    -0.352 OA
BRANCH  24  25
HETATM   25  C28 UNL     1      12.926  11.477  17.406  1.00  0.00     0.292 C 
HETATM   26  O4  UNL     1      12.674  11.040  18.742  1.00  0.00    -0.348 OA
HETATM   27  C29 UNL     1      12.516  12.076  19.722  1.00  0.00     0.179 C 
HETATM   28  C31 UNL     1      13.809  12.914  19.845  1.00  0.00     0.180 C 
HETATM   29  C32 UNL     1      14.668  12.878  18.567  1.00  0.00     0.183 C 
HETATM   30  C33 UNL     1      13.802  12.754  17.320  1.00  0.00     0.204 C 
BRANCH  27  31
HETATM   31  C30 UNL     1      11.279  12.963  19.475  1.00  0.00     0.198 C 
BRANCH  31  32
HETATM   32  O5  UNL     1      10.088  12.333  19.939  1.00  0.00    -0.398 OA
HETATM   33  H46 UNL     1       9.732  11.821  19.183  1.00  0.00     0.209 HD
ENDBRANCH  31  32
ENDBRANCH  27  31
BRANCH  28  34
HETATM   34  O6  UNL     1      14.622  12.393  20.917  1.00  0.00    -0.390 OA
HETATM   35  H48 UNL     1      15.354  13.020  21.063  1.00  0.00     0.210 HD
ENDBRANCH  28  34
BRANCH  29  36
HETATM   36  O7  UNL     1      15.598  11.771  18.590  1.00  0.00    -0.390 OA
HETATM   37  H50 UNL     1      15.442  11.312  19.446  1.00  0.00     0.210 HD
ENDBRANCH  29  36
BRANCH  30  38
HETATM   38  O8  UNL     1      14.662  12.711  16.162  1.00  0.00    -0.388 OA
HETATM   39  H52 UNL     1      15.319  12.017  16.370  1.00  0.00     0.210 HD
ENDBRANCH  30  38
ENDBRANCH  24  25
ENDBRANCH  20  24
BRANCH   1  40
HETATM   40  C2  UNL     1       2.353   7.962  12.968  1.00  0.00    -0.010 C 
HETATM   41  C1  UNL     1       2.335   7.368  14.392  1.00  0.00     0.010 C 
BRANCH  40  42
HETATM   42  C3  UNL     1       1.454   7.094  12.048  1.00  0.00     0.031 C 
BRANCH  42  43
HETATM   43  C4  UNL     1       1.074   7.648  10.703  1.00  0.00    -0.027 C 
HETATM   44  C5  UNL     1       1.730   7.389   9.561  1.00  0.00     0.006 C 
BRANCH  44  45
HETATM   45  C6  UNL     1       1.418   7.924   8.182  1.00  0.00     0.068 C 
HETATM   46  C7  UNL     1       1.819   7.014   7.017  1.00  0.00     0.050 C 
HETATM   47  C8  UNL     1      -0.076   8.245   8.079  1.00  0.00     0.050 C 
BRANCH  45  48
HETATM   48  O1  UNL     1       2.143   9.141   8.018  1.00  0.00    -0.387 OA
HETATM   49  H15 UNL     1       2.046   9.661   8.831  1.00  0.00     0.211 HD
ENDBRANCH  45  48
ENDBRANCH  44  45
ENDBRANCH  42  43
ENDBRANCH  40  42
ENDBRANCH   1  40
TORSDOF 12
ENDMDL
