MODEL 1
REMARK minimizedAffinity -9.51665401
REMARK CNNscore 0.851177454
REMARK CNNaffinity 6.96329927
REMARK  13 active torsions:
REMARK  status: ('A' for Active; 'I' for Inactive)
REMARK    1  A    between atoms: C2_2  and  C3_3 
REMARK    2  A    between atoms: C2_2  and  C9_11 
REMARK    3  A    between atoms: C3_3  and  C4_4 
REMARK    4  A    between atoms: C4_4  and  C5_5 
REMARK    5  A    between atoms: C5_5  and  C6_6 
REMARK    6  A    between atoms: C6_6  and  O1_8 
REMARK    7  A    between atoms: C6_6  and  C8_9 
REMARK    8  A    between atoms: C8_9  and  O2_10 
REMARK    9  A    between atoms: C10_12  and  O3_13 
REMARK   10  A    between atoms: C11_14  and  O4_15 
REMARK   11  A    between atoms: C13_17  and  O5_18 
REMARK   12  A    between atoms: C15_20  and  O6_21 
REMARK   13  A    between atoms: C18_24  and  O7_25 
ROOT
HETATM    1  C9  UNL     1      -2.109   7.338  12.514  1.00  0.00     0.029 C 
HETATM    2  C10 UNL     1      -1.701   5.840  12.629  1.00  0.00     0.152 C 
HETATM    3  C11 UNL     1      -2.684   5.191  13.627  1.00  0.00     0.155 C 
HETATM    4  C12 UNL     1      -3.905   6.113  13.557  1.00  0.00     0.060 C 
HETATM    5  C13 UNL     1      -5.062   5.916  14.578  1.00  0.00     0.071 C 
HETATM    6  C14 UNL     1      -5.931   4.697  14.185  1.00  0.00     0.071 C 
HETATM    7  C15 UNL     1      -7.178   5.065  13.395  1.00  0.00     0.126 C 
HETATM    8  C16 UNL     1      -8.141   5.957  14.202  1.00  0.00     0.025 C 
HETATM    9  C17 UNL     1      -9.116   6.681  13.246  1.00  0.00     0.039 C 
HETATM   10  C18 UNL     1     -10.223   7.415  14.008  1.00  0.00     0.118 C 
HETATM   11  C19 UNL     1      -9.746   8.045  15.317  1.00  0.00     0.032 C 
HETATM   12  C20 UNL     1      -8.238   8.287  15.302  1.00  0.00     0.012 C 
HETATM   13  C21 UNL     1      -7.418   6.961  15.164  1.00  0.00    -0.031 C 
HETATM   14  C22 UNL     1      -7.400   6.338  16.597  1.00  0.00     0.016 C 
HETATM   15  C23 UNL     1      -5.920   7.237  14.727  1.00  0.00     0.029 C 
HETATM   16  C24 UNL     1      -5.764   8.126  13.467  1.00  0.00     0.009 C 
HETATM   17  C25 UNL     1      -4.315   8.560  13.176  1.00  0.00     0.011 C 
HETATM   18  C26 UNL     1      -3.245   7.527  13.585  1.00  0.00    -0.029 C 
HETATM   19  C27 UNL     1      -2.667   7.913  14.963  1.00  0.00     0.016 C 
ENDROOT
BRANCH   1  20
HETATM   20  C2  UNL     1      -0.942   8.357  12.335  1.00  0.00    -0.011 C 
HETATM   21  C1  UNL     1      -1.056   9.692  13.080  1.00  0.00     0.010 C 
BRANCH  20  22
HETATM   22  C3  UNL     1      -0.640   8.597  10.837  1.00  0.00     0.005 C 
BRANCH  22  23
HETATM   23  C4  UNL     1       0.203   7.524  10.128  1.00  0.00     0.003 C 
BRANCH  23  24
HETATM   24  C5  UNL     1       0.557   7.880   8.679  1.00  0.00     0.040 C 
BRANCH  24  25
HETATM   25  C6  UNL     1       1.906   7.333   8.158  1.00  0.00     0.075 C 
HETATM   26  C7  UNL     1       1.828   7.190   6.633  1.00  0.00     0.048 C 
BRANCH  25  27
HETATM   27  O1  UNL     1       2.115   6.020   8.696  1.00  0.00    -0.388 OA
HETATM   28  H14 UNL     1       2.509   6.171   9.579  1.00  0.00     0.210 HD
ENDBRANCH  25  27
BRANCH  25  29
HETATM   29  C8  UNL     1       3.123   8.206   8.530  1.00  0.00     0.201 C 
BRANCH  29  30
HETATM   30  O2  UNL     1       3.316   9.226   7.548  1.00  0.00    -0.398 OA
HETATM   31  H17 UNL     1       4.080   9.755   7.840  1.00  0.00     0.209 HD
ENDBRANCH  29  30
ENDBRANCH  25  29
ENDBRANCH  24  25
ENDBRANCH  23  24
ENDBRANCH  22  23
ENDBRANCH  20  22
ENDBRANCH   1  20
BRANCH   2  32
HETATM   32  O3  UNL     1      -0.362   5.609  13.032  1.00  0.00    -0.393 OA
HETATM   33  H20 UNL     1      -0.245   4.642  13.042  1.00  0.00     0.210 HD
ENDBRANCH   2  32
BRANCH   3  34
HETATM   34  O4  UNL     1      -2.944   3.857  13.211  1.00  0.00    -0.392 OA
HETATM   35  H22 UNL     1      -3.287   3.365  13.975  1.00  0.00     0.210 HD
ENDBRANCH   3  34
BRANCH   5  36
HETATM   36  O5  UNL     1      -4.485   5.643  15.863  1.00  0.00    -0.389 OA
HETATM   37  H24 UNL     1      -4.292   4.693  15.935  1.00  0.00     0.210 HD
ENDBRANCH   5  36
BRANCH   7  38
HETATM   38  O6  UNL     1      -7.825   3.838  13.045  1.00  0.00    -0.395 OA
HETATM   39  H28 UNL     1      -8.697   4.045  12.667  1.00  0.00     0.210 HD
ENDBRANCH   7  38
BRANCH  10  40
HETATM   40  O7  UNL     1     -11.268   6.488  14.291  1.00  0.00    -0.396 OA
HETATM   41  H33 UNL     1     -11.980   6.977  14.736  1.00  0.00     0.210 HD
ENDBRANCH  10  40
TORSDOF 13
ENDMDL
MODEL 2
REMARK minimizedAffinity -9.49694824
REMARK CNNscore 0.779132783
REMARK CNNaffinity 6.87465858
REMARK  13 active torsions:
REMARK  status: ('A' for Active; 'I' for Inactive)
REMARK    1  A    between atoms: C2_2  and  C3_3 
REMARK    2  A    between atoms: C2_2  and  C9_11 
REMARK    3  A    between atoms: C3_3  and  C4_4 
REMARK    4  A    between atoms: C4_4  and  C5_5 
REMARK    5  A    between atoms: C5_5  and  C6_6 
REMARK    6  A    between atoms: C6_6  and  O1_8 
REMARK    7  A    between atoms: C6_6  and  C8_9 
REMARK    8  A    between atoms: C8_9  and  O2_10 
REMARK    9  A    between atoms: C10_12  and  O3_13 
REMARK   10  A    between atoms: C11_14  and  O4_15 
REMARK   11  A    between atoms: C13_17  and  O5_18 
REMARK   12  A    between atoms: C15_20  and  O6_21 
REMARK   13  A    between atoms: C18_24  and  O7_25 
ROOT
HETATM    1  C9  UNL     1      -2.822   8.601  14.251  1.00  0.00     0.029 C 
HETATM    2  C10 UNL     1      -2.469   7.880  15.585  1.00  0.00     0.152 C 
HETATM    3  C11 UNL     1      -1.378   6.840  15.247  1.00  0.00     0.155 C 
HETATM    4  C12 UNL     1      -0.749   7.403  13.969  1.00  0.00     0.060 C 
HETATM    5  C13 UNL     1       0.275   6.535  13.182  1.00  0.00     0.071 C 
HETATM    6  C14 UNL     1       1.651   6.542  13.890  1.00  0.00     0.071 C 
HETATM    7  C15 UNL     1       2.626   7.561  13.319  1.00  0.00     0.126 C 
HETATM    8  C16 UNL     1       2.974   7.276  11.846  1.00  0.00     0.025 C 
HETATM    9  C17 UNL     1       3.554   8.546  11.185  1.00  0.00     0.039 C 
HETATM   10  C18 UNL     1       4.107   8.262   9.786  1.00  0.00     0.118 C 
HETATM   11  C19 UNL     1       3.283   7.240   9.002  1.00  0.00     0.032 C 
HETATM   12  C20 UNL     1       1.851   7.159   9.527  1.00  0.00     0.012 C 
HETATM   13  C21 UNL     1       1.783   6.683  11.017  1.00  0.00    -0.031 C 
HETATM   14  C22 UNL     1       1.951   5.131  10.960  1.00  0.00     0.016 C 
HETATM   15  C23 UNL     1       0.377   7.003  11.675  1.00  0.00     0.029 C 
HETATM   16  C24 UNL     1      -0.085   8.476  11.535  1.00  0.00     0.009 C 
HETATM   17  C25 UNL     1      -1.536   8.728  11.987  1.00  0.00     0.011 C 
HETATM   18  C26 UNL     1      -2.006   7.830  13.150  1.00  0.00    -0.029 C 
HETATM   19  C27 UNL     1      -2.808   6.641  12.580  1.00  0.00     0.016 C 
ENDROOT
BRANCH   1  20
HETATM   20  C2  UNL     1      -4.316   9.007  14.065  1.00  0.00    -0.011 C 
HETATM   21  C1  UNL     1      -5.086   9.444  15.316  1.00  0.00     0.010 C 
BRANCH  20  22
HETATM   22  C3  UNL     1      -5.099   7.909  13.305  1.00  0.00     0.005 C 
BRANCH  22  23
HETATM   23  C4  UNL     1      -6.272   7.260  14.057  1.00  0.00     0.003 C 
BRANCH  23  24
HETATM   24  C5  UNL     1      -6.188   5.730  14.120  1.00  0.00     0.040 C 
BRANCH  24  25
HETATM   25  C6  UNL     1      -7.540   4.981  14.192  1.00  0.00     0.075 C 
HETATM   26  C7  UNL     1      -8.562   5.718  13.319  1.00  0.00     0.048 C 
BRANCH  25  27
HETATM   27  O1  UNL     1      -8.025   5.024  15.540  1.00  0.00    -0.388 OA
HETATM   28  H14 UNL     1      -7.580   4.278  15.991  1.00  0.00     0.210 HD
ENDBRANCH  25  27
BRANCH  25  29
HETATM   29  C8  UNL     1      -7.462   3.504  13.754  1.00  0.00     0.201 C 
BRANCH  29  30
HETATM   30  O2  UNL     1      -8.648   3.136  13.046  1.00  0.00    -0.398 OA
HETATM   31  H17 UNL     1      -8.538   2.206  12.780  1.00  0.00     0.209 HD
ENDBRANCH  29  30
ENDBRANCH  25  29
ENDBRANCH  24  25
ENDBRANCH  23  24
ENDBRANCH  22  23
ENDBRANCH  20  22
ENDBRANCH   1  20
BRANCH   2  32
HETATM   32  O3  UNL     1      -3.560   7.257  16.241  1.00  0.00    -0.393 OA
HETATM   33  H20 UNL     1      -3.198   6.868  17.058  1.00  0.00     0.210 HD
ENDBRANCH   2  32
BRANCH   3  34
HETATM   34  O4  UNL     1      -0.477   6.749  16.342  1.00  0.00    -0.392 OA
HETATM   35  H22 UNL     1      -0.002   5.905  16.272  1.00  0.00     0.210 HD
ENDBRANCH   3  34
BRANCH   5  36
HETATM   36  O5  UNL     1      -0.202   5.181  13.169  1.00  0.00    -0.389 OA
HETATM   37  H24 UNL     1       0.080   4.733  13.984  1.00  0.00     0.210 HD
ENDBRANCH   5  36
BRANCH   7  38
HETATM   38  O6  UNL     1       3.809   7.497  14.122  1.00  0.00    -0.395 OA
HETATM   39  H28 UNL     1       4.501   8.030  13.695  1.00  0.00     0.210 HD
ENDBRANCH   7  38
BRANCH  10  40
HETATM   40  O7  UNL     1       5.443   7.781   9.917  1.00  0.00    -0.396 OA
HETATM   41  H33 UNL     1       5.794   7.645   9.021  1.00  0.00     0.210 HD
ENDBRANCH  10  40
TORSDOF 13
ENDMDL
MODEL 3
REMARK minimizedAffinity -9.27865887
REMARK CNNscore 0.664646983
REMARK CNNaffinity 6.89723063
REMARK  13 active torsions:
REMARK  status: ('A' for Active; 'I' for Inactive)
REMARK    1  A    between atoms: C2_2  and  C3_3 
REMARK    2  A    between atoms: C2_2  and  C9_11 
REMARK    3  A    between atoms: C3_3  and  C4_4 
REMARK    4  A    between atoms: C4_4  and  C5_5 
REMARK    5  A    between atoms: C5_5  and  C6_6 
REMARK    6  A    between atoms: C6_6  and  O1_8 
REMARK    7  A    between atoms: C6_6  and  C8_9 
REMARK    8  A    between atoms: C8_9  and  O2_10 
REMARK    9  A    between atoms: C10_12  and  O3_13 
REMARK   10  A    between atoms: C11_14  and  O4_15 
REMARK   11  A    between atoms: C13_17  and  O5_18 
REMARK   12  A    between atoms: C15_20  and  O6_21 
REMARK   13  A    between atoms: C18_24  and  O7_25 
ROOT
HETATM    1  C9  UNL     1      -2.362   6.853  12.532  1.00  0.00     0.029 C 
HETATM    2  C10 UNL     1      -2.133   5.331  12.770  1.00  0.00     0.152 C 
HETATM    3  C11 UNL     1      -3.162   4.891  13.833  1.00  0.00     0.155 C 
HETATM    4  C12 UNL     1      -4.266   5.945  13.701  1.00  0.00     0.060 C 
HETATM    5  C13 UNL     1      -5.414   5.975  14.751  1.00  0.00     0.071 C 
HETATM    6  C14 UNL     1      -6.431   4.842  14.477  1.00  0.00     0.071 C 
HETATM    7  C15 UNL     1      -7.644   5.290  13.675  1.00  0.00     0.126 C 
HETATM    8  C16 UNL     1      -8.473   6.356  14.415  1.00  0.00     0.025 C 
HETATM    9  C17 UNL     1      -9.378   7.110  13.415  1.00  0.00     0.039 C 
HETATM   10  C18 UNL     1     -10.371   8.034  14.125  1.00  0.00     0.118 C 
HETATM   11  C19 UNL     1      -9.791   8.709  15.368  1.00  0.00     0.032 C 
HETATM   12  C20 UNL     1      -8.266   8.765  15.312  1.00  0.00     0.012 C 
HETATM   13  C21 UNL     1      -7.614   7.343  15.277  1.00  0.00    -0.031 C 
HETATM   14  C22 UNL     1      -7.635   6.845  16.758  1.00  0.00     0.016 C 
HETATM   15  C23 UNL     1      -6.104   7.398  14.798  1.00  0.00     0.029 C 
HETATM   16  C24 UNL     1      -5.873   8.153  13.463  1.00  0.00     0.009 C 
HETATM   17  C25 UNL     1      -4.391   8.383  13.116  1.00  0.00     0.011 C 
HETATM   18  C26 UNL     1      -3.442   7.266  13.598  1.00  0.00    -0.029 C 
HETATM   19  C27 UNL     1      -2.789   7.695  14.929  1.00  0.00     0.016 C 
ENDROOT
BRANCH   1  20
HETATM   20  C2  UNL     1      -1.088   7.704  12.249  1.00  0.00    -0.011 C 
HETATM   21  C1  UNL     1      -1.260   9.227  12.190  1.00  0.00     0.010 C 
BRANCH  20  22
HETATM   22  C3  UNL     1      -0.347   7.194  10.990  1.00  0.00     0.005 C 
BRANCH  22  23
HETATM   23  C4  UNL     1       1.173   6.999  11.123  1.00  0.00     0.003 C 
BRANCH  23  24
HETATM   24  C5  UNL     1       1.640   5.578  10.785  1.00  0.00     0.040 C 
BRANCH  24  25
HETATM   25  C6  UNL     1       2.963   5.473   9.989  1.00  0.00     0.075 C 
HETATM   26  C7  UNL     1       2.755   6.083   8.598  1.00  0.00     0.048 C 
BRANCH  25  27
HETATM   27  O1  UNL     1       3.283   4.087   9.801  1.00  0.00    -0.388 OA
HETATM   28  H14 UNL     1       3.748   3.823  10.622  1.00  0.00     0.210 HD
ENDBRANCH  25  27
BRANCH  25  29
HETATM   29  C8  UNL     1       4.164   6.156  10.675  1.00  0.00     0.201 C 
BRANCH  29  30
HETATM   30  O2  UNL     1       5.360   5.413  10.430  1.00  0.00    -0.398 OA
HETATM   31  H17 UNL     1       6.084   5.897  10.868  1.00  0.00     0.209 HD
ENDBRANCH  29  30
ENDBRANCH  25  29
ENDBRANCH  24  25
ENDBRANCH  23  24
ENDBRANCH  22  23
ENDBRANCH  20  22
ENDBRANCH   1  20
BRANCH   2  32
HETATM   32  O3  UNL     1      -0.821   4.975  13.173  1.00  0.00    -0.393 OA
HETATM   33  H20 UNL     1      -0.820   4.005  13.264  1.00  0.00     0.210 HD
ENDBRANCH   2  32
BRANCH   3  34
HETATM   34  O4  UNL     1      -3.589   3.569  13.538  1.00  0.00    -0.392 OA
HETATM   35  H22 UNL     1      -3.969   3.188  14.347  1.00  0.00     0.210 HD
ENDBRANCH   3  34
BRANCH   5  36
HETATM   36  O5  UNL     1      -4.842   5.744  16.047  1.00  0.00    -0.389 OA
HETATM   37  H24 UNL     1      -4.762   4.788  16.198  1.00  0.00     0.210 HD
ENDBRANCH   5  36
BRANCH   7  38
HETATM   38  O6  UNL     1      -8.440   4.125  13.442  1.00  0.00    -0.395 OA
HETATM   39  H28 UNL     1      -9.290   4.403  13.059  1.00  0.00     0.210 HD
ENDBRANCH   7  38
BRANCH  10  40
HETATM   40  O7  UNL     1     -11.512   7.266  14.502  1.00  0.00    -0.396 OA
HETATM   41  H33 UNL     1     -12.150   7.873  14.913  1.00  0.00     0.210 HD
ENDBRANCH  10  40
TORSDOF 13
ENDMDL
MODEL 4
REMARK minimizedAffinity -8.94260216
REMARK CNNscore 0.658617437
REMARK CNNaffinity 5.94617796
REMARK  13 active torsions:
REMARK  status: ('A' for Active; 'I' for Inactive)
REMARK    1  A    between atoms: C2_2  and  C3_3 
REMARK    2  A    between atoms: C2_2  and  C9_11 
REMARK    3  A    between atoms: C3_3  and  C4_4 
REMARK    4  A    between atoms: C4_4  and  C5_5 
REMARK    5  A    between atoms: C5_5  and  C6_6 
REMARK    6  A    between atoms: C6_6  and  O1_8 
REMARK    7  A    between atoms: C6_6  and  C8_9 
REMARK    8  A    between atoms: C8_9  and  O2_10 
REMARK    9  A    between atoms: C10_12  and  O3_13 
REMARK   10  A    between atoms: C11_14  and  O4_15 
REMARK   11  A    between atoms: C13_17  and  O5_18 
REMARK   12  A    between atoms: C15_20  and  O6_21 
REMARK   13  A    between atoms: C18_24  and  O7_25 
ROOT
HETATM    1  C9  UNL     1       0.955   7.144  10.004  1.00  0.00     0.029 C 
HETATM    2  C10 UNL     1       1.234   5.621  10.166  1.00  0.00     0.152 C 
HETATM    3  C11 UNL     1       0.660   5.212  11.540  1.00  0.00     0.155 C 
HETATM    4  C12 UNL     1      -0.401   6.285  11.804  1.00  0.00     0.060 C 
HETATM    5  C13 UNL     1      -1.084   6.347  13.200  1.00  0.00     0.071 C 
HETATM    6  C14 UNL     1      -2.147   5.231  13.336  1.00  0.00     0.071 C 
HETATM    7  C15 UNL     1      -3.563   5.694  13.026  1.00  0.00     0.126 C 
HETATM    8  C16 UNL     1      -4.048   6.783  14.001  1.00  0.00     0.025 C 
HETATM    9  C17 UNL     1      -5.246   7.544  13.389  1.00  0.00     0.039 C 
HETATM   10  C18 UNL     1      -5.897   8.494  14.399  1.00  0.00     0.118 C 
HETATM   11  C19 UNL     1      -4.892   9.171  15.332  1.00  0.00     0.032 C 
HETATM   12  C20 UNL     1      -3.493   9.197  14.721  1.00  0.00     0.012 C 
HETATM   13  C21 UNL     1      -2.919   7.762  14.473  1.00  0.00    -0.031 C 
HETATM   14  C22 UNL     1      -2.404   7.279  15.866  1.00  0.00     0.016 C 
HETATM   15  C23 UNL     1      -1.689   7.784  13.473  1.00  0.00     0.029 C 
HETATM   16  C24 UNL     1      -1.952   8.520  12.135  1.00  0.00     0.009 C 
HETATM   17  C25 UNL     1      -0.697   8.719  11.266  1.00  0.00     0.011 C 
HETATM   18  C26 UNL     1       0.346   7.589  11.385  1.00  0.00    -0.029 C 
HETATM   19  C27 UNL     1       1.448   8.018  12.377  1.00  0.00     0.016 C 
ENDROOT
BRANCH   1  20
HETATM   20  C2  UNL     1       2.049   7.968   9.261  1.00  0.00    -0.011 C 
HETATM   21  C1  UNL     1       1.809   8.279   7.779  1.00  0.00     0.010 C 
BRANCH  20  22
HETATM   22  C3  UNL     1       3.449   7.340   9.462  1.00  0.00     0.005 C 
BRANCH  22  23
HETATM   23  C4  UNL     1       4.476   8.189  10.228  1.00  0.00     0.003 C 
BRANCH  23  24
HETATM   24  C5  UNL     1       4.950   7.546  11.538  1.00  0.00     0.040 C 
BRANCH  24  25
HETATM   25  C6  UNL     1       6.462   7.237  11.632  1.00  0.00     0.075 C 
HETATM   26  C7  UNL     1       6.879   7.245  13.107  1.00  0.00     0.048 C 
BRANCH  25  27
HETATM   27  O1  UNL     1       7.193   8.284  10.979  1.00  0.00    -0.388 OA
HETATM   28  H14 UNL     1       7.194   8.037  10.031  1.00  0.00     0.210 HD
ENDBRANCH  25  27
BRANCH  25  29
HETATM   29  C8  UNL     1       6.869   5.894  10.991  1.00  0.00     0.201 C 
BRANCH  29  30
HETATM   30  O2  UNL     1       5.705   5.122  10.685  1.00  0.00    -0.398 OA
HETATM   31  H17 UNL     1       6.018   4.298  10.269  1.00  0.00     0.209 HD
ENDBRANCH  29  30
ENDBRANCH  25  29
ENDBRANCH  24  25
ENDBRANCH  23  24
ENDBRANCH  22  23
ENDBRANCH  20  22
ENDBRANCH   1  20
BRANCH   2  32
HETATM   32  O3  UNL     1       2.597   5.244  10.067  1.00  0.00    -0.393 OA
HETATM   33  H20 UNL     1       2.617   4.275  10.167  1.00  0.00     0.210 HD
ENDBRANCH   2  32
BRANCH   3  34
HETATM   34  O4  UNL     1       0.136   3.895  11.443  1.00  0.00    -0.392 OA
HETATM   35  H22 UNL     1       0.072   3.529  12.340  1.00  0.00     0.210 HD
ENDBRANCH   3  34
BRANCH   5  36
HETATM   36  O5  UNL     1      -0.081   6.118  14.200  1.00  0.00    -0.389 OA
HETATM   37  H24 UNL     1       0.035   5.162  14.327  1.00  0.00     0.210 HD
ENDBRANCH   5  36
BRANCH   7  38
HETATM   38  O6  UNL     1      -4.406   4.542  13.120  1.00  0.00    -0.395 OA
HETATM   39  H28 UNL     1      -5.333   4.833  13.070  1.00  0.00     0.210 HD
ENDBRANCH   7  38
BRANCH  10  40
HETATM   40  O7  UNL     1      -6.831   7.752  15.179  1.00  0.00    -0.396 OA
HETATM   41  H33 UNL     1      -7.266   8.376  15.785  1.00  0.00     0.210 HD
ENDBRANCH  10  40
TORSDOF 13
ENDMDL
MODEL 5
REMARK minimizedAffinity -7.05870867
REMARK CNNscore 0.630097389
REMARK CNNaffinity 6.05284309
REMARK  13 active torsions:
REMARK  status: ('A' for Active; 'I' for Inactive)
REMARK    1  A    between atoms: C2_2  and  C3_3 
REMARK    2  A    between atoms: C2_2  and  C9_11 
REMARK    3  A    between atoms: C3_3  and  C4_4 
REMARK    4  A    between atoms: C4_4  and  C5_5 
REMARK    5  A    between atoms: C5_5  and  C6_6 
REMARK    6  A    between atoms: C6_6  and  O1_8 
REMARK    7  A    between atoms: C6_6  and  C8_9 
REMARK    8  A    between atoms: C8_9  and  O2_10 
REMARK    9  A    between atoms: C10_12  and  O3_13 
REMARK   10  A    between atoms: C11_14  and  O4_15 
REMARK   11  A    between atoms: C13_17  and  O5_18 
REMARK   12  A    between atoms: C15_20  and  O6_21 
REMARK   13  A    between atoms: C18_24  and  O7_25 
ROOT
HETATM    1  C9  UNL     1      -1.748  10.447  14.892  1.00  0.00     0.029 C 
HETATM    2  C10 UNL     1      -0.585   9.430  14.701  1.00  0.00     0.152 C 
HETATM    3  C11 UNL     1      -1.150   8.041  15.071  1.00  0.00     0.155 C 
HETATM    4  C12 UNL     1      -2.657   8.214  14.859  1.00  0.00     0.060 C 
HETATM    5  C13 UNL     1      -3.622   7.084  15.320  1.00  0.00     0.071 C 
HETATM    6  C14 UNL     1      -3.593   5.903  14.320  1.00  0.00     0.071 C 
HETATM    7  C15 UNL     1      -4.716   5.944  13.294  1.00  0.00     0.126 C 
HETATM    8  C16 UNL     1      -6.108   5.839  13.945  1.00  0.00     0.025 C 
HETATM    9  C17 UNL     1      -7.189   6.353  12.967  1.00  0.00     0.039 C 
HETATM   10  C18 UNL     1      -8.604   6.078  13.483  1.00  0.00     0.118 C 
HETATM   11  C19 UNL     1      -8.738   6.228  14.999  1.00  0.00     0.032 C 
HETATM   12  C20 UNL     1      -7.643   7.126  15.570  1.00  0.00     0.012 C 
HETATM   13  C21 UNL     1      -6.208   6.541  15.343  1.00  0.00    -0.031 C 
HETATM   14  C22 UNL     1      -6.027   5.455  16.450  1.00  0.00     0.016 C 
HETATM   15  C23 UNL     1      -5.085   7.642  15.543  1.00  0.00     0.029 C 
HETATM   16  C24 UNL     1      -5.296   8.942  14.726  1.00  0.00     0.009 C 
HETATM   17  C25 UNL     1      -4.322  10.079  15.085  1.00  0.00     0.011 C 
HETATM   18  C26 UNL     1      -2.920   9.604  15.517  1.00  0.00    -0.029 C 
HETATM   19  C27 UNL     1      -2.843   9.583  17.058  1.00  0.00     0.016 C 
ENDROOT
BRANCH   1  20
HETATM   20  C2  UNL     1      -1.347  11.857  15.424  1.00  0.00    -0.011 C 
HETATM   21  C1  UNL     1      -1.172  12.974  14.389  1.00  0.00     0.010 C 
BRANCH  20  22
HETATM   22  C3  UNL     1      -0.105  11.771  16.343  1.00  0.00     0.005 C 
BRANCH  22  23
HETATM   23  C4  UNL     1      -0.102  12.688  17.577  1.00  0.00     0.003 C 
BRANCH  23  24
HETATM   24  C5  UNL     1       1.252  12.749  18.293  1.00  0.00     0.040 C 
BRANCH  24  25
HETATM   25  C6  UNL     1       1.492  11.675  19.380  1.00  0.00     0.075 C 
HETATM   26  C7  UNL     1       0.136  11.160  19.876  1.00  0.00     0.048 C 
BRANCH  25  27
HETATM   27  O1  UNL     1       2.149  12.286  20.499  1.00  0.00    -0.388 OA
HETATM   28  H14 UNL     1       3.101  12.275  20.268  1.00  0.00     0.210 HD
ENDBRANCH  25  27
BRANCH  25  29
HETATM   29  C8  UNL     1       2.351  10.485  18.907  1.00  0.00     0.201 C 
BRANCH  29  30
HETATM   30  O2  UNL     1       2.673   9.639  20.013  1.00  0.00    -0.398 OA
HETATM   31  H17 UNL     1       3.197   8.899  19.656  1.00  0.00     0.209 HD
ENDBRANCH  29  30
ENDBRANCH  25  29
ENDBRANCH  24  25
ENDBRANCH  23  24
ENDBRANCH  22  23
ENDBRANCH  20  22
ENDBRANCH   1  20
BRANCH   2  32
HETATM   32  O3  UNL     1       0.585   9.704  15.452  1.00  0.00    -0.393 OA
HETATM   33  H20 UNL     1       1.225   9.006  15.221  1.00  0.00     0.210 HD
ENDBRANCH   2  32
BRANCH   3  34
HETATM   34  O4  UNL     1      -0.557   7.066  14.225  1.00  0.00    -0.392 OA
HETATM   35  H22 UNL     1      -0.658   6.198  14.649  1.00  0.00     0.210 HD
ENDBRANCH   3  34
BRANCH   5  36
HETATM   36  O5  UNL     1      -3.163   6.593  16.588  1.00  0.00    -0.389 OA
HETATM   37  H24 UNL     1      -2.479   5.917  16.443  1.00  0.00     0.210 HD
ENDBRANCH   5  36
BRANCH   7  38
HETATM   38  O6  UNL     1      -4.506   4.842  12.406  1.00  0.00    -0.395 OA
HETATM   39  H28 UNL     1      -5.286   4.757  11.830  1.00  0.00     0.210 HD
ENDBRANCH   7  38
BRANCH  10  40
HETATM   40  O7  UNL     1      -8.970   4.751  13.112  1.00  0.00    -0.396 OA
HETATM   41  H33 UNL     1      -9.884   4.606  13.408  1.00  0.00     0.210 HD
ENDBRANCH  10  40
TORSDOF 13
ENDMDL
MODEL 6
REMARK minimizedAffinity -8.25165367
REMARK CNNscore 0.628867149
REMARK CNNaffinity 6.38356543
REMARK  13 active torsions:
REMARK  status: ('A' for Active; 'I' for Inactive)
REMARK    1  A    between atoms: C2_2  and  C3_3 
REMARK    2  A    between atoms: C2_2  and  C9_11 
REMARK    3  A    between atoms: C3_3  and  C4_4 
REMARK    4  A    between atoms: C4_4  and  C5_5 
REMARK    5  A    between atoms: C5_5  and  C6_6 
REMARK    6  A    between atoms: C6_6  and  O1_8 
REMARK    7  A    between atoms: C6_6  and  C8_9 
REMARK    8  A    between atoms: C8_9  and  O2_10 
REMARK    9  A    between atoms: C10_12  and  O3_13 
REMARK   10  A    between atoms: C11_14  and  O4_15 
REMARK   11  A    between atoms: C13_17  and  O5_18 
REMARK   12  A    between atoms: C15_20  and  O6_21 
REMARK   13  A    between atoms: C18_24  and  O7_25 
ROOT
HETATM    1  C9  UNL     1      -0.645   7.374  11.646  1.00  0.00     0.029 C 
HETATM    2  C10 UNL     1      -0.150   5.898  11.627  1.00  0.00     0.152 C 
HETATM    3  C11 UNL     1      -0.990   5.138  12.676  1.00  0.00     0.155 C 
HETATM    4  C12 UNL     1      -2.259   5.990  12.784  1.00  0.00     0.060 C 
HETATM    5  C13 UNL     1      -3.294   5.668  13.901  1.00  0.00     0.071 C 
HETATM    6  C14 UNL     1      -4.133   4.425  13.522  1.00  0.00     0.071 C 
HETATM    7  C15 UNL     1      -5.472   4.764  12.883  1.00  0.00     0.126 C 
HETATM    8  C16 UNL     1      -6.392   5.551  13.835  1.00  0.00     0.025 C 
HETATM    9  C17 UNL     1      -7.497   6.270  13.027  1.00  0.00     0.039 C 
HETATM   10  C18 UNL     1      -8.557   6.894  13.939  1.00  0.00     0.118 C 
HETATM   11  C19 UNL     1      -7.982   7.477  15.230  1.00  0.00     0.032 C 
HETATM   12  C20 UNL     1      -6.498   7.807  15.081  1.00  0.00     0.012 C 
HETATM   13  C21 UNL     1      -5.629   6.540  14.781  1.00  0.00    -0.031 C 
HETATM   14  C22 UNL     1      -5.431   5.840  16.163  1.00  0.00     0.016 C 
HETATM   15  C23 UNL     1      -4.199   6.927  14.215  1.00  0.00     0.029 C 
HETATM   16  C24 UNL     1      -4.219   7.893  13.003  1.00  0.00     0.009 C 
HETATM   17  C25 UNL     1      -2.833   8.426  12.598  1.00  0.00     0.011 C 
HETATM   18  C26 UNL     1      -1.675   7.436  12.834  1.00  0.00    -0.029 C 
HETATM   19  C27 UNL     1      -0.979   7.778  14.169  1.00  0.00     0.016 C 
ENDROOT
BRANCH   1  20
HETATM   20  C2  UNL     1       0.442   8.467  11.415  1.00  0.00    -0.011 C 
HETATM   21  C1  UNL     1       1.531   8.165  10.379  1.00  0.00     0.010 C 
BRANCH  20  22
HETATM   22  C3  UNL     1       1.077   8.910  12.755  1.00  0.00     0.005 C 
BRANCH  22  23
HETATM   23  C4  UNL     1       2.479   8.359  13.062  1.00  0.00     0.003 C 
BRANCH  23  24
HETATM   24  C5  UNL     1       3.243   9.177  14.110  1.00  0.00     0.040 C 
BRANCH  24  25
HETATM   25  C6  UNL     1       2.796   8.982  15.579  1.00  0.00     0.075 C 
HETATM   26  C7  UNL     1       1.630   9.933  15.872  1.00  0.00     0.048 C 
BRANCH  25  27
HETATM   27  O1  UNL     1       3.876   9.355  16.447  1.00  0.00    -0.388 OA
HETATM   28  H14 UNL     1       4.438   8.556  16.504  1.00  0.00     0.210 HD
ENDBRANCH  25  27
BRANCH  25  29
HETATM   29  C8  UNL     1       2.379   7.537  15.921  1.00  0.00     0.201 C 
BRANCH  29  30
HETATM   30  O2  UNL     1       3.480   6.646  15.722  1.00  0.00    -0.398 OA
HETATM   31  H17 UNL     1       3.168   5.757  15.969  1.00  0.00     0.209 HD
ENDBRANCH  29  30
ENDBRANCH  25  29
ENDBRANCH  24  25
ENDBRANCH  23  24
ENDBRANCH  22  23
ENDBRANCH  20  22
ENDBRANCH   1  20
BRANCH   2  32
HETATM   32  O3  UNL     1       1.234   5.723  11.881  1.00  0.00    -0.393 OA
HETATM   33  H20 UNL     1       1.401   4.765  11.819  1.00  0.00     0.210 HD
ENDBRANCH   2  32
BRANCH   3  34
HETATM   34  O4  UNL     1      -1.221   3.817  12.207  1.00  0.00    -0.392 OA
HETATM   35  H22 UNL     1      -1.458   3.263  12.969  1.00  0.00     0.210 HD
ENDBRANCH   3  34
BRANCH   5  36
HETATM   36  O5  UNL     1      -2.574   5.359  15.103  1.00  0.00    -0.389 OA
HETATM   37  H24 UNL     1      -2.326   4.419  15.097  1.00  0.00     0.210 HD
ENDBRANCH   5  36
BRANCH   7  38
HETATM   38  O6  UNL     1      -6.086   3.522  12.525  1.00  0.00    -0.395 OA
HETATM   39  H28 UNL     1      -7.002   3.699  12.248  1.00  0.00     0.210 HD
ENDBRANCH   7  38
BRANCH  10  40
HETATM   40  O7  UNL     1      -9.518   5.893  14.266  1.00  0.00    -0.396 OA
HETATM   41  H33 UNL     1     -10.205   6.314  14.809  1.00  0.00     0.210 HD
ENDBRANCH  10  40
TORSDOF 13
ENDMDL
MODEL 7
REMARK minimizedAffinity -7.09455109
REMARK CNNscore 0.601207733
REMARK CNNaffinity 5.36315012
REMARK  13 active torsions:
REMARK  status: ('A' for Active; 'I' for Inactive)
REMARK    1  A    between atoms: C2_2  and  C3_3 
REMARK    2  A    between atoms: C2_2  and  C9_11 
REMARK    3  A    between atoms: C3_3  and  C4_4 
REMARK    4  A    between atoms: C4_4  and  C5_5 
REMARK    5  A    between atoms: C5_5  and  C6_6 
REMARK    6  A    between atoms: C6_6  and  O1_8 
REMARK    7  A    between atoms: C6_6  and  C8_9 
REMARK    8  A    between atoms: C8_9  and  O2_10 
REMARK    9  A    between atoms: C10_12  and  O3_13 
REMARK   10  A    between atoms: C11_14  and  O4_15 
REMARK   11  A    between atoms: C13_17  and  O5_18 
REMARK   12  A    between atoms: C15_20  and  O6_21 
REMARK   13  A    between atoms: C18_24  and  O7_25 
ROOT
HETATM    1  C9  UNL     1     -13.448   8.792  23.188  1.00  0.00     0.029 C 
HETATM    2  C10 UNL     1     -13.949   9.174  24.612  1.00  0.00     0.152 C 
HETATM    3  C11 UNL     1     -12.915  10.164  25.192  1.00  0.00     0.155 C 
HETATM    4  C12 UNL     1     -12.260  10.752  23.938  1.00  0.00     0.060 C 
HETATM    5  C13 UNL     1     -11.007  11.661  24.093  1.00  0.00     0.071 C 
HETATM    6  C14 UNL     1     -11.415  13.075  24.571  1.00  0.00     0.071 C 
HETATM    7  C15 UNL     1     -11.557  14.084  23.442  1.00  0.00     0.126 C 
HETATM    8  C16 UNL     1     -10.230  14.319  22.697  1.00  0.00     0.025 C 
HETATM    9  C17 UNL     1     -10.506  14.948  21.312  1.00  0.00     0.039 C 
HETATM   10  C18 UNL     1      -9.215  15.392  20.618  1.00  0.00     0.118 C 
HETATM   11  C19 UNL     1      -8.037  14.449  20.865  1.00  0.00     0.032 C 
HETATM   12  C20 UNL     1      -8.513  13.050  21.250  1.00  0.00     0.012 C 
HETATM   13  C21 UNL     1      -9.331  13.040  22.584  1.00  0.00    -0.031 C 
HETATM   14  C22 UNL     1      -8.262  13.092  23.722  1.00  0.00     0.016 C 
HETATM   15  C23 UNL     1     -10.167  11.703  22.753  1.00  0.00     0.029 C 
HETATM   16  C24 UNL     1     -11.064  11.341  21.543  1.00  0.00     0.009 C 
HETATM   17  C25 UNL     1     -11.704   9.943  21.628  1.00  0.00     0.011 C 
HETATM   18  C26 UNL     1     -12.039   9.481  23.061  1.00  0.00    -0.029 C 
HETATM   19  C27 UNL     1     -10.910   8.563  23.574  1.00  0.00     0.016 C 
ENDROOT
BRANCH   1  20
HETATM   20  C2  UNL     1     -13.711   7.323  22.739  1.00  0.00    -0.011 C 
HETATM   21  C1  UNL     1     -15.146   6.957  22.342  1.00  0.00     0.010 C 
BRANCH  20  22
HETATM   22  C3  UNL     1     -13.164   6.317  23.779  1.00  0.00     0.005 C 
BRANCH  22  23
HETATM   23  C4  UNL     1     -13.876   4.957  23.856  1.00  0.00     0.003 C 
BRANCH  23  24
HETATM   24  C5  UNL     1     -13.270   4.005  24.894  1.00  0.00     0.040 C 
BRANCH  24  25
HETATM   25  C6  UNL     1     -13.022   2.554  24.419  1.00  0.00     0.075 C 
HETATM   26  C7  UNL     1     -11.529   2.234  24.558  1.00  0.00     0.048 C 
BRANCH  25  27
HETATM   27  O1  UNL     1     -13.349   2.459  23.026  1.00  0.00    -0.388 OA
HETATM   28  H14 UNL     1     -14.316   2.308  23.004  1.00  0.00     0.210 HD
ENDBRANCH  25  27
BRANCH  25  29
HETATM   29  C8  UNL     1     -13.846   1.495  25.181  1.00  0.00     0.201 C 
BRANCH  29  30
HETATM   30  O2  UNL     1     -13.699   0.216  24.560  1.00  0.00    -0.398 OA
HETATM   31  H17 UNL     1     -14.222  -0.413  25.089  1.00  0.00     0.209 HD
ENDBRANCH  29  30
ENDBRANCH  25  29
ENDBRANCH  24  25
ENDBRANCH  23  24
ENDBRANCH  22  23
ENDBRANCH  20  22
ENDBRANCH   1  20
BRANCH   2  32
HETATM   32  O3  UNL     1     -14.139   8.084  25.497  1.00  0.00    -0.393 OA
HETATM   33  H20 UNL     1     -14.467   8.466  26.331  1.00  0.00     0.210 HD
ENDBRANCH   2  32
BRANCH   3  34
HETATM   34  O4  UNL     1     -13.595  11.122  25.990  1.00  0.00    -0.392 OA
HETATM   35  H22 UNL     1     -12.948  11.529  26.589  1.00  0.00     0.210 HD
ENDBRANCH   3  34
BRANCH   5  36
HETATM   36  O5  UNL     1     -10.160  11.087  25.100  1.00  0.00    -0.389 OA
HETATM   37  H24 UNL     1     -10.454  11.386  25.977  1.00  0.00     0.210 HD
ENDBRANCH   5  36
BRANCH   7  38
HETATM   38  O6  UNL     1     -12.010  15.306  24.033  1.00  0.00    -0.395 OA
HETATM   39  H28 UNL     1     -11.970  16.008  23.360  1.00  0.00     0.210 HD
ENDBRANCH   7  38
BRANCH  10  40
HETATM   40  O7  UNL     1      -8.876  16.695  21.087  1.00  0.00    -0.396 OA
HETATM   41  H33 UNL     1      -8.079  16.980  20.608  1.00  0.00     0.210 HD
ENDBRANCH  10  40
TORSDOF 13
ENDMDL
MODEL 8
REMARK minimizedAffinity -8.32769394
REMARK CNNscore 0.587392211
REMARK CNNaffinity 6.23804092
REMARK  13 active torsions:
REMARK  status: ('A' for Active; 'I' for Inactive)
REMARK    1  A    between atoms: C2_2  and  C3_3 
REMARK    2  A    between atoms: C2_2  and  C9_11 
REMARK    3  A    between atoms: C3_3  and  C4_4 
REMARK    4  A    between atoms: C4_4  and  C5_5 
REMARK    5  A    between atoms: C5_5  and  C6_6 
REMARK    6  A    between atoms: C6_6  and  O1_8 
REMARK    7  A    between atoms: C6_6  and  C8_9 
REMARK    8  A    between atoms: C8_9  and  O2_10 
REMARK    9  A    between atoms: C10_12  and  O3_13 
REMARK   10  A    between atoms: C11_14  and  O4_15 
REMARK   11  A    between atoms: C13_17  and  O5_18 
REMARK   12  A    between atoms: C15_20  and  O6_21 
REMARK   13  A    between atoms: C18_24  and  O7_25 
ROOT
HETATM    1  C9  UNL     1      -3.197   6.612  13.908  1.00  0.00     0.029 C 
HETATM    2  C10 UNL     1      -2.562   5.330  13.294  1.00  0.00     0.152 C 
HETATM    3  C11 UNL     1      -1.129   5.711  12.864  1.00  0.00     0.155 C 
HETATM    4  C12 UNL     1      -0.810   6.914  13.756  1.00  0.00     0.060 C 
HETATM    5  C13 UNL     1       0.488   7.730  13.491  1.00  0.00     0.071 C 
HETATM    6  C14 UNL     1       1.726   6.973  14.029  1.00  0.00     0.071 C 
HETATM    7  C15 UNL     1       2.161   7.421  15.417  1.00  0.00     0.126 C 
HETATM    8  C16 UNL     1       2.595   8.899  15.444  1.00  0.00     0.025 C 
HETATM    9  C17 UNL     1       2.565   9.432  16.895  1.00  0.00     0.039 C 
HETATM   10  C18 UNL     1       3.184  10.828  17.005  1.00  0.00     0.118 C 
HETATM   11  C19 UNL     1       2.884  11.723  15.802  1.00  0.00     0.032 C 
HETATM   12  C20 UNL     1       1.630  11.260  15.061  1.00  0.00     0.012 C 
HETATM   13  C21 UNL     1       1.779   9.818  14.472  1.00  0.00    -0.031 C 
HETATM   14  C22 UNL     1       2.604   9.995  13.157  1.00  0.00     0.016 C 
HETATM   15  C23 UNL     1       0.374   9.189  14.091  1.00  0.00     0.029 C 
HETATM   16  C24 UNL     1      -0.682   9.225  15.225  1.00  0.00     0.009 C 
HETATM   17  C25 UNL     1      -2.097   8.809  14.782  1.00  0.00     0.011 C 
HETATM   18  C26 UNL     1      -2.129   7.742  13.669  1.00  0.00    -0.029 C 
HETATM   19  C27 UNL     1      -2.335   8.437  12.306  1.00  0.00     0.016 C 
ENDROOT
BRANCH   1  20
HETATM   20  C2  UNL     1      -4.719   6.821  13.642  1.00  0.00    -0.011 C 
HETATM   21  C1  UNL     1      -5.170   8.221  13.209  1.00  0.00     0.010 C 
BRANCH  20  22
HETATM   22  C3  UNL     1      -5.565   6.326  14.839  1.00  0.00     0.005 C 
BRANCH  22  23
HETATM   23  C4  UNL     1      -7.032   5.976  14.541  1.00  0.00     0.003 C 
BRANCH  23  24
HETATM   24  C5  UNL     1      -7.288   4.470  14.406  1.00  0.00     0.040 C 
BRANCH  24  25
HETATM   25  C6  UNL     1      -7.611   3.963  12.980  1.00  0.00     0.075 C 
HETATM   26  C7  UNL     1      -7.932   5.168  12.087  1.00  0.00     0.048 C 
BRANCH  25  27
HETATM   27  O1  UNL     1      -8.789   3.148  13.032  1.00  0.00    -0.388 OA
HETATM   28  H14 UNL     1      -8.467   2.258  13.282  1.00  0.00     0.210 HD
ENDBRANCH  25  27
BRANCH  25  29
HETATM   29  C8  UNL     1      -6.479   3.136  12.337  1.00  0.00     0.201 C 
BRANCH  29  30
HETATM   30  O2  UNL     1      -6.959   1.837  11.982  1.00  0.00    -0.398 OA
HETATM   31  H17 UNL     1      -6.213   1.367  11.567  1.00  0.00     0.209 HD
ENDBRANCH  29  30
ENDBRANCH  25  29
ENDBRANCH  24  25
ENDBRANCH  23  24
ENDBRANCH  22  23
ENDBRANCH  20  22
ENDBRANCH   1  20
BRANCH   2  32
HETATM   32  O3  UNL     1      -3.274   4.768  12.204  1.00  0.00    -0.393 OA
HETATM   33  H20 UNL     1      -2.777   3.973  11.938  1.00  0.00     0.210 HD
ENDBRANCH   2  32
BRANCH   3  34
HETATM   34  O4  UNL     1      -0.276   4.594  13.074  1.00  0.00    -0.392 OA
HETATM   35  H22 UNL     1       0.518   4.715  12.528  1.00  0.00     0.210 HD
ENDBRANCH   3  34
BRANCH   5  36
HETATM   36  O5  UNL     1       0.647   7.871  12.072  1.00  0.00    -0.389 OA
HETATM   37  H24 UNL     1       1.098   7.086  11.718  1.00  0.00     0.210 HD
ENDBRANCH   5  36
BRANCH   7  38
HETATM   38  O6  UNL     1       3.255   6.583  15.799  1.00  0.00    -0.395 OA
HETATM   39  H28 UNL     1       3.646   6.939  16.616  1.00  0.00     0.210 HD
ENDBRANCH   7  38
BRANCH  10  40
HETATM   40  O7  UNL     1       4.596  10.686  17.139  1.00  0.00    -0.396 OA
HETATM   41  H33 UNL     1       4.970  11.576  17.250  1.00  0.00     0.210 HD
ENDBRANCH  10  40
TORSDOF 13
ENDMDL
MODEL 9
REMARK minimizedAffinity -8.02169895
REMARK CNNscore 0.559753537
REMARK CNNaffinity 5.96785736
REMARK  13 active torsions:
REMARK  status: ('A' for Active; 'I' for Inactive)
REMARK    1  A    between atoms: C2_2  and  C3_3 
REMARK    2  A    between atoms: C2_2  and  C9_11 
REMARK    3  A    between atoms: C3_3  and  C4_4 
REMARK    4  A    between atoms: C4_4  and  C5_5 
REMARK    5  A    between atoms: C5_5  and  C6_6 
REMARK    6  A    between atoms: C6_6  and  O1_8 
REMARK    7  A    between atoms: C6_6  and  C8_9 
REMARK    8  A    between atoms: C8_9  and  O2_10 
REMARK    9  A    between atoms: C10_12  and  O3_13 
REMARK   10  A    between atoms: C11_14  and  O4_15 
REMARK   11  A    between atoms: C13_17  and  O5_18 
REMARK   12  A    between atoms: C15_20  and  O6_21 
REMARK   13  A    between atoms: C18_24  and  O7_25 
ROOT
HETATM    1  C9  UNL     1      -2.112   7.769  13.740  1.00  0.00     0.029 C 
HETATM    2  C10 UNL     1      -1.912   7.126  15.144  1.00  0.00     0.152 C 
HETATM    3  C11 UNL     1      -0.452   6.627  15.196  1.00  0.00     0.155 C 
HETATM    4  C12 UNL     1       0.249   7.502  14.152  1.00  0.00     0.060 C 
HETATM    5  C13 UNL     1       1.716   7.175  13.751  1.00  0.00     0.071 C 
HETATM    6  C14 UNL     1       2.699   7.654  14.845  1.00  0.00     0.071 C 
HETATM    7  C15 UNL     1       3.311   9.018  14.563  1.00  0.00     0.126 C 
HETATM    8  C16 UNL     1       4.161   9.023  13.279  1.00  0.00     0.025 C 
HETATM    9  C17 UNL     1       4.356  10.473  12.780  1.00  0.00     0.039 C 
HETATM   10  C18 UNL     1       5.363  10.552  11.630  1.00  0.00     0.118 C 
HETATM   11  C19 UNL     1       5.285   9.364  10.671  1.00  0.00     0.032 C 
HETATM   12  C20 UNL     1       3.918   8.685  10.734  1.00  0.00     0.012 C 
HETATM   13  C21 UNL     1       3.608   8.090  12.148  1.00  0.00    -0.031 C 
HETATM   14  C22 UNL     1       4.387   6.738  12.204  1.00  0.00     0.016 C 
HETATM   15  C23 UNL     1       2.064   7.778  12.330  1.00  0.00     0.029 C 
HETATM   16  C24 UNL     1       1.119   8.961  12.000  1.00  0.00     0.009 C 
HETATM   17  C25 UNL     1      -0.375   8.587  11.976  1.00  0.00     0.011 C 
HETATM   18  C26 UNL     1      -0.771   7.477  12.971  1.00  0.00    -0.029 C 
HETATM   19  C27 UNL     1      -0.826   6.126  12.228  1.00  0.00     0.016 C 
ENDROOT
BRANCH   1  20
HETATM   20  C2  UNL     1      -3.515   7.575  13.089  1.00  0.00    -0.011 C 
HETATM   21  C1  UNL     1      -4.553   8.681  13.317  1.00  0.00     0.010 C 
BRANCH  20  22
HETATM   22  C3  UNL     1      -4.109   6.193  13.450  1.00  0.00     0.005 C 
BRANCH  22  23
HETATM   23  C4  UNL     1      -5.630   6.138  13.668  1.00  0.00     0.003 C 
BRANCH  23  24
HETATM   24  C5  UNL     1      -6.032   5.807  15.111  1.00  0.00     0.040 C 
BRANCH  24  25
HETATM   25  C6  UNL     1      -7.524   6.016  15.463  1.00  0.00     0.075 C 
HETATM   26  C7  UNL     1      -7.623   6.988  16.644  1.00  0.00     0.048 C 
BRANCH  25  27
HETATM   27  O1  UNL     1      -8.079   4.766  15.894  1.00  0.00    -0.388 OA
HETATM   28  H14 UNL     1      -8.331   4.305  15.068  1.00  0.00     0.210 HD
ENDBRANCH  25  27
BRANCH  25  29
HETATM   29  C8  UNL     1      -8.377   6.543  14.291  1.00  0.00     0.201 C 
BRANCH  29  30
HETATM   30  O2  UNL     1      -9.727   6.094  14.423  1.00  0.00    -0.398 OA
HETATM   31  H17 UNL     1     -10.222   6.469  13.671  1.00  0.00     0.209 HD
ENDBRANCH  29  30
ENDBRANCH  25  29
ENDBRANCH  24  25
ENDBRANCH  23  24
ENDBRANCH  22  23
ENDBRANCH  20  22
ENDBRANCH   1  20
BRANCH   2  32
HETATM   32  O3  UNL     1      -2.807   6.072  15.457  1.00  0.00    -0.393 OA
HETATM   33  H20 UNL     1      -2.579   5.783  16.360  1.00  0.00     0.210 HD
ENDBRANCH   2  32
BRANCH   3  34
HETATM   34  O4  UNL     1       0.043   6.797  16.517  1.00  0.00    -0.392 OA
HETATM   35  H22 UNL     1       0.812   6.214  16.628  1.00  0.00     0.210 HD
ENDBRANCH   3  34
BRANCH   5  36
HETATM   36  O5  UNL     1       1.843   5.749  13.643  1.00  0.00    -0.389 OA
HETATM   37  H24 UNL     1       2.026   5.375  14.521  1.00  0.00     0.210 HD
ENDBRANCH   5  36
BRANCH   7  38
HETATM   38  O6  UNL     1       4.126   9.348  15.691  1.00  0.00    -0.395 OA
HETATM   39  H28 UNL     1       4.641  10.145  15.477  1.00  0.00     0.210 HD
ENDBRANCH   7  38
BRANCH  10  40
HETATM   40  O7  UNL     1       6.676  10.619  12.183  1.00  0.00    -0.396 OA
HETATM   41  H33 UNL     1       7.300  10.711  11.443  1.00  0.00     0.210 HD
ENDBRANCH  10  40
TORSDOF 13
ENDMDL
