MODEL 1
REMARK minimizedAffinity -7.558465
REMARK CNNscore 0.583244383
REMARK CNNaffinity 6.64882517
REMARK  5 active torsions:
REMARK  status: ('A' for Active; 'I' for Inactive)
REMARK    1  A    between atoms: C3_3  and  C4_4 
REMARK    2  A    between atoms: C4_4  and  O2_6 
REMARK    3  A    between atoms: O2_6  and  C5_7 
REMARK    4  A    between atoms: C5_7  and  C6_8 
REMARK    5  A    between atoms: C12_14  and  C13_15 
ROOT
HETATM    1  C1  UNL     1       3.861  52.220  -8.406  1.00  0.00     0.069 C 
HETATM    2  C2  UNL     1       2.779  53.198  -8.027  1.00  0.00     0.018 C 
HETATM    3  C3  UNL     1       2.153  54.028  -8.890  1.00  0.00     0.052 C 
HETATM    4  C12 UNL     1       1.063  54.996  -8.447  1.00  0.00     0.104 C 
HETATM    5  C22 UNL     1       0.955  55.066  -6.923  1.00  0.00     0.024 C 
HETATM    6  C23 UNL     1       1.625  54.208  -6.123  1.00  0.00     0.020 C 
HETATM    7  C24 UNL     1       1.557  54.270  -4.617  1.00  0.00     0.058 C 
HETATM    8  C25 UNL     1       1.155  55.651  -4.115  1.00  0.00     0.014 C 
HETATM    9  C26 UNL     1      -0.091  56.148  -4.828  1.00  0.00     0.084 C 
HETATM   10  C27 UNL     1       0.086  56.121  -6.329  1.00  0.00     0.158 C 
HETATM   11  O5  UNL     1      -0.519  56.910  -7.051  1.00  0.00    -0.293 OA
HETATM   12  N1  UNL     1       2.450  53.245  -6.678  1.00  0.00    -0.362 N 
HETATM   13  H22 UNL     1       3.018  52.686  -6.045  1.00  0.00     0.165 HD
ENDROOT
BRANCH   4  14
HETATM   14  C13 UNL     1      -0.263  54.620  -9.095  1.00  0.00     0.029 A 
HETATM   15  C14 UNL     1      -0.978  55.393  -9.925  1.00  0.00     0.154 A 
HETATM   16  O3  UNL     1      -2.159  55.067 -10.546  1.00  0.00    -0.321 OA
HETATM   17  C15 UNL     1      -2.670  53.816 -10.321  1.00  0.00     0.089 A 
HETATM   18  C16 UNL     1      -3.855  53.483 -10.978  1.00  0.00     0.040 A 
HETATM   19  C20 UNL     1      -2.058  52.893  -9.476  1.00  0.00     0.050 A 
HETATM   20  C17 UNL     1      -4.424  52.222 -10.784  1.00  0.00     0.026 A 
HETATM   21  C18 UNL     1      -3.807  51.304  -9.931  1.00  0.00     0.035 A 
HETATM   22 CL1  UNL     1      -4.514  49.753  -9.698  1.00  0.00    -0.084 Cl
HETATM   23  C19 UNL     1      -2.624  51.631  -9.273  1.00  0.00     0.042 A 
HETATM   24  C21 UNL     1      -0.806  53.269  -8.800  1.00  0.00     0.194 A 
HETATM   25  O4  UNL     1      -0.257  52.499  -8.021  1.00  0.00    -0.287 OA
ENDBRANCH   4  14
BRANCH   3  26
HETATM   26  C4  UNL     1       2.511  54.057 -10.319  1.00  0.00     0.292 C 
HETATM   27  O1  UNL     1       2.471  53.085 -11.056  1.00  0.00    -0.259 OA
BRANCH  26  28
HETATM   28  O2  UNL     1       2.891  55.313 -10.638  1.00  0.00    -0.313 OA
BRANCH  28  29
HETATM   29  C5  UNL     1       4.279  55.431 -10.953  1.00  0.00     0.217 C 
BRANCH  29  30
HETATM   30  C6  UNL     1       5.033  55.611  -9.661  1.00  0.00    -0.034 A 
HETATM   31  C7  UNL     1       6.252  54.947  -9.462  1.00  0.00     0.009 A 
HETATM   32  C8  UNL     1       6.965  55.112  -8.275  1.00  0.00     0.001 A 
HETATM   33  C9  UNL     1       6.468  55.945  -7.275  1.00  0.00     0.000 A 
HETATM   34  C10 UNL     1       5.260  56.615  -7.462  1.00  0.00     0.001 A 
HETATM   35  C11 UNL     1       4.546  56.452  -8.651  1.00  0.00     0.009 A 
ENDBRANCH  29  30
ENDBRANCH  28  29
ENDBRANCH  26  28
ENDBRANCH   3  26
TORSDOF 5
ENDMDL
MODEL 2
REMARK minimizedAffinity -7.43419266
REMARK CNNscore 0.50166142
REMARK CNNaffinity 6.20425844
REMARK  5 active torsions:
REMARK  status: ('A' for Active; 'I' for Inactive)
REMARK    1  A    between atoms: C3_3  and  C4_4 
REMARK    2  A    between atoms: C4_4  and  O2_6 
REMARK    3  A    between atoms: O2_6  and  C5_7 
REMARK    4  A    between atoms: C5_7  and  C6_8 
REMARK    5  A    between atoms: C12_14  and  C13_15 
ROOT
HETATM    1  C1  UNL     1      -9.377  49.493 -25.931  1.00  0.00     0.069 C 
HETATM    2  C2  UNL     1      -9.121  48.501 -27.036  1.00  0.00     0.018 C 
HETATM    3  C3  UNL     1      -8.794  47.204 -26.847  1.00  0.00     0.052 C 
HETATM    4  C12 UNL     1      -8.550  46.246 -28.007  1.00  0.00     0.104 C 
HETATM    5  C22 UNL     1      -8.486  46.985 -29.345  1.00  0.00     0.024 C 
HETATM    6  C23 UNL     1      -8.815  48.290 -29.453  1.00  0.00     0.020 C 
HETATM    7  C24 UNL     1      -8.739  49.050 -30.753  1.00  0.00     0.058 C 
HETATM    8  C25 UNL     1      -7.772  48.405 -31.740  1.00  0.00     0.014 C 
HETATM    9  C26 UNL     1      -8.055  46.921 -31.888  1.00  0.00     0.084 C 
HETATM   10  C27 UNL     1      -8.043  46.222 -30.546  1.00  0.00     0.158 C 
HETATM   11  O5  UNL     1      -7.734  45.036 -30.454  1.00  0.00    -0.293 OA
HETATM   12  N1  UNL     1      -9.204  49.001 -28.329  1.00  0.00    -0.362 N 
HETATM   13  H22 UNL     1      -9.343  50.003 -28.429  1.00  0.00     0.165 HD
ENDROOT
BRANCH   4  14
HETATM   14  C13 UNL     1      -9.606  45.150 -28.011  1.00  0.00     0.029 A 
HETATM   15  C14 UNL     1      -9.385  43.845 -27.788  1.00  0.00     0.154 A 
HETATM   16  O3  UNL     1     -10.323  42.843 -27.756  1.00  0.00    -0.321 OA
HETATM   17  C15 UNL     1     -11.633  43.193 -27.951  1.00  0.00     0.089 A 
HETATM   18  C16 UNL     1     -12.582  42.172 -27.888  1.00  0.00     0.040 A 
HETATM   19  C20 UNL     1     -12.033  44.502 -28.206  1.00  0.00     0.050 A 
HETATM   20  C17 UNL     1     -13.933  42.469 -28.082  1.00  0.00     0.026 A 
HETATM   21  C18 UNL     1     -14.326  43.784 -28.343  1.00  0.00     0.035 A 
HETATM   22 CL1  UNL     1     -15.992  44.141 -28.582  1.00  0.00    -0.084 Cl
HETATM   23  C19 UNL     1     -13.383  44.806 -28.408  1.00  0.00     0.042 A 
HETATM   24  C21 UNL     1     -11.011  45.560 -28.262  1.00  0.00     0.194 A 
HETATM   25  O4  UNL     1     -11.319  46.717 -28.520  1.00  0.00    -0.287 OA
ENDBRANCH   4  14
BRANCH   3  26
HETATM   26  C4  UNL     1      -8.635  46.644 -25.494  1.00  0.00     0.292 C 
HETATM   27  O1  UNL     1      -9.564  46.331 -24.766  1.00  0.00    -0.259 OA
BRANCH  26  28
HETATM   28  O2  UNL     1      -7.315  46.562 -25.218  1.00  0.00    -0.313 OA
BRANCH  28  29
HETATM   29  C5  UNL     1      -6.788  47.725 -24.580  1.00  0.00     0.217 C 
BRANCH  29  30
HETATM   30  C6  UNL     1      -5.487  48.073 -25.257  1.00  0.00    -0.034 A 
HETATM   31  C7  UNL     1      -4.373  48.438 -24.486  1.00  0.00     0.009 A 
HETATM   32  C8  UNL     1      -3.159  48.753 -25.099  1.00  0.00     0.001 A 
HETATM   33  C9  UNL     1      -3.047  48.705 -26.486  1.00  0.00     0.000 A 
HETATM   34  C10 UNL     1      -4.146  48.340 -27.263  1.00  0.00     0.001 A 
HETATM   35  C11 UNL     1      -5.360  48.022 -26.651  1.00  0.00     0.009 A 
ENDBRANCH  29  30
ENDBRANCH  28  29
ENDBRANCH  26  28
ENDBRANCH   3  26
TORSDOF 5
ENDMDL
MODEL 3
REMARK minimizedAffinity -6.9143424
REMARK CNNscore 0.308230042
REMARK CNNaffinity 5.73832083
REMARK  5 active torsions:
REMARK  status: ('A' for Active; 'I' for Inactive)
REMARK    1  A    between atoms: C3_3  and  C4_4 
REMARK    2  A    between atoms: C4_4  and  O2_6 
REMARK    3  A    between atoms: O2_6  and  C5_7 
REMARK    4  A    between atoms: C5_7  and  C6_8 
REMARK    5  A    between atoms: C12_14  and  C13_15 
ROOT
HETATM    1  C1  UNL     1       1.830  57.597  -5.441  1.00  0.00     0.069 C 
HETATM    2  C2  UNL     1       1.922  56.595  -6.564  1.00  0.00     0.018 C 
HETATM    3  C3  UNL     1       1.220  55.443  -6.627  1.00  0.00     0.052 C 
HETATM    4  C12 UNL     1       1.353  54.468  -7.791  1.00  0.00     0.104 C 
HETATM    5  C22 UNL     1       2.518  54.842  -8.709  1.00  0.00     0.024 C 
HETATM    6  C23 UNL     1       3.183  56.009  -8.574  1.00  0.00     0.020 C 
HETATM    7  C24 UNL     1       4.351  56.393  -9.449  1.00  0.00     0.058 C 
HETATM    8  C25 UNL     1       5.028  55.177 -10.069  1.00  0.00     0.014 C 
HETATM    9  C26 UNL     1       4.010  54.267 -10.733  1.00  0.00     0.084 C 
HETATM   10  C27 UNL     1       2.913  53.872  -9.770  1.00  0.00     0.158 C 
HETATM   11  O5  UNL     1       2.317  52.804  -9.893  1.00  0.00    -0.293 OA
HETATM   12  N1  UNL     1       2.828  56.896  -7.572  1.00  0.00    -0.362 N 
HETATM   13  H22 UNL     1       3.417  57.715  -7.434  1.00  0.00     0.165 HD
ENDROOT
BRANCH   4  14
HETATM   14  C13 UNL     1       0.036  54.379  -8.550  1.00  0.00     0.029 A 
HETATM   15  C14 UNL     1      -0.531  55.368  -9.258  1.00  0.00     0.154 A 
HETATM   16  O3  UNL     1      -1.700  55.303  -9.976  1.00  0.00    -0.321 OA
HETATM   17  C15 UNL     1      -2.366  54.106 -10.000  1.00  0.00     0.089 A 
HETATM   18  C16 UNL     1      -3.537  54.043 -10.755  1.00  0.00     0.040 A 
HETATM   19  C20 UNL     1      -1.920  52.982  -9.309  1.00  0.00     0.050 A 
HETATM   20  C17 UNL     1      -4.260  52.848 -10.813  1.00  0.00     0.026 A 
HETATM   21  C18 UNL     1      -3.808  51.727 -10.114  1.00  0.00     0.035 A 
HETATM   22 CL1  UNL     1      -4.705  50.260 -10.191  1.00  0.00    -0.084 Cl
HETATM   23  C19 UNL     1      -2.640  51.786  -9.358  1.00  0.00     0.042 A 
HETATM   24  C21 UNL     1      -0.677  53.077  -8.524  1.00  0.00     0.194 A 
HETATM   25  O4  UNL     1      -0.272  52.121  -7.874  1.00  0.00    -0.287 OA
ENDBRANCH   4  14
BRANCH   3  26
HETATM   26  C4  UNL     1       0.292  55.052  -5.551  1.00  0.00     0.292 C 
HETATM   27  O1  UNL     1       0.271  53.949  -5.029  1.00  0.00    -0.259 OA
BRANCH  26  28
HETATM   28  O2  UNL     1      -0.509  56.104  -5.276  1.00  0.00    -0.313 OA
BRANCH  28  29
HETATM   29  C5  UNL     1      -1.201  55.990  -4.032  1.00  0.00     0.217 C 
BRANCH  29  30
HETATM   30  C6  UNL     1      -1.080  57.308  -3.312  1.00  0.00    -0.034 A 
HETATM   31  C7  UNL     1       0.130  57.660  -2.694  1.00  0.00     0.009 A 
HETATM   32  C8  UNL     1       0.259  58.882  -2.033  1.00  0.00     0.001 A 
HETATM   33  C9  UNL     1      -0.818  59.765  -1.985  1.00  0.00     0.000 A 
HETATM   34  C10 UNL     1      -2.023  59.428  -2.599  1.00  0.00     0.001 A 
HETATM   35  C11 UNL     1      -2.153  58.207  -3.263  1.00  0.00     0.009 A 
ENDBRANCH  29  30
ENDBRANCH  28  29
ENDBRANCH  26  28
ENDBRANCH   3  26
TORSDOF 5
ENDMDL
MODEL 4
REMARK minimizedAffinity -7.29146624
REMARK CNNscore 0.283917248
REMARK CNNaffinity 5.17508173
REMARK  5 active torsions:
REMARK  status: ('A' for Active; 'I' for Inactive)
REMARK    1  A    between atoms: C3_3  and  C4_4 
REMARK    2  A    between atoms: C4_4  and  O2_6 
REMARK    3  A    between atoms: O2_6  and  C5_7 
REMARK    4  A    between atoms: C5_7  and  C6_8 
REMARK    5  A    between atoms: C12_14  and  C13_15 
ROOT
HETATM    1  C1  UNL     1     -19.282  44.758 -26.696  1.00  0.00     0.069 C 
HETATM    2  C2  UNL     1     -17.863  45.201 -26.452  1.00  0.00     0.018 C 
HETATM    3  C3  UNL     1     -17.470  46.007 -25.441  1.00  0.00     0.052 C 
HETATM    4  C12 UNL     1     -16.017  46.420 -25.244  1.00  0.00     0.104 C 
HETATM    5  C22 UNL     1     -15.148  46.015 -26.436  1.00  0.00     0.024 C 
HETATM    6  C23 UNL     1     -15.617  45.216 -27.418  1.00  0.00     0.020 C 
HETATM    7  C24 UNL     1     -14.791  44.820 -28.616  1.00  0.00     0.058 C 
HETATM    8  C25 UNL     1     -13.660  45.804 -28.886  1.00  0.00     0.014 C 
HETATM    9  C26 UNL     1     -12.859  46.072 -27.624  1.00  0.00     0.084 C 
HETATM   10  C27 UNL     1     -13.751  46.532 -26.493  1.00  0.00     0.158 C 
HETATM   11  O5  UNL     1     -13.321  47.267 -25.607  1.00  0.00    -0.293 OA
HETATM   12  N1  UNL     1     -16.923  44.757 -27.373  1.00  0.00    -0.362 N 
HETATM   13  H22 UNL     1     -17.272  44.245 -28.179  1.00  0.00     0.165 HD
ENDROOT
BRANCH   4  14
HETATM   14  C13 UNL     1     -15.487  45.854 -23.934  1.00  0.00     0.029 A 
HETATM   15  C14 UNL     1     -15.299  44.554 -23.659  1.00  0.00     0.154 A 
HETATM   16  O3  UNL     1     -14.794  44.020 -22.499  1.00  0.00    -0.321 OA
HETATM   17  C15 UNL     1     -14.419  44.890 -21.510  1.00  0.00     0.089 A 
HETATM   18  C16 UNL     1     -13.881  44.340 -20.346  1.00  0.00     0.040 A 
HETATM   19  C20 UNL     1     -14.558  46.271 -21.628  1.00  0.00     0.050 A 
HETATM   20  C17 UNL     1     -13.484  45.179 -19.302  1.00  0.00     0.026 A 
HETATM   21  C18 UNL     1     -13.631  46.562 -19.427  1.00  0.00     0.035 A 
HETATM   22 CL1  UNL     1     -13.140  47.589 -18.136  1.00  0.00    -0.084 Cl
HETATM   23  C19 UNL     1     -14.169  47.116 -20.586  1.00  0.00     0.042 A 
HETATM   24  C21 UNL     1     -15.125  46.824 -22.870  1.00  0.00     0.194 A 
HETATM   25  O4  UNL     1     -15.297  48.031 -22.998  1.00  0.00    -0.287 OA
ENDBRANCH   4  14
BRANCH   3  26
HETATM   26  C4  UNL     1     -18.441  46.553 -24.477  1.00  0.00     0.292 C 
HETATM   27  O1  UNL     1     -19.064  47.589 -24.641  1.00  0.00    -0.259 OA
BRANCH  26  28
HETATM   28  O2  UNL     1     -18.494  45.725 -23.411  1.00  0.00    -0.313 OA
BRANCH  28  29
HETATM   29  C5  UNL     1     -18.634  46.404 -22.162  1.00  0.00     0.217 C 
BRANCH  29  30
HETATM   30  C6  UNL     1     -19.098  45.400 -21.140  1.00  0.00    -0.034 A 
HETATM   31  C7  UNL     1     -19.040  45.713 -19.773  1.00  0.00     0.009 A 
HETATM   32  C8  UNL     1     -19.475  44.797 -18.816  1.00  0.00     0.001 A 
HETATM   33  C9  UNL     1     -19.976  43.559 -19.214  1.00  0.00     0.000 A 
HETATM   34  C10 UNL     1     -20.044  43.237 -20.568  1.00  0.00     0.001 A 
HETATM   35  C11 UNL     1     -19.610  44.155 -21.528  1.00  0.00     0.009 A 
ENDBRANCH  29  30
ENDBRANCH  28  29
ENDBRANCH  26  28
ENDBRANCH   3  26
TORSDOF 5
ENDMDL
MODEL 5
REMARK minimizedAffinity -7.32491684
REMARK CNNscore 0.226268724
REMARK CNNaffinity 5.16113043
REMARK  5 active torsions:
REMARK  status: ('A' for Active; 'I' for Inactive)
REMARK    1  A    between atoms: C3_3  and  C4_4 
REMARK    2  A    between atoms: C4_4  and  O2_6 
REMARK    3  A    between atoms: O2_6  and  C5_7 
REMARK    4  A    between atoms: C5_7  and  C6_8 
REMARK    5  A    between atoms: C12_14  and  C13_15 
ROOT
HETATM    1  C1  UNL     1      -9.214  48.317 -29.306  1.00  0.00     0.069 C 
HETATM    2  C2  UNL     1      -9.612  47.079 -28.543  1.00  0.00     0.018 C 
HETATM    3  C3  UNL     1      -9.367  46.870 -27.231  1.00  0.00     0.052 C 
HETATM    4  C12 UNL     1      -9.797  45.597 -26.513  1.00  0.00     0.104 C 
HETATM    5  C22 UNL     1     -10.300  44.538 -27.495  1.00  0.00     0.024 C 
HETATM    6  C23 UNL     1     -10.508  44.819 -28.799  1.00  0.00     0.020 C 
HETATM    7  C24 UNL     1     -10.981  43.789 -29.794  1.00  0.00     0.058 C 
HETATM    8  C25 UNL     1     -10.666  42.367 -29.344  1.00  0.00     0.014 C 
HETATM    9  C26 UNL     1     -11.131  42.132 -27.918  1.00  0.00     0.084 C 
HETATM   10  C27 UNL     1     -10.557  43.165 -26.974  1.00  0.00     0.158 C 
HETATM   11  O5  UNL     1     -10.361  42.900 -25.790  1.00  0.00    -0.293 OA
HETATM   12  N1  UNL     1     -10.246  46.089 -29.283  1.00  0.00    -0.362 N 
HETATM   13  H22 UNL     1     -10.314  46.236 -30.288  1.00  0.00     0.165 HD
ENDROOT
BRANCH   4  14
HETATM   14  C13 UNL     1     -10.833  45.924 -25.447  1.00  0.00     0.029 A 
HETATM   15  C14 UNL     1     -10.593  46.059 -24.134  1.00  0.00     0.154 A 
HETATM   16  O3  UNL     1     -11.504  46.383 -23.157  1.00  0.00    -0.321 OA
HETATM   17  C15 UNL     1     -12.796  46.616 -23.546  1.00  0.00     0.089 A 
HETATM   18  C16 UNL     1     -13.707  46.973 -22.551  1.00  0.00     0.040 A 
HETATM   19  C20 UNL     1     -13.216  46.507 -24.869  1.00  0.00     0.050 A 
HETATM   20  C17 UNL     1     -15.041  47.219 -22.889  1.00  0.00     0.026 A 
HETATM   21  C18 UNL     1     -15.455  47.102 -24.218  1.00  0.00     0.035 A 
HETATM   22 CL1  UNL     1     -17.099  47.406 -24.625  1.00  0.00    -0.084 Cl
HETATM   23  C19 UNL     1     -14.550  46.745 -25.214  1.00  0.00     0.042 A 
HETATM   24  C21 UNL     1     -12.232  46.133 -25.899  1.00  0.00     0.194 A 
HETATM   25  O4  UNL     1     -12.570  45.992 -27.069  1.00  0.00    -0.287 OA
ENDBRANCH   4  14
BRANCH   3  26
HETATM   26  C4  UNL     1      -8.643  47.865 -26.420  1.00  0.00     0.292 C 
HETATM   27  O1  UNL     1      -9.134  48.904 -26.009  1.00  0.00    -0.259 OA
BRANCH  26  28
HETATM   28  O2  UNL     1      -7.378  47.429 -26.240  1.00  0.00    -0.313 OA
BRANCH  28  29
HETATM   29  C5  UNL     1      -6.708  48.049 -25.141  1.00  0.00     0.217 C 
BRANCH  29  30
HETATM   30  C6  UNL     1      -5.277  48.288 -25.547  1.00  0.00    -0.034 A 
HETATM   31  C7  UNL     1      -4.301  48.526 -24.568  1.00  0.00     0.009 A 
HETATM   32  C8  UNL     1      -2.971  48.739 -24.929  1.00  0.00     0.001 A 
HETATM   33  C9  UNL     1      -2.601  48.713 -26.271  1.00  0.00     0.000 A 
HETATM   34  C10 UNL     1      -3.560  48.472 -27.254  1.00  0.00     0.001 A 
HETATM   35  C11 UNL     1      -4.892  48.257 -26.894  1.00  0.00     0.009 A 
ENDBRANCH  29  30
ENDBRANCH  28  29
ENDBRANCH  26  28
ENDBRANCH   3  26
TORSDOF 5
ENDMDL
MODEL 6
REMARK minimizedAffinity -6.88358641
REMARK CNNscore 0.209862918
REMARK CNNaffinity 5.68540955
REMARK  5 active torsions:
REMARK  status: ('A' for Active; 'I' for Inactive)
REMARK    1  A    between atoms: C3_3  and  C4_4 
REMARK    2  A    between atoms: C4_4  and  O2_6 
REMARK    3  A    between atoms: O2_6  and  C5_7 
REMARK    4  A    between atoms: C5_7  and  C6_8 
REMARK    5  A    between atoms: C12_14  and  C13_15 
ROOT
HETATM    1  C1  UNL     1       0.824  56.210  -8.060  1.00  0.00     0.069 C 
HETATM    2  C2  UNL     1       0.432  55.227  -9.133  1.00  0.00     0.018 C 
HETATM    3  C3  UNL     1       1.222  54.855 -10.164  1.00  0.00     0.052 C 
HETATM    4  C12 UNL     1       0.771  53.853 -11.219  1.00  0.00     0.104 C 
HETATM    5  C22 UNL     1      -0.719  53.533 -11.092  1.00  0.00     0.024 C 
HETATM    6  C23 UNL     1      -1.449  53.954 -10.037  1.00  0.00     0.020 C 
HETATM    7  C24 UNL     1      -2.925  53.673  -9.897  1.00  0.00     0.058 C 
HETATM    8  C25 UNL     1      -3.587  53.394 -11.241  1.00  0.00     0.014 C 
HETATM    9  C26 UNL     1      -2.813  52.346 -12.021  1.00  0.00     0.084 C 
HETATM   10  C27 UNL     1      -1.361  52.737 -12.177  1.00  0.00     0.158 C 
HETATM   11  O5  UNL     1      -0.704  52.358 -13.144  1.00  0.00    -0.293 OA
HETATM   12  N1  UNL     1      -0.855  54.713  -9.043  1.00  0.00    -0.362 N 
HETATM   13  H22 UNL     1      -1.457  55.099  -8.319  1.00  0.00     0.165 HD
ENDROOT
BRANCH   4  14
HETATM   14  C13 UNL     1       1.631  52.599 -11.150  1.00  0.00     0.029 A 
HETATM   15  C14 UNL     1       2.504  52.193 -12.085  1.00  0.00     0.154 A 
HETATM   16  O3  UNL     1       3.313  51.084 -12.033  1.00  0.00    -0.321 OA
HETATM   17  C15 UNL     1       3.251  50.305 -10.908  1.00  0.00     0.089 A 
HETATM   18  C16 UNL     1       4.097  49.197 -10.852  1.00  0.00     0.040 A 
HETATM   19  C20 UNL     1       2.389  50.579  -9.849  1.00  0.00     0.050 A 
HETATM   20  C17 UNL     1       4.074  48.364  -9.730  1.00  0.00     0.026 A 
HETATM   21  C18 UNL     1       3.204  48.642  -8.675  1.00  0.00     0.035 A 
HETATM   22 CL1  UNL     1       3.182  47.611  -7.297  1.00  0.00    -0.084 Cl
HETATM   23  C19 UNL     1       2.357  49.747  -8.726  1.00  0.00     0.042 A 
HETATM   24  C21 UNL     1       1.511  51.758  -9.932  1.00  0.00     0.194 A 
HETATM   25  O4  UNL     1       0.713  52.011  -9.037  1.00  0.00    -0.287 OA
ENDBRANCH   4  14
BRANCH   3  26
HETATM   26  C4  UNL     1       2.572  55.420 -10.335  1.00  0.00     0.292 C 
HETATM   27  O1  UNL     1       2.843  56.334 -11.098  1.00  0.00    -0.259 OA
BRANCH  26  28
HETATM   28  O2  UNL     1       3.422  54.750  -9.527  1.00  0.00    -0.313 OA
BRANCH  28  29
HETATM   29  C5  UNL     1       4.798  54.934  -9.860  1.00  0.00     0.217 C 
BRANCH  29  30
HETATM   30  C6  UNL     1       5.494  55.499  -8.649  1.00  0.00    -0.034 A 
HETATM   31  C7  UNL     1       4.849  56.458  -7.853  1.00  0.00     0.009 A 
HETATM   32  C8  UNL     1       5.478  56.982  -6.724  1.00  0.00     0.001 A 
HETATM   33  C9  UNL     1       6.757  56.551  -6.376  1.00  0.00     0.000 A 
HETATM   34  C10 UNL     1       7.407  55.596  -7.156  1.00  0.00     0.001 A 
HETATM   35  C11 UNL     1       6.777  55.068  -8.285  1.00  0.00     0.009 A 
ENDBRANCH  29  30
ENDBRANCH  28  29
ENDBRANCH  26  28
ENDBRANCH   3  26
TORSDOF 5
ENDMDL
MODEL 7
REMARK minimizedAffinity -6.81579828
REMARK CNNscore 0.19603695
REMARK CNNaffinity 5.62555933
REMARK  5 active torsions:
REMARK  status: ('A' for Active; 'I' for Inactive)
REMARK    1  A    between atoms: C3_3  and  C4_4 
REMARK    2  A    between atoms: C4_4  and  O2_6 
REMARK    3  A    between atoms: O2_6  and  C5_7 
REMARK    4  A    between atoms: C5_7  and  C6_8 
REMARK    5  A    between atoms: C12_14  and  C13_15 
ROOT
HETATM    1  C1  UNL     1      -5.458  51.065 -22.957  1.00  0.00     0.069 C 
HETATM    2  C2  UNL     1      -6.135  49.751 -23.252  1.00  0.00     0.018 C 
HETATM    3  C3  UNL     1      -5.692  48.545 -22.833  1.00  0.00     0.052 C 
HETATM    4  C12 UNL     1      -6.422  47.249 -23.161  1.00  0.00     0.104 C 
HETATM    5  C22 UNL     1      -7.533  47.471 -24.189  1.00  0.00     0.024 C 
HETATM    6  C23 UNL     1      -7.911  48.710 -24.571  1.00  0.00     0.020 C 
HETATM    7  C24 UNL     1      -8.986  48.959 -25.599  1.00  0.00     0.058 C 
HETATM    8  C25 UNL     1      -9.184  47.765 -26.525  1.00  0.00     0.014 C 
HETATM    9  C26 UNL     1      -9.351  46.482 -25.729  1.00  0.00     0.084 C 
HETATM   10  C27 UNL     1      -8.198  46.272 -24.774  1.00  0.00     0.158 C 
HETATM   11  O5  UNL     1      -7.853  45.141 -24.438  1.00  0.00    -0.293 OA
HETATM   12  N1  UNL     1      -7.274  49.821 -24.043  1.00  0.00    -0.362 N 
HETATM   13  H22 UNL     1      -7.513  50.731 -24.429  1.00  0.00     0.165 HD
ENDROOT
BRANCH   4  14
HETATM   14  C13 UNL     1      -6.948  46.608 -21.885  1.00  0.00     0.029 A 
HETATM   15  C14 UNL     1      -6.547  45.434 -21.373  1.00  0.00     0.154 A 
HETATM   16  O3  UNL     1      -6.983  44.849 -20.209  1.00  0.00    -0.321 OA
HETATM   17  C15 UNL     1      -7.911  45.528 -19.466  1.00  0.00     0.089 A 
HETATM   18  C16 UNL     1      -8.326  44.939 -18.271  1.00  0.00     0.040 A 
HETATM   19  C20 UNL     1      -8.441  46.754 -19.860  1.00  0.00     0.050 A 
HETATM   20  C17 UNL     1      -9.274  45.585 -17.474  1.00  0.00     0.026 A 
HETATM   21  C18 UNL     1      -9.804  46.812 -17.878  1.00  0.00     0.035 A 
HETATM   22 CL1  UNL     1     -10.972  47.601 -16.890  1.00  0.00    -0.084 Cl
HETATM   23  C19 UNL     1      -9.394  47.403 -19.071  1.00  0.00     0.042 A 
HETATM   24  C21 UNL     1      -7.981  47.354 -21.124  1.00  0.00     0.194 A 
HETATM   25  O4  UNL     1      -8.450  48.414 -21.522  1.00  0.00    -0.287 OA
ENDBRANCH   4  14
BRANCH   3  26
HETATM   26  C4  UNL     1      -4.455  48.416 -22.044  1.00  0.00     0.292 C 
HETATM   27  O1  UNL     1      -4.408  48.475 -20.826  1.00  0.00    -0.259 OA
BRANCH  26  28
HETATM   28  O2  UNL     1      -3.422  48.243 -22.896  1.00  0.00    -0.313 OA
BRANCH  28  29
HETATM   29  C5  UNL     1      -2.151  48.157 -22.249  1.00  0.00     0.217 C 
BRANCH  29  30
HETATM   30  C6  UNL     1      -1.518  49.523 -22.290  1.00  0.00    -0.034 A 
HETATM   31  C7  UNL     1      -1.684  50.338 -23.420  1.00  0.00     0.009 A 
HETATM   32  C8  UNL     1      -1.112  51.610 -23.468  1.00  0.00     0.001 A 
HETATM   33  C9  UNL     1      -0.370  52.080 -22.387  1.00  0.00     0.000 A 
HETATM   34  C10 UNL     1      -0.202  51.282 -21.256  1.00  0.00     0.001 A 
HETATM   35  C11 UNL     1      -0.776  50.010 -21.206  1.00  0.00     0.009 A 
ENDBRANCH  29  30
ENDBRANCH  28  29
ENDBRANCH  26  28
ENDBRANCH   3  26
TORSDOF 5
ENDMDL
MODEL 8
REMARK minimizedAffinity -7.05965471
REMARK CNNscore 0.174485117
REMARK CNNaffinity 5.46722221
REMARK  5 active torsions:
REMARK  status: ('A' for Active; 'I' for Inactive)
REMARK    1  A    between atoms: C3_3  and  C4_4 
REMARK    2  A    between atoms: C4_4  and  O2_6 
REMARK    3  A    between atoms: O2_6  and  C5_7 
REMARK    4  A    between atoms: C5_7  and  C6_8 
REMARK    5  A    between atoms: C12_14  and  C13_15 
ROOT
HETATM    1  C1  UNL     1      -5.430  48.004 -29.381  1.00  0.00     0.069 C 
HETATM    2  C2  UNL     1      -6.497  47.910 -28.321  1.00  0.00     0.018 C 
HETATM    3  C3  UNL     1      -7.826  47.968 -28.557  1.00  0.00     0.052 C 
HETATM    4  C12 UNL     1      -8.859  47.865 -27.442  1.00  0.00     0.104 C 
HETATM    5  C22 UNL     1      -8.206  47.932 -26.060  1.00  0.00     0.024 C 
HETATM    6  C23 UNL     1      -6.866  47.883 -25.904  1.00  0.00     0.020 C 
HETATM    7  C24 UNL     1      -6.194  47.971 -24.556  1.00  0.00     0.058 C 
HETATM    8  C25 UNL     1      -7.075  48.656 -23.518  1.00  0.00     0.014 C 
HETATM    9  C26 UNL     1      -8.464  48.044 -23.496  1.00  0.00     0.084 C 
HETATM   10  C27 UNL     1      -9.095  48.059 -24.870  1.00  0.00     0.158 C 
HETATM   11  O5  UNL     1     -10.315  48.113 -25.006  1.00  0.00    -0.293 OA
HETATM   12  N1  UNL     1      -6.043  47.789 -27.014  1.00  0.00    -0.362 N 
HETATM   13  H22 UNL     1      -5.039  47.859 -26.866  1.00  0.00     0.165 HD
ENDROOT
BRANCH   4  14
HETATM   14  C13 UNL     1      -9.692  46.604 -27.617  1.00  0.00     0.029 A 
HETATM   15  C14 UNL     1      -9.244  45.344 -27.506  1.00  0.00     0.154 A 
HETATM   16  O3  UNL     1      -9.981  44.192 -27.629  1.00  0.00    -0.321 OA
HETATM   17  C15 UNL     1     -11.322  44.319 -27.874  1.00  0.00     0.089 A 
HETATM   18  C16 UNL     1     -12.068  43.143 -27.969  1.00  0.00     0.040 A 
HETATM   19  C20 UNL     1     -11.946  45.554 -28.029  1.00  0.00     0.050 A 
HETATM   20  C17 UNL     1     -13.440  43.211 -28.221  1.00  0.00     0.026 A 
HETATM   21  C18 UNL     1     -14.057  44.454 -28.381  1.00  0.00     0.035 A 
HETATM   22 CL1  UNL     1     -15.748  44.529 -28.692  1.00  0.00    -0.084 Cl
HETATM   23  C19 UNL     1     -13.318  45.630 -28.288  1.00  0.00     0.042 A 
HETATM   24  C21 UNL     1     -11.136  46.779 -27.919  1.00  0.00     0.194 A 
HETATM   25  O4  UNL     1     -11.641  47.882 -28.086  1.00  0.00    -0.287 OA
ENDBRANCH   4  14
BRANCH   3  26
HETATM   26  C4  UNL     1      -8.353  48.158 -29.920  1.00  0.00     0.292 C 
HETATM   27  O1  UNL     1      -8.687  49.236 -30.384  1.00  0.00    -0.259 OA
BRANCH  26  28
HETATM   28  O2  UNL     1      -8.406  46.953 -30.528  1.00  0.00    -0.313 OA
BRANCH  28  29
HETATM   29  C5  UNL     1      -8.318  47.023 -31.951  1.00  0.00     0.217 C 
BRANCH  29  30
HETATM   30  C6  UNL     1      -6.880  46.797 -32.337  1.00  0.00    -0.034 A 
HETATM   31  C7  UNL     1      -6.223  45.623 -31.939  1.00  0.00     0.009 A 
HETATM   32  C8  UNL     1      -4.894  45.396 -32.298  1.00  0.00     0.001 A 
HETATM   33  C9  UNL     1      -4.208  46.339 -33.060  1.00  0.00     0.000 A 
HETATM   34  C10 UNL     1      -4.851  47.508 -33.466  1.00  0.00     0.001 A 
HETATM   35  C11 UNL     1      -6.182  47.735 -33.109  1.00  0.00     0.009 A 
ENDBRANCH  29  30
ENDBRANCH  28  29
ENDBRANCH  26  28
ENDBRANCH   3  26
TORSDOF 5
ENDMDL
MODEL 9
REMARK minimizedAffinity -7.15184021
REMARK CNNscore 0.171702489
REMARK CNNaffinity 5.50933456
REMARK  5 active torsions:
REMARK  status: ('A' for Active; 'I' for Inactive)
REMARK    1  A    between atoms: C3_3  and  C4_4 
REMARK    2  A    between atoms: C4_4  and  O2_6 
REMARK    3  A    between atoms: O2_6  and  C5_7 
REMARK    4  A    between atoms: C5_7  and  C6_8 
REMARK    5  A    between atoms: C12_14  and  C13_15 
ROOT
HETATM    1  C1  UNL     1      -8.898  49.547 -30.812  1.00  0.00     0.069 C 
HETATM    2  C2  UNL     1      -9.424  48.139 -30.703  1.00  0.00     0.018 C 
HETATM    3  C3  UNL     1      -9.580  47.462 -29.544  1.00  0.00     0.052 C 
HETATM    4  C12 UNL     1     -10.119  46.038 -29.496  1.00  0.00     0.104 C 
HETATM    5  C22 UNL     1     -10.220  45.426 -30.895  1.00  0.00     0.024 C 
HETATM    6  C23 UNL     1     -10.036  46.165 -32.009  1.00  0.00     0.020 C 
HETATM    7  C24 UNL     1     -10.105  45.583 -33.399  1.00  0.00     0.058 C 
HETATM    8  C25 UNL     1      -9.845  44.082 -33.408  1.00  0.00     0.014 C 
HETATM    9  C26 UNL     1     -10.709  43.374 -32.380  1.00  0.00     0.084 C 
HETATM   10  C27 UNL     1     -10.527  43.971 -31.002  1.00  0.00     0.158 C 
HETATM   11  O5  UNL     1     -10.687  43.290 -29.991  1.00  0.00    -0.293 OA
HETATM   12  N1  UNL     1      -9.727  47.511 -31.904  1.00  0.00    -0.362 N 
HETATM   13  H22 UNL     1      -9.493  48.011 -32.759  1.00  0.00     0.165 HD
ENDROOT
BRANCH   4  14
HETATM   14  C13 UNL     1     -11.453  46.010 -28.765  1.00  0.00     0.029 A 
HETATM   15  C14 UNL     1     -12.595  46.571 -29.191  1.00  0.00     0.154 A 
HETATM   16  O3  UNL     1     -13.818  46.534 -28.566  1.00  0.00    -0.321 OA
HETATM   17  C15 UNL     1     -13.908  45.839 -27.389  1.00  0.00     0.089 A 
HETATM   18  C16 UNL     1     -15.160  45.782 -26.775  1.00  0.00     0.040 A 
HETATM   19  C20 UNL     1     -12.815  45.207 -26.801  1.00  0.00     0.050 A 
HETATM   20  C17 UNL     1     -15.311  45.090 -25.571  1.00  0.00     0.026 A 
HETATM   21  C18 UNL     1     -14.209  44.464 -24.986  1.00  0.00     0.035 A 
HETATM   22 CL1  UNL     1     -14.403  43.614 -23.503  1.00  0.00    -0.084 Cl
HETATM   23  C19 UNL     1     -12.957  44.518 -25.594  1.00  0.00     0.042 A 
HETATM   24  C21 UNL     1     -11.506  45.279 -27.473  1.00  0.00     0.194 A 
HETATM   25  O4  UNL     1     -10.513  44.767 -26.970  1.00  0.00    -0.287 OA
ENDBRANCH   4  14
BRANCH   3  26
HETATM   26  C4  UNL     1      -9.213  48.066 -28.251  1.00  0.00     0.292 C 
HETATM   27  O1  UNL     1      -9.989  48.224 -27.322  1.00  0.00    -0.259 OA
BRANCH  26  28
HETATM   28  O2  UNL     1      -7.908  48.409 -28.296  1.00  0.00    -0.313 OA
BRANCH  28  29
HETATM   29  C5  UNL     1      -7.017  47.311 -28.099  1.00  0.00     0.217 C 
BRANCH  29  30
HETATM   30  C6  UNL     1      -5.853  47.801 -27.277  1.00  0.00    -0.034 A 
HETATM   31  C7  UNL     1      -5.982  47.926 -25.885  1.00  0.00     0.009 A 
HETATM   32  C8  UNL     1      -4.910  48.369 -25.110  1.00  0.00     0.001 A 
HETATM   33  C9  UNL     1      -3.698  48.689 -25.718  1.00  0.00     0.000 A 
HETATM   34  C10 UNL     1      -3.556  48.565 -27.099  1.00  0.00     0.001 A 
HETATM   35  C11 UNL     1      -4.627  48.119 -27.875  1.00  0.00     0.009 A 
ENDBRANCH  29  30
ENDBRANCH  28  29
ENDBRANCH  26  28
ENDBRANCH   3  26
TORSDOF 5
ENDMDL
