MODEL 1
REMARK minimizedAffinity -6.58089399
REMARK  4 active torsions:
REMARK  status: ('A' for Active; 'I' for Inactive)
REMARK    1  A    between atoms: N1_1  and  C1_2 
REMARK    2  A    between atoms: C2_5  and  O1_6 
REMARK    3  A    between atoms: O1_6  and  C3_7 
REMARK    4  A    between atoms: C3_7  and  C4_8 
ROOT
HETATM    1  C1  UNL     1      -1.021   1.888  11.145  1.00  0.00     0.158 A 
HETATM    2  N2  UNL     1      -0.491   3.028  11.620  1.00  0.00    -0.311 N 
ATOM      3  H2  UNL     1       0.519   3.171  11.621  1.00  0.00     0.170 HD
HETATM    4  C2  UNL     1      -1.328   3.987  12.099  1.00  0.00     0.176 A 
HETATM    5  C8  UNL     1      -2.706   3.771  12.069  1.00  0.00     0.129 A 
HETATM    6  N3  UNL     1      -3.805   4.509  12.457  1.00  0.00    -0.346 N 
ATOM      7  H3  UNL     1      -3.811   5.440  12.876  1.00  0.00     0.167 HD
HETATM    8  C9  UNL     1      -4.843   3.752  12.169  1.00  0.00     0.182 A 
HETATM    9  N4  UNL     1      -4.465   2.561  11.611  1.00  0.00    -0.337 N 
HETATM   10  C10 UNL     1      -3.103   2.557  11.539  1.00  0.00     0.140 A 
HETATM   11  N5  UNL     1      -2.325   1.581  11.057  1.00  0.00    -0.317 N 
ATOM     12  H5  UNL     1      -2.681   0.707  10.668  1.00  0.00     0.170 HD
HETATM   13  H8  UNL     1      -5.069   1.813  11.308  1.00  0.00     0.168 HD
ENDROOT
BRANCH   4  14
HETATM   14  O1  UNL     1      -0.820   5.169  12.596  1.00  0.00    -0.329 OA
BRANCH  14  15
HETATM   15  C3  UNL     1       0.570   5.337  12.321  1.00  0.00     0.223 C 
BRANCH  15  16
HETATM   16  C4  UNL     1       0.687   6.341  11.208  1.00  0.00     0.008 A 
HETATM   17  C5  UNL     1       1.396   6.260  10.022  1.00  0.00     0.036 A 
HETATM   18  C6  UNL     1       1.235   7.423   9.231  1.00  0.00     0.018 A 
HETATM   19 BR1  UNL     1       2.082   7.618   7.558  1.00  0.00    -0.051 Br
HETATM   20  C7  UNL     1       0.416   8.361   9.805  1.00  0.00     0.069 A 
HETATM   21  S1  UNL     1      -0.170   7.827  11.322  1.00  0.00    -0.103 SA
ENDBRANCH  15  16
ENDBRANCH  14  15
ENDBRANCH   4  14
BRANCH   1  22
HETATM   22  N1  UNL     1      -0.129   0.952  10.663  1.00  0.00    -0.274 NA
HETATM   23  H1  UNL     1      -0.580   0.356   9.983  1.00  0.00     0.127 HD
HETATM   24  H2  UNL     1       0.734   1.399  10.389  1.00  0.00     0.127 HD
ENDBRANCH   1  22
TORSDOF 4
ENDMDL
MODEL 2
REMARK minimizedAffinity -6.50799894
REMARK  4 active torsions:
REMARK  status: ('A' for Active; 'I' for Inactive)
REMARK    1  A    between atoms: N1_1  and  C1_2 
REMARK    2  A    between atoms: C2_5  and  O1_6 
REMARK    3  A    between atoms: O1_6  and  C3_7 
REMARK    4  A    between atoms: C3_7  and  C4_8 
ROOT
HETATM    1  C1  UNL     1       3.452   4.962   9.548  1.00  0.00     0.158 A 
HETATM    2  N2  UNL     1       2.683   4.750  10.630  1.00  0.00    -0.311 N 
ATOM      3  H2  UNL     1       2.911   4.010  11.293  1.00  0.00     0.170 HD
HETATM    4  C2  UNL     1       1.596   5.543  10.824  1.00  0.00     0.176 A 
HETATM    5  C8  UNL     1       1.318   6.560   9.909  1.00  0.00     0.129 A 
HETATM    6  N3  UNL     1       0.331   7.518   9.807  1.00  0.00    -0.346 N 
ATOM      7  H3  UNL     1      -0.451   7.676  10.443  1.00  0.00     0.167 HD
HETATM    8  C9  UNL     1       0.617   8.185   8.708  1.00  0.00     0.182 A 
HETATM    9  N4  UNL     1       1.744   7.703   8.099  1.00  0.00    -0.337 N 
HETATM   10  C10 UNL     1       2.205   6.665   8.854  1.00  0.00     0.140 A 
HETATM   11  N5  UNL     1       3.286   5.913   8.616  1.00  0.00    -0.317 N 
ATOM     12  H5  UNL     1       3.910   6.048   7.820  1.00  0.00     0.170 HD
HETATM   13  H8  UNL     1       2.167   8.040   7.248  1.00  0.00     0.168 HD
ENDROOT
BRANCH   4  14
HETATM   14  O1  UNL     1       0.783   5.354  11.922  1.00  0.00    -0.329 OA
BRANCH  14  15
HETATM   15  C3  UNL     1      -0.113   4.255  11.768  1.00  0.00     0.223 C 
BRANCH  15  16
HETATM   16  C4  UNL     1      -1.479   4.728  12.184  1.00  0.00     0.008 A 
HETATM   17  C5  UNL     1      -2.681   4.043  12.196  1.00  0.00     0.036 A 
HETATM   18  C6  UNL     1      -3.742   4.848  12.674  1.00  0.00     0.018 A 
HETATM   19 BR1  UNL     1      -5.508   4.200  12.803  1.00  0.00    -0.051 Br
HETATM   20  C7  UNL     1      -3.348   6.114  13.024  1.00  0.00     0.069 A 
HETATM   21  S1  UNL     1      -1.669   6.332  12.772  1.00  0.00    -0.103 SA
ENDBRANCH  15  16
ENDBRANCH  14  15
ENDBRANCH   4  14
BRANCH   1  22
HETATM   22  N1  UNL     1       4.547   4.136   9.404  1.00  0.00    -0.274 NA
HETATM   23  H1  UNL     1       5.261   4.592   8.852  1.00  0.00     0.127 HD
HETATM   24  H2  UNL     1       4.823   3.760  10.300  1.00  0.00     0.127 HD
ENDBRANCH   1  22
TORSDOF 4
ENDMDL
MODEL 3
REMARK minimizedAffinity -6.50544357
REMARK  4 active torsions:
REMARK  status: ('A' for Active; 'I' for Inactive)
REMARK    1  A    between atoms: N1_1  and  C1_2 
REMARK    2  A    between atoms: C2_5  and  O1_6 
REMARK    3  A    between atoms: O1_6  and  C3_7 
REMARK    4  A    between atoms: C3_7  and  C4_8 
ROOT
HETATM    1  C1  UNL     1      -7.433   4.691  14.063  1.00  0.00     0.158 A 
HETATM    2  N2  UNL     1      -6.232   5.203  13.743  1.00  0.00    -0.311 N 
ATOM      3  H2  UNL     1      -5.925   6.093  14.136  1.00  0.00     0.170 HD
HETATM    4  C2  UNL     1      -5.434   4.511  12.887  1.00  0.00     0.176 A 
HETATM    5  C8  UNL     1      -5.874   3.287  12.380  1.00  0.00     0.129 A 
HETATM    6  N3  UNL     1      -5.334   2.353  11.519  1.00  0.00    -0.346 N 
ATOM      7  H3  UNL     1      -4.427   2.388  11.054  1.00  0.00     0.167 HD
HETATM    8  C9  UNL     1      -6.245   1.407  11.431  1.00  0.00     0.182 A 
HETATM    9  N4  UNL     1      -7.346   1.685  12.195  1.00  0.00    -0.337 N 
HETATM   10  C10 UNL     1      -7.124   2.883  12.809  1.00  0.00     0.140 A 
HETATM   11  N5  UNL     1      -7.948   3.524  13.647  1.00  0.00    -0.317 N 
ATOM     12  H5  UNL     1      -8.860   3.167  13.934  1.00  0.00     0.170 HD
HETATM   13  H8  UNL     1      -8.176   1.123  12.295  1.00  0.00     0.168 HD
ENDROOT
BRANCH   4  14
HETATM   14  O1  UNL     1      -4.196   5.006  12.534  1.00  0.00    -0.329 OA
BRANCH  14  15
HETATM   15  C3  UNL     1      -3.503   5.602  13.629  1.00  0.00     0.223 C 
BRANCH  15  16
HETATM   16  C4  UNL     1      -2.690   6.740  13.077  1.00  0.00     0.008 A 
HETATM   17  C5  UNL     1      -1.443   6.719  12.476  1.00  0.00     0.036 A 
HETATM   18  C6  UNL     1      -1.027   8.013  12.079  1.00  0.00     0.018 A 
HETATM   19 BR1  UNL     1       0.633   8.314  11.238  1.00  0.00    -0.051 Br
HETATM   20  C7  UNL     1      -1.945   8.991  12.368  1.00  0.00     0.069 A 
HETATM   21  S1  UNL     1      -3.330   8.334  13.128  1.00  0.00    -0.103 SA
ENDBRANCH  15  16
ENDBRANCH  14  15
ENDBRANCH   4  14
BRANCH   1  22
HETATM   22  N1  UNL     1      -8.199   5.429  14.942  1.00  0.00    -0.274 NA
HETATM   23  H1  UNL     1      -8.846   4.828  15.434  1.00  0.00     0.127 HD
HETATM   24  H2  UNL     1      -7.609   6.031  15.500  1.00  0.00     0.127 HD
ENDBRANCH   1  22
TORSDOF 4
ENDMDL
MODEL 4
REMARK minimizedAffinity -6.50271368
REMARK  4 active torsions:
REMARK  status: ('A' for Active; 'I' for Inactive)
REMARK    1  A    between atoms: N1_1  and  C1_2 
REMARK    2  A    between atoms: C2_5  and  O1_6 
REMARK    3  A    between atoms: O1_6  and  C3_7 
REMARK    4  A    between atoms: C3_7  and  C4_8 
ROOT
HETATM    1  C1  UNL     1       0.391   8.016   9.211  1.00  0.00     0.158 A 
HETATM    2  N2  UNL     1      -0.164   7.360  10.244  1.00  0.00    -0.311 N 
ATOM      3  H2  UNL     1      -1.070   7.646  10.616  1.00  0.00     0.170 HD
HETATM    4  C2  UNL     1       0.506   6.307  10.784  1.00  0.00     0.176 A 
HETATM    5  C8  UNL     1       1.735   5.927  10.244  1.00  0.00     0.129 A 
HETATM    6  N3  UNL     1       2.650   4.937  10.537  1.00  0.00    -0.346 N 
ATOM      7  H3  UNL     1       2.588   4.231  11.271  1.00  0.00     0.167 HD
HETATM    8  C9  UNL     1       3.619   5.100   9.662  1.00  0.00     0.182 A 
HETATM    9  N4  UNL     1       3.372   6.148   8.817  1.00  0.00    -0.337 N 
HETATM   10  C10 UNL     1       2.171   6.688   9.175  1.00  0.00     0.140 A 
HETATM   11  N5  UNL     1       1.555   7.730   8.606  1.00  0.00    -0.317 N 
ATOM     12  H5  UNL     1       1.926   8.247   7.809  1.00  0.00     0.170 HD
HETATM   13  H8  UNL     1       3.960   6.477   8.066  1.00  0.00     0.168 HD
ENDROOT
BRANCH   4  14
HETATM   14  O1  UNL     1      -0.032   5.612  11.848  1.00  0.00    -0.329 OA
BRANCH  14  15
HETATM   15  C3  UNL     1      -0.867   4.530  11.439  1.00  0.00     0.223 C 
BRANCH  15  16
HETATM   16  C4  UNL     1      -2.214   4.740  12.075  1.00  0.00     0.008 A 
HETATM   17  C5  UNL     1      -3.396   4.045  11.882  1.00  0.00     0.036 A 
HETATM   18  C6  UNL     1      -4.442   4.552  12.689  1.00  0.00     0.018 A 
HETATM   19 BR1  UNL     1      -6.179   3.819  12.647  1.00  0.00    -0.051 Br
HETATM   20  C7  UNL     1      -4.058   5.604  13.481  1.00  0.00     0.069 A 
HETATM   21  S1  UNL     1      -2.406   5.983  13.247  1.00  0.00    -0.103 SA
ENDBRANCH  15  16
ENDBRANCH  14  15
ENDBRANCH   4  14
BRANCH   1  22
HETATM   22  N1  UNL     1      -0.334   9.070   8.694  1.00  0.00    -0.274 NA
HETATM   23  H1  UNL     1      -0.083   9.229   7.728  1.00  0.00     0.127 HD
HETATM   24  H2  UNL     1      -1.315   8.958   8.906  1.00  0.00     0.127 HD
ENDBRANCH   1  22
TORSDOF 4
ENDMDL
MODEL 5
REMARK minimizedAffinity -6.46594
REMARK  4 active torsions:
REMARK  status: ('A' for Active; 'I' for Inactive)
REMARK    1  A    between atoms: N1_1  and  C1_2 
REMARK    2  A    between atoms: C2_5  and  O1_6 
REMARK    3  A    between atoms: O1_6  and  C3_7 
REMARK    4  A    between atoms: C3_7  and  C4_8 
ROOT
HETATM    1  C1  UNL     1      -1.257   2.470  11.335  1.00  0.00     0.158 A 
HETATM    2  N2  UNL     1      -1.313   3.742  11.766  1.00  0.00    -0.311 N 
ATOM      3  H2  UNL     1      -0.460   4.289  11.884  1.00  0.00     0.170 HD
HETATM    4  C2  UNL     1      -2.528   4.285  12.041  1.00  0.00     0.176 A 
HETATM    5  C8  UNL     1      -3.680   3.519  11.854  1.00  0.00     0.129 A 
HETATM    6  N3  UNL     1      -5.029   3.751  12.027  1.00  0.00    -0.346 N 
ATOM      7  H3  UNL     1      -5.475   4.609  12.352  1.00  0.00     0.167 HD
HETATM    8  C9  UNL     1      -5.615   2.625  11.680  1.00  0.00     0.182 A 
HETATM    9  N4  UNL     1      -4.708   1.677  11.289  1.00  0.00    -0.337 N 
HETATM   10  C10 UNL     1      -3.466   2.233  11.393  1.00  0.00     0.140 A 
HETATM   11  N5  UNL     1      -2.296   1.650  11.109  1.00  0.00    -0.317 N 
ATOM     12  H5  UNL     1      -2.204   0.695  10.761  1.00  0.00     0.170 HD
HETATM   13  H8  UNL     1      -4.903   0.738  10.982  1.00  0.00     0.168 HD
ENDROOT
BRANCH   4  14
HETATM   14  O1  UNL     1      -2.624   5.587  12.487  1.00  0.00    -0.329 OA
BRANCH  14  15
HETATM   15  C3  UNL     1      -2.717   5.683  13.907  1.00  0.00     0.223 C 
BRANCH  15  16
HETATM   16  C4  UNL     1      -3.987   6.422  14.224  1.00  0.00     0.008 A 
HETATM   17  C5  UNL     1      -4.931   6.168  15.205  1.00  0.00     0.036 A 
HETATM   18  C6  UNL     1      -5.984   7.113  15.181  1.00  0.00     0.018 A 
HETATM   19 BR1  UNL     1      -7.428   7.031  16.390  1.00  0.00    -0.051 Br
HETATM   20  C7  UNL     1      -5.835   8.067  14.206  1.00  0.00     0.069 A 
HETATM   21  S1  UNL     1      -4.400   7.817  13.309  1.00  0.00    -0.103 SA
ENDBRANCH  15  16
ENDBRANCH  14  15
ENDBRANCH   4  14
BRANCH   1  22
HETATM   22  N1  UNL     1      -0.001   1.970  11.062  1.00  0.00    -0.274 NA
HETATM   23  H1  UNL     1      -0.061   1.219  10.388  1.00  0.00     0.127 HD
HETATM   24  H2  UNL     1       0.640   2.724  10.861  1.00  0.00     0.127 HD
ENDBRANCH   1  22
TORSDOF 4
ENDMDL
MODEL 6
REMARK minimizedAffinity -6.45876884
REMARK  4 active torsions:
REMARK  status: ('A' for Active; 'I' for Inactive)
REMARK    1  A    between atoms: N1_1  and  C1_2 
REMARK    2  A    between atoms: C2_5  and  O1_6 
REMARK    3  A    between atoms: O1_6  and  C3_7 
REMARK    4  A    between atoms: C3_7  and  C4_8 
ROOT
HETATM    1  C1  UNL     1      -7.500   3.132  13.000  1.00  0.00     0.158 A 
HETATM    2  N2  UNL     1      -6.210   3.501  12.921  1.00  0.00    -0.311 N 
ATOM      3  H2  UNL     1      -5.504   2.854  12.569  1.00  0.00     0.170 HD
HETATM    4  C2  UNL     1      -5.864   4.754  13.319  1.00  0.00     0.176 A 
HETATM    5  C8  UNL     1      -6.853   5.624  13.779  1.00  0.00     0.129 A 
HETATM    6  N3  UNL     1      -6.852   6.923  14.243  1.00  0.00    -0.346 N 
ATOM      7  H3  UNL     1      -6.050   7.547  14.342  1.00  0.00     0.167 HD
HETATM    8  C9  UNL     1      -8.110   7.183  14.531  1.00  0.00     0.182 A 
HETATM    9  N4  UNL     1      -8.923   6.113  14.272  1.00  0.00    -0.337 N 
HETATM   10  C10 UNL     1      -8.136   5.108  13.791  1.00  0.00     0.140 A 
HETATM   11  N5  UNL     1      -8.530   3.887  13.412  1.00  0.00    -0.317 N 
ATOM     12  H5  UNL     1      -9.499   3.568  13.435  1.00  0.00     0.170 HD
HETATM   13  H8  UNL     1      -9.920   6.059  14.410  1.00  0.00     0.168 HD
ENDROOT
BRANCH   4  14
HETATM   14  O1  UNL     1      -4.549   5.167  13.255  1.00  0.00    -0.329 OA
BRANCH  14  15
HETATM   15  C3  UNL     1      -3.770   4.403  12.336  1.00  0.00     0.223 C 
BRANCH  15  16
HETATM   16  C4  UNL     1      -2.338   4.833  12.497  1.00  0.00     0.008 A 
HETATM   17  C5  UNL     1      -1.292   4.761  11.593  1.00  0.00     0.036 A 
HETATM   18  C6  UNL     1      -0.094   5.290  12.131  1.00  0.00     0.018 A 
HETATM   19 BR1  UNL     1       1.513   5.326  11.145  1.00  0.00    -0.051 Br
HETATM   20  C7  UNL     1      -0.235   5.759  13.412  1.00  0.00     0.069 A 
HETATM   21  S1  UNL     1      -1.839   5.559  13.972  1.00  0.00    -0.103 SA
ENDBRANCH  15  16
ENDBRANCH  14  15
ENDBRANCH   4  14
BRANCH   1  22
HETATM   22  N1  UNL     1      -7.799   1.854  12.575  1.00  0.00    -0.274 NA
HETATM   23  H1  UNL     1      -8.764   1.799  12.279  1.00  0.00     0.127 HD
HETATM   24  H2  UNL     1      -7.095   1.526  11.928  1.00  0.00     0.127 HD
ENDBRANCH   1  22
TORSDOF 4
ENDMDL
MODEL 7
REMARK minimizedAffinity -6.4124999
REMARK  4 active torsions:
REMARK  status: ('A' for Active; 'I' for Inactive)
REMARK    1  A    between atoms: N1_1  and  C1_2 
REMARK    2  A    between atoms: C2_5  and  O1_6 
REMARK    3  A    between atoms: O1_6  and  C3_7 
REMARK    4  A    between atoms: C3_7  and  C4_8 
ROOT
HETATM    1  C1  UNL     1      -3.628  -9.389  10.893  1.00  0.00     0.158 A 
HETATM    2  N2  UNL     1      -3.686  -9.934   9.665  1.00  0.00    -0.311 N 
ATOM      3  H2  UNL     1      -2.840 -10.046   9.106  1.00  0.00     0.170 HD
HETATM    4  C2  UNL     1      -4.893 -10.332   9.184  1.00  0.00     0.176 A 
HETATM    5  C8  UNL     1      -6.031 -10.181   9.977  1.00  0.00     0.129 A 
HETATM    6  N3  UNL     1      -7.369 -10.472   9.807  1.00  0.00    -0.346 N 
ATOM      7  H3  UNL     1      -7.814 -10.893   8.991  1.00  0.00     0.167 HD
HETATM    8  C9  UNL     1      -7.946 -10.088  10.926  1.00  0.00     0.182 A 
HETATM    9  N4  UNL     1      -7.043  -9.565  11.812  1.00  0.00    -0.337 N 
HETATM   10  C10 UNL     1      -5.814  -9.618  11.222  1.00  0.00     0.140 A 
HETATM   11  N5  UNL     1      -4.651  -9.210  11.743  1.00  0.00    -0.317 N 
ATOM     12  H5  UNL     1      -4.555  -8.809  12.677  1.00  0.00     0.170 HD
HETATM   13  H8  UNL     1      -7.234  -9.201  12.732  1.00  0.00     0.168 HD
ENDROOT
BRANCH   4  14
HETATM   14  O1  UNL     1      -4.991 -10.892   7.927  1.00  0.00    -0.329 OA
BRANCH  14  15
HETATM   15  C3  UNL     1      -5.543  -9.999   6.961  1.00  0.00     0.223 C 
BRANCH  15  16
HETATM   16  C4  UNL     1      -4.632 -10.016   5.764  1.00  0.00     0.008 A 
HETATM   17  C5  UNL     1      -4.927 -10.285   4.439  1.00  0.00     0.036 A 
HETATM   18  C6  UNL     1      -3.782 -10.183   3.613  1.00  0.00     0.018 A 
HETATM   19 BR1  UNL     1      -3.859 -10.499   1.756  1.00  0.00    -0.051 Br
HETATM   20  C7  UNL     1      -2.646  -9.837   4.300  1.00  0.00     0.069 A 
HETATM   21  S1  UNL     1      -2.970  -9.630   5.967  1.00  0.00    -0.103 SA
ENDBRANCH  15  16
ENDBRANCH  14  15
ENDBRANCH   4  14
BRANCH   1  22
HETATM   22  N1  UNL     1      -2.379  -9.011  11.338  1.00  0.00    -0.274 NA
HETATM   23  H1  UNL     1      -2.350  -9.011  12.348  1.00  0.00     0.127 HD
HETATM   24  H2  UNL     1      -1.662  -9.533  10.854  1.00  0.00     0.127 HD
ENDBRANCH   1  22
TORSDOF 4
ENDMDL
MODEL 8
REMARK minimizedAffinity -6.30083656
REMARK  4 active torsions:
REMARK  status: ('A' for Active; 'I' for Inactive)
REMARK    1  A    between atoms: N1_1  and  C1_2 
REMARK    2  A    between atoms: C2_5  and  O1_6 
REMARK    3  A    between atoms: O1_6  and  C3_7 
REMARK    4  A    between atoms: C3_7  and  C4_8 
ROOT
HETATM    1  C1  UNL     1       0.816   6.737  15.401  1.00  0.00     0.158 A 
HETATM    2  N2  UNL     1      -0.462   6.356  15.572  1.00  0.00    -0.311 N 
ATOM      3  H2  UNL     1      -0.955   6.563  16.441  1.00  0.00     0.170 HD
HETATM    4  C2  UNL     1      -1.086   5.692  14.563  1.00  0.00     0.176 A 
HETATM    5  C8  UNL     1      -0.393   5.439  13.379  1.00  0.00     0.129 A 
HETATM    6  N3  UNL     1      -0.713   4.812  12.192  1.00  0.00    -0.346 N 
ATOM      7  H3  UNL     1      -1.601   4.380  11.937  1.00  0.00     0.167 HD
HETATM    8  C9  UNL     1       0.378   4.895  11.459  1.00  0.00     0.182 A 
HETATM    9  N4  UNL     1       1.386   5.547  12.116  1.00  0.00    -0.337 N 
HETATM   10  C10 UNL     1       0.909   5.902  13.344  1.00  0.00     0.140 A 
HETATM   11  N5  UNL     1       1.570   6.559  14.305  1.00  0.00    -0.317 N 
ATOM     12  H5  UNL     1       2.532   6.886  14.215  1.00  0.00     0.170 HD
HETATM   13  H8  UNL     1       2.314   5.736  11.773  1.00  0.00     0.168 HD
ENDROOT
BRANCH   4  14
HETATM   14  O1  UNL     1      -2.396   5.283  14.703  1.00  0.00    -0.329 OA
BRANCH  14  15
HETATM   15  C3  UNL     1      -3.316   6.115  13.998  1.00  0.00     0.223 C 
BRANCH  15  16
HETATM   16  C4  UNL     1      -4.394   5.223  13.447  1.00  0.00     0.008 A 
HETATM   17  C5  UNL     1      -4.280   4.090  12.659  1.00  0.00     0.036 A 
HETATM   18  C6  UNL     1      -5.544   3.526  12.362  1.00  0.00     0.018 A 
HETATM   19 BR1  UNL     1      -5.722   1.978  11.300  1.00  0.00    -0.051 Br
HETATM   20  C7  UNL     1      -6.591   4.214  12.921  1.00  0.00     0.069 A 
HETATM   21  S1  UNL     1      -6.037   5.561  13.820  1.00  0.00    -0.103 SA
ENDBRANCH  15  16
ENDBRANCH  14  15
ENDBRANCH   4  14
BRANCH   1  22
HETATM   22  N1  UNL     1       1.398   7.416  16.452  1.00  0.00    -0.274 NA
HETATM   23  H1  UNL     1       2.151   8.002  16.117  1.00  0.00     0.127 HD
HETATM   24  H2  UNL     1       0.688   7.854  17.022  1.00  0.00     0.127 HD
ENDBRANCH   1  22
TORSDOF 4
ENDMDL
MODEL 9
REMARK minimizedAffinity -6.18922043
REMARK  4 active torsions:
REMARK  status: ('A' for Active; 'I' for Inactive)
REMARK    1  A    between atoms: N1_1  and  C1_2 
REMARK    2  A    between atoms: C2_5  and  O1_6 
REMARK    3  A    between atoms: O1_6  and  C3_7 
REMARK    4  A    between atoms: C3_7  and  C4_8 
ROOT
HETATM    1  C1  UNL     1      -3.572  -9.392  10.951  1.00  0.00     0.158 A 
HETATM    2  N2  UNL     1      -4.751  -9.253  11.582  1.00  0.00    -0.311 N 
ATOM      3  H2  UNL     1      -4.786  -8.985  12.565  1.00  0.00     0.170 HD
HETATM    4  C2  UNL     1      -5.895  -9.477  10.883  1.00  0.00     0.176 A 
HETATM    5  C8  UNL     1      -5.817  -9.826   9.535  1.00  0.00     0.129 A 
HETATM    6  N3  UNL     1      -6.750 -10.112   8.559  1.00  0.00    -0.346 N 
ATOM      7  H3  UNL     1      -7.766 -10.119   8.654  1.00  0.00     0.167 HD
HETATM    8  C9  UNL     1      -6.044 -10.373   7.479  1.00  0.00     0.182 A 
HETATM    9  N4  UNL     1      -4.700 -10.267   7.711  1.00  0.00    -0.337 N 
HETATM   10  C10 UNL     1      -4.537  -9.917   9.020  1.00  0.00     0.140 A 
HETATM   11  N5  UNL     1      -3.381  -9.709   9.661  1.00  0.00    -0.317 N 
ATOM     12  H5  UNL     1      -2.464  -9.782   9.220  1.00  0.00     0.170 HD
HETATM   13  H8  UNL     1      -3.954 -10.419   7.050  1.00  0.00     0.168 HD
ENDROOT
BRANCH   4  14
HETATM   14  O1  UNL     1      -7.123  -9.347  11.498  1.00  0.00    -0.329 OA
BRANCH  14  15
HETATM   15  C3  UNL     1      -7.082  -9.649  12.892  1.00  0.00     0.223 C 
BRANCH  15  16
HETATM   16  C4  UNL     1      -7.563 -11.065  13.057  1.00  0.00     0.008 A 
HETATM   17  C5  UNL     1      -6.859 -12.251  12.943  1.00  0.00     0.036 A 
HETATM   18  C6  UNL     1      -7.680 -13.377  13.189  1.00  0.00     0.018 A 
HETATM   19 BR1  UNL     1      -7.013 -15.138  13.103  1.00  0.00    -0.051 Br
HETATM   20  C7  UNL     1      -8.978 -13.048  13.489  1.00  0.00     0.069 A 
HETATM   21  S1  UNL     1      -9.205 -11.352  13.476  1.00  0.00    -0.103 SA
ENDBRANCH  15  16
ENDBRANCH  14  15
ENDBRANCH   4  14
BRANCH   1  22
HETATM   22  N1  UNL     1      -2.442  -9.144  11.702  1.00  0.00    -0.274 NA
HETATM   23  H1  UNL     1      -1.676  -8.867  11.104  1.00  0.00     0.127 HD
HETATM   24  H2  UNL     1      -2.664  -8.540  12.481  1.00  0.00     0.127 HD
ENDBRANCH   1  22
TORSDOF 4
ENDMDL
