MODEL 1
REMARK minimizedAffinity -8.71476173
REMARK CNNscore 0.411584169
REMARK CNNaffinity 7.31291819
REMARK  13 active torsions:
REMARK  status: ('A' for Active; 'I' for Inactive)
REMARK    1  A    between atoms: O1_2  and  C2_3 
REMARK    2  A    between atoms: C12_14  and  C13_15 
REMARK    3  A    between atoms: C13_15  and  C15_17 
REMARK    4  A    between atoms: C15_17  and  C16_18 
REMARK    5  A    between atoms: C17_19  and  C18_20 
REMARK    6  A    between atoms: C18_20  and  O3_23 
REMARK    7  A    between atoms: C29_32  and  O4_33 
REMARK    8  A    between atoms: O4_33  and  C30_34 
REMARK    9  A    between atoms: C31_36  and  C32_37 
REMARK   10  A    between atoms: C32_37  and  O6_38 
REMARK   11  A    between atoms: C33_39  and  O7_40 
REMARK   12  A    between atoms: C34_41  and  O8_42 
REMARK   13  A    between atoms: C35_43  and  O9_44 
ROOT
HETATM    1  C2  UNL     1      -2.047  49.351 -20.800  1.00  0.00     0.270 C 
HETATM    2  O2  UNL     1      -2.489  50.573 -21.428  1.00  0.00    -0.344 OA
HETATM    3  C3  UNL     1      -3.824  50.355 -21.935  1.00  0.00     0.095 C 
HETATM    4  C4  UNL     1      -4.725  50.743 -20.768  1.00  0.00     0.008 C 
HETATM    5  C5  UNL     1      -4.939  49.915 -19.735  1.00  0.00    -0.021 C 
HETATM    6  C6  UNL     1      -4.242  48.575 -19.632  1.00  0.00     0.030 C 
HETATM    7  C7  UNL     1      -3.240  48.329 -20.845  1.00  0.00     0.024 C 
HETATM    8  C8  UNL     1      -2.677  46.882 -20.842  1.00  0.00     0.016 C 
HETATM    9  C9  UNL     1      -3.651  45.747 -20.478  1.00  0.00     0.011 C 
HETATM   10  C10 UNL     1      -4.419  46.048 -19.180  1.00  0.00    -0.032 C 
HETATM   11  C11 UNL     1      -3.387  46.120 -18.008  1.00  0.00     0.016 C 
HETATM   12  C12 UNL     1      -5.566  45.074 -18.763  1.00  0.00    -0.002 C 
HETATM   13  C22 UNL     1      -6.437  45.977 -17.829  1.00  0.00     0.006 C 
HETATM   14  C23 UNL     1      -6.050  47.445 -18.103  1.00  0.00     0.011 C 
HETATM   15  C24 UNL     1      -5.230  47.384 -19.404  1.00  0.00    -0.029 C 
HETATM   16  C25 UNL     1      -6.289  47.297 -20.554  1.00  0.00     0.016 C 
HETATM   17  C26 UNL     1      -3.885  48.823 -22.166  1.00  0.00     0.039 C 
HETATM   18  C27 UNL     1      -3.167  48.354 -23.442  1.00  0.00     0.011 C 
HETATM   19  C28 UNL     1      -3.592  49.157 -24.660  1.00  0.00     0.033 C 
HETATM   20  C29 UNL     1      -3.319  50.651 -24.457  1.00  0.00     0.136 C 
HETATM   21  C36 UNL     1      -4.107  51.210 -23.224  1.00  0.00     0.014 C 
HETATM   22  C37 UNL     1      -3.691  52.690 -23.019  1.00  0.00     0.021 C 
HETATM   23  C38 UNL     1      -5.619  51.199 -23.575  1.00  0.00     0.021 C 
ENDROOT
BRANCH  20  24
HETATM   24  O4  UNL     1      -1.915  50.896 -24.277  1.00  0.00    -0.352 OA
BRANCH  24  25
HETATM   25  C30 UNL     1      -1.193  51.109 -25.497  1.00  0.00     0.292 C 
HETATM   26  O5  UNL     1       0.211  51.080 -25.266  1.00  0.00    -0.348 OA
HETATM   27  C31 UNL     1       0.946  51.218 -26.489  1.00  0.00     0.179 C 
HETATM   28  C33 UNL     1       0.679  52.596 -27.123  1.00  0.00     0.180 C 
HETATM   29  C34 UNL     1      -0.822  52.842 -27.289  1.00  0.00     0.183 C 
HETATM   30  C35 UNL     1      -1.596  52.505 -26.014  1.00  0.00     0.204 C 
BRANCH  27  31
HETATM   31  C32 UNL     1       2.442  51.044 -26.189  1.00  0.00     0.198 C 
BRANCH  31  32
HETATM   32  O6  UNL     1       3.251  51.400 -27.300  1.00  0.00    -0.398 OA
HETATM   33  H50 UNL     1       2.894  52.242 -27.659  1.00  0.00     0.209 HD
ENDBRANCH  31  32
ENDBRANCH  27  31
BRANCH  28  34
HETATM   34  O7  UNL     1       1.326  52.682 -28.400  1.00  0.00    -0.390 OA
HETATM   35  H52 UNL     1       0.661  52.353 -29.043  1.00  0.00     0.210 HD
ENDBRANCH  28  34
BRANCH  29  36
HETATM   36  O8  UNL     1      -1.300  52.029 -28.379  1.00  0.00    -0.390 OA
HETATM   37  H54 UNL     1      -2.276  52.122 -28.347  1.00  0.00     0.210 HD
ENDBRANCH  29  36
BRANCH  30  38
HETATM   38  O9  UNL     1      -3.002  52.560 -26.299  1.00  0.00    -0.388 OA
HETATM   39  H56 UNL     1      -3.443  52.362 -25.446  1.00  0.00     0.210 HD
ENDBRANCH  30  38
ENDBRANCH  24  25
ENDBRANCH  20  24
BRANCH   1  40
HETATM   40  O1  UNL     1      -1.575  49.556 -19.473  1.00  0.00    -0.365 OA
HETATM   41  C1  UNL     1      -1.181  50.900 -19.254  1.00  0.00     0.204 C 
ENDBRANCH   1  40
BRANCH  12  42
HETATM   42  C13 UNL     1      -5.231  43.710 -18.093  1.00  0.00    -0.010 C 
HETATM   43  C14 UNL     1      -4.564  43.882 -16.723  1.00  0.00     0.010 C 
BRANCH  42  44
HETATM   44  C15 UNL     1      -4.319  42.864 -19.021  1.00  0.00     0.031 C 
BRANCH  44  45
HETATM   45  C16 UNL     1      -2.987  42.529 -18.400  1.00  0.00    -0.027 C 
HETATM   46  C17 UNL     1      -2.526  41.271 -18.296  1.00  0.00     0.006 C 
BRANCH  46  47
HETATM   47  C18 UNL     1      -1.228  40.789 -17.672  1.00  0.00     0.070 C 
HETATM   48  C19 UNL     1      -1.016  41.475 -16.313  1.00  0.00     0.050 C 
HETATM   49  C20 UNL     1      -1.193  39.269 -17.443  1.00  0.00     0.050 C 
BRANCH  47  50
HETATM   50  O3  UNL     1      -0.145  41.045 -18.583  1.00  0.00    -0.382 OA
HETATM   51  C21 UNL     1       1.087  40.388 -18.337  1.00  0.00     0.202 C 
ENDBRANCH  47  50
ENDBRANCH  46  47
ENDBRANCH  44  45
ENDBRANCH  42  44
ENDBRANCH  12  42
TORSDOF 13
ENDMDL
MODEL 2
REMARK minimizedAffinity -8.91925716
REMARK CNNscore 0.339587092
REMARK CNNaffinity 7.22058535
REMARK  13 active torsions:
REMARK  status: ('A' for Active; 'I' for Inactive)
REMARK    1  A    between atoms: O1_2  and  C2_3 
REMARK    2  A    between atoms: C12_14  and  C13_15 
REMARK    3  A    between atoms: C13_15  and  C15_17 
REMARK    4  A    between atoms: C15_17  and  C16_18 
REMARK    5  A    between atoms: C17_19  and  C18_20 
REMARK    6  A    between atoms: C18_20  and  O3_23 
REMARK    7  A    between atoms: C29_32  and  O4_33 
REMARK    8  A    between atoms: O4_33  and  C30_34 
REMARK    9  A    between atoms: C31_36  and  C32_37 
REMARK   10  A    between atoms: C32_37  and  O6_38 
REMARK   11  A    between atoms: C33_39  and  O7_40 
REMARK   12  A    between atoms: C34_41  and  O8_42 
REMARK   13  A    between atoms: C35_43  and  O9_44 
ROOT
HETATM    1  C2  UNL     1      -5.341  48.440 -20.691  1.00  0.00     0.270 C 
HETATM    2  O2  UNL     1      -5.937  47.660 -19.634  1.00  0.00    -0.344 OA
HETATM    3  C3  UNL     1      -4.878  47.202 -18.766  1.00  0.00     0.095 C 
HETATM    4  C4  UNL     1      -4.745  48.317 -17.735  1.00  0.00     0.008 C 
HETATM    5  C5  UNL     1      -4.086  49.454 -18.004  1.00  0.00    -0.021 C 
HETATM    6  C6  UNL     1      -3.499  49.726 -19.372  1.00  0.00     0.030 C 
HETATM    7  C7  UNL     1      -3.800  48.546 -20.397  1.00  0.00     0.024 C 
HETATM    8  C8  UNL     1      -3.035  48.735 -21.736  1.00  0.00     0.016 C 
HETATM    9  C9  UNL     1      -1.589  49.259 -21.653  1.00  0.00     0.011 C 
HETATM   10  C10 UNL     1      -1.487  50.514 -20.769  1.00  0.00    -0.032 C 
HETATM   11  C11 UNL     1      -2.318  51.654 -21.443  1.00  0.00     0.016 C 
HETATM   12  C12 UNL     1      -0.063  51.071 -20.447  1.00  0.00    -0.002 C 
HETATM   13  C22 UNL     1      -0.321  51.886 -19.138  1.00  0.00     0.006 C 
HETATM   14  C23 UNL     1      -1.666  51.413 -18.549  1.00  0.00     0.011 C 
HETATM   15  C24 UNL     1      -1.986  50.123 -19.324  1.00  0.00    -0.029 C 
HETATM   16  C25 UNL     1      -1.129  49.007 -18.637  1.00  0.00     0.016 C 
HETATM   17  C26 UNL     1      -3.631  47.179 -19.686  1.00  0.00     0.039 C 
HETATM   18  C27 UNL     1      -3.575  45.968 -20.633  1.00  0.00     0.011 C 
HETATM   19  C28 UNL     1      -3.794  44.658 -19.894  1.00  0.00     0.033 C 
HETATM   20  C29 UNL     1      -5.141  44.657 -19.165  1.00  0.00     0.136 C 
HETATM   21  C36 UNL     1      -5.218  45.813 -18.111  1.00  0.00     0.014 C 
HETATM   22  C37 UNL     1      -6.644  45.814 -17.501  1.00  0.00     0.021 C 
HETATM   23  C38 UNL     1      -4.225  45.484 -16.964  1.00  0.00     0.021 C 
ENDROOT
BRANCH  20  24
HETATM   24  O4  UNL     1      -6.229  44.786 -20.095  1.00  0.00    -0.352 OA
BRANCH  24  25
HETATM   25  C30 UNL     1      -6.333  43.708 -21.033  1.00  0.00     0.292 C 
HETATM   26  O5  UNL     1      -7.078  44.104 -22.179  1.00  0.00    -0.348 OA
HETATM   27  C31 UNL     1      -7.128  43.059 -23.159  1.00  0.00     0.179 C 
HETATM   28  C33 UNL     1      -7.881  41.836 -22.602  1.00  0.00     0.180 C 
HETATM   29  C34 UNL     1      -7.284  41.385 -21.266  1.00  0.00     0.183 C 
HETATM   30  C35 UNL     1      -7.074  42.563 -20.314  1.00  0.00     0.204 C 
BRANCH  27  31
HETATM   31  C32 UNL     1      -7.825  43.594 -24.418  1.00  0.00     0.198 C 
BRANCH  31  32
HETATM   32  O6  UNL     1      -7.544  42.797 -25.559  1.00  0.00    -0.398 OA
HETATM   33  H50 UNL     1      -7.631  41.858 -25.284  1.00  0.00     0.209 HD
ENDBRANCH  31  32
ENDBRANCH  27  31
BRANCH  28  34
HETATM   34  O7  UNL     1      -7.827  40.756 -23.543  1.00  0.00    -0.390 OA
HETATM   35  H52 UNL     1      -7.016  40.256 -23.308  1.00  0.00     0.210 HD
ENDBRANCH  28  34
BRANCH  29  36
HETATM   36  O8  UNL     1      -6.023  40.737 -21.526  1.00  0.00    -0.390 OA
HETATM   37  H54 UNL     1      -5.630  40.598 -20.638  1.00  0.00     0.210 HD
ENDBRANCH  29  36
BRANCH  30  38
HETATM   38  O9  UNL     1      -6.331  42.106 -19.173  1.00  0.00    -0.388 OA
HETATM   39  H56 UNL     1      -6.249  42.891 -18.591  1.00  0.00     0.210 HD
ENDBRANCH  30  38
ENDBRANCH  24  25
ENDBRANCH  20  24
BRANCH   1  40
HETATM   40  O1  UNL     1      -5.941  49.723 -20.833  1.00  0.00    -0.365 OA
HETATM   41  C1  UNL     1      -6.794  49.784 -21.965  1.00  0.00     0.204 C 
ENDBRANCH   1  40
BRANCH  12  42
HETATM   42  C13 UNL     1       0.707  51.914 -21.506  1.00  0.00    -0.010 C 
HETATM   43  C14 UNL     1       1.208  53.246 -20.938  1.00  0.00     0.010 C 
BRANCH  42  44
HETATM   44  C15 UNL     1      -0.193  52.174 -22.745  1.00  0.00     0.031 C 
BRANCH  44  45
HETATM   45  C16 UNL     1       0.590  52.352 -24.020  1.00  0.00    -0.027 C 
HETATM   46  C17 UNL     1       0.093  52.045 -25.230  1.00  0.00     0.006 C 
BRANCH  46  47
HETATM   47  C18 UNL     1       0.774  52.145 -26.584  1.00  0.00     0.070 C 
HETATM   48  C19 UNL     1       2.208  51.601 -26.489  1.00  0.00     0.050 C 
HETATM   49  C20 UNL     1       0.046  51.362 -27.689  1.00  0.00     0.050 C 
BRANCH  47  50
HETATM   50  O3  UNL     1       0.742  53.513 -27.027  1.00  0.00    -0.382 OA
HETATM   51  C21 UNL     1      -0.325  53.903 -27.875  1.00  0.00     0.202 C 
ENDBRANCH  47  50
ENDBRANCH  46  47
ENDBRANCH  44  45
ENDBRANCH  42  44
ENDBRANCH  12  42
TORSDOF 13
ENDMDL
MODEL 3
REMARK minimizedAffinity -9.66766071
REMARK CNNscore 0.292703956
REMARK CNNaffinity 7.14306593
REMARK  13 active torsions:
REMARK  status: ('A' for Active; 'I' for Inactive)
REMARK    1  A    between atoms: O1_2  and  C2_3 
REMARK    2  A    between atoms: C12_14  and  C13_15 
REMARK    3  A    between atoms: C13_15  and  C15_17 
REMARK    4  A    between atoms: C15_17  and  C16_18 
REMARK    5  A    between atoms: C17_19  and  C18_20 
REMARK    6  A    between atoms: C18_20  and  O3_23 
REMARK    7  A    between atoms: C29_32  and  O4_33 
REMARK    8  A    between atoms: O4_33  and  C30_34 
REMARK    9  A    between atoms: C31_36  and  C32_37 
REMARK   10  A    between atoms: C32_37  and  O6_38 
REMARK   11  A    between atoms: C33_39  and  O7_40 
REMARK   12  A    between atoms: C34_41  and  O8_42 
REMARK   13  A    between atoms: C35_43  and  O9_44 
ROOT
HETATM    1  C2  UNL     1      -6.889  49.439 -21.415  1.00  0.00     0.270 C 
HETATM    2  O2  UNL     1      -7.636  48.205 -21.378  1.00  0.00    -0.344 OA
HETATM    3  C3  UNL     1      -6.774  47.149 -21.854  1.00  0.00     0.095 C 
HETATM    4  C4  UNL     1      -6.077  46.651 -20.592  1.00  0.00     0.008 C 
HETATM    5  C5  UNL     1      -5.040  47.308 -20.051  1.00  0.00    -0.021 C 
HETATM    6  C6  UNL     1      -4.547  48.620 -20.621  1.00  0.00     0.030 C 
HETATM    7  C7  UNL     1      -5.421  49.099 -21.862  1.00  0.00     0.024 C 
HETATM    8  C8  UNL     1      -4.799  50.337 -22.563  1.00  0.00     0.016 C 
HETATM    9  C9  UNL     1      -3.267  50.365 -22.714  1.00  0.00     0.011 C 
HETATM   10  C10 UNL     1      -2.556  50.061 -21.384  1.00  0.00    -0.032 C 
HETATM   11  C11 UNL     1      -2.908  51.199 -20.372  1.00  0.00     0.016 C 
HETATM   12  C12 UNL     1      -1.004  49.887 -21.403  1.00  0.00    -0.002 C 
HETATM   13  C22 UNL     1      -0.755  49.043 -20.110  1.00  0.00     0.006 C 
HETATM   14  C23 UNL     1      -2.102  48.416 -19.694  1.00  0.00     0.011 C 
HETATM   15  C24 UNL     1      -3.011  48.623 -20.917  1.00  0.00    -0.029 C 
HETATM   16  C25 UNL     1      -2.624  47.481 -21.915  1.00  0.00     0.016 C 
HETATM   17  C26 UNL     1      -5.757  47.884 -22.765  1.00  0.00     0.039 C 
HETATM   18  C27 UNL     1      -6.313  48.252 -24.151  1.00  0.00     0.011 C 
HETATM   19  C28 UNL     1      -6.973  47.064 -24.832  1.00  0.00     0.033 C 
HETATM   20  C29 UNL     1      -8.110  46.500 -23.974  1.00  0.00     0.136 C 
HETATM   21  C36 UNL     1      -7.584  46.014 -22.581  1.00  0.00     0.014 C 
HETATM   22  C37 UNL     1      -8.805  45.566 -21.736  1.00  0.00     0.021 C 
HETATM   23  C38 UNL     1      -6.697  44.761 -22.812  1.00  0.00     0.021 C 
ENDROOT
BRANCH  20  24
HETATM   24  O4  UNL     1      -9.141  47.481 -23.779  1.00  0.00    -0.352 OA
BRANCH  24  25
HETATM   25  C30 UNL     1     -10.172  47.459 -24.774  1.00  0.00     0.292 C 
HETATM   26  O5  UNL     1     -10.423  46.128 -25.214  1.00  0.00    -0.348 OA
HETATM   27  C31 UNL     1     -11.503  46.082 -26.155  1.00  0.00     0.179 C 
HETATM   28  C33 UNL     1     -11.134  46.857 -27.434  1.00  0.00     0.180 C 
HETATM   29  C34 UNL     1     -10.682  48.281 -27.102  1.00  0.00     0.183 C 
HETATM   30  C35 UNL     1      -9.664  48.300 -25.962  1.00  0.00     0.204 C 
BRANCH  27  31
HETATM   31  C32 UNL     1     -11.809  44.614 -26.484  1.00  0.00     0.198 C 
BRANCH  31  32
HETATM   32  O6  UNL     1     -11.345  44.252 -27.777  1.00  0.00    -0.398 OA
HETATM   33  H50 UNL     1     -10.440  44.621 -27.873  1.00  0.00     0.209 HD
ENDBRANCH  31  32
ENDBRANCH  27  31
BRANCH  28  34
HETATM   34  O7  UNL     1     -12.259  46.903 -28.321  1.00  0.00    -0.390 OA
HETATM   35  H52 UNL     1     -12.746  47.718 -28.071  1.00  0.00     0.210 HD
ENDBRANCH  28  34
BRANCH  29  36
HETATM   36  O8  UNL     1     -11.842  49.053 -26.732  1.00  0.00    -0.390 OA
HETATM   37  H54 UNL     1     -11.479  49.902 -26.401  1.00  0.00     0.210 HD
ENDBRANCH  29  36
BRANCH  30  38
HETATM   38  O9  UNL     1      -9.439  49.663 -25.567  1.00  0.00    -0.388 OA
HETATM   39  H56 UNL     1      -8.764  49.614 -24.857  1.00  0.00     0.210 HD
ENDBRANCH  30  38
ENDBRANCH  24  25
ENDBRANCH  20  24
BRANCH   1  40
HETATM   40  O1  UNL     1      -6.915  50.133 -20.172  1.00  0.00    -0.365 OA
HETATM   41  C1  UNL     1      -7.850  49.564 -19.269  1.00  0.00     0.204 C 
ENDBRANCH   1  40
BRANCH  12  42
HETATM   42  C13 UNL     1      -0.076  51.135 -21.463  1.00  0.00    -0.010 C 
HETATM   43  C14 UNL     1       0.072  51.816 -20.098  1.00  0.00     0.010 C 
BRANCH  42  44
HETATM   44  C15 UNL     1      -0.610  52.154 -22.505  1.00  0.00     0.031 C 
BRANCH  44  45
HETATM   45  C16 UNL     1      -0.365  51.728 -23.930  1.00  0.00    -0.027 C 
HETATM   46  C17 UNL     1       0.605  52.260 -24.694  1.00  0.00     0.006 C 
BRANCH  46  47
HETATM   47  C18 UNL     1       0.943  51.951 -26.142  1.00  0.00     0.070 C 
HETATM   48  C19 UNL     1       2.360  51.363 -26.233  1.00  0.00     0.050 C 
HETATM   49  C20 UNL     1      -0.025  50.948 -26.790  1.00  0.00     0.050 C 
BRANCH  47  50
HETATM   50  O3  UNL     1       0.802  53.150 -26.924  1.00  0.00    -0.382 OA
HETATM   51  C21 UNL     1       0.033  53.071 -28.112  1.00  0.00     0.202 C 
ENDBRANCH  47  50
ENDBRANCH  46  47
ENDBRANCH  44  45
ENDBRANCH  42  44
ENDBRANCH  12  42
TORSDOF 13
ENDMDL
MODEL 4
REMARK minimizedAffinity -8.51530838
REMARK CNNscore 0.270782977
REMARK CNNaffinity 6.73061132
REMARK  13 active torsions:
REMARK  status: ('A' for Active; 'I' for Inactive)
REMARK    1  A    between atoms: O1_2  and  C2_3 
REMARK    2  A    between atoms: C12_14  and  C13_15 
REMARK    3  A    between atoms: C13_15  and  C15_17 
REMARK    4  A    between atoms: C15_17  and  C16_18 
REMARK    5  A    between atoms: C17_19  and  C18_20 
REMARK    6  A    between atoms: C18_20  and  O3_23 
REMARK    7  A    between atoms: C29_32  and  O4_33 
REMARK    8  A    between atoms: O4_33  and  C30_34 
REMARK    9  A    between atoms: C31_36  and  C32_37 
REMARK   10  A    between atoms: C32_37  and  O6_38 
REMARK   11  A    between atoms: C33_39  and  O7_40 
REMARK   12  A    between atoms: C34_41  and  O8_42 
REMARK   13  A    between atoms: C35_43  and  O9_44 
ROOT
HETATM    1  C2  UNL     1      -4.462  48.666 -22.826  1.00  0.00     0.270 C 
HETATM    2  O2  UNL     1      -3.106  48.545 -22.349  1.00  0.00    -0.344 OA
HETATM    3  C3  UNL     1      -3.154  48.279 -20.931  1.00  0.00     0.095 C 
HETATM    4  C4  UNL     1      -3.214  46.757 -20.848  1.00  0.00     0.008 C 
HETATM    5  C5  UNL     1      -4.355  46.083 -21.054  1.00  0.00    -0.021 C 
HETATM    6  C6  UNL     1      -5.635  46.789 -21.451  1.00  0.00     0.030 C 
HETATM    7  C7  UNL     1      -5.423  48.358 -21.620  1.00  0.00     0.024 C 
HETATM    8  C8  UNL     1      -6.770  49.101 -21.835  1.00  0.00     0.016 C 
HETATM    9  C9  UNL     1      -7.976  48.628 -21.004  1.00  0.00     0.011 C 
HETATM   10  C10 UNL     1      -8.162  47.103 -21.085  1.00  0.00    -0.032 C 
HETATM   11  C11 UNL     1      -8.489  46.729 -22.567  1.00  0.00     0.016 C 
HETATM   12  C12 UNL     1      -9.239  46.444 -20.165  1.00  0.00    -0.002 C 
HETATM   13  C22 UNL     1      -8.735  44.967 -20.079  1.00  0.00     0.006 C 
HETATM   14  C23 UNL     1      -7.259  44.949 -20.524  1.00  0.00     0.011 C 
HETATM   15  C24 UNL     1      -6.846  46.432 -20.528  1.00  0.00    -0.029 C 
HETATM   16  C25 UNL     1      -6.541  46.778 -19.032  1.00  0.00     0.016 C 
HETATM   17  C26 UNL     1      -4.508  48.888 -20.486  1.00  0.00     0.039 C 
HETATM   18  C27 UNL     1      -4.488  50.419 -20.345  1.00  0.00     0.011 C 
HETATM   19  C28 UNL     1      -3.315  50.896 -19.504  1.00  0.00     0.033 C 
HETATM   20  C29 UNL     1      -1.983  50.436 -20.104  1.00  0.00     0.136 C 
HETATM   21  C36 UNL     1      -1.905  48.873 -20.181  1.00  0.00     0.014 C 
HETATM   22  C37 UNL     1      -0.585  48.492 -20.900  1.00  0.00     0.021 C 
HETATM   23  C38 UNL     1      -1.818  48.324 -18.732  1.00  0.00     0.021 C 
ENDROOT
BRANCH  20  24
HETATM   24  O4  UNL     1      -1.794  50.988 -21.417  1.00  0.00    -0.352 OA
BRANCH  24  25
HETATM   25  C30 UNL     1      -0.983  52.169 -21.448  1.00  0.00     0.292 C 
HETATM   26  O5  UNL     1      -0.390  52.343 -22.731  1.00  0.00    -0.348 OA
HETATM   27  C31 UNL     1       0.364  53.560 -22.799  1.00  0.00     0.179 C 
HETATM   28  C33 UNL     1       1.550  53.512 -21.818  1.00  0.00     0.180 C 
HETATM   29  C34 UNL     1       1.079  53.171 -20.402  1.00  0.00     0.183 C 
HETATM   30  C35 UNL     1       0.126  51.976 -20.395  1.00  0.00     0.204 C 
BRANCH  27  31
HETATM   31  C32 UNL     1       0.861  53.753 -24.239  1.00  0.00     0.198 C 
BRANCH  31  32
HETATM   32  O6  UNL     1       0.189  54.819 -24.893  1.00  0.00    -0.398 OA
HETATM   33  H50 UNL     1       0.150  55.568 -24.259  1.00  0.00     0.209 HD
ENDBRANCH  31  32
ENDBRANCH  27  31
BRANCH  28  34
HETATM   34  O7  UNL     1       2.230  54.774 -21.809  1.00  0.00    -0.390 OA
HETATM   35  H52 UNL     1       1.784  55.297 -21.109  1.00  0.00     0.210 HD
ENDBRANCH  28  34
BRANCH  29  36
HETATM   36  O8  UNL     1       0.416  54.327 -19.852  1.00  0.00    -0.390 OA
HETATM   37  H54 UNL     1       0.021  54.008 -19.012  1.00  0.00     0.210 HD
ENDBRANCH  29  36
BRANCH  30  38
HETATM   38  O9  UNL     1      -0.433  51.839 -19.080  1.00  0.00    -0.388 OA
HETATM   39  H56 UNL     1      -1.011  51.049 -19.129  1.00  0.00     0.210 HD
ENDBRANCH  30  38
ENDBRANCH  24  25
ENDBRANCH  20  24
BRANCH   1  40
HETATM   40  O1  UNL     1      -4.729  47.824 -23.942  1.00  0.00    -0.365 OA
HETATM   41  C1  UNL     1      -5.561  48.463 -24.897  1.00  0.00     0.204 C 
ENDBRANCH   1  40
BRANCH  12  42
HETATM   42  C13 UNL     1     -10.746  46.517 -20.547  1.00  0.00    -0.010 C 
HETATM   43  C14 UNL     1     -10.960  46.571 -22.064  1.00  0.00     0.010 C 
BRANCH  42  44
HETATM   44  C15 UNL     1     -11.414  47.747 -19.877  1.00  0.00     0.031 C 
BRANCH  44  45
HETATM   45  C16 UNL     1     -12.465  47.374 -18.864  1.00  0.00    -0.027 C 
HETATM   46  C17 UNL     1     -13.731  47.819 -18.929  1.00  0.00     0.006 C 
BRANCH  46  47
HETATM   47  C18 UNL     1     -14.877  47.550 -17.969  1.00  0.00     0.070 C 
HETATM   48  C19 UNL     1     -16.085  46.993 -18.740  1.00  0.00     0.050 C 
HETATM   49  C20 UNL     1     -14.520  46.542 -16.864  1.00  0.00     0.050 C 
BRANCH  47  50
HETATM   50  O3  UNL     1     -15.197  48.763 -17.265  1.00  0.00    -0.382 OA
HETATM   51  C21 UNL     1     -15.470  49.917 -18.040  1.00  0.00     0.202 C 
ENDBRANCH  47  50
ENDBRANCH  46  47
ENDBRANCH  44  45
ENDBRANCH  42  44
ENDBRANCH  12  42
TORSDOF 13
ENDMDL
MODEL 5
REMARK minimizedAffinity -8.08911991
REMARK CNNscore 0.268051982
REMARK CNNaffinity 6.99811554
REMARK  13 active torsions:
REMARK  status: ('A' for Active; 'I' for Inactive)
REMARK    1  A    between atoms: O1_2  and  C2_3 
REMARK    2  A    between atoms: C12_14  and  C13_15 
REMARK    3  A    between atoms: C13_15  and  C15_17 
REMARK    4  A    between atoms: C15_17  and  C16_18 
REMARK    5  A    between atoms: C17_19  and  C18_20 
REMARK    6  A    between atoms: C18_20  and  O3_23 
REMARK    7  A    between atoms: C29_32  and  O4_33 
REMARK    8  A    between atoms: O4_33  and  C30_34 
REMARK    9  A    between atoms: C31_36  and  C32_37 
REMARK   10  A    between atoms: C32_37  and  O6_38 
REMARK   11  A    between atoms: C33_39  and  O7_40 
REMARK   12  A    between atoms: C34_41  and  O8_42 
REMARK   13  A    between atoms: C35_43  and  O9_44 
ROOT
HETATM    1  C2  UNL     1      -1.972  48.980 -20.776  1.00  0.00     0.270 C 
HETATM    2  O2  UNL     1      -2.323  50.255 -21.352  1.00  0.00    -0.344 OA
HETATM    3  C3  UNL     1      -3.694  50.178 -21.801  1.00  0.00     0.095 C 
HETATM    4  C4  UNL     1      -4.501  50.615 -20.584  1.00  0.00     0.008 C 
HETATM    5  C5  UNL     1      -4.748  49.781 -19.563  1.00  0.00    -0.021 C 
HETATM    6  C6  UNL     1      -4.177  48.379 -19.526  1.00  0.00     0.030 C 
HETATM    7  C7  UNL     1      -3.257  48.076 -20.790  1.00  0.00     0.024 C 
HETATM    8  C8  UNL     1      -2.834  46.583 -20.849  1.00  0.00     0.016 C 
HETATM    9  C9  UNL     1      -3.895  45.534 -20.468  1.00  0.00     0.011 C 
HETATM   10  C10 UNL     1      -4.572  45.868 -19.128  1.00  0.00    -0.032 C 
HETATM   11  C11 UNL     1      -3.488  45.809 -18.004  1.00  0.00     0.016 C 
HETATM   12  C12 UNL     1      -5.788  44.994 -18.682  1.00  0.00    -0.002 C 
HETATM   13  C22 UNL     1      -6.526  45.947 -17.686  1.00  0.00     0.006 C 
HETATM   14  C23 UNL     1      -6.014  47.380 -17.943  1.00  0.00     0.011 C 
HETATM   15  C24 UNL     1      -5.262  47.280 -19.281  1.00  0.00    -0.029 C 
HETATM   16  C25 UNL     1      -6.375  47.326 -20.382  1.00  0.00     0.016 C 
HETATM   17  C26 UNL     1      -3.911  48.666 -22.066  1.00  0.00     0.039 C 
HETATM   18  C27 UNL     1      -3.297  48.169 -23.386  1.00  0.00     0.011 C 
HETATM   19  C28 UNL     1      -3.697  49.043 -24.563  1.00  0.00     0.033 C 
HETATM   20  C29 UNL     1      -3.275  50.498 -24.336  1.00  0.00     0.136 C 
HETATM   21  C36 UNL     1      -3.951  51.093 -23.054  1.00  0.00     0.014 C 
HETATM   22  C37 UNL     1      -3.388  52.521 -22.832  1.00  0.00     0.021 C 
HETATM   23  C38 UNL     1      -5.471  51.233 -23.334  1.00  0.00     0.021 C 
ENDROOT
BRANCH  20  24
HETATM   24  O4  UNL     1      -1.848  50.605 -24.216  1.00  0.00    -0.352 OA
BRANCH  24  25
HETATM   25  C30 UNL     1      -1.169  50.857 -25.453  1.00  0.00     0.292 C 
HETATM   26  O5  UNL     1       0.225  51.044 -25.238  1.00  0.00    -0.348 OA
HETATM   27  C31 UNL     1       0.928  51.223 -26.474  1.00  0.00     0.179 C 
HETATM   28  C33 UNL     1       0.460  52.512 -27.175  1.00  0.00     0.180 C 
HETATM   29  C34 UNL     1      -1.062  52.528 -27.337  1.00  0.00     0.183 C 
HETATM   30  C35 UNL     1      -1.773  52.150 -26.037  1.00  0.00     0.204 C 
BRANCH  27  31
HETATM   31  C32 UNL     1       2.434  51.283 -26.183  1.00  0.00     0.198 C 
BRANCH  31  32
HETATM   32  O6  UNL     1       3.202  51.359 -27.375  1.00  0.00    -0.398 OA
HETATM   33  H50 UNL     1       2.765  52.017 -27.959  1.00  0.00     0.209 HD
ENDBRANCH  31  32
ENDBRANCH  27  31
BRANCH  28  34
HETATM   34  O7  UNL     1       1.082  52.623 -28.462  1.00  0.00    -0.390 OA
HETATM   35  H52 UNL     1       0.470  52.168 -29.080  1.00  0.00     0.210 HD
ENDBRANCH  28  34
BRANCH  29  36
HETATM   36  O8  UNL     1      -1.420  51.598 -28.378  1.00  0.00    -0.390 OA
HETATM   37  H54 UNL     1      -2.400  51.550 -28.339  1.00  0.00     0.210 HD
ENDBRANCH  29  36
BRANCH  30  38
HETATM   38  O9  UNL     1      -3.174  51.986 -26.308  1.00  0.00    -0.388 OA
HETATM   39  H56 UNL     1      -3.578  51.770 -25.441  1.00  0.00     0.210 HD
ENDBRANCH  30  38
ENDBRANCH  24  25
ENDBRANCH  20  24
BRANCH   1  40
HETATM   40  O1  UNL     1      -1.425  49.101 -19.467  1.00  0.00    -0.365 OA
HETATM   41  C1  UNL     1      -0.846  50.378 -19.253  1.00  0.00     0.204 C 
ENDBRANCH   1  40
BRANCH  12  42
HETATM   42  C13 UNL     1      -5.554  43.585 -18.062  1.00  0.00    -0.010 C 
HETATM   43  C14 UNL     1      -4.772  43.651 -16.745  1.00  0.00     0.010 C 
BRANCH  42  44
HETATM   44  C15 UNL     1      -4.811  42.670 -19.072  1.00  0.00     0.031 C 
BRANCH  44  45
HETATM   45  C16 UNL     1      -5.693  41.601 -19.664  1.00  0.00    -0.027 C 
HETATM   46  C17 UNL     1      -6.664  41.868 -20.554  1.00  0.00     0.006 C 
BRANCH  46  47
HETATM   47  C18 UNL     1      -7.639  40.902 -21.206  1.00  0.00     0.070 C 
HETATM   48  C19 UNL     1      -6.867  39.845 -22.012  1.00  0.00     0.050 C 
HETATM   49  C20 UNL     1      -8.530  40.164 -20.193  1.00  0.00     0.050 C 
BRANCH  47  50
HETATM   50  O3  UNL     1      -8.559  41.644 -22.026  1.00  0.00    -0.382 OA
HETATM   51  C21 UNL     1      -9.942  41.504 -21.751  1.00  0.00     0.202 C 
ENDBRANCH  47  50
ENDBRANCH  46  47
ENDBRANCH  44  45
ENDBRANCH  42  44
ENDBRANCH  12  42
TORSDOF 13
ENDMDL
MODEL 6
REMARK minimizedAffinity -7.56074572
REMARK CNNscore 0.247024238
REMARK CNNaffinity 6.61363745
REMARK  13 active torsions:
REMARK  status: ('A' for Active; 'I' for Inactive)
REMARK    1  A    between atoms: O1_2  and  C2_3 
REMARK    2  A    between atoms: C12_14  and  C13_15 
REMARK    3  A    between atoms: C13_15  and  C15_17 
REMARK    4  A    between atoms: C15_17  and  C16_18 
REMARK    5  A    between atoms: C17_19  and  C18_20 
REMARK    6  A    between atoms: C18_20  and  O3_23 
REMARK    7  A    between atoms: C29_32  and  O4_33 
REMARK    8  A    between atoms: O4_33  and  C30_34 
REMARK    9  A    between atoms: C31_36  and  C32_37 
REMARK   10  A    between atoms: C32_37  and  O6_38 
REMARK   11  A    between atoms: C33_39  and  O7_40 
REMARK   12  A    between atoms: C34_41  and  O8_42 
REMARK   13  A    between atoms: C35_43  and  O9_44 
ROOT
HETATM    1  C2  UNL     1      -1.574  53.644 -10.827  1.00  0.00     0.270 C 
HETATM    2  O2  UNL     1      -1.982  52.265 -10.927  1.00  0.00    -0.344 OA
HETATM    3  C3  UNL     1      -1.052  51.468 -10.162  1.00  0.00     0.095 C 
HETATM    4  C4  UNL     1      -1.659  51.443  -8.764  1.00  0.00     0.008 C 
HETATM    5  C5  UNL     1      -1.529  52.477  -7.919  1.00  0.00    -0.021 C 
HETATM    6  C6  UNL     1      -0.835  53.758  -8.331  1.00  0.00     0.030 C 
HETATM    7  C7  UNL     1      -0.347  53.711  -9.846  1.00  0.00     0.024 C 
HETATM    8  C8  UNL     1       0.532  54.940 -10.206  1.00  0.00     0.016 C 
HETATM    9  C9  UNL     1       1.538  55.422  -9.146  1.00  0.00     0.011 C 
HETATM   10  C10 UNL     1       0.876  55.595  -7.768  1.00  0.00    -0.032 C 
HETATM   11  C11 UNL     1      -0.201  56.723  -7.882  1.00  0.00     0.016 C 
HETATM   12  C12 UNL     1       1.795  55.918  -6.547  1.00  0.00    -0.002 C 
HETATM   13  C22 UNL     1       0.920  55.435  -5.344  1.00  0.00     0.006 C 
HETATM   14  C23 UNL     1      -0.171  54.499  -5.904  1.00  0.00     0.011 C 
HETATM   15  C24 UNL     1       0.293  54.192  -7.339  1.00  0.00    -0.029 C 
HETATM   16  C25 UNL     1       1.379  53.074  -7.189  1.00  0.00     0.016 C 
HETATM   17  C26 UNL     1       0.247  52.314 -10.162  1.00  0.00     0.039 C 
HETATM   18  C27 UNL     1       1.040  52.240 -11.477  1.00  0.00     0.011 C 
HETATM   19  C28 UNL     1       1.265  50.805 -11.925  1.00  0.00     0.033 C 
HETATM   20  C29 UNL     1      -0.067  50.071 -12.107  1.00  0.00     0.136 C 
HETATM   21  C36 UNL     1      -0.879  50.027 -10.769  1.00  0.00     0.014 C 
HETATM   22  C37 UNL     1      -2.254  49.372 -11.062  1.00  0.00     0.021 C 
HETATM   23  C38 UNL     1      -0.126  49.097  -9.780  1.00  0.00     0.021 C 
ENDROOT
BRANCH  20  24
HETATM   24  O4  UNL     1      -0.862  50.696 -13.127  1.00  0.00    -0.352 OA
BRANCH  24  25
HETATM   25  C30 UNL     1      -0.488  50.344 -14.465  1.00  0.00     0.292 C 
HETATM   26  O5  UNL     1       0.126  51.446 -15.126  1.00  0.00    -0.348 OA
HETATM   27  C31 UNL     1       0.574  51.086 -16.439  1.00  0.00     0.179 C 
HETATM   28  C33 UNL     1      -0.625  50.710 -17.330  1.00  0.00     0.180 C 
HETATM   29  C34 UNL     1      -1.484  49.630 -16.668  1.00  0.00     0.183 C 
HETATM   30  C35 UNL     1      -1.785  49.964 -15.206  1.00  0.00     0.204 C 
BRANCH  27  31
HETATM   31  C32 UNL     1       1.342  52.272 -17.041  1.00  0.00     0.198 C 
BRANCH  31  32
HETATM   32  O6  UNL     1       1.463  53.347 -16.121  1.00  0.00    -0.398 OA
HETATM   33  H50 UNL     1       1.715  52.960 -15.254  1.00  0.00     0.209 HD
ENDBRANCH  31  32
ENDBRANCH  27  31
BRANCH  28  34
HETATM   34  O7  UNL     1      -0.162  50.243 -18.604  1.00  0.00    -0.390 OA
HETATM   35  H52 UNL     1      -0.050  49.274 -18.493  1.00  0.00     0.210 HD
ENDBRANCH  28  34
BRANCH  29  36
HETATM   36  O8  UNL     1      -0.780  48.375 -16.746  1.00  0.00    -0.390 OA
HETATM   37  H54 UNL     1      -1.307  47.761 -16.191  1.00  0.00     0.210 HD
ENDBRANCH  29  36
BRANCH  30  38
HETATM   38  O9  UNL     1      -2.412  48.827 -14.593  1.00  0.00    -0.388 OA
HETATM   39  H56 UNL     1      -2.603  49.107 -13.672  1.00  0.00     0.210 HD
ENDBRANCH  30  38
ENDBRANCH  24  25
ENDBRANCH  20  24
BRANCH   1  40
HETATM   40  O1  UNL     1      -2.631  54.501 -10.409  1.00  0.00    -0.365 OA
HETATM   41  C1  UNL     1      -3.899  53.879 -10.543  1.00  0.00     0.204 C 
ENDBRANCH   1  40
BRANCH  12  42
HETATM   42  C13 UNL     1       2.327  57.364  -6.327  1.00  0.00    -0.010 C 
HETATM   43  C14 UNL     1       3.414  57.745  -7.338  1.00  0.00     0.010 C 
BRANCH  42  44
HETATM   44  C15 UNL     1       2.871  57.524  -4.882  1.00  0.00     0.031 C 
BRANCH  44  45
HETATM   45  C16 UNL     1       3.075  58.961  -4.479  1.00  0.00    -0.027 C 
HETATM   46  C17 UNL     1       4.244  59.428  -4.008  1.00  0.00     0.006 C 
BRANCH  46  47
HETATM   47  C18 UNL     1       4.580  60.833  -3.540  1.00  0.00     0.070 C 
HETATM   48  C19 UNL     1       4.154  61.012  -2.074  1.00  0.00     0.050 C 
HETATM   49  C20 UNL     1       6.079  61.163  -3.638  1.00  0.00     0.050 C 
BRANCH  47  50
HETATM   50  O3  UNL     1       3.941  61.784  -4.410  1.00  0.00    -0.382 OA
HETATM   51  C21 UNL     1       4.178  63.160  -4.164  1.00  0.00     0.202 C 
ENDBRANCH  47  50
ENDBRANCH  46  47
ENDBRANCH  44  45
ENDBRANCH  42  44
ENDBRANCH  12  42
TORSDOF 13
ENDMDL
MODEL 7
REMARK minimizedAffinity -8.15169621
REMARK CNNscore 0.233004242
REMARK CNNaffinity 6.58982277
REMARK  13 active torsions:
REMARK  status: ('A' for Active; 'I' for Inactive)
REMARK    1  A    between atoms: O1_2  and  C2_3 
REMARK    2  A    between atoms: C12_14  and  C13_15 
REMARK    3  A    between atoms: C13_15  and  C15_17 
REMARK    4  A    between atoms: C15_17  and  C16_18 
REMARK    5  A    between atoms: C17_19  and  C18_20 
REMARK    6  A    between atoms: C18_20  and  O3_23 
REMARK    7  A    between atoms: C29_32  and  O4_33 
REMARK    8  A    between atoms: O4_33  and  C30_34 
REMARK    9  A    between atoms: C31_36  and  C32_37 
REMARK   10  A    between atoms: C32_37  and  O6_38 
REMARK   11  A    between atoms: C33_39  and  O7_40 
REMARK   12  A    between atoms: C34_41  and  O8_42 
REMARK   13  A    between atoms: C35_43  and  O9_44 
ROOT
HETATM    1  C2  UNL     1      -4.552  48.707 -22.742  1.00  0.00     0.270 C 
HETATM    2  O2  UNL     1      -3.209  48.507 -22.257  1.00  0.00    -0.344 OA
HETATM    3  C3  UNL     1      -3.282  48.228 -20.843  1.00  0.00     0.095 C 
HETATM    4  C4  UNL     1      -3.428  46.712 -20.777  1.00  0.00     0.008 C 
HETATM    5  C5  UNL     1      -4.603  46.104 -20.998  1.00  0.00    -0.021 C 
HETATM    6  C6  UNL     1      -5.838  46.884 -21.397  1.00  0.00     0.030 C 
HETATM    7  C7  UNL     1      -5.538  48.441 -21.547  1.00  0.00     0.024 C 
HETATM    8  C8  UNL     1      -6.840  49.260 -21.764  1.00  0.00     0.016 C 
HETATM    9  C9  UNL     1      -8.077  48.846 -20.946  1.00  0.00     0.011 C 
HETATM   10  C10 UNL     1      -8.347  47.334 -21.045  1.00  0.00    -0.032 C 
HETATM   11  C11 UNL     1      -8.683  46.995 -22.534  1.00  0.00     0.016 C 
HETATM   12  C12 UNL     1      -9.466  46.727 -20.140  1.00  0.00    -0.002 C 
HETATM   13  C22 UNL     1      -9.046  45.223 -20.067  1.00  0.00     0.006 C 
HETATM   14  C23 UNL     1      -7.569  45.128 -20.502  1.00  0.00     0.011 C 
HETATM   15  C24 UNL     1      -7.074  46.585 -20.487  1.00  0.00    -0.029 C 
HETATM   16  C25 UNL     1      -6.763  46.898 -18.985  1.00  0.00     0.016 C 
HETATM   17  C26 UNL     1      -4.604  48.907 -20.401  1.00  0.00     0.039 C 
HETATM   18  C27 UNL     1      -4.500  50.434 -20.243  1.00  0.00     0.011 C 
HETATM   19  C28 UNL     1      -3.310  50.836 -19.388  1.00  0.00     0.033 C 
HETATM   20  C29 UNL     1      -2.001  50.308 -19.984  1.00  0.00     0.136 C 
HETATM   21  C36 UNL     1      -2.009  48.744 -20.077  1.00  0.00     0.014 C 
HETATM   22  C37 UNL     1      -0.706  48.298 -20.791  1.00  0.00     0.021 C 
HETATM   23  C38 UNL     1      -1.963  48.177 -18.633  1.00  0.00     0.021 C 
ENDROOT
BRANCH  20  24
HETATM   24  O4  UNL     1      -1.771  50.862 -21.289  1.00  0.00    -0.352 OA
BRANCH  24  25
HETATM   25  C30 UNL     1      -0.985  52.061 -21.290  1.00  0.00     0.292 C 
HETATM   26  O5  UNL     1      -0.413  52.291 -22.574  1.00  0.00    -0.348 OA
HETATM   27  C31 UNL     1       0.315  53.525 -22.610  1.00  0.00     0.179 C 
HETATM   28  C33 UNL     1       1.515  53.468 -21.647  1.00  0.00     0.180 C 
HETATM   29  C34 UNL     1       1.071  53.070 -20.238  1.00  0.00     0.183 C 
HETATM   30  C35 UNL     1       0.143  51.855 -20.259  1.00  0.00     0.204 C 
BRANCH  27  31
HETATM   31  C32 UNL     1       0.788  53.777 -24.049  1.00  0.00     0.198 C 
BRANCH  31  32
HETATM   32  O6  UNL     1       1.296  55.093 -24.216  1.00  0.00    -0.398 OA
HETATM   33  H50 UNL     1       1.875  55.280 -23.445  1.00  0.00     0.209 HD
ENDBRANCH  31  32
ENDBRANCH  27  31
BRANCH  28  34
HETATM   34  O7  UNL     1       2.170  54.743 -21.603  1.00  0.00    -0.390 OA
HETATM   35  H52 UNL     1       1.723  55.233 -20.880  1.00  0.00     0.210 HD
ENDBRANCH  28  34
BRANCH  29  36
HETATM   36  O8  UNL     1       0.392  54.192 -19.639  1.00  0.00    -0.390 OA
HETATM   37  H54 UNL     1       0.015  53.836 -18.806  1.00  0.00     0.210 HD
ENDBRANCH  29  36
BRANCH  30  38
HETATM   38  O9  UNL     1      -0.395  51.662 -18.942  1.00  0.00    -0.388 OA
HETATM   39  H56 UNL     1      -0.958  50.862 -19.011  1.00  0.00     0.210 HD
ENDBRANCH  30  38
ENDBRANCH  24  25
ENDBRANCH  20  24
BRANCH   1  40
HETATM   40  O1  UNL     1      -4.857  47.893 -23.870  1.00  0.00    -0.365 OA
HETATM   41  C1  UNL     1      -4.989  48.662 -25.055  1.00  0.00     0.204 C 
ENDBRANCH   1  40
BRANCH  12  42
HETATM   42  C13 UNL     1     -10.964  46.887 -20.533  1.00  0.00    -0.010 C 
HETATM   43  C14 UNL     1     -11.696  47.894 -19.639  1.00  0.00     0.010 C 
BRANCH  42  44
HETATM   44  C15 UNL     1     -11.684  45.513 -20.479  1.00  0.00     0.031 C 
BRANCH  44  45
HETATM   45  C16 UNL     1     -13.103  45.567 -20.982  1.00  0.00    -0.027 C 
HETATM   46  C17 UNL     1     -13.434  46.072 -22.182  1.00  0.00     0.006 C 
BRANCH  46  47
HETATM   47  C18 UNL     1     -14.814  46.216 -22.800  1.00  0.00     0.070 C 
HETATM   48  C19 UNL     1     -15.779  46.845 -21.782  1.00  0.00     0.050 C 
HETATM   49  C20 UNL     1     -14.825  47.092 -24.063  1.00  0.00     0.050 C 
BRANCH  47  50
HETATM   50  O3  UNL     1     -15.265  44.926 -23.248  1.00  0.00    -0.382 OA
HETATM   51  C21 UNL     1     -16.576  44.838 -23.779  1.00  0.00     0.202 C 
ENDBRANCH  47  50
ENDBRANCH  46  47
ENDBRANCH  44  45
ENDBRANCH  42  44
ENDBRANCH  12  42
TORSDOF 13
ENDMDL
MODEL 8
REMARK minimizedAffinity -9.11140823
REMARK CNNscore 0.206217095
REMARK CNNaffinity 7.02221823
REMARK  13 active torsions:
REMARK  status: ('A' for Active; 'I' for Inactive)
REMARK    1  A    between atoms: O1_2  and  C2_3 
REMARK    2  A    between atoms: C12_14  and  C13_15 
REMARK    3  A    between atoms: C13_15  and  C15_17 
REMARK    4  A    between atoms: C15_17  and  C16_18 
REMARK    5  A    between atoms: C17_19  and  C18_20 
REMARK    6  A    between atoms: C18_20  and  O3_23 
REMARK    7  A    between atoms: C29_32  and  O4_33 
REMARK    8  A    between atoms: O4_33  and  C30_34 
REMARK    9  A    between atoms: C31_36  and  C32_37 
REMARK   10  A    between atoms: C32_37  and  O6_38 
REMARK   11  A    between atoms: C33_39  and  O7_40 
REMARK   12  A    between atoms: C34_41  and  O8_42 
REMARK   13  A    between atoms: C35_43  and  O9_44 
ROOT
HETATM    1  C2  UNL     1      -3.782  47.656 -20.344  1.00  0.00     0.270 C 
HETATM    2  O2  UNL     1      -4.933  47.134 -21.039  1.00  0.00    -0.344 OA
HETATM    3  C3  UNL     1      -5.510  48.207 -21.814  1.00  0.00     0.095 C 
HETATM    4  C4  UNL     1      -4.784  48.120 -23.152  1.00  0.00     0.008 C 
HETATM    5  C5  UNL     1      -3.548  48.611 -23.319  1.00  0.00    -0.021 C 
HETATM    6  C6  UNL     1      -2.771  49.217 -22.169  1.00  0.00     0.030 C 
HETATM    7  C7  UNL     1      -3.581  49.147 -20.800  1.00  0.00     0.024 C 
HETATM    8  C8  UNL     1      -2.870  49.939 -19.669  1.00  0.00     0.016 C 
HETATM    9  C9  UNL     1      -2.223  51.283 -20.050  1.00  0.00     0.011 C 
HETATM   10  C10 UNL     1      -1.322  51.152 -21.289  1.00  0.00    -0.032 C 
HETATM   11  C11 UNL     1      -0.140  50.191 -20.935  1.00  0.00     0.016 C 
HETATM   12  C12 UNL     1      -0.723  52.457 -21.904  1.00  0.00    -0.002 C 
HETATM   13  C22 UNL     1      -0.420  52.016 -23.373  1.00  0.00     0.006 C 
HETATM   14  C23 UNL     1      -1.226  50.731 -23.652  1.00  0.00     0.011 C 
HETATM   15  C24 UNL     1      -2.223  50.647 -22.483  1.00  0.00    -0.029 C 
HETATM   16  C25 UNL     1      -3.383  51.629 -22.860  1.00  0.00     0.016 C 
HETATM   17  C26 UNL     1      -5.073  49.487 -21.056  1.00  0.00     0.039 C 
HETATM   18  C27 UNL     1      -5.890  49.770 -19.785  1.00  0.00     0.011 C 
HETATM   19  C28 UNL     1      -7.386  49.717 -20.049  1.00  0.00     0.033 C 
HETATM   20  C29 UNL     1      -7.797  48.351 -20.609  1.00  0.00     0.136 C 
HETATM   21  C36 UNL     1      -7.068  48.049 -21.962  1.00  0.00     0.014 C 
HETATM   22  C37 UNL     1      -7.447  46.612 -22.403  1.00  0.00     0.021 C 
HETATM   23  C38 UNL     1      -7.623  49.024 -23.035  1.00  0.00     0.021 C 
ENDROOT
BRANCH  20  24
HETATM   24  O4  UNL     1      -7.512  47.303 -19.669  1.00  0.00    -0.352 OA
BRANCH  24  25
HETATM   25  C30 UNL     1      -8.616  46.949 -18.828  1.00  0.00     0.292 C 
HETATM   26  O5  UNL     1      -9.853  47.150 -19.504  1.00  0.00    -0.348 OA
HETATM   27  C31 UNL     1     -10.964  46.730 -18.702  1.00  0.00     0.179 C 
HETATM   28  C33 UNL     1     -11.064  47.593 -17.430  1.00  0.00     0.180 C 
HETATM   29  C34 UNL     1      -9.737  47.604 -16.667  1.00  0.00     0.183 C 
HETATM   30  C35 UNL     1      -8.553  47.874 -17.596  1.00  0.00     0.204 C 
BRANCH  27  31
HETATM   31  C32 UNL     1     -12.248  46.846 -19.535  1.00  0.00     0.198 C 
BRANCH  31  32
HETATM   32  O6  UNL     1     -13.036  47.961 -19.143  1.00  0.00    -0.398 OA
HETATM   33  H50 UNL     1     -12.425  48.722 -19.033  1.00  0.00     0.209 HD
ENDBRANCH  31  32
ENDBRANCH  27  31
BRANCH  28  34
HETATM   34  O7  UNL     1     -12.105  47.094 -16.579  1.00  0.00    -0.390 OA
HETATM   35  H52 UNL     1     -11.663  46.440 -15.996  1.00  0.00     0.210 HD
ENDBRANCH  28  34
BRANCH  29  36
HETATM   36  O8  UNL     1      -9.571  46.325 -16.024  1.00  0.00    -0.390 OA
HETATM   37  H54 UNL     1      -8.654  46.343 -15.673  1.00  0.00     0.210 HD
ENDBRANCH  29  36
BRANCH  30  38
HETATM   38  O9  UNL     1      -7.335  47.669 -16.863  1.00  0.00    -0.388 OA
HETATM   39  H56 UNL     1      -6.617  47.879 -17.497  1.00  0.00     0.210 HD
ENDBRANCH  30  38
ENDBRANCH  24  25
ENDBRANCH  20  24
BRANCH   1  40
HETATM   40  O1  UNL     1      -2.610  46.876 -20.558  1.00  0.00    -0.365 OA
HETATM   41  C1  UNL     1      -1.985  47.191 -21.792  1.00  0.00     0.204 C 
ENDBRANCH   1  40
BRANCH  12  42
HETATM   42  C13 UNL     1       0.509  53.141 -21.243  1.00  0.00    -0.010 C 
HETATM   43  C14 UNL     1       1.753  52.246 -21.265  1.00  0.00     0.010 C 
BRANCH  42  44
HETATM   44  C15 UNL     1       0.179  53.550 -19.782  1.00  0.00     0.031 C 
BRANCH  44  45
HETATM   45  C16 UNL     1       1.000  52.809 -18.759  1.00  0.00    -0.027 C 
HETATM   46  C17 UNL     1       0.531  52.489 -17.541  1.00  0.00     0.006 C 
BRANCH  46  47
HETATM   47  C18 UNL     1       1.251  51.777 -16.409  1.00  0.00     0.070 C 
HETATM   48  C19 UNL     1       2.740  52.160 -16.414  1.00  0.00     0.050 C 
HETATM   49  C20 UNL     1       0.683  52.114 -15.021  1.00  0.00     0.050 C 
BRANCH  47  50
HETATM   50  O3  UNL     1       1.057  50.358 -16.546  1.00  0.00    -0.382 OA
HETATM   51  C21 UNL     1       0.701  49.630 -15.384  1.00  0.00     0.202 C 
ENDBRANCH  47  50
ENDBRANCH  46  47
ENDBRANCH  44  45
ENDBRANCH  42  44
ENDBRANCH  12  42
TORSDOF 13
ENDMDL
MODEL 9
REMARK minimizedAffinity -9.11859703
REMARK CNNscore 0.193728924
REMARK CNNaffinity 6.71175003
REMARK  13 active torsions:
REMARK  status: ('A' for Active; 'I' for Inactive)
REMARK    1  A    between atoms: O1_2  and  C2_3 
REMARK    2  A    between atoms: C12_14  and  C13_15 
REMARK    3  A    between atoms: C13_15  and  C15_17 
REMARK    4  A    between atoms: C15_17  and  C16_18 
REMARK    5  A    between atoms: C17_19  and  C18_20 
REMARK    6  A    between atoms: C18_20  and  O3_23 
REMARK    7  A    between atoms: C29_32  and  O4_33 
REMARK    8  A    between atoms: O4_33  and  C30_34 
REMARK    9  A    between atoms: C31_36  and  C32_37 
REMARK   10  A    between atoms: C32_37  and  O6_38 
REMARK   11  A    between atoms: C33_39  and  O7_40 
REMARK   12  A    between atoms: C34_41  and  O8_42 
REMARK   13  A    between atoms: C35_43  and  O9_44 
ROOT
HETATM    1  C2  UNL     1      -7.147  48.901 -21.072  1.00  0.00     0.270 C 
HETATM    2  O2  UNL     1      -7.739  47.608 -20.831  1.00  0.00    -0.344 OA
HETATM    3  C3  UNL     1      -6.820  46.601 -21.307  1.00  0.00     0.095 C 
HETATM    4  C4  UNL     1      -5.936  46.314 -20.099  1.00  0.00     0.008 C 
HETATM    5  C5  UNL     1      -4.927  47.127 -19.751  1.00  0.00    -0.021 C 
HETATM    6  C6  UNL     1      -4.653  48.416 -20.496  1.00  0.00     0.030 C 
HETATM    7  C7  UNL     1      -5.708  48.668 -21.661  1.00  0.00     0.024 C 
HETATM    8  C8  UNL     1      -5.312  49.883 -22.544  1.00  0.00     0.016 C 
HETATM    9  C9  UNL     1      -3.820  50.052 -22.882  1.00  0.00     0.011 C 
HETATM   10  C10 UNL     1      -2.937  49.964 -21.626  1.00  0.00    -0.032 C 
HETATM   11  C11 UNL     1      -3.302  51.161 -20.688  1.00  0.00     0.016 C 
HETATM   12  C12 UNL     1      -1.386  49.949 -21.818  1.00  0.00    -0.002 C 
HETATM   13  C22 UNL     1      -0.901  49.276 -20.492  1.00  0.00     0.006 C 
HETATM   14  C23 UNL     1      -2.112  48.562 -19.859  1.00  0.00     0.011 C 
HETATM   15  C24 UNL     1      -3.170  48.545 -20.976  1.00  0.00    -0.029 C 
HETATM   16  C25 UNL     1      -2.767  47.349 -21.904  1.00  0.00     0.016 C 
HETATM   17  C26 UNL     1      -6.001  47.337 -22.400  1.00  0.00     0.039 C 
HETATM   18  C27 UNL     1      -6.746  47.498 -23.736  1.00  0.00     0.011 C 
HETATM   19  C28 UNL     1      -7.337  46.183 -24.218  1.00  0.00     0.033 C 
HETATM   20  C29 UNL     1      -8.300  45.599 -23.180  1.00  0.00     0.136 C 
HETATM   21  C36 UNL     1      -7.571  45.319 -21.822  1.00  0.00     0.014 C 
HETATM   22  C37 UNL     1      -8.632  44.840 -20.797  1.00  0.00     0.021 C 
HETATM   23  C38 UNL     1      -6.578  44.147 -22.043  1.00  0.00     0.021 C 
ENDROOT
BRANCH  20  24
HETATM   24  O4  UNL     1      -9.408  46.485 -22.953  1.00  0.00    -0.352 OA
BRANCH  24  25
HETATM   25  C30 UNL     1     -10.537  46.246 -23.803  1.00  0.00     0.292 C 
HETATM   26  O5  UNL     1     -10.652  47.265 -24.791  1.00  0.00    -0.348 OA
HETATM   27  C31 UNL     1     -11.732  47.000 -25.695  1.00  0.00     0.179 C 
HETATM   28  C33 UNL     1     -13.077  47.024 -24.944  1.00  0.00     0.180 C 
HETATM   29  C34 UNL     1     -13.051  46.081 -23.739  1.00  0.00     0.183 C 
HETATM   30  C35 UNL     1     -11.787  46.269 -22.901  1.00  0.00     0.204 C 
BRANCH  27  31
HETATM   31  C32 UNL     1     -11.717  48.057 -26.808  1.00  0.00     0.198 C 
BRANCH  31  32
HETATM   32  O6  UNL     1     -11.057  49.247 -26.400  1.00  0.00    -0.398 OA
HETATM   33  H50 UNL     1     -10.233  48.977 -25.937  1.00  0.00     0.209 HD
ENDBRANCH  31  32
ENDBRANCH  27  31
BRANCH  28  34
HETATM   34  O7  UNL     1     -14.140  46.646 -25.830  1.00  0.00    -0.390 OA
HETATM   35  H52 UNL     1     -14.207  45.671 -25.742  1.00  0.00     0.210 HD
ENDBRANCH  28  34
BRANCH  29  36
HETATM   36  O8  UNL     1     -13.120  44.724 -24.221  1.00  0.00    -0.390 OA
HETATM   37  H54 UNL     1     -12.961  44.171 -23.426  1.00  0.00     0.210 HD
ENDBRANCH  29  36
BRANCH  30  38
HETATM   38  O9  UNL     1     -11.727  45.226 -21.916  1.00  0.00    -0.388 OA
HETATM   39  H56 UNL     1     -10.916  45.411 -21.397  1.00  0.00     0.210 HD
ENDBRANCH  30  38
ENDBRANCH  24  25
ENDBRANCH  20  24
BRANCH   1  40
HETATM   40  O1  UNL     1      -7.114  49.717 -19.905  1.00  0.00    -0.365 OA
HETATM   41  C1  UNL     1      -7.981  49.227 -18.895  1.00  0.00     0.204 C 
ENDBRANCH   1  40
BRANCH  12  42
HETATM   42  C13 UNL     1      -0.619  51.272 -22.105  1.00  0.00    -0.010 C 
HETATM   43  C14 UNL     1      -0.337  52.071 -20.828  1.00  0.00     0.010 C 
BRANCH  42  44
HETATM   44  C15 UNL     1      -1.414  52.148 -23.111  1.00  0.00     0.031 C 
BRANCH  44  45
HETATM   45  C16 UNL     1      -0.585  52.608 -24.282  1.00  0.00    -0.027 C 
HETATM   46  C17 UNL     1      -0.178  51.778 -25.258  1.00  0.00     0.006 C 
BRANCH  46  47
HETATM   47  C18 UNL     1       0.679  52.095 -26.471  1.00  0.00     0.070 C 
HETATM   48  C19 UNL     1       2.107  51.569 -26.255  1.00  0.00     0.050 C 
HETATM   49  C20 UNL     1       0.141  51.477 -27.772  1.00  0.00     0.050 C 
BRANCH  47  50
HETATM   50  O3  UNL     1       0.655  53.514 -26.706  1.00  0.00    -0.382 OA
HETATM   51  C21 UNL     1      -0.216  53.997 -27.715  1.00  0.00     0.202 C 
ENDBRANCH  47  50
ENDBRANCH  46  47
ENDBRANCH  44  45
ENDBRANCH  42  44
ENDBRANCH  12  42
TORSDOF 13
ENDMDL
