MODEL 1
REMARK minimizedAffinity -7.69723749
REMARK CNNscore 0.822674096
REMARK CNNaffinity 7.06393051
REMARK  15 active torsions:
REMARK  status: ('A' for Active; 'I' for Inactive)
REMARK    1  A    between atoms: O1_2  and  C2_3 
REMARK    2  A    between atoms: C3_4  and  O2_5 
REMARK    3  A    between atoms: C5_7  and  O3_8 
REMARK    4  A    between atoms: O3_8  and  C6_9 
REMARK    5  A    between atoms: C12_15  and  O4_16 
REMARK    6  A    between atoms: C13_17  and  O5_18 
REMARK    7  A    between atoms: C15_20  and  O6_21 
REMARK    8  A    between atoms: C21_27  and  C22_28 
REMARK    9  A    between atoms: C22_28  and  C24_30 
REMARK   10  A    between atoms: C25_31  and  C26_32 
REMARK   11  A    between atoms: C26_32  and  C28_34 
REMARK   12  A    between atoms: C28_34  and  C30_36 
REMARK   13  A    between atoms: C30_36  and  O7_37 
REMARK   14  A    between atoms: C32_39  and  O8_40 
REMARK   15  A    between atoms: C35_44  and  O10_45 
ROOT
HETATM    1  C6  UNL     1      -4.226  44.531 -18.981  1.00  0.00     0.154 C 
HETATM    2  C7  UNL     1      -4.388  44.997 -20.431  1.00  0.00     0.035 C 
HETATM    3  C8  UNL     1      -3.470  46.171 -20.797  1.00  0.00     0.012 C 
HETATM    4  C9  UNL     1      -3.591  47.381 -19.828  1.00  0.00    -0.029 C 
HETATM    5  C10 UNL     1      -5.004  47.986 -20.014  1.00  0.00     0.016 C 
HETATM    6  C11 UNL     1      -3.305  46.829 -18.391  1.00  0.00     0.054 C 
HETATM    7  C12 UNL     1      -4.251  45.699 -17.968  1.00  0.00     0.154 C 
HETATM    8  C13 UNL     1      -3.035  47.921 -17.323  1.00  0.00     0.128 C 
HETATM    9  C14 UNL     1      -3.138  49.382 -17.766  1.00  0.00     0.071 C 
HETATM   10  C15 UNL     1      -2.652  49.727 -19.192  1.00  0.00     0.071 C 
HETATM   11  C16 UNL     1      -2.466  48.443 -20.071  1.00  0.00     0.029 C 
HETATM   12  C17 UNL     1      -2.159  48.809 -21.536  1.00  0.00     0.009 C 
HETATM   13  C18 UNL     1      -0.881  49.674 -21.638  1.00  0.00     0.010 C 
HETATM   14  C19 UNL     1      -0.937  50.942 -20.759  1.00  0.00    -0.031 C 
HETATM   15  C20 UNL     1      -1.896  51.966 -21.423  1.00  0.00     0.016 C 
HETATM   16  C21 UNL     1       0.432  51.632 -20.449  1.00  0.00     0.004 C 
HETATM   17  C31 UNL     1       0.111  52.450 -19.161  1.00  0.00     0.038 C 
HETATM   18  C32 UNL     1      -1.096  51.777 -18.488  1.00  0.00     0.126 C 
HETATM   19  C33 UNL     1      -1.317  50.503 -19.298  1.00  0.00     0.058 C 
ENDROOT
BRANCH   1  20
HETATM   20  O3  UNL     1      -5.293  43.640 -18.599  1.00  0.00    -0.351 OA
BRANCH  20  21
HETATM   21  C5  UNL     1      -5.224  42.350 -19.216  1.00  0.00     0.291 C 
HETATM   22  C3  UNL     1      -4.152  41.496 -18.491  1.00  0.00     0.207 C 
HETATM   23  C2  UNL     1      -4.748  40.695 -17.305  1.00  0.00     0.185 C 
HETATM   24  C35 UNL     1      -6.037  41.350 -16.785  1.00  0.00     0.176 C 
HETATM   25  C34 UNL     1      -7.042  41.467 -17.938  1.00  0.00     0.205 C 
HETATM   26  O9  UNL     1      -6.487  41.698 -19.229  1.00  0.00    -0.356 OA
BRANCH  22  27
HETATM   27  O2  UNL     1      -3.557  40.527 -19.389  1.00  0.00    -0.383 OA
HETATM   28  C4  UNL     1      -4.344  39.354 -19.552  1.00  0.00     0.202 C 
ENDBRANCH  22  27
BRANCH  23  29
HETATM   29  O1  UNL     1      -3.783  40.637 -16.227  1.00  0.00    -0.385 OA
HETATM   30  C1  UNL     1      -2.604  39.922 -16.572  1.00  0.00     0.202 C 
ENDBRANCH  23  29
BRANCH  24  31
HETATM   31  O10 UNL     1      -6.683  40.566 -15.768  1.00  0.00    -0.386 OA
HETATM   32  C36 UNL     1      -5.782  39.846 -14.939  1.00  0.00     0.202 C 
ENDBRANCH  24  31
ENDBRANCH  20  21
ENDBRANCH   1  20
BRANCH   7  33
HETATM   33  O4  UNL     1      -5.579  46.198 -17.782  1.00  0.00    -0.393 OA
HETATM   34  H20 UNL     1      -6.159  45.413 -17.855  1.00  0.00     0.210 HD
ENDBRANCH   7  33
BRANCH   8  35
HETATM   35  O5  UNL     1      -3.855  47.749 -16.167  1.00  0.00    -0.395 OA
HETATM   36  H22 UNL     1      -4.773  47.615 -16.489  1.00  0.00     0.210 HD
ENDBRANCH   8  35
BRANCH  10  37
HETATM   37  O6  UNL     1      -3.684  50.545 -19.764  1.00  0.00    -0.389 OA
HETATM   38  H25 UNL     1      -3.906  51.249 -19.129  1.00  0.00     0.210 HD
ENDBRANCH  10  37
BRANCH  18  39
HETATM   39  O8  UNL     1      -0.782  51.473 -17.138  1.00  0.00    -0.395 OA
HETATM   40  H55 UNL     1      -0.541  52.304 -16.694  1.00  0.00     0.210 HD
ENDBRANCH  18  39
BRANCH  16  41
HETATM   41  C22 UNL     1       1.133  52.498 -21.534  1.00  0.00     0.009 C 
HETATM   42  C23 UNL     1       1.050  54.000 -21.244  1.00  0.00     0.014 C 
BRANCH  41  43
HETATM   43  C24 UNL     1       0.608  52.132 -22.917  1.00  0.00    -0.026 C 
HETATM   44  C25 UNL     1       0.690  52.855 -24.049  1.00  0.00    -0.026 C 
BRANCH  44  45
HETATM   45  C26 UNL     1       0.169  52.465 -25.427  1.00  0.00     0.009 C 
HETATM   46  C27 UNL     1       1.267  51.885 -26.334  1.00  0.00     0.014 C 
BRANCH  45  47
HETATM   47  C28 UNL     1      -1.080  51.533 -25.325  1.00  0.00     0.012 C 
HETATM   48  C29 UNL     1      -1.179  50.556 -26.508  1.00  0.00     0.012 C 
BRANCH  47  49
HETATM   49  C30 UNL     1      -2.382  52.354 -25.206  1.00  0.00     0.168 C 
BRANCH  49  50
HETATM   50  O7  UNL     1      -2.838  52.807 -26.477  1.00  0.00    -0.400 OA
HETATM   51  H51 UNL     1      -2.331  53.604 -26.706  1.00  0.00     0.209 HD
ENDBRANCH  49  50
ENDBRANCH  47  49
ENDBRANCH  45  47
ENDBRANCH  44  45
ENDBRANCH  41  43
ENDBRANCH  16  41
TORSDOF 15
ENDMDL
MODEL 2
REMARK minimizedAffinity -8.26723289
REMARK CNNscore 0.810980976
REMARK CNNaffinity 6.3290081
REMARK  15 active torsions:
REMARK  status: ('A' for Active; 'I' for Inactive)
REMARK    1  A    between atoms: O1_2  and  C2_3 
REMARK    2  A    between atoms: C3_4  and  O2_5 
REMARK    3  A    between atoms: C5_7  and  O3_8 
REMARK    4  A    between atoms: O3_8  and  C6_9 
REMARK    5  A    between atoms: C12_15  and  O4_16 
REMARK    6  A    between atoms: C13_17  and  O5_18 
REMARK    7  A    between atoms: C15_20  and  O6_21 
REMARK    8  A    between atoms: C21_27  and  C22_28 
REMARK    9  A    between atoms: C22_28  and  C24_30 
REMARK   10  A    between atoms: C25_31  and  C26_32 
REMARK   11  A    between atoms: C26_32  and  C28_34 
REMARK   12  A    between atoms: C28_34  and  C30_36 
REMARK   13  A    between atoms: C30_36  and  O7_37 
REMARK   14  A    between atoms: C32_39  and  O8_40 
REMARK   15  A    between atoms: C35_44  and  O10_45 
ROOT
HETATM    1  C6  UNL     1      -9.871  47.586 -30.133  1.00  0.00     0.154 C 
HETATM    2  C7  UNL     1     -10.219  46.127 -30.447  1.00  0.00     0.035 C 
HETATM    3  C8  UNL     1     -11.617  45.720 -29.962  1.00  0.00     0.012 C 
HETATM    4  C9  UNL     1     -11.865  46.018 -28.457  1.00  0.00    -0.029 C 
HETATM    5  C10 UNL     1     -10.939  45.087 -27.639  1.00  0.00     0.016 C 
HETATM    6  C11 UNL     1     -11.590  47.547 -28.256  1.00  0.00     0.054 C 
HETATM    7  C12 UNL     1     -10.176  47.976 -28.669  1.00  0.00     0.154 C 
HETATM    8  C13 UNL     1     -12.107  48.125 -26.913  1.00  0.00     0.128 C 
HETATM    9  C14 UNL     1     -12.757  47.149 -25.929  1.00  0.00     0.071 C 
HETATM   10  C15 UNL     1     -13.611  46.007 -26.523  1.00  0.00     0.071 C 
HETATM   11  C16 UNL     1     -13.370  45.837 -28.062  1.00  0.00     0.029 C 
HETATM   12  C17 UNL     1     -14.085  44.584 -28.605  1.00  0.00     0.009 C 
HETATM   13  C18 UNL     1     -15.608  44.656 -28.343  1.00  0.00     0.010 C 
HETATM   14  C19 UNL     1     -15.956  44.882 -26.856  1.00  0.00    -0.031 C 
HETATM   15  C20 UNL     1     -15.706  43.562 -26.080  1.00  0.00     0.016 C 
HETATM   16  C21 UNL     1     -17.400  45.401 -26.553  1.00  0.00     0.004 C 
HETATM   17  C31 UNL     1     -17.237  46.043 -25.142  1.00  0.00     0.038 C 
HETATM   18  C32 UNL     1     -15.751  46.403 -24.979  1.00  0.00     0.126 C 
HETATM   19  C33 UNL     1     -15.145  46.131 -26.353  1.00  0.00     0.058 C 
ENDROOT
BRANCH   1  20
HETATM   20  O3  UNL     1      -8.467  47.841 -30.337  1.00  0.00    -0.351 OA
BRANCH  20  21
HETATM   21  C5  UNL     1      -7.677  46.657 -30.496  1.00  0.00     0.291 C 
HETATM   22  C3  UNL     1      -6.649  46.881 -31.635  1.00  0.00     0.207 C 
HETATM   23  C2  UNL     1      -5.318  47.478 -31.110  1.00  0.00     0.185 C 
HETATM   24  C35 UNL     1      -5.528  48.219 -29.780  1.00  0.00     0.176 C 
HETATM   25  C34 UNL     1      -6.146  47.254 -28.760  1.00  0.00     0.205 C 
HETATM   26  O9  UNL     1      -7.039  46.276 -29.286  1.00  0.00    -0.356 OA
BRANCH  22  27
HETATM   27  O2  UNL     1      -6.313  45.635 -32.293  1.00  0.00    -0.383 OA
HETATM   28  C4  UNL     1      -7.422  45.026 -32.944  1.00  0.00     0.202 C 
ENDBRANCH  22  27
BRANCH  23  29
HETATM   29  O1  UNL     1      -4.787  48.407 -32.086  1.00  0.00    -0.385 OA
HETATM   30  C1  UNL     1      -4.120  47.763 -33.163  1.00  0.00     0.202 C 
ENDBRANCH  23  29
BRANCH  24  31
HETATM   31  O10 UNL     1      -4.294  48.678 -29.203  1.00  0.00    -0.386 OA
HETATM   32  C36 UNL     1      -4.171  48.400 -27.815  1.00  0.00     0.202 C 
ENDBRANCH  24  31
ENDBRANCH  20  21
ENDBRANCH   1  20
BRANCH   7  33
HETATM   33  O4  UNL     1      -9.204  47.428 -27.773  1.00  0.00    -0.393 OA
HETATM   34  H20 UNL     1      -8.360  47.448 -28.268  1.00  0.00     0.210 HD
ENDBRANCH   7  33
BRANCH   8  35
HETATM   35  O5  UNL     1     -11.090  48.846 -26.217  1.00  0.00    -0.395 OA
HETATM   36  H22 UNL     1     -10.291  48.275 -26.213  1.00  0.00     0.210 HD
ENDBRANCH   8  35
BRANCH  10  37
HETATM   37  O6  UNL     1     -13.188  44.815 -25.844  1.00  0.00    -0.389 OA
HETATM   38  H25 UNL     1     -13.186  44.991 -24.886  1.00  0.00     0.210 HD
ENDBRANCH  10  37
BRANCH  18  39
HETATM   39  O8  UNL     1     -15.628  47.773 -24.631  1.00  0.00    -0.395 OA
HETATM   40  H55 UNL     1     -16.125  47.917 -23.807  1.00  0.00     0.210 HD
ENDBRANCH  18  39
BRANCH  16  41
HETATM   41  C22 UNL     1     -18.610  44.426 -26.617  1.00  0.00     0.009 C 
HETATM   42  C23 UNL     1     -18.695  43.500 -25.400  1.00  0.00     0.014 C 
BRANCH  41  43
HETATM   43  C24 UNL     1     -18.603  43.668 -27.939  1.00  0.00    -0.026 C 
HETATM   44  C25 UNL     1     -19.489  43.759 -28.947  1.00  0.00    -0.026 C 
BRANCH  44  45
HETATM   45  C26 UNL     1     -19.457  42.999 -30.269  1.00  0.00     0.009 C 
HETATM   46  C27 UNL     1     -19.420  41.474 -30.076  1.00  0.00     0.014 C 
BRANCH  45  47
HETATM   47  C28 UNL     1     -20.608  43.456 -31.221  1.00  0.00     0.012 C 
HETATM   48  C29 UNL     1     -21.901  42.653 -31.002  1.00  0.00     0.012 C 
BRANCH  47  49
HETATM   49  C30 UNL     1     -20.176  43.371 -32.700  1.00  0.00     0.168 C 
BRANCH  49  50
HETATM   50  O7  UNL     1     -18.809  43.733 -32.873  1.00  0.00    -0.400 OA
HETATM   51  H51 UNL     1     -18.760  44.703 -32.891  1.00  0.00     0.209 HD
ENDBRANCH  49  50
ENDBRANCH  47  49
ENDBRANCH  45  47
ENDBRANCH  44  45
ENDBRANCH  41  43
ENDBRANCH  16  41
TORSDOF 15
ENDMDL
MODEL 3
REMARK minimizedAffinity -8.19909859
REMARK CNNscore 0.697220802
REMARK CNNaffinity 7.25027609
REMARK  15 active torsions:
REMARK  status: ('A' for Active; 'I' for Inactive)
REMARK    1  A    between atoms: O1_2  and  C2_3 
REMARK    2  A    between atoms: C3_4  and  O2_5 
REMARK    3  A    between atoms: C5_7  and  O3_8 
REMARK    4  A    between atoms: O3_8  and  C6_9 
REMARK    5  A    between atoms: C12_15  and  O4_16 
REMARK    6  A    between atoms: C13_17  and  O5_18 
REMARK    7  A    between atoms: C15_20  and  O6_21 
REMARK    8  A    between atoms: C21_27  and  C22_28 
REMARK    9  A    between atoms: C22_28  and  C24_30 
REMARK   10  A    between atoms: C25_31  and  C26_32 
REMARK   11  A    between atoms: C26_32  and  C28_34 
REMARK   12  A    between atoms: C28_34  and  C30_36 
REMARK   13  A    between atoms: C30_36  and  O7_37 
REMARK   14  A    between atoms: C32_39  and  O8_40 
REMARK   15  A    between atoms: C35_44  and  O10_45 
ROOT
HETATM    1  C6  UNL     1      -0.025  52.153 -12.972  1.00  0.00     0.154 C 
HETATM    2  C7  UNL     1       1.128  52.048 -13.975  1.00  0.00     0.035 C 
HETATM    3  C8  UNL     1       0.657  51.899 -15.428  1.00  0.00     0.012 C 
HETATM    4  C9  UNL     1      -0.346  50.730 -15.640  1.00  0.00    -0.029 C 
HETATM    5  C10 UNL     1       0.422  49.408 -15.396  1.00  0.00     0.016 C 
HETATM    6  C11 UNL     1      -1.536  50.982 -14.654  1.00  0.00     0.054 C 
HETATM    7  C12 UNL     1      -1.106  51.068 -13.184  1.00  0.00     0.154 C 
HETATM    8  C13 UNL     1      -2.801  50.132 -14.940  1.00  0.00     0.128 C 
HETATM    9  C14 UNL     1      -2.728  49.122 -16.087  1.00  0.00     0.071 C 
HETATM   10  C15 UNL     1      -1.914  49.526 -17.337  1.00  0.00     0.071 C 
HETATM   11  C16 UNL     1      -1.001  50.769 -17.062  1.00  0.00     0.029 C 
HETATM   12  C17 UNL     1      -0.064  51.049 -18.253  1.00  0.00     0.009 C 
HETATM   13  C18 UNL     1      -0.870  51.297 -19.549  1.00  0.00     0.010 C 
HETATM   14  C19 UNL     1      -1.849  50.151 -19.883  1.00  0.00    -0.031 C 
HETATM   15  C20 UNL     1      -1.035  48.940 -20.411  1.00  0.00     0.016 C 
HETATM   16  C21 UNL     1      -2.997  50.490 -20.890  1.00  0.00     0.004 C 
HETATM   17  C31 UNL     1      -4.060  49.396 -20.567  1.00  0.00     0.038 C 
HETATM   18  C32 UNL     1      -3.800  48.924 -19.127  1.00  0.00     0.126 C 
HETATM   19  C33 UNL     1      -2.726  49.877 -18.607  1.00  0.00     0.058 C 
ENDROOT
BRANCH   1  20
HETATM   20  O3  UNL     1       0.446  51.997 -11.619  1.00  0.00    -0.351 OA
BRANCH  20  21
HETATM   21  C5  UNL     1      -0.522  52.339 -10.621  1.00  0.00     0.291 C 
HETATM   22  C3  UNL     1       0.097  52.126  -9.216  1.00  0.00     0.207 C 
HETATM   23  C2  UNL     1       0.814  53.398  -8.696  1.00  0.00     0.185 C 
HETATM   24  C35 UNL     1       1.238  54.312  -9.856  1.00  0.00     0.176 C 
HETATM   25  C34 UNL     1      -0.000  54.671 -10.689  1.00  0.00     0.205 C 
HETATM   26  O9  UNL     1      -1.005  53.666 -10.781  1.00  0.00    -0.356 OA
BRANCH  22  27
HETATM   27  O2  UNL     1      -0.919  51.793  -8.238  1.00  0.00    -0.383 OA
HETATM   28  C4  UNL     1      -1.400  52.923  -7.521  1.00  0.00     0.202 C 
ENDBRANCH  22  27
BRANCH  23  29
HETATM   29  O1  UNL     1       1.993  53.016  -7.946  1.00  0.00    -0.385 OA
HETATM   30  C1  UNL     1       2.862  52.158  -8.673  1.00  0.00     0.202 C 
ENDBRANCH  23  29
BRANCH  24  31
HETATM   31  O10 UNL     1       1.793  55.557  -9.404  1.00  0.00    -0.386 OA
HETATM   32  C36 UNL     1       3.033  55.888 -10.014  1.00  0.00     0.202 C 
ENDBRANCH  24  31
ENDBRANCH  20  21
ENDBRANCH   1  20
BRANCH   7  33
HETATM   33  O4  UNL     1      -0.660  49.792 -12.715  1.00  0.00    -0.393 OA
HETATM   34  H20 UNL     1      -0.106  49.986 -11.932  1.00  0.00     0.210 HD
ENDBRANCH   7  33
BRANCH   8  35
HETATM   35  O5  UNL     1      -3.257  49.447 -13.774  1.00  0.00    -0.395 OA
HETATM   36  H22 UNL     1      -2.472  49.011 -13.376  1.00  0.00     0.210 HD
ENDBRANCH   8  35
BRANCH  10  37
HETATM   37  O6  UNL     1      -1.087  48.392 -17.642  1.00  0.00    -0.389 OA
HETATM   38  H25 UNL     1      -1.648  47.596 -17.647  1.00  0.00     0.210 HD
ENDBRANCH  10  37
BRANCH  18  39
HETATM   39  O8  UNL     1      -4.991  49.037 -18.365  1.00  0.00    -0.395 OA
HETATM   40  H55 UNL     1      -5.675  48.500 -18.801  1.00  0.00     0.210 HD
ENDBRANCH  18  39
BRANCH  16  41
HETATM   41  C22 UNL     1      -2.696  50.584 -22.413  1.00  0.00     0.009 C 
HETATM   42  C23 UNL     1      -2.411  49.220 -23.050  1.00  0.00     0.014 C 
BRANCH  41  43
HETATM   43  C24 UNL     1      -1.589  51.600 -22.667  1.00  0.00    -0.026 C 
HETATM   44  C25 UNL     1      -0.324  51.361 -23.059  1.00  0.00    -0.026 C 
BRANCH  44  45
HETATM   45  C26 UNL     1       0.766  52.393 -23.321  1.00  0.00     0.009 C 
HETATM   46  C27 UNL     1       0.718  52.957 -24.751  1.00  0.00     0.014 C 
BRANCH  45  47
HETATM   47  C28 UNL     1       0.767  53.515 -22.234  1.00  0.00     0.012 C 
HETATM   48  C29 UNL     1       1.299  54.853 -22.773  1.00  0.00     0.012 C 
BRANCH  47  49
HETATM   49  C30 UNL     1       1.575  53.086 -20.990  1.00  0.00     0.168 C 
BRANCH  49  50
HETATM   50  O7  UNL     1       1.577  54.097 -19.987  1.00  0.00    -0.400 OA
HETATM   51  H51 UNL     1       2.253  54.751 -20.227  1.00  0.00     0.209 HD
ENDBRANCH  49  50
ENDBRANCH  47  49
ENDBRANCH  45  47
ENDBRANCH  44  45
ENDBRANCH  41  43
ENDBRANCH  16  41
TORSDOF 15
ENDMDL
MODEL 4
REMARK minimizedAffinity -8.59906387
REMARK CNNscore 0.663421512
REMARK CNNaffinity 6.8640542
REMARK  15 active torsions:
REMARK  status: ('A' for Active; 'I' for Inactive)
REMARK    1  A    between atoms: O1_2  and  C2_3 
REMARK    2  A    between atoms: C3_4  and  O2_5 
REMARK    3  A    between atoms: C5_7  and  O3_8 
REMARK    4  A    between atoms: O3_8  and  C6_9 
REMARK    5  A    between atoms: C12_15  and  O4_16 
REMARK    6  A    between atoms: C13_17  and  O5_18 
REMARK    7  A    between atoms: C15_20  and  O6_21 
REMARK    8  A    between atoms: C21_27  and  C22_28 
REMARK    9  A    between atoms: C22_28  and  C24_30 
REMARK   10  A    between atoms: C25_31  and  C26_32 
REMARK   11  A    between atoms: C26_32  and  C28_34 
REMARK   12  A    between atoms: C28_34  and  C30_36 
REMARK   13  A    between atoms: C30_36  and  O7_37 
REMARK   14  A    between atoms: C32_39  and  O8_40 
REMARK   15  A    between atoms: C35_44  and  O10_45 
ROOT
HETATM    1  C6  UNL     1      -8.445  46.280 -26.313  1.00  0.00     0.154 C 
HETATM    2  C7  UNL     1      -7.589  47.498 -26.674  1.00  0.00     0.035 C 
HETATM    3  C8  UNL     1      -6.422  47.728 -25.703  1.00  0.00     0.012 C 
HETATM    4  C9  UNL     1      -6.858  47.800 -24.213  1.00  0.00    -0.029 C 
HETATM    5  C10 UNL     1      -7.702  49.085 -24.036  1.00  0.00     0.016 C 
HETATM    6  C11 UNL     1      -7.627  46.470 -23.910  1.00  0.00     0.054 C 
HETATM    7  C12 UNL     1      -8.842  46.243 -24.819  1.00  0.00     0.154 C 
HETATM    8  C13 UNL     1      -7.848  46.181 -22.402  1.00  0.00     0.128 C 
HETATM    9  C14 UNL     1      -7.357  47.231 -21.403  1.00  0.00     0.071 C 
HETATM   10  C15 UNL     1      -6.045  47.974 -21.743  1.00  0.00     0.071 C 
HETATM   11  C16 UNL     1      -5.630  47.771 -23.240  1.00  0.00     0.029 C 
HETATM   12  C17 UNL     1      -4.427  48.660 -23.612  1.00  0.00     0.009 C 
HETATM   13  C18 UNL     1      -3.209  48.353 -22.710  1.00  0.00     0.010 C 
HETATM   14  C19 UNL     1      -3.527  48.468 -21.204  1.00  0.00    -0.031 C 
HETATM   15  C20 UNL     1      -3.646  49.970 -20.833  1.00  0.00     0.016 C 
HETATM   16  C21 UNL     1      -2.526  47.766 -20.228  1.00  0.00     0.004 C 
HETATM   17  C31 UNL     1      -3.388  47.573 -18.944  1.00  0.00     0.038 C 
HETATM   18  C32 UNL     1      -4.862  47.579 -19.384  1.00  0.00     0.126 C 
HETATM   19  C33 UNL     1      -4.798  47.591 -20.909  1.00  0.00     0.058 C 
ENDROOT
BRANCH   1  20
HETATM   20  O3  UNL     1      -9.678  46.271 -27.060  1.00  0.00    -0.351 OA
BRANCH  20  21
HETATM   21  C5  UNL     1      -9.627  47.023 -28.278  1.00  0.00     0.291 C 
HETATM   22  C3  UNL     1      -9.908  46.076 -29.474  1.00  0.00     0.207 C 
HETATM   23  C2  UNL     1     -11.420  45.988 -29.805  1.00  0.00     0.185 C 
HETATM   24  C35 UNL     1     -12.278  46.354 -28.584  1.00  0.00     0.176 C 
HETATM   25  C34 UNL     1     -11.894  47.760 -28.103  1.00  0.00     0.205 C 
HETATM   26  O9  UNL     1     -10.526  48.122 -28.263  1.00  0.00    -0.356 OA
BRANCH  22  27
HETATM   27  O2  UNL     1      -9.245  46.536 -30.676  1.00  0.00    -0.383 OA
HETATM   28  C4  UNL     1     -10.096  47.286 -31.535  1.00  0.00     0.202 C 
ENDBRANCH  22  27
BRANCH  23  29
HETATM   29  O1  UNL     1     -11.746  44.640 -30.220  1.00  0.00    -0.385 OA
HETATM   30  C1  UNL     1     -11.156  43.644 -29.395  1.00  0.00     0.202 C 
ENDBRANCH  23  29
BRANCH  24  31
HETATM   31  O10 UNL     1     -13.681  46.404 -28.891  1.00  0.00    -0.386 OA
HETATM   32  C36 UNL     1     -14.499  45.713 -27.957  1.00  0.00     0.202 C 
ENDBRANCH  24  31
ENDBRANCH  20  21
ENDBRANCH   1  20
BRANCH   7  33
HETATM   33  O4  UNL     1      -9.869  47.196 -24.531  1.00  0.00    -0.393 OA
HETATM   34  H20 UNL     1     -10.430  47.217 -25.333  1.00  0.00     0.210 HD
ENDBRANCH   7  33
BRANCH   8  35
HETATM   35  O5  UNL     1      -9.215  45.895 -22.110  1.00  0.00    -0.395 OA
HETATM   36  H22 UNL     1      -9.750  46.596 -22.543  1.00  0.00     0.210 HD
ENDBRANCH   8  35
BRANCH  10  37
HETATM   37  O6  UNL     1      -6.318  49.365 -21.513  1.00  0.00    -0.389 OA
HETATM   38  H25 UNL     1      -6.731  49.456 -20.636  1.00  0.00     0.210 HD
ENDBRANCH  10  37
BRANCH  18  39
HETATM   39  O8  UNL     1      -5.506  46.407 -18.911  1.00  0.00    -0.395 OA
HETATM   40  H55 UNL     1      -5.421  46.392 -17.942  1.00  0.00     0.210 HD
ENDBRANCH  18  39
BRANCH  16  41
HETATM   41  C22 UNL     1      -1.150  48.421 -19.917  1.00  0.00     0.009 C 
HETATM   42  C23 UNL     1      -1.078  49.017 -18.507  1.00  0.00     0.014 C 
BRANCH  41  43
HETATM   43  C24 UNL     1      -0.791  49.427 -21.004  1.00  0.00    -0.026 C 
HETATM   44  C25 UNL     1      -0.181  50.618 -20.858  1.00  0.00    -0.026 C 
BRANCH  44  45
HETATM   45  C26 UNL     1       0.181  51.604 -21.961  1.00  0.00     0.009 C 
HETATM   46  C27 UNL     1      -1.053  52.153 -22.696  1.00  0.00     0.014 C 
BRANCH  45  47
HETATM   47  C28 UNL     1       1.117  52.738 -21.433  1.00  0.00     0.012 C 
HETATM   48  C29 UNL     1       0.726  53.210 -20.023  1.00  0.00     0.012 C 
BRANCH  47  49
HETATM   49  C30 UNL     1       1.145  53.937 -22.404  1.00  0.00     0.168 C 
BRANCH  49  50
HETATM   50  O7  UNL     1       2.002  54.975 -21.939  1.00  0.00    -0.400 OA
HETATM   51  H51 UNL     1       1.509  55.492 -21.279  1.00  0.00     0.209 HD
ENDBRANCH  49  50
ENDBRANCH  47  49
ENDBRANCH  45  47
ENDBRANCH  44  45
ENDBRANCH  41  43
ENDBRANCH  16  41
TORSDOF 15
ENDMDL
MODEL 5
REMARK minimizedAffinity -7.76239157
REMARK CNNscore 0.635933459
REMARK CNNaffinity 6.5623889
REMARK  15 active torsions:
REMARK  status: ('A' for Active; 'I' for Inactive)
REMARK    1  A    between atoms: O1_2  and  C2_3 
REMARK    2  A    between atoms: C3_4  and  O2_5 
REMARK    3  A    between atoms: C5_7  and  O3_8 
REMARK    4  A    between atoms: O3_8  and  C6_9 
REMARK    5  A    between atoms: C12_15  and  O4_16 
REMARK    6  A    between atoms: C13_17  and  O5_18 
REMARK    7  A    between atoms: C15_20  and  O6_21 
REMARK    8  A    between atoms: C21_27  and  C22_28 
REMARK    9  A    between atoms: C22_28  and  C24_30 
REMARK   10  A    between atoms: C25_31  and  C26_32 
REMARK   11  A    between atoms: C26_32  and  C28_34 
REMARK   12  A    between atoms: C28_34  and  C30_36 
REMARK   13  A    between atoms: C30_36  and  O7_37 
REMARK   14  A    between atoms: C32_39  and  O8_40 
REMARK   15  A    between atoms: C35_44  and  O10_45 
ROOT
HETATM    1  C6  UNL     1      -5.771  47.933 -23.175  1.00  0.00     0.154 C 
HETATM    2  C7  UNL     1      -7.062  48.275 -22.424  1.00  0.00     0.035 C 
HETATM    3  C8  UNL     1      -8.317  47.664 -23.064  1.00  0.00     0.012 C 
HETATM    4  C9  UNL     1      -8.470  47.999 -24.574  1.00  0.00    -0.029 C 
HETATM    5  C10 UNL     1      -8.737  49.519 -24.690  1.00  0.00     0.016 C 
HETATM    6  C11 UNL     1      -7.153  47.516 -25.272  1.00  0.00     0.054 C 
HETATM    7  C12 UNL     1      -5.884  48.161 -24.700  1.00  0.00     0.154 C 
HETATM    8  C13 UNL     1      -7.234  47.439 -26.819  1.00  0.00     0.128 C 
HETATM    9  C14 UNL     1      -8.538  47.890 -27.481  1.00  0.00     0.071 C 
HETATM   10  C15 UNL     1      -9.856  47.574 -26.739  1.00  0.00     0.071 C 
HETATM   11  C16 UNL     1      -9.603  47.155 -25.251  1.00  0.00     0.029 C 
HETATM   12  C17 UNL     1     -10.927  47.020 -24.475  1.00  0.00     0.009 C 
HETATM   13  C18 UNL     1     -11.856  45.975 -25.137  1.00  0.00     0.010 C 
HETATM   14  C19 UNL     1     -12.125  46.264 -26.629  1.00  0.00    -0.031 C 
HETATM   15  C20 UNL     1     -13.105  47.462 -26.736  1.00  0.00     0.016 C 
HETATM   16  C21 UNL     1     -12.666  45.068 -27.480  1.00  0.00     0.004 C 
HETATM   17  C31 UNL     1     -12.287  45.491 -28.932  1.00  0.00     0.038 C 
HETATM   18  C32 UNL     1     -11.113  46.478 -28.823  1.00  0.00     0.126 C 
HETATM   19  C33 UNL     1     -10.737  46.453 -27.344  1.00  0.00     0.058 C 
ENDROOT
BRANCH   1  20
HETATM   20  O3  UNL     1      -4.674  48.751 -22.722  1.00  0.00    -0.351 OA
BRANCH  20  21
HETATM   21  C5  UNL     1      -3.419  48.433 -23.335  1.00  0.00     0.291 C 
HETATM   22  C3  UNL     1      -2.792  49.729 -23.912  1.00  0.00     0.207 C 
HETATM   23  C2  UNL     1      -1.895  50.453 -22.875  1.00  0.00     0.185 C 
HETATM   24  C35 UNL     1      -2.289  50.076 -21.439  1.00  0.00     0.176 C 
HETATM   25  C34 UNL     1      -2.205  48.552 -21.280  1.00  0.00     0.205 C 
HETATM   26  O9  UNL     1      -2.535  47.784 -22.433  1.00  0.00    -0.356 OA
BRANCH  22  27
HETATM   27  O2  UNL     1      -1.954  49.443 -25.058  1.00  0.00    -0.383 OA
HETATM   28  C4  UNL     1      -2.681  49.350 -26.277  1.00  0.00     0.202 C 
ENDBRANCH  22  27
BRANCH  23  29
HETATM   29  O1  UNL     1      -2.030  51.886 -23.038  1.00  0.00    -0.385 OA
HETATM   30  C1  UNL     1      -3.324  52.279 -23.477  1.00  0.00     0.202 C 
ENDBRANCH  23  29
BRANCH  24  31
HETATM   31  O10 UNL     1      -1.399  50.632 -20.458  1.00  0.00    -0.386 OA
HETATM   32  C36 UNL     1      -0.043  50.244 -20.627  1.00  0.00     0.202 C 
ENDBRANCH  24  31
ENDBRANCH  20  21
ENDBRANCH   1  20
BRANCH   7  33
HETATM   33  O4  UNL     1      -5.840  49.554 -25.021  1.00  0.00    -0.393 OA
HETATM   34  H20 UNL     1      -5.226  49.948 -24.368  1.00  0.00     0.210 HD
ENDBRANCH   7  33
BRANCH   8  35
HETATM   35  O5  UNL     1      -6.155  48.134 -27.444  1.00  0.00    -0.395 OA
HETATM   36  H22 UNL     1      -6.100  49.015 -27.014  1.00  0.00     0.210 HD
ENDBRANCH   8  35
BRANCH  10  37
HETATM   37  O6  UNL     1     -10.615  48.793 -26.764  1.00  0.00    -0.389 OA
HETATM   38  H25 UNL     1     -10.624  49.130 -27.677  1.00  0.00     0.210 HD
ENDBRANCH  10  37
BRANCH  18  39
HETATM   39  O8  UNL     1     -10.035  46.030 -29.629  1.00  0.00    -0.395 OA
HETATM   40  H55 UNL     1     -10.358  45.955 -30.544  1.00  0.00     0.210 HD
ENDBRANCH  18  39
BRANCH  16  41
HETATM   41  C22 UNL     1     -14.157  44.641 -27.366  1.00  0.00     0.009 C 
HETATM   42  C23 UNL     1     -15.023  45.182 -28.508  1.00  0.00     0.014 C 
BRANCH  41  43
HETATM   43  C24 UNL     1     -14.701  45.000 -25.988  1.00  0.00    -0.026 C 
HETATM   44  C25 UNL     1     -15.752  45.788 -25.696  1.00  0.00    -0.026 C 
BRANCH  44  45
HETATM   45  C26 UNL     1     -16.288  46.125 -24.310  1.00  0.00     0.009 C 
HETATM   46  C27 UNL     1     -15.362  47.073 -23.529  1.00  0.00     0.014 C 
BRANCH  45  47
HETATM   47  C28 UNL     1     -17.760  46.645 -24.375  1.00  0.00     0.012 C 
HETATM   48  C29 UNL     1     -18.472  46.557 -23.015  1.00  0.00     0.012 C 
BRANCH  47  49
HETATM   49  C30 UNL     1     -18.572  45.888 -25.447  1.00  0.00     0.168 C 
BRANCH  49  50
HETATM   50  O7  UNL     1     -19.934  46.303 -25.470  1.00  0.00    -0.400 OA
HETATM   51  H51 UNL     1     -20.398  45.834 -24.756  1.00  0.00     0.209 HD
ENDBRANCH  49  50
ENDBRANCH  47  49
ENDBRANCH  45  47
ENDBRANCH  44  45
ENDBRANCH  41  43
ENDBRANCH  16  41
TORSDOF 15
ENDMDL
MODEL 6
REMARK minimizedAffinity -7.93967772
REMARK CNNscore 0.626584113
REMARK CNNaffinity 6.32401276
REMARK  15 active torsions:
REMARK  status: ('A' for Active; 'I' for Inactive)
REMARK    1  A    between atoms: O1_2  and  C2_3 
REMARK    2  A    between atoms: C3_4  and  O2_5 
REMARK    3  A    between atoms: C5_7  and  O3_8 
REMARK    4  A    between atoms: O3_8  and  C6_9 
REMARK    5  A    between atoms: C12_15  and  O4_16 
REMARK    6  A    between atoms: C13_17  and  O5_18 
REMARK    7  A    between atoms: C15_20  and  O6_21 
REMARK    8  A    between atoms: C21_27  and  C22_28 
REMARK    9  A    between atoms: C22_28  and  C24_30 
REMARK   10  A    between atoms: C25_31  and  C26_32 
REMARK   11  A    between atoms: C26_32  and  C28_34 
REMARK   12  A    between atoms: C28_34  and  C30_36 
REMARK   13  A    between atoms: C30_36  and  O7_37 
REMARK   14  A    between atoms: C32_39  and  O8_40 
REMARK   15  A    between atoms: C35_44  and  O10_45 
ROOT
HETATM    1  C6  UNL     1     -10.153  47.416 -30.321  1.00  0.00     0.154 C 
HETATM    2  C7  UNL     1     -10.519  45.937 -30.481  1.00  0.00     0.035 C 
HETATM    3  C8  UNL     1     -11.870  45.575 -29.849  1.00  0.00     0.012 C 
HETATM    4  C9  UNL     1     -11.995  46.001 -28.359  1.00  0.00    -0.029 C 
HETATM    5  C10 UNL     1     -11.000  45.140 -27.544  1.00  0.00     0.016 C 
HETATM    6  C11 UNL     1     -11.711  47.541 -28.312  1.00  0.00     0.054 C 
HETATM    7  C12 UNL     1     -10.338  47.929 -28.874  1.00  0.00     0.154 C 
HETATM    8  C13 UNL     1     -12.119  48.231 -26.985  1.00  0.00     0.128 C 
HETATM    9  C14 UNL     1     -12.681  47.344 -25.872  1.00  0.00     0.071 C 
HETATM   10  C15 UNL     1     -13.576  46.157 -26.294  1.00  0.00     0.071 C 
HETATM   11  C16 UNL     1     -13.461  45.857 -27.827  1.00  0.00     0.029 C 
HETATM   12  C17 UNL     1     -14.213  44.565 -28.202  1.00  0.00     0.009 C 
HETATM   13  C18 UNL     1     -15.709  44.662 -27.822  1.00  0.00     0.010 C 
HETATM   14  C19 UNL     1     -15.935  45.014 -26.336  1.00  0.00    -0.031 C 
HETATM   15  C20 UNL     1     -15.616  43.764 -25.474  1.00  0.00     0.016 C 
HETATM   16  C21 UNL     1     -17.352  45.561 -25.961  1.00  0.00     0.004 C 
HETATM   17  C31 UNL     1     -17.076  46.319 -24.627  1.00  0.00     0.038 C 
HETATM   18  C32 UNL     1     -15.583  46.689 -24.618  1.00  0.00     0.126 C 
HETATM   19  C33 UNL     1     -15.091  46.299 -26.009  1.00  0.00     0.058 C 
ENDROOT
BRANCH   1  20
HETATM   20  O3  UNL     1      -8.771  47.649 -30.660  1.00  0.00    -0.351 OA
BRANCH  20  21
HETATM   21  C5  UNL     1      -8.004  46.453 -30.836  1.00  0.00     0.291 C 
HETATM   22  C3  UNL     1      -6.989  46.663 -31.989  1.00  0.00     0.207 C 
HETATM   23  C2  UNL     1      -5.641  47.235 -31.481  1.00  0.00     0.185 C 
HETATM   24  C35 UNL     1      -5.818  47.975 -30.146  1.00  0.00     0.176 C 
HETATM   25  C34 UNL     1      -6.438  47.017 -29.120  1.00  0.00     0.205 C 
HETATM   26  O9  UNL     1      -7.355  46.057 -29.636  1.00  0.00    -0.356 OA
BRANCH  22  27
HETATM   27  O2  UNL     1      -6.685  45.414 -32.657  1.00  0.00    -0.383 OA
HETATM   28  C4  UNL     1      -5.727  44.624 -31.962  1.00  0.00     0.202 C 
ENDBRANCH  22  27
BRANCH  23  29
HETATM   29  O1  UNL     1      -5.108  48.159 -32.461  1.00  0.00    -0.385 OA
HETATM   30  C1  UNL     1      -4.264  47.531 -33.417  1.00  0.00     0.202 C 
ENDBRANCH  23  29
BRANCH  24  31
HETATM   31  O10 UNL     1      -4.569  48.410 -29.585  1.00  0.00    -0.386 OA
HETATM   32  C36 UNL     1      -4.563  48.462 -28.166  1.00  0.00     0.202 C 
ENDBRANCH  24  31
ENDBRANCH  20  21
ENDBRANCH   1  20
BRANCH   7  33
HETATM   33  O4  UNL     1      -9.293  47.458 -28.018  1.00  0.00    -0.393 OA
HETATM   34  H20 UNL     1      -8.493  47.433 -28.582  1.00  0.00     0.210 HD
ENDBRANCH   7  33
BRANCH   8  35
HETATM   35  O5  UNL     1     -11.052  49.006 -26.439  1.00  0.00    -0.395 OA
HETATM   36  H22 UNL     1     -10.252  48.436 -26.452  1.00  0.00     0.210 HD
ENDBRANCH   8  35
BRANCH  10  37
HETATM   37  O6  UNL     1     -13.093  45.026 -25.554  1.00  0.00    -0.389 OA
HETATM   38  H25 UNL     1     -13.013  45.283 -24.618  1.00  0.00     0.210 HD
ENDBRANCH  10  37
BRANCH  18  39
HETATM   39  O8  UNL     1     -15.439  48.083 -24.399  1.00  0.00    -0.395 OA
HETATM   40  H55 UNL     1     -15.867  48.297 -23.552  1.00  0.00     0.210 HD
ENDBRANCH  18  39
BRANCH  16  41
HETATM   41  C22 UNL     1     -18.558  44.586 -25.842  1.00  0.00     0.009 C 
HETATM   42  C23 UNL     1     -19.546  44.715 -27.006  1.00  0.00     0.014 C 
BRANCH  41  43
HETATM   43  C24 UNL     1     -19.224  44.739 -24.480  1.00  0.00    -0.026 C 
HETATM   44  C25 UNL     1     -19.303  43.828 -23.493  1.00  0.00    -0.026 C 
BRANCH  44  45
HETATM   45  C26 UNL     1     -19.963  44.005 -22.131  1.00  0.00     0.009 C 
HETATM   46  C27 UNL     1     -20.312  42.665 -21.462  1.00  0.00     0.014 C 
BRANCH  45  47
HETATM   47  C28 UNL     1     -19.122  44.938 -21.203  1.00  0.00     0.012 C 
HETATM   48  C29 UNL     1     -17.611  44.684 -21.332  1.00  0.00     0.012 C 
BRANCH  47  49
HETATM   49  C30 UNL     1     -19.559  44.799 -19.729  1.00  0.00     0.168 C 
BRANCH  49  50
HETATM   50  O7  UNL     1     -18.489  44.354 -18.900  1.00  0.00    -0.400 OA
HETATM   51  H51 UNL     1     -18.424  43.389 -18.995  1.00  0.00     0.209 HD
ENDBRANCH  49  50
ENDBRANCH  47  49
ENDBRANCH  45  47
ENDBRANCH  44  45
ENDBRANCH  41  43
ENDBRANCH  16  41
TORSDOF 15
ENDMDL
MODEL 7
REMARK minimizedAffinity -7.57198763
REMARK CNNscore 0.576140285
REMARK CNNaffinity 6.84284353
REMARK  15 active torsions:
REMARK  status: ('A' for Active; 'I' for Inactive)
REMARK    1  A    between atoms: O1_2  and  C2_3 
REMARK    2  A    between atoms: C3_4  and  O2_5 
REMARK    3  A    between atoms: C5_7  and  O3_8 
REMARK    4  A    between atoms: O3_8  and  C6_9 
REMARK    5  A    between atoms: C12_15  and  O4_16 
REMARK    6  A    between atoms: C13_17  and  O5_18 
REMARK    7  A    between atoms: C15_20  and  O6_21 
REMARK    8  A    between atoms: C21_27  and  C22_28 
REMARK    9  A    between atoms: C22_28  and  C24_30 
REMARK   10  A    between atoms: C25_31  and  C26_32 
REMARK   11  A    between atoms: C26_32  and  C28_34 
REMARK   12  A    between atoms: C28_34  and  C30_36 
REMARK   13  A    between atoms: C30_36  and  O7_37 
REMARK   14  A    between atoms: C32_39  and  O8_40 
REMARK   15  A    between atoms: C35_44  and  O10_45 
ROOT
HETATM    1  C6  UNL     1       2.063  53.239 -10.476  1.00  0.00     0.154 C 
HETATM    2  C7  UNL     1       3.065  52.442 -11.317  1.00  0.00     0.035 C 
HETATM    3  C8  UNL     1       2.588  52.193 -12.755  1.00  0.00     0.012 C 
HETATM    4  C9  UNL     1       1.179  51.540 -12.838  1.00  0.00    -0.029 C 
HETATM    5  C10 UNL     1       1.296  50.106 -12.268  1.00  0.00     0.016 C 
HETATM    6  C11 UNL     1       0.208  52.478 -12.045  1.00  0.00     0.054 C 
HETATM    7  C12 UNL     1       0.620  52.693 -10.583  1.00  0.00     0.154 C 
HETATM    8  C13 UNL     1      -1.299  52.201 -12.289  1.00  0.00     0.128 C 
HETATM    9  C14 UNL     1      -1.661  51.031 -13.206  1.00  0.00     0.071 C 
HETATM   10  C15 UNL     1      -0.742  50.772 -14.421  1.00  0.00     0.071 C 
HETATM   11  C16 UNL     1       0.617  51.541 -14.300  1.00  0.00     0.029 C 
HETATM   12  C17 UNL     1       1.592  51.133 -15.421  1.00  0.00     0.009 C 
HETATM   13  C18 UNL     1       0.984  51.410 -16.816  1.00  0.00     0.010 C 
HETATM   14  C19 UNL     1      -0.392  50.740 -17.020  1.00  0.00    -0.031 C 
HETATM   15  C20 UNL     1      -0.180  49.216 -17.220  1.00  0.00     0.016 C 
HETATM   16  C21 UNL     1      -1.272  51.303 -18.184  1.00  0.00     0.004 C 
HETATM   17  C31 UNL     1      -2.706  50.859 -17.766  1.00  0.00     0.038 C 
HETATM   18  C32 UNL     1      -2.688  50.647 -16.243  1.00  0.00     0.126 C 
HETATM   19  C33 UNL     1      -1.312  51.147 -15.811  1.00  0.00     0.058 C 
ENDROOT
BRANCH   1  20
HETATM   20  O3  UNL     1       2.410  53.197  -9.077  1.00  0.00    -0.351 OA
BRANCH  20  21
HETATM   21  C5  UNL     1       3.265  54.266  -8.657  1.00  0.00     0.291 C 
HETATM   22  C3  UNL     1       2.498  55.608  -8.773  1.00  0.00     0.207 C 
HETATM   23  C2  UNL     1       1.731  55.954  -7.471  1.00  0.00     0.185 C 
HETATM   24  C35 UNL     1       1.436  54.691  -6.646  1.00  0.00     0.176 C 
HETATM   25  C34 UNL     1       2.757  53.973  -6.340  1.00  0.00     0.205 C 
HETATM   26  O9  UNL     1       3.764  54.062  -7.343  1.00  0.00    -0.356 OA
BRANCH  22  27
HETATM   27  O2  UNL     1       3.402  56.711  -9.027  1.00  0.00    -0.383 OA
HETATM   28  C4  UNL     1       3.762  57.426  -7.852  1.00  0.00     0.202 C 
ENDBRANCH  22  27
BRANCH  23  29
HETATM   29  O1  UNL     1       0.478  56.599  -7.805  1.00  0.00    -0.385 OA
HETATM   30  C1  UNL     1      -0.373  55.785  -8.602  1.00  0.00     0.202 C 
ENDBRANCH  23  29
BRANCH  24  31
HETATM   31  O10 UNL     1       0.837  54.989  -5.375  1.00  0.00    -0.386 OA
HETATM   32  C36 UNL     1       1.583  55.907  -4.588  1.00  0.00     0.202 C 
ENDBRANCH  24  31
ENDBRANCH  20  21
ENDBRANCH   1  20
BRANCH   7  33
HETATM   33  O4  UNL     1       0.465  51.484  -9.835  1.00  0.00    -0.393 OA
HETATM   34  H20 UNL     1       1.043  51.592  -9.052  1.00  0.00     0.210 HD
ENDBRANCH   7  33
BRANCH   8  35
HETATM   35  O5  UNL     1      -2.016  52.044 -11.065  1.00  0.00    -0.395 OA
HETATM   36  H22 UNL     1      -1.500  51.416 -10.513  1.00  0.00     0.210 HD
ENDBRANCH   8  35
BRANCH  10  37
HETATM   37  O6  UNL     1      -0.486  49.359 -14.417  1.00  0.00    -0.389 OA
HETATM   38  H25 UNL     1      -1.337  48.893 -14.325  1.00  0.00     0.210 HD
ENDBRANCH  10  37
BRANCH  18  39
HETATM   39  O8  UNL     1      -3.719  51.414 -15.643  1.00  0.00    -0.395 OA
HETATM   40  H55 UNL     1      -4.565  51.135 -16.034  1.00  0.00     0.210 HD
ENDBRANCH  18  39
BRANCH  16  41
HETATM   41  C22 UNL     1      -0.948  50.928 -19.658  1.00  0.00     0.009 C 
HETATM   42  C23 UNL     1       0.143  51.810 -20.274  1.00  0.00     0.014 C 
BRANCH  41  43
HETATM   43  C24 UNL     1      -2.227  50.903 -20.486  1.00  0.00    -0.026 C 
HETATM   44  C25 UNL     1      -2.429  51.428 -21.708  1.00  0.00    -0.026 C 
BRANCH  44  45
HETATM   45  C26 UNL     1      -3.714  51.381 -22.526  1.00  0.00     0.009 C 
HETATM   46  C27 UNL     1      -3.542  51.969 -23.937  1.00  0.00     0.014 C 
BRANCH  45  47
HETATM   47  C28 UNL     1      -4.330  49.946 -22.545  1.00  0.00     0.012 C 
HETATM   48  C29 UNL     1      -3.914  49.147 -23.791  1.00  0.00     0.012 C 
BRANCH  47  49
HETATM   49  C30 UNL     1      -5.869  49.998 -22.439  1.00  0.00     0.168 C 
BRANCH  49  50
HETATM   50  O7  UNL     1      -6.383  51.270 -22.822  1.00  0.00    -0.400 OA
HETATM   51  H51 UNL     1      -6.289  51.868 -22.061  1.00  0.00     0.209 HD
ENDBRANCH  49  50
ENDBRANCH  47  49
ENDBRANCH  45  47
ENDBRANCH  44  45
ENDBRANCH  41  43
ENDBRANCH  16  41
TORSDOF 15
ENDMDL
MODEL 8
REMARK minimizedAffinity -8.15575409
REMARK CNNscore 0.566177368
REMARK CNNaffinity 6.81932688
REMARK  15 active torsions:
REMARK  status: ('A' for Active; 'I' for Inactive)
REMARK    1  A    between atoms: O1_2  and  C2_3 
REMARK    2  A    between atoms: C3_4  and  O2_5 
REMARK    3  A    between atoms: C5_7  and  O3_8 
REMARK    4  A    between atoms: O3_8  and  C6_9 
REMARK    5  A    between atoms: C12_15  and  O4_16 
REMARK    6  A    between atoms: C13_17  and  O5_18 
REMARK    7  A    between atoms: C15_20  and  O6_21 
REMARK    8  A    between atoms: C21_27  and  C22_28 
REMARK    9  A    between atoms: C22_28  and  C24_30 
REMARK   10  A    between atoms: C25_31  and  C26_32 
REMARK   11  A    between atoms: C26_32  and  C28_34 
REMARK   12  A    between atoms: C28_34  and  C30_36 
REMARK   13  A    between atoms: C30_36  and  O7_37 
REMARK   14  A    between atoms: C32_39  and  O8_40 
REMARK   15  A    between atoms: C35_44  and  O10_45 
ROOT
HETATM    1  C6  UNL     1      -7.931  46.508 -26.197  1.00  0.00     0.154 C 
HETATM    2  C7  UNL     1      -7.091  47.754 -26.494  1.00  0.00     0.035 C 
HETATM    3  C8  UNL     1      -5.980  47.996 -25.463  1.00  0.00     0.012 C 
HETATM    4  C9  UNL     1      -6.490  48.031 -23.995  1.00  0.00    -0.029 C 
HETATM    5  C10 UNL     1      -7.376  49.290 -23.840  1.00  0.00     0.016 C 
HETATM    6  C11 UNL     1      -7.239  46.676 -23.754  1.00  0.00     0.054 C 
HETATM    7  C12 UNL     1      -8.400  46.435 -24.726  1.00  0.00     0.154 C 
HETATM    8  C13 UNL     1      -7.526  46.355 -22.264  1.00  0.00     0.128 C 
HETATM    9  C14 UNL     1      -7.113  47.400 -21.224  1.00  0.00     0.071 C 
HETATM   10  C15 UNL     1      -5.805  48.182 -21.486  1.00  0.00     0.071 C 
HETATM   11  C16 UNL     1      -5.312  48.016 -22.963  1.00  0.00     0.029 C 
HETATM   12  C17 UNL     1      -4.115  48.941 -23.260  1.00  0.00     0.009 C 
HETATM   13  C18 UNL     1      -2.936  48.649 -22.303  1.00  0.00     0.010 C 
HETATM   14  C19 UNL     1      -3.331  48.729 -20.813  1.00  0.00    -0.031 C 
HETATM   15  C20 UNL     1      -3.508  50.221 -20.424  1.00  0.00     0.016 C 
HETATM   16  C21 UNL     1      -2.361  48.035 -19.800  1.00  0.00     0.004 C 
HETATM   17  C31 UNL     1      -3.281  47.799 -18.564  1.00  0.00     0.038 C 
HETATM   18  C32 UNL     1      -4.731  47.775 -19.077  1.00  0.00     0.126 C 
HETATM   19  C33 UNL     1      -4.592  47.815 -20.597  1.00  0.00     0.058 C 
ENDROOT
BRANCH   1  20
HETATM   20  O3  UNL     1      -9.125  46.481 -27.005  1.00  0.00    -0.351 OA
BRANCH  20  21
HETATM   21  C5  UNL     1      -9.680  45.173 -27.182  1.00  0.00     0.291 C 
HETATM   22  C3  UNL     1     -11.180  45.302 -27.552  1.00  0.00     0.207 C 
HETATM   23  C2  UNL     1     -11.396  45.402 -29.084  1.00  0.00     0.185 C 
HETATM   24  C35 UNL     1     -10.134  45.921 -29.791  1.00  0.00     0.176 C 
HETATM   25  C34 UNL     1      -8.954  45.000 -29.453  1.00  0.00     0.205 C 
HETATM   26  O9  UNL     1      -8.967  44.420 -28.152  1.00  0.00    -0.356 OA
BRANCH  22  27
HETATM   27  O2  UNL     1     -11.934  44.151 -27.101  1.00  0.00    -0.383 OA
HETATM   28  C4  UNL     1     -12.102  43.159 -28.107  1.00  0.00     0.202 C 
ENDBRANCH  22  27
BRANCH  23  29
HETATM   29  O1  UNL     1     -12.493  46.305 -29.360  1.00  0.00    -0.385 OA
HETATM   30  C1  UNL     1     -12.482  47.464 -28.537  1.00  0.00     0.202 C 
ENDBRANCH  23  29
BRANCH  24  31
HETATM   31  O10 UNL     1     -10.257  45.908 -31.222  1.00  0.00    -0.386 OA
HETATM   32  C36 UNL     1     -10.023  47.170 -31.831  1.00  0.00     0.202 C 
ENDBRANCH  24  31
ENDBRANCH  20  21
ENDBRANCH   1  20
BRANCH   7  33
HETATM   33  O4  UNL     1      -9.465  47.357 -24.474  1.00  0.00    -0.393 OA
HETATM   34  H20 UNL     1      -9.987  47.378 -25.302  1.00  0.00     0.210 HD
ENDBRANCH   7  33
BRANCH   8  35
HETATM   35  O5  UNL     1      -8.898  46.030 -22.045  1.00  0.00    -0.395 OA
HETATM   36  H22 UNL     1      -9.429  46.725 -22.492  1.00  0.00     0.210 HD
ENDBRANCH   8  35
BRANCH  10  37
HETATM   37  O6  UNL     1      -6.126  49.561 -21.247  1.00  0.00    -0.389 OA
HETATM   38  H25 UNL     1      -6.584  49.625 -20.390  1.00  0.00     0.210 HD
ENDBRANCH  10  37
BRANCH  18  39
HETATM   39  O8  UNL     1      -5.367  46.579 -18.656  1.00  0.00    -0.395 OA
HETATM   40  H55 UNL     1      -5.329  46.548 -17.684  1.00  0.00     0.210 HD
ENDBRANCH  18  39
BRANCH  16  41
HETATM   41  C22 UNL     1      -1.020  48.720 -19.410  1.00  0.00     0.009 C 
HETATM   42  C23 UNL     1      -1.118  49.528 -18.113  1.00  0.00     0.014 C 
BRANCH  41  43
HETATM   43  C24 UNL     1      -0.491  49.540 -20.580  1.00  0.00    -0.026 C 
HETATM   44  C25 UNL     1      -0.149  50.842 -20.588  1.00  0.00    -0.026 C 
BRANCH  44  45
HETATM   45  C26 UNL     1       0.391  51.642 -21.768  1.00  0.00     0.009 C 
HETATM   46  C27 UNL     1      -0.711  52.064 -22.753  1.00  0.00     0.014 C 
BRANCH  45  47
HETATM   47  C28 UNL     1       1.265  52.846 -21.292  1.00  0.00     0.012 C 
HETATM   48  C29 UNL     1       0.798  53.410 -19.940  1.00  0.00     0.012 C 
BRANCH  47  49
HETATM   49  C30 UNL     1       1.294  53.967 -22.352  1.00  0.00     0.168 C 
BRANCH  49  50
HETATM   50  O7  UNL     1       2.021  55.105 -21.899  1.00  0.00    -0.400 OA
HETATM   51  H51 UNL     1       1.430  55.627 -21.331  1.00  0.00     0.209 HD
ENDBRANCH  49  50
ENDBRANCH  47  49
ENDBRANCH  45  47
ENDBRANCH  44  45
ENDBRANCH  41  43
ENDBRANCH  16  41
TORSDOF 15
ENDMDL
MODEL 9
REMARK minimizedAffinity -8.82726479
REMARK CNNscore 0.505530715
REMARK CNNaffinity 7.34306717
REMARK  15 active torsions:
REMARK  status: ('A' for Active; 'I' for Inactive)
REMARK    1  A    between atoms: O1_2  and  C2_3 
REMARK    2  A    between atoms: C3_4  and  O2_5 
REMARK    3  A    between atoms: C5_7  and  O3_8 
REMARK    4  A    between atoms: O3_8  and  C6_9 
REMARK    5  A    between atoms: C12_15  and  O4_16 
REMARK    6  A    between atoms: C13_17  and  O5_18 
REMARK    7  A    between atoms: C15_20  and  O6_21 
REMARK    8  A    between atoms: C21_27  and  C22_28 
REMARK    9  A    between atoms: C22_28  and  C24_30 
REMARK   10  A    between atoms: C25_31  and  C26_32 
REMARK   11  A    between atoms: C26_32  and  C28_34 
REMARK   12  A    between atoms: C28_34  and  C30_36 
REMARK   13  A    between atoms: C30_36  and  O7_37 
REMARK   14  A    between atoms: C32_39  and  O8_40 
REMARK   15  A    between atoms: C35_44  and  O10_45 
ROOT
HETATM    1  C6  UNL     1       0.215  52.059 -14.150  1.00  0.00     0.154 C 
HETATM    2  C7  UNL     1       1.336  51.807 -15.164  1.00  0.00     0.035 C 
HETATM    3  C8  UNL     1       0.828  51.650 -16.604  1.00  0.00     0.012 C 
HETATM    4  C9  UNL     1      -0.285  50.577 -16.758  1.00  0.00    -0.029 C 
HETATM    5  C10 UNL     1       0.356  49.197 -16.474  1.00  0.00     0.016 C 
HETATM    6  C11 UNL     1      -1.429  50.978 -15.766  1.00  0.00     0.054 C 
HETATM    7  C12 UNL     1      -0.969  51.076 -14.306  1.00  0.00     0.154 C 
HETATM    8  C13 UNL     1      -2.775  50.244 -16.003  1.00  0.00     0.128 C 
HETATM    9  C14 UNL     1      -2.818  49.190 -17.112  1.00  0.00     0.071 C 
HETATM   10  C15 UNL     1      -1.990  49.468 -18.387  1.00  0.00     0.071 C 
HETATM   11  C16 UNL     1      -0.958  50.627 -18.172  1.00  0.00     0.029 C 
HETATM   12  C17 UNL     1      -0.019  50.771 -19.385  1.00  0.00     0.009 C 
HETATM   13  C18 UNL     1      -0.819  51.048 -20.679  1.00  0.00     0.010 C 
HETATM   14  C19 UNL     1      -1.908  49.990 -20.955  1.00  0.00    -0.031 C 
HETATM   15  C20 UNL     1      -1.224  48.688 -21.448  1.00  0.00     0.016 C 
HETATM   16  C21 UNL     1      -3.036  50.401 -21.959  1.00  0.00     0.004 C 
HETATM   17  C31 UNL     1      -4.193  49.427 -21.581  1.00  0.00     0.038 C 
HETATM   18  C32 UNL     1      -3.955  48.986 -20.127  1.00  0.00     0.126 C 
HETATM   19  C33 UNL     1      -2.787  49.849 -19.659  1.00  0.00     0.058 C 
ENDROOT
BRANCH   1  20
HETATM   20  O3  UNL     1       0.692  51.908 -12.799  1.00  0.00    -0.351 OA
BRANCH  20  21
HETATM   21  C5  UNL     1      -0.312  52.118 -11.800  1.00  0.00     0.291 C 
HETATM   22  C3  UNL     1       0.072  51.331 -10.519  1.00  0.00     0.207 C 
HETATM   23  C2  UNL     1       0.947  52.176  -9.557  1.00  0.00     0.185 C 
HETATM   24  C35 UNL     1       1.680  53.296 -10.312  1.00  0.00     0.176 C 
HETATM   25  C34 UNL     1       0.650  54.170 -11.039  1.00  0.00     0.205 C 
HETATM   26  O9  UNL     1      -0.508  53.497 -11.524  1.00  0.00    -0.356 OA
BRANCH  22  27
HETATM   27  O2  UNL     1      -1.104  50.937  -9.772  1.00  0.00    -0.383 OA
HETATM   28  C4  UNL     1      -2.247  50.726 -10.592  1.00  0.00     0.202 C 
ENDBRANCH  22  27
BRANCH  23  29
HETATM   29  O1  UNL     1       1.926  51.321  -8.919  1.00  0.00    -0.385 OA
HETATM   30  C1  UNL     1       2.810  50.700  -9.842  1.00  0.00     0.202 C 
ENDBRANCH  23  29
BRANCH  24  31
HETATM   31  O10 UNL     1       2.402  54.174  -9.432  1.00  0.00    -0.386 OA
HETATM   32  C36 UNL     1       2.788  55.401 -10.034  1.00  0.00     0.202 C 
ENDBRANCH  24  31
ENDBRANCH  20  21
ENDBRANCH   1  20
BRANCH   7  33
HETATM   33  O4  UNL     1      -0.639  49.781 -13.795  1.00  0.00    -0.393 OA
HETATM   34  H20 UNL     1      -0.056  49.950 -13.028  1.00  0.00     0.210 HD
ENDBRANCH   7  33
BRANCH   8  35
HETATM   35  O5  UNL     1      -3.275  49.649 -14.805  1.00  0.00    -0.395 OA
HETATM   36  H22 UNL     1      -2.528  49.155 -14.402  1.00  0.00     0.210 HD
ENDBRANCH   8  35
BRANCH  10  37
HETATM   37  O6  UNL     1      -1.282  48.249 -18.660  1.00  0.00    -0.389 OA
HETATM   38  H25 UNL     1      -1.916  47.511 -18.627  1.00  0.00     0.210 HD
ENDBRANCH  10  37
BRANCH  18  39
HETATM   39  O8  UNL     1      -5.117  49.240 -19.355  1.00  0.00    -0.395 OA
HETATM   40  H55 UNL     1      -5.857  48.756 -19.761  1.00  0.00     0.210 HD
ENDBRANCH  18  39
BRANCH  16  41
HETATM   41  C22 UNL     1      -2.753  50.410 -23.488  1.00  0.00     0.009 C 
HETATM   42  C23 UNL     1      -2.733  49.005 -24.099  1.00  0.00     0.014 C 
BRANCH  41  43
HETATM   43  C24 UNL     1      -1.485  51.202 -23.783  1.00  0.00    -0.026 C 
HETATM   44  C25 UNL     1      -1.129  51.787 -24.941  1.00  0.00    -0.026 C 
BRANCH  44  45
HETATM   45  C26 UNL     1       0.140  52.587 -25.212  1.00  0.00     0.009 C 
HETATM   46  C27 UNL     1       1.079  52.641 -23.995  1.00  0.00     0.014 C 
BRANCH  45  47
HETATM   47  C28 UNL     1       0.864  52.095 -26.506  1.00  0.00     0.012 C 
HETATM   48  C29 UNL     1      -0.036  51.201 -27.375  1.00  0.00     0.012 C 
BRANCH  47  49
HETATM   49  C30 UNL     1       2.175  51.356 -26.165  1.00  0.00     0.168 C 
BRANCH  49  50
HETATM   50  O7  UNL     1       3.149  51.506 -27.193  1.00  0.00    -0.400 OA
HETATM   51  H51 UNL     1       2.943  50.864 -27.892  1.00  0.00     0.209 HD
ENDBRANCH  49  50
ENDBRANCH  47  49
ENDBRANCH  45  47
ENDBRANCH  44  45
ENDBRANCH  41  43
ENDBRANCH  16  41
TORSDOF 15
ENDMDL
