MODEL 1
REMARK minimizedAffinity -9.67975903
REMARK  6 active torsions:
REMARK  status: ('A' for Active; 'I' for Inactive)
REMARK    1  A    between atoms: C2_2  and  O2_4 
REMARK    2  A    between atoms: O2_4  and  C3_5 
REMARK    3  A    between atoms: C13_15  and  C14_16 
REMARK    4  A    between atoms: C14_16  and  C16_18 
REMARK    5  A    between atoms: C17_19  and  C18_20 
REMARK    6  A    between atoms: C18_20  and  C20_22 
ROOT
HETATM    1  C3  UNL     1       2.256   7.940  11.216  1.00  0.00     0.135 C 
HETATM    2  C4  UNL     1       1.759   6.588  10.692  1.00  0.00     0.034 C 
HETATM    3  C5  UNL     1       0.260   6.398  10.924  1.00  0.00     0.015 C 
HETATM    4  C6  UNL     1      -0.154   6.578  12.411  1.00  0.00     0.001 C 
HETATM    5  C7  UNL     1       0.431   5.392  13.223  1.00  0.00     0.019 C 
HETATM    6  C8  UNL     1      -1.735   6.663  12.514  1.00  0.00     0.039 C 
HETATM    7  C9  UNL     1      -2.459   5.367  12.948  1.00  0.00     0.010 C 
HETATM    8  C10 UNL     1      -3.981   5.546  13.101  1.00  0.00     0.010 C 
HETATM    9  C11 UNL     1      -4.325   6.701  14.059  1.00  0.00    -0.033 C 
HETATM   10  C12 UNL     1      -3.893   6.323  15.489  1.00  0.00     0.016 C 
HETATM   11  C13 UNL     1      -5.809   7.177  13.992  1.00  0.00     0.001 C 
HETATM   12  C23 UNL     1      -5.746   8.638  14.515  1.00  0.00     0.006 C 
HETATM   13  C24 UNL     1      -4.301   9.121  14.282  1.00  0.00     0.009 C 
HETATM   14  C25 UNL     1      -3.650   7.979  13.504  1.00  0.00     0.036 C 
HETATM   15  C26 UNL     1      -2.125   7.927  13.359  1.00  0.00     0.123 C 
HETATM   16  C27 UNL     1      -1.304   8.074  14.615  1.00  0.00     0.014 C 
HETATM   17  C28 UNL     1       0.017   8.128  14.392  1.00  0.00     0.014 C 
HETATM   18  C29 UNL     1       0.390   7.952  12.937  1.00  0.00     0.124 C 
HETATM   19  C30 UNL     1       1.889   8.136  12.692  1.00  0.00     0.079 C 
HETATM   20  O3  UNL     1      -0.291   8.992  12.183  1.00  0.00    -0.223 OA
HETATM   21  O4  UNL     1      -1.735   9.077  12.556  1.00  0.00    -0.224 OA
ENDROOT
BRANCH  11  22
HETATM   22  C14 UNL     1      -6.935   6.293  14.597  1.00  0.00     0.008 C 
HETATM   23  C15 UNL     1      -6.730   6.171  16.118  1.00  0.00     0.014 C 
BRANCH  22  24
HETATM   24  C16 UNL     1      -7.144   4.945  13.935  1.00  0.00    -0.026 C 
HETATM   25  C17 UNL     1      -6.758   4.574  12.701  1.00  0.00    -0.026 C 
BRANCH  25  26
HETATM   26  C18 UNL     1      -7.003   3.192  12.128  1.00  0.00     0.007 C 
HETATM   27  C19 UNL     1      -7.714   2.332  13.176  1.00  0.00     0.014 C 
BRANCH  26  28
HETATM   28  C20 UNL     1      -5.690   2.569  11.576  1.00  0.00    -0.015 C 
HETATM   29  C21 UNL     1      -5.800   1.085  11.212  1.00  0.00     0.010 C 
HETATM   30  C22 UNL     1      -5.166   3.352  10.366  1.00  0.00     0.010 C 
ENDBRANCH  26  28
ENDBRANCH  25  26
ENDBRANCH  22  24
ENDBRANCH  11  22
BRANCH   1  31
HETATM   31  O2  UNL     1       3.694   8.003  11.128  1.00  0.00    -0.316 OA
BRANCH  31  32
HETATM   32  C2  UNL     1       4.284   7.123  10.274  1.00  0.00     0.255 C 
HETATM   33  C1  UNL     1       5.379   6.384  10.980  1.00  0.00     0.126 C 
HETATM   34  O1  UNL     1       3.994   6.963   9.098  1.00  0.00    -0.266 OA
ENDBRANCH  31  32
ENDBRANCH   1  31
TORSDOF 6
ENDMDL
MODEL 2
REMARK minimizedAffinity -9.2704401
REMARK  6 active torsions:
REMARK  status: ('A' for Active; 'I' for Inactive)
REMARK    1  A    between atoms: C2_2  and  O2_4 
REMARK    2  A    between atoms: O2_4  and  C3_5 
REMARK    3  A    between atoms: C13_15  and  C14_16 
REMARK    4  A    between atoms: C14_16  and  C16_18 
REMARK    5  A    between atoms: C17_19  and  C18_20 
REMARK    6  A    between atoms: C18_20  and  C20_22 
ROOT
HETATM    1  C3  UNL     1       1.813   7.706  11.114  1.00  0.00     0.135 C 
HETATM    2  C4  UNL     1       1.433   6.263  10.763  1.00  0.00     0.034 C 
HETATM    3  C5  UNL     1      -0.052   5.987  11.001  1.00  0.00     0.015 C 
HETATM    4  C6  UNL     1      -0.510   6.321  12.449  1.00  0.00     0.001 C 
HETATM    5  C7  UNL     1       0.148   5.298  13.412  1.00  0.00     0.019 C 
HETATM    6  C8  UNL     1      -2.094   6.293  12.522  1.00  0.00     0.039 C 
HETATM    7  C9  UNL     1      -2.725   5.010  13.111  1.00  0.00     0.010 C 
HETATM    8  C10 UNL     1      -4.260   5.086  13.223  1.00  0.00     0.010 C 
HETATM    9  C11 UNL     1      -4.711   6.323  14.022  1.00  0.00    -0.033 C 
HETATM   10  C12 UNL     1      -4.281   6.165  15.493  1.00  0.00     0.016 C 
HETATM   11  C13 UNL     1      -6.225   6.668  13.878  1.00  0.00     0.001 C 
HETATM   12  C23 UNL     1      -6.286   8.183  14.210  1.00  0.00     0.006 C 
HETATM   13  C24 UNL     1      -4.878   8.746  13.933  1.00  0.00     0.009 C 
HETATM   14  C25 UNL     1      -4.124   7.570  13.315  1.00  0.00     0.036 C 
HETATM   15  C26 UNL     1      -2.598   7.620  13.194  1.00  0.00     0.123 C 
HETATM   16  C27 UNL     1      -1.816   7.989  14.430  1.00  0.00     0.014 C 
HETATM   17  C28 UNL     1      -0.499   8.118  14.216  1.00  0.00     0.014 C 
HETATM   18  C29 UNL     1      -0.083   7.789  12.800  1.00  0.00     0.124 C 
HETATM   19  C30 UNL     1       1.402   8.058  12.550  1.00  0.00     0.079 C 
HETATM   20  O3  UNL     1      -0.827   8.668  11.912  1.00  0.00    -0.223 OA
HETATM   21  O4  UNL     1      -2.280   8.686  12.255  1.00  0.00    -0.224 OA
ENDROOT
BRANCH  11  22
HETATM   22  C14 UNL     1      -7.292   5.782  14.579  1.00  0.00     0.008 C 
HETATM   23  C15 UNL     1      -7.595   4.552  13.702  1.00  0.00     0.014 C 
BRANCH  22  24
HETATM   24  C16 UNL     1      -8.555   6.495  15.022  1.00  0.00    -0.026 C 
HETATM   25  C17 UNL     1      -9.614   6.825  14.263  1.00  0.00    -0.026 C 
BRANCH  25  26
HETATM   26  C18 UNL     1     -10.843   7.531  14.801  1.00  0.00     0.007 C 
HETATM   27  C19 UNL     1     -12.096   6.782  14.338  1.00  0.00     0.014 C 
BRANCH  26  28
HETATM   28  C20 UNL     1     -10.831   9.042  14.436  1.00  0.00    -0.015 C 
HETATM   29  C21 UNL     1     -12.133   9.781  14.767  1.00  0.00     0.010 C 
HETATM   30  C22 UNL     1      -9.653   9.767  15.098  1.00  0.00     0.010 C 
ENDBRANCH  26  28
ENDBRANCH  25  26
ENDBRANCH  22  24
ENDBRANCH  11  22
BRANCH   1  31
HETATM   31  O2  UNL     1       3.243   7.871  11.035  1.00  0.00    -0.316 OA
BRANCH  31  32
HETATM   32  C2  UNL     1       3.834   7.454   9.882  1.00  0.00     0.255 C 
HETATM   33  C1  UNL     1       3.393   8.320   8.742  1.00  0.00     0.126 C 
HETATM   34  O1  UNL     1       4.592   6.503   9.769  1.00  0.00    -0.266 OA
ENDBRANCH  31  32
ENDBRANCH   1  31
TORSDOF 6
ENDMDL
MODEL 3
REMARK minimizedAffinity -9.09514713
REMARK  6 active torsions:
REMARK  status: ('A' for Active; 'I' for Inactive)
REMARK    1  A    between atoms: C2_2  and  O2_4 
REMARK    2  A    between atoms: O2_4  and  C3_5 
REMARK    3  A    between atoms: C13_15  and  C14_16 
REMARK    4  A    between atoms: C14_16  and  C16_18 
REMARK    5  A    between atoms: C17_19  and  C18_20 
REMARK    6  A    between atoms: C18_20  and  C20_22 
ROOT
HETATM    1  C3  UNL     1      -5.471   6.482  14.848  1.00  0.00     0.135 C 
HETATM    2  C4  UNL     1      -5.540   7.825  14.112  1.00  0.00     0.034 C 
HETATM    3  C5  UNL     1      -4.431   7.964  13.069  1.00  0.00     0.015 C 
HETATM    4  C6  UNL     1      -3.009   7.753  13.659  1.00  0.00     0.001 C 
HETATM    5  C7  UNL     1      -2.693   8.946  14.599  1.00  0.00     0.019 C 
HETATM    6  C8  UNL     1      -1.960   7.617  12.476  1.00  0.00     0.039 C 
HETATM    7  C9  UNL     1      -1.136   8.884  12.150  1.00  0.00     0.010 C 
HETATM    8  C10 UNL     1      -0.085   8.655  11.046  1.00  0.00     0.010 C 
HETATM    9  C11 UNL     1       0.847   7.477  11.384  1.00  0.00    -0.033 C 
HETATM   10  C12 UNL     1       1.722   7.851  12.596  1.00  0.00     0.016 C 
HETATM   11  C13 UNL     1       1.691   6.956  10.179  1.00  0.00     0.001 C 
HETATM   12  C23 UNL     1       2.022   5.491  10.575  1.00  0.00     0.006 C 
HETATM   13  C24 UNL     1       0.937   5.056  11.580  1.00  0.00     0.009 C 
HETATM   14  C25 UNL     1      -0.043   6.228  11.597  1.00  0.00     0.036 C 
HETATM   15  C26 UNL     1      -1.091   6.330  12.709  1.00  0.00     0.123 C 
HETATM   16  C27 UNL     1      -0.609   6.193  14.132  1.00  0.00     0.014 C 
HETATM   17  C28 UNL     1      -1.597   6.184  15.037  1.00  0.00     0.014 C 
HETATM   18  C29 UNL     1      -2.969   6.390  14.435  1.00  0.00     0.124 C 
HETATM   19  C30 UNL     1      -4.087   6.256  15.470  1.00  0.00     0.079 C 
HETATM   20  O3  UNL     1      -3.176   5.339  13.452  1.00  0.00    -0.223 OA
HETATM   21  O4  UNL     1      -1.998   5.203  12.544  1.00  0.00    -0.224 OA
ENDROOT
BRANCH  11  22
HETATM   22  C14 UNL     1       2.885   7.795   9.648  1.00  0.00     0.008 C 
HETATM   23  C15 UNL     1       2.736   7.996   8.128  1.00  0.00     0.014 C 
BRANCH  22  24
HETATM   24  C16 UNL     1       4.265   7.295  10.028  1.00  0.00    -0.026 C 
HETATM   25  C17 UNL     1       5.210   7.957  10.719  1.00  0.00    -0.026 C 
BRANCH  25  26
HETATM   26  C18 UNL     1       6.564   7.366  11.063  1.00  0.00     0.007 C 
HETATM   27  C19 UNL     1       6.471   5.839  11.019  1.00  0.00     0.014 C 
BRANCH  26  28
HETATM   28  C20 UNL     1       7.103   7.935  12.405  1.00  0.00    -0.015 C 
HETATM   29  C21 UNL     1       6.979   9.457  12.541  1.00  0.00     0.010 C 
HETATM   30  C22 UNL     1       6.432   7.261  13.607  1.00  0.00     0.010 C 
ENDBRANCH  26  28
ENDBRANCH  25  26
ENDBRANCH  22  24
ENDBRANCH  11  22
BRANCH   1  31
HETATM   31  O2  UNL     1      -6.425   6.466  15.930  1.00  0.00    -0.316 OA
BRANCH  31  32
HETATM   32  C2  UNL     1      -7.633   5.900  15.659  1.00  0.00     0.255 C 
HETATM   33  C1  UNL     1      -7.448   4.703  14.777  1.00  0.00     0.126 C 
HETATM   34  O1  UNL     1      -8.718   6.307  16.046  1.00  0.00    -0.266 OA
ENDBRANCH  31  32
ENDBRANCH   1  31
TORSDOF 6
ENDMDL
MODEL 4
REMARK minimizedAffinity -8.68302536
REMARK  6 active torsions:
REMARK  status: ('A' for Active; 'I' for Inactive)
REMARK    1  A    between atoms: C2_2  and  O2_4 
REMARK    2  A    between atoms: O2_4  and  C3_5 
REMARK    3  A    between atoms: C13_15  and  C14_16 
REMARK    4  A    between atoms: C14_16  and  C16_18 
REMARK    5  A    between atoms: C17_19  and  C18_20 
REMARK    6  A    between atoms: C18_20  and  C20_22 
ROOT
HETATM    1  C3  UNL     1      -8.053   7.029  15.882  1.00  0.00     0.135 C 
HETATM    2  C4  UNL     1      -7.498   5.619  16.118  1.00  0.00     0.034 C 
HETATM    3  C5  UNL     1      -5.971   5.588  16.059  1.00  0.00     0.015 C 
HETATM    4  C6  UNL     1      -5.398   6.171  14.737  1.00  0.00     0.001 C 
HETATM    5  C7  UNL     1      -5.767   5.203  13.582  1.00  0.00     0.019 C 
HETATM    6  C8  UNL     1      -3.832   6.375  14.882  1.00  0.00     0.039 C 
HETATM    7  C9  UNL     1      -2.943   5.282  14.246  1.00  0.00     0.010 C 
HETATM    8  C10 UNL     1      -1.436   5.586  14.357  1.00  0.00     0.010 C 
HETATM    9  C11 UNL     1      -1.090   6.969  13.775  1.00  0.00    -0.033 C 
HETATM   10  C12 UNL     1      -1.308   6.948  12.250  1.00  0.00     0.016 C 
HETATM   11  C13 UNL     1       0.323   7.499  14.167  1.00  0.00     0.001 C 
HETATM   12  C23 UNL     1       0.187   9.039  14.020  1.00  0.00     0.006 C 
HETATM   13  C24 UNL     1      -1.315   9.358  14.160  1.00  0.00     0.009 C 
HETATM   14  C25 UNL     1      -1.945   8.016  14.530  1.00  0.00     0.036 C 
HETATM   15  C26 UNL     1      -3.464   7.836  14.442  1.00  0.00     0.123 C 
HETATM   16  C27 UNL     1      -4.138   8.253  13.158  1.00  0.00     0.014 C 
HETATM   17  C28 UNL     1      -5.475   8.167  13.200  1.00  0.00     0.014 C 
HETATM   18  C29 UNL     1      -6.003   7.598  14.498  1.00  0.00     0.124 C 
HETATM   19  C30 UNL     1      -7.531   7.622  14.567  1.00  0.00     0.079 C 
HETATM   20  O3  UNL     1      -5.518   8.447  15.575  1.00  0.00    -0.223 OA
HETATM   21  O4  UNL     1      -4.055   8.713  15.442  1.00  0.00    -0.224 OA
ENDROOT
BRANCH  11  22
HETATM   22  C14 UNL     1       1.592   6.872  13.526  1.00  0.00     0.008 C 
HETATM   23  C15 UNL     1       2.800   7.796  13.769  1.00  0.00     0.014 C 
BRANCH  22  24
HETATM   24  C16 UNL     1       1.465   6.466  12.071  1.00  0.00    -0.026 C 
HETATM   25  C17 UNL     1       2.016   7.071  11.004  1.00  0.00    -0.026 C 
BRANCH  25  26
HETATM   26  C18 UNL     1       1.840   6.581   9.580  1.00  0.00     0.007 C 
HETATM   27  C19 UNL     1       3.007   5.658   9.219  1.00  0.00     0.014 C 
BRANCH  26  28
HETATM   28  C20 UNL     1       1.638   7.767   8.595  1.00  0.00    -0.015 C 
HETATM   29  C21 UNL     1       1.937   7.430   7.130  1.00  0.00     0.010 C 
HETATM   30  C22 UNL     1       0.222   8.347   8.704  1.00  0.00     0.010 C 
ENDBRANCH  26  28
ENDBRANCH  25  26
ENDBRANCH  22  24
ENDBRANCH  11  22
BRANCH   1  31
HETATM   31  O2  UNL     1      -9.491   6.980  15.780  1.00  0.00    -0.316 OA
BRANCH  31  32
HETATM   32  C2  UNL     1     -10.116   8.161  15.524  1.00  0.00     0.255 C 
HETATM   33  C1  UNL     1     -10.095   9.024  16.748  1.00  0.00     0.126 C 
HETATM   34  O1  UNL     1     -10.645   8.478  14.469  1.00  0.00    -0.266 OA
ENDBRANCH  31  32
ENDBRANCH   1  31
TORSDOF 6
ENDMDL
MODEL 5
REMARK minimizedAffinity -8.502841
REMARK  6 active torsions:
REMARK  status: ('A' for Active; 'I' for Inactive)
REMARK    1  A    between atoms: C2_2  and  O2_4 
REMARK    2  A    between atoms: O2_4  and  C3_5 
REMARK    3  A    between atoms: C13_15  and  C14_16 
REMARK    4  A    between atoms: C14_16  and  C16_18 
REMARK    5  A    between atoms: C17_19  and  C18_20 
REMARK    6  A    between atoms: C18_20  and  C20_22 
ROOT
HETATM    1  C3  UNL     1       2.293   7.935  14.677  1.00  0.00     0.135 C 
HETATM    2  C4  UNL     1       1.588   8.116  16.026  1.00  0.00     0.034 C 
HETATM    3  C5  UNL     1       0.256   7.367  16.082  1.00  0.00     0.015 C 
HETATM    4  C6  UNL     1      -0.707   7.748  14.923  1.00  0.00     0.001 C 
HETATM    5  C7  UNL     1      -1.172   9.211  15.142  1.00  0.00     0.019 C 
HETATM    6  C8  UNL     1      -1.918   6.725  14.884  1.00  0.00     0.039 C 
HETATM    7  C9  UNL     1      -3.239   7.210  15.526  1.00  0.00     0.010 C 
HETATM    8  C10 UNL     1      -4.391   6.197  15.382  1.00  0.00     0.010 C 
HETATM    9  C11 UNL     1      -4.620   5.802  13.911  1.00  0.00    -0.033 C 
HETATM   10  C12 UNL     1      -5.155   7.020  13.134  1.00  0.00     0.016 C 
HETATM   11  C13 UNL     1      -5.507   4.534  13.713  1.00  0.00     0.001 C 
HETATM   12  C23 UNL     1      -5.084   4.010  12.314  1.00  0.00     0.006 C 
HETATM   13  C24 UNL     1      -3.665   4.556  12.056  1.00  0.00     0.009 C 
HETATM   14  C25 UNL     1      -3.285   5.234  13.371  1.00  0.00     0.036 C 
HETATM   15  C26 UNL     1      -2.081   6.181  13.421  1.00  0.00     0.123 C 
HETATM   16  C27 UNL     1      -2.008   7.266  12.375  1.00  0.00     0.014 C 
HETATM   17  C28 UNL     1      -0.875   7.981  12.419  1.00  0.00     0.014 C 
HETATM   18  C29 UNL     1       0.043   7.587  13.555  1.00  0.00     0.124 C 
HETATM   19  C30 UNL     1       1.378   8.332  13.511  1.00  0.00     0.079 C 
HETATM   20  O3  UNL     1       0.344   6.173  13.402  1.00  0.00    -0.223 OA
HETATM   21  O4  UNL     1      -0.896   5.375  13.162  1.00  0.00    -0.224 OA
ENDROOT
BRANCH  11  22
HETATM   22  C14 UNL     1      -7.037   4.610  13.969  1.00  0.00     0.008 C 
HETATM   23  C15 UNL     1      -7.792   4.182  12.696  1.00  0.00     0.014 C 
BRANCH  22  24
HETATM   24  C16 UNL     1      -7.549   5.925  14.525  1.00  0.00    -0.026 C 
HETATM   25  C17 UNL     1      -8.762   6.473  14.333  1.00  0.00    -0.026 C 
BRANCH  25  26
HETATM   26  C18 UNL     1      -9.190   7.794  14.944  1.00  0.00     0.007 C 
HETATM   27  C19 UNL     1      -8.937   7.754  16.453  1.00  0.00     0.014 C 
BRANCH  26  28
HETATM   28  C20 UNL     1     -10.651   8.151  14.550  1.00  0.00    -0.015 C 
HETATM   29  C21 UNL     1     -10.903   9.650  14.353  1.00  0.00     0.010 C 
HETATM   30  C22 UNL     1     -11.092   7.392  13.293  1.00  0.00     0.010 C 
ENDBRANCH  26  28
ENDBRANCH  25  26
ENDBRANCH  22  24
ENDBRANCH  11  22
BRANCH   1  31
HETATM   31  O2  UNL     1       3.453   8.789  14.610  1.00  0.00    -0.316 OA
BRANCH  31  32
HETATM   32  C2  UNL     1       4.662   8.168  14.681  1.00  0.00     0.255 C 
HETATM   33  C1  UNL     1       5.073   7.695  13.320  1.00  0.00     0.126 C 
HETATM   34  O1  UNL     1       5.317   7.991  15.697  1.00  0.00    -0.266 OA
ENDBRANCH  31  32
ENDBRANCH   1  31
TORSDOF 6
ENDMDL
MODEL 6
REMARK minimizedAffinity -8.43922997
REMARK  6 active torsions:
REMARK  status: ('A' for Active; 'I' for Inactive)
REMARK    1  A    between atoms: C2_2  and  O2_4 
REMARK    2  A    between atoms: O2_4  and  C3_5 
REMARK    3  A    between atoms: C13_15  and  C14_16 
REMARK    4  A    between atoms: C14_16  and  C16_18 
REMARK    5  A    between atoms: C17_19  and  C18_20 
REMARK    6  A    between atoms: C18_20  and  C20_22 
ROOT
HETATM    1  C3  UNL     1      -7.091   6.023  15.396  1.00  0.00     0.135 C 
HETATM    2  C4  UNL     1      -6.904   5.575  13.941  1.00  0.00     0.034 C 
HETATM    3  C5  UNL     1      -5.428   5.488  13.553  1.00  0.00     0.015 C 
HETATM    4  C6  UNL     1      -4.651   6.809  13.807  1.00  0.00     0.001 C 
HETATM    5  C7  UNL     1      -5.166   7.874  12.803  1.00  0.00     0.019 C 
HETATM    6  C8  UNL     1      -3.094   6.544  13.665  1.00  0.00     0.039 C 
HETATM    7  C9  UNL     1      -2.453   6.963  12.322  1.00  0.00     0.010 C 
HETATM    8  C10 UNL     1      -0.927   6.748  12.285  1.00  0.00     0.010 C 
HETATM    9  C11 UNL     1      -0.225   7.452  13.461  1.00  0.00    -0.033 C 
HETATM   10  C12 UNL     1      -0.345   8.978  13.286  1.00  0.00     0.016 C 
HETATM   11  C13 UNL     1       1.247   6.994  13.702  1.00  0.00     0.001 C 
HETATM   12  C23 UNL     1       1.491   7.330  15.198  1.00  0.00     0.006 C 
HETATM   13  C24 UNL     1       0.103   7.368  15.867  1.00  0.00     0.009 C 
HETATM   14  C25 UNL     1      -0.851   6.906  14.768  1.00  0.00     0.036 C 
HETATM   15  C26 UNL     1      -2.360   7.114  14.930  1.00  0.00     0.123 C 
HETATM   16  C27 UNL     1      -2.833   8.494  15.314  1.00  0.00     0.014 C 
HETATM   17  C28 UNL     1      -4.151   8.568  15.543  1.00  0.00     0.014 C 
HETATM   18  C29 UNL     1      -4.881   7.267  15.290  1.00  0.00     0.124 C 
HETATM   19  C30 UNL     1      -6.360   7.343  15.672  1.00  0.00     0.079 C 
HETATM   20  O3  UNL     1      -4.277   6.255  16.142  1.00  0.00    -0.223 OA
HETATM   21  O4  UNL     1      -2.787   6.281  16.045  1.00  0.00    -0.224 OA
ENDROOT
BRANCH  11  22
HETATM   22  C14 UNL     1       2.367   7.437  12.721  1.00  0.00     0.008 C 
HETATM   23  C15 UNL     1       2.286   8.959  12.502  1.00  0.00     0.014 C 
BRANCH  22  24
HETATM   24  C16 UNL     1       2.440   6.673  11.413  1.00  0.00    -0.026 C 
HETATM   25  C17 UNL     1       2.276   7.163  10.172  1.00  0.00    -0.026 C 
BRANCH  25  26
HETATM   26  C18 UNL     1       2.380   6.319   8.917  1.00  0.00     0.007 C 
HETATM   27  C19 UNL     1       3.349   5.160   9.170  1.00  0.00     0.014 C 
BRANCH  26  28
HETATM   28  C20 UNL     1       2.736   7.189   7.679  1.00  0.00    -0.015 C 
HETATM   29  C21 UNL     1       1.700   7.132   6.550  1.00  0.00     0.010 C 
HETATM   30  C22 UNL     1       2.978   8.650   8.074  1.00  0.00     0.010 C 
ENDBRANCH  26  28
ENDBRANCH  25  26
ENDBRANCH  22  24
ENDBRANCH  11  22
BRANCH   1  31
HETATM   31  O2  UNL     1      -8.489   6.253  15.664  1.00  0.00    -0.316 OA
BRANCH  31  32
HETATM   32  C2  UNL     1      -9.076   7.267  14.971  1.00  0.00     0.255 C 
HETATM   33  C1  UNL     1      -9.924   6.708  13.870  1.00  0.00     0.126 C 
HETATM   34  O1  UNL     1      -8.926   8.460  15.185  1.00  0.00    -0.266 OA
ENDBRANCH  31  32
ENDBRANCH   1  31
TORSDOF 6
ENDMDL
MODEL 7
REMARK minimizedAffinity -8.4027462
REMARK  6 active torsions:
REMARK  status: ('A' for Active; 'I' for Inactive)
REMARK    1  A    between atoms: C2_2  and  O2_4 
REMARK    2  A    between atoms: O2_4  and  C3_5 
REMARK    3  A    between atoms: C13_15  and  C14_16 
REMARK    4  A    between atoms: C14_16  and  C16_18 
REMARK    5  A    between atoms: C17_19  and  C18_20 
REMARK    6  A    between atoms: C18_20  and  C20_22 
ROOT
HETATM    1  C3  UNL     1       5.824   7.983  11.803  1.00  0.00     0.135 C 
HETATM    2  C4  UNL     1       5.574   8.540  13.209  1.00  0.00     0.034 C 
HETATM    3  C5  UNL     1       4.219   8.102  13.766  1.00  0.00     0.015 C 
HETATM    4  C6  UNL     1       3.030   8.460  12.832  1.00  0.00     0.001 C 
HETATM    5  C7  UNL     1       2.870  10.004  12.824  1.00  0.00     0.019 C 
HETATM    6  C8  UNL     1       1.721   7.717  13.332  1.00  0.00     0.039 C 
HETATM    7  C9  UNL     1       0.730   8.568  14.159  1.00  0.00     0.010 C 
HETATM    8  C10 UNL     1      -0.552   7.803  14.543  1.00  0.00     0.010 C 
HETATM    9  C11 UNL     1      -1.252   7.210  13.306  1.00  0.00    -0.033 C 
HETATM   10  C12 UNL     1      -1.802   8.354  12.434  1.00  0.00     0.016 C 
HETATM   11  C13 UNL     1      -2.335   6.135  13.631  1.00  0.00     0.001 C 
HETATM   12  C23 UNL     1      -2.417   5.296  12.327  1.00  0.00     0.006 C 
HETATM   13  C24 UNL     1      -1.069   5.486  11.603  1.00  0.00     0.009 C 
HETATM   14  C25 UNL     1      -0.229   6.294  12.590  1.00  0.00     0.036 C 
HETATM   15  C26 UNL     1       1.064   6.967  12.120  1.00  0.00     0.123 C 
HETATM   16  C27 UNL     1       0.992   7.813  10.872  1.00  0.00     0.014 C 
HETATM   17  C28 UNL     1       2.182   8.276  10.466  1.00  0.00     0.014 C 
HETATM   18  C29 UNL     1       3.320   7.910  11.392  1.00  0.00     0.124 C 
HETATM   19  C30 UNL     1       4.681   8.346  10.846  1.00  0.00     0.079 C 
HETATM   20  O3  UNL     1       3.351   6.460  11.494  1.00  0.00    -0.223 OA
HETATM   21  O4  UNL     1       1.991   5.904  11.761  1.00  0.00    -0.224 OA
ENDROOT
BRANCH  11  22
HETATM   22  C14 UNL     1      -3.698   6.568  14.239  1.00  0.00     0.008 C 
HETATM   23  C15 UNL     1      -3.798   6.057  15.689  1.00  0.00     0.014 C 
BRANCH  22  24
HETATM   24  C16 UNL     1      -4.926   6.218  13.422  1.00  0.00    -0.026 C 
HETATM   25  C17 UNL     1      -6.138   5.862  13.884  1.00  0.00    -0.026 C 
BRANCH  25  26
HETATM   26  C18 UNL     1      -7.315   5.541  12.984  1.00  0.00     0.007 C 
HETATM   27  C19 UNL     1      -8.615   5.886  13.716  1.00  0.00     0.014 C 
BRANCH  26  28
HETATM   28  C20 UNL     1      -7.246   4.078  12.463  1.00  0.00    -0.015 C 
HETATM   29  C21 UNL     1      -5.891   3.687  11.860  1.00  0.00     0.010 C 
HETATM   30  C22 UNL     1      -7.622   3.075  13.560  1.00  0.00     0.010 C 
ENDBRANCH  26  28
ENDBRANCH  25  26
ENDBRANCH  22  24
ENDBRANCH  11  22
BRANCH   1  31
HETATM   31  O2  UNL     1       7.029   8.556  11.254  1.00  0.00    -0.316 OA
BRANCH  31  32
HETATM   32  C2  UNL     1       7.024   9.904  11.068  1.00  0.00     0.255 C 
HETATM   33  C1  UNL     1       7.843  10.568  12.132  1.00  0.00     0.126 C 
HETATM   34  O1  UNL     1       6.425  10.503  10.187  1.00  0.00    -0.266 OA
ENDBRANCH  31  32
ENDBRANCH   1  31
TORSDOF 6
ENDMDL
MODEL 8
REMARK minimizedAffinity -8.36270809
REMARK  6 active torsions:
REMARK  status: ('A' for Active; 'I' for Inactive)
REMARK    1  A    between atoms: C2_2  and  O2_4 
REMARK    2  A    between atoms: O2_4  and  C3_5 
REMARK    3  A    between atoms: C13_15  and  C14_16 
REMARK    4  A    between atoms: C14_16  and  C16_18 
REMARK    5  A    between atoms: C17_19  and  C18_20 
REMARK    6  A    between atoms: C18_20  and  C20_22 
ROOT
HETATM    1  C3  UNL     1       4.113   8.311  14.002  1.00  0.00     0.135 C 
HETATM    2  C4  UNL     1       3.474   8.195  15.390  1.00  0.00     0.034 C 
HETATM    3  C5  UNL     1       2.240   7.292  15.380  1.00  0.00     0.015 C 
HETATM    4  C6  UNL     1       1.173   7.729  14.338  1.00  0.00     0.001 C 
HETATM    5  C7  UNL     1       0.560   9.074  14.807  1.00  0.00     0.019 C 
HETATM    6  C8  UNL     1       0.084   6.586  14.185  1.00  0.00     0.039 C 
HETATM    7  C9  UNL     1      -1.242   6.804  14.950  1.00  0.00     0.010 C 
HETATM    8  C10 UNL     1      -2.280   5.694  14.693  1.00  0.00     0.010 C 
HETATM    9  C11 UNL     1      -2.550   5.507  13.188  1.00  0.00    -0.033 C 
HETATM   10  C12 UNL     1      -3.264   6.757  12.639  1.00  0.00     0.016 C 
HETATM   11  C13 UNL     1      -3.299   4.187  12.827  1.00  0.00     0.001 C 
HETATM   12  C23 UNL     1      -2.904   3.939  11.346  1.00  0.00     0.006 C 
HETATM   13  C24 UNL     1      -1.574   4.685  11.120  1.00  0.00     0.009 C 
HETATM   14  C25 UNL     1      -1.194   5.193  12.510  1.00  0.00     0.036 C 
HETATM   15  C26 UNL     1      -0.103   6.259  12.661  1.00  0.00     0.123 C 
HETATM   16  C27 UNL     1      -0.216   7.493  11.802  1.00  0.00     0.014 C 
HETATM   17  C28 UNL     1       0.831   8.323  11.912  1.00  0.00     0.014 C 
HETATM   18  C29 UNL     1       1.853   7.872  12.932  1.00  0.00     0.124 C 
HETATM   19  C30 UNL     1       3.092   8.770  12.953  1.00  0.00     0.079 C 
HETATM   20  O3  UNL     1       2.301   6.545  12.542  1.00  0.00    -0.223 OA
HETATM   21  O4  UNL     1       1.147   5.651  12.229  1.00  0.00    -0.224 OA
ENDROOT
BRANCH  11  22
HETATM   22  C14 UNL     1      -4.811   4.038  13.154  1.00  0.00     0.008 C 
HETATM   23  C15 UNL     1      -5.555   3.509  11.914  1.00  0.00     0.014 C 
BRANCH  22  24
HETATM   24  C16 UNL     1      -5.482   5.262  13.746  1.00  0.00    -0.026 C 
HETATM   25  C17 UNL     1      -6.704   5.333  14.302  1.00  0.00    -0.026 C 
BRANCH  25  26
HETATM   26  C18 UNL     1      -7.288   6.607  14.881  1.00  0.00     0.007 C 
HETATM   27  C19 UNL     1      -7.354   6.481  16.406  1.00  0.00     0.014 C 
BRANCH  26  28
HETATM   28  C20 UNL     1      -8.646   6.961  14.211  1.00  0.00    -0.015 C 
HETATM   29  C21 UNL     1      -9.078   5.989  13.108  1.00  0.00     0.010 C 
HETATM   30  C22 UNL     1      -9.767   7.080  15.250  1.00  0.00     0.010 C 
ENDBRANCH  26  28
ENDBRANCH  25  26
ENDBRANCH  22  24
ENDBRANCH  11  22
BRANCH   1  31
HETATM   31  O2  UNL     1       5.164   9.298  14.025  1.00  0.00    -0.316 OA
BRANCH  31  32
HETATM   32  C2  UNL     1       6.312   8.940  14.663  1.00  0.00     0.255 C 
HETATM   33  C1  UNL     1       7.401   8.711  13.661  1.00  0.00     0.126 C 
HETATM   34  O1  UNL     1       6.445   8.797  15.869  1.00  0.00    -0.266 OA
ENDBRANCH  31  32
ENDBRANCH   1  31
TORSDOF 6
ENDMDL
MODEL 9
REMARK minimizedAffinity -8.32065201
REMARK  6 active torsions:
REMARK  status: ('A' for Active; 'I' for Inactive)
REMARK    1  A    between atoms: C2_2  and  O2_4 
REMARK    2  A    between atoms: O2_4  and  C3_5 
REMARK    3  A    between atoms: C13_15  and  C14_16 
REMARK    4  A    between atoms: C14_16  and  C16_18 
REMARK    5  A    between atoms: C17_19  and  C18_20 
REMARK    6  A    between atoms: C18_20  and  C20_22 
ROOT
HETATM    1  C3  UNL     1      -5.095   5.051  13.432  1.00  0.00     0.135 C 
HETATM    2  C4  UNL     1      -3.716   4.383  13.380  1.00  0.00     0.034 C 
HETATM    3  C5  UNL     1      -2.702   5.090  14.279  1.00  0.00     0.015 C 
HETATM    4  C6  UNL     1      -2.570   6.609  13.975  1.00  0.00     0.001 C 
HETATM    5  C7  UNL     1      -1.903   6.767  12.583  1.00  0.00     0.019 C 
HETATM    6  C8  UNL     1      -1.740   7.310  15.130  1.00  0.00     0.039 C 
HETATM    7  C9  UNL     1      -0.250   7.588  14.823  1.00  0.00     0.010 C 
HETATM    8  C10 UNL     1       0.472   8.340  15.958  1.00  0.00     0.010 C 
HETATM    9  C11 UNL     1      -0.255   9.646  16.328  1.00  0.00    -0.033 C 
HETATM   10  C12 UNL     1      -0.146  10.639  15.155  1.00  0.00     0.016 C 
HETATM   11  C13 UNL     1       0.194  10.274  17.683  1.00  0.00     0.001 C 
HETATM   12  C23 UNL     1      -1.027  11.133  18.108  1.00  0.00     0.006 C 
HETATM   13  C24 UNL     1      -2.253  10.531  17.392  1.00  0.00     0.009 C 
HETATM   14  C25 UNL     1      -1.706   9.273  16.718  1.00  0.00     0.036 C 
HETATM   15  C26 UNL     1      -2.533   8.565  15.640  1.00  0.00     0.123 C 
HETATM   16  C27 UNL     1      -3.083   9.412  14.519  1.00  0.00     0.014 C 
HETATM   17  C28 UNL     1      -3.883   8.740  13.680  1.00  0.00     0.014 C 
HETATM   18  C29 UNL     1      -3.994   7.266  14.002  1.00  0.00     0.124 C 
HETATM   19  C30 UNL     1      -5.004   6.547  13.105  1.00  0.00     0.079 C 
HETATM   20  O3  UNL     1      -4.485   7.153  15.366  1.00  0.00    -0.223 OA
HETATM   21  O4  UNL     1      -3.725   8.042  16.293  1.00  0.00    -0.224 OA
ENDROOT
BRANCH  11  22
HETATM   22  C14 UNL     1       1.578  10.971  17.794  1.00  0.00     0.008 C 
HETATM   23  C15 UNL     1       2.612  10.198  16.953  1.00  0.00     0.014 C 
BRANCH  22  24
HETATM   24  C16 UNL     1       2.071  11.242  19.202  1.00  0.00    -0.026 C 
HETATM   25  C17 UNL     1       1.886  10.475  20.291  1.00  0.00    -0.026 C 
BRANCH  25  26
HETATM   26  C18 UNL     1       2.430  10.824  21.663  1.00  0.00     0.007 C 
HETATM   27  C19 UNL     1       3.146  12.175  21.591  1.00  0.00     0.014 C 
BRANCH  26  28
HETATM   28  C20 UNL     1       3.300   9.670  22.236  1.00  0.00    -0.015 C 
HETATM   29  C21 UNL     1       4.237  10.091  23.373  1.00  0.00     0.010 C 
HETATM   30  C22 UNL     1       2.433   8.494  22.700  1.00  0.00     0.010 C 
ENDBRANCH  26  28
ENDBRANCH  25  26
ENDBRANCH  22  24
ENDBRANCH  11  22
BRANCH   1  31
HETATM   31  O2  UNL     1      -5.966   4.458  12.447  1.00  0.00    -0.316 OA
BRANCH  31  32
HETATM   32  C2  UNL     1      -7.190   4.060  12.888  1.00  0.00     0.255 C 
HETATM   33  C1  UNL     1      -8.242   5.003  12.389  1.00  0.00     0.126 C 
HETATM   34  O1  UNL     1      -7.415   3.097  13.606  1.00  0.00    -0.266 OA
ENDBRANCH  31  32
ENDBRANCH   1  31
TORSDOF 6
ENDMDL
