MODEL 1
REMARK minimizedAffinity -6.71757603
REMARK CNNscore 0.294851065
REMARK CNNaffinity 7.03129625
REMARK  12 active torsions:
REMARK  status: ('A' for Active; 'I' for Inactive)
REMARK    1  A    between atoms: C2_2  and  C4_4 
REMARK    2  A    between atoms: C13_13  and  C14_14 
REMARK    3  A    between atoms: C14_14  and  C16_16 
REMARK    4  A    between atoms: C16_16  and  C17_17 
REMARK    5  A    between atoms: C17_17  and  C18_18 
REMARK    6  A    between atoms: C19_19  and  C21_21 
REMARK    7  A    between atoms: C21_21  and  O2_23 
REMARK    8  A    between atoms: C27_29  and  C28_30 
REMARK    9  A    between atoms: C28_30  and  C29_31 
REMARK   10  A    between atoms: C29_31  and  C30_32 
REMARK   11  A    between atoms: C30_32  and  O4_34 
REMARK   12  A    between atoms: O4_34  and  C31_35 
ROOT
HETATM    1  C4  UNL     1      -2.446   3.976  12.288  1.00  0.00     0.022 C 
HETATM    2  C5  UNL     1      -3.577   3.906  11.249  1.00  0.00     0.010 C 
HETATM    3  C6  UNL     1      -4.921   3.885  11.957  1.00  0.00     0.007 C 
HETATM    4  C7  UNL     1      -5.228   5.238  12.626  1.00  0.00     0.004 C 
HETATM    5  C8  UNL     1      -4.068   5.737  13.536  1.00  0.00    -0.027 A 
HETATM    6  C9  UNL     1      -4.429   6.443  14.874  1.00  0.00     0.011 C 
HETATM    7  C10 UNL     1      -5.904   6.674  15.243  1.00  0.00     0.011 C 
HETATM    8  C11 UNL     1      -6.842   6.617  14.044  1.00  0.00    -0.032 C 
HETATM    9  C12 UNL     1      -6.553   7.847  13.148  1.00  0.00     0.016 C 
HETATM   10  C13 UNL     1      -8.361   6.530  14.398  1.00  0.00    -0.002 C 
HETATM   11  C22 UNL     1      -8.979   5.811  13.176  1.00  0.00     0.006 C 
HETATM   12  C23 UNL     1      -7.817   5.157  12.407  1.00  0.00     0.011 C 
HETATM   13  C24 UNL     1      -6.599   5.233  13.347  1.00  0.00    -0.032 C 
HETATM   14  C25 UNL     1      -6.674   4.001  14.308  1.00  0.00     0.016 C 
HETATM   15  C26 UNL     1      -2.964   6.481  12.795  1.00  0.00     0.022 A 
HETATM   16  C27 UNL     1      -2.636   5.109  13.325  1.00  0.00    -0.024 A 
ENDROOT
BRANCH  10  17
HETATM   17  C14 UNL     1      -9.136   7.777  14.924  1.00  0.00    -0.014 C 
HETATM   18  C15 UNL     1      -9.241   7.667  16.458  1.00  0.00     0.010 C 
BRANCH  17  19
HETATM   19  C16 UNL     1     -10.543   8.022  14.319  1.00  0.00     0.008 C 
BRANCH  19  20
HETATM   20  C17 UNL     1     -11.547   6.895  14.606  1.00  0.00     0.028 C 
BRANCH  20  21
HETATM   21  C18 UNL     1     -12.639   6.857  13.569  1.00  0.00    -0.013 C 
HETATM   22  C19 UNL     1     -13.924   7.252  13.682  1.00  0.00     0.008 C 
HETATM   23  C20 UNL     1     -14.860   7.235  12.508  1.00  0.00     0.055 C 
BRANCH  22  24
HETATM   24  C21 UNL     1     -14.542   7.758  14.929  1.00  0.00     0.171 C 
HETATM   25  O1  UNL     1     -15.152   7.082  15.739  1.00  0.00    -0.646 OA
BRANCH  24  26
HETATM   26  O2  UNL     1     -14.286   9.053  15.165  1.00  0.00    -0.773 OA
HETATM   27  H32 UNL     1     -14.721   9.222  16.024  1.00  0.00     0.167 HD
ENDBRANCH  24  26
ENDBRANCH  22  24
ENDBRANCH  20  21
ENDBRANCH  19  20
ENDBRANCH  17  19
ENDBRANCH  10  17
BRANCH  16  28
HETATM   28  C28 UNL     1      -1.765   4.887  14.577  1.00  0.00     0.020 C 
BRANCH  28  29
HETATM   29  C29 UNL     1      -0.970   6.078  15.093  1.00  0.00     0.112 C 
BRANCH  29  30
HETATM   30  C30 UNL     1       0.141   6.453  14.146  1.00  0.00     0.258 C 
HETATM   31  O3  UNL     1       1.042   5.695  13.814  1.00  0.00    -0.265 OA
BRANCH  30  32
HETATM   32  O4  UNL     1       0.010   7.745  13.740  1.00  0.00    -0.322 OA
BRANCH  32  33
HETATM   33  C31 UNL     1       0.782   8.118  12.589  1.00  0.00     0.174 C 
HETATM   34  C32 UNL     1       1.869   9.105  12.972  1.00  0.00     0.034 C 
ENDBRANCH  32  33
ENDBRANCH  30  32
ENDBRANCH  29  30
ENDBRANCH  28  29
ENDBRANCH  16  28
BRANCH   1  35
HETATM   35  C2  UNL     1      -1.084   3.954  11.593  1.00  0.00    -0.088 C 
HETATM   36  C1  UNL     1      -0.308   2.857  11.618  1.00  0.00     0.014 C 
HETATM   37  C3  UNL     1      -0.626   5.190  10.866  1.00  0.00     0.043 C 
ENDBRANCH   1  35
TORSDOF 12
ENDMDL
MODEL 2
REMARK minimizedAffinity -8.32561779
REMARK CNNscore 0.292447895
REMARK CNNaffinity 6.84995031
REMARK  12 active torsions:
REMARK  status: ('A' for Active; 'I' for Inactive)
REMARK    1  A    between atoms: C2_2  and  C4_4 
REMARK    2  A    between atoms: C13_13  and  C14_14 
REMARK    3  A    between atoms: C14_14  and  C16_16 
REMARK    4  A    between atoms: C16_16  and  C17_17 
REMARK    5  A    between atoms: C17_17  and  C18_18 
REMARK    6  A    between atoms: C19_19  and  C21_21 
REMARK    7  A    between atoms: C21_21  and  O2_23 
REMARK    8  A    between atoms: C27_29  and  C28_30 
REMARK    9  A    between atoms: C28_30  and  C29_31 
REMARK   10  A    between atoms: C29_31  and  C30_32 
REMARK   11  A    between atoms: C30_32  and  O4_34 
REMARK   12  A    between atoms: O4_34  and  C31_35 
ROOT
HETATM    1  C4  UNL     1      -5.282   7.413  15.527  1.00  0.00     0.022 C 
HETATM    2  C5  UNL     1      -4.401   8.614  15.906  1.00  0.00     0.010 C 
HETATM    3  C6  UNL     1      -2.937   8.247  15.738  1.00  0.00     0.007 C 
HETATM    4  C7  UNL     1      -2.564   8.074  14.254  1.00  0.00     0.004 C 
HETATM    5  C8  UNL     1      -3.524   7.108  13.500  1.00  0.00    -0.027 A 
HETATM    6  C9  UNL     1      -2.919   6.139  12.444  1.00  0.00     0.011 C 
HETATM    7  C10 UNL     1      -1.414   6.188  12.134  1.00  0.00     0.011 C 
HETATM    8  C11 UNL     1      -0.756   7.500  12.544  1.00  0.00    -0.032 C 
HETATM    9  C12 UNL     1      -1.297   8.619  11.621  1.00  0.00     0.016 C 
HETATM   10  C13 UNL     1       0.805   7.483  12.544  1.00  0.00    -0.002 C 
HETATM   11  C22 UNL     1       1.181   8.559  13.591  1.00  0.00     0.006 C 
HETATM   12  C23 UNL     1      -0.083   8.832  14.424  1.00  0.00     0.011 C 
HETATM   13  C24 UNL     1      -1.071   7.705  14.067  1.00  0.00    -0.032 C 
HETATM   14  C25 UNL     1      -0.725   6.477  14.972  1.00  0.00     0.016 C 
HETATM   15  C26 UNL     1      -4.800   7.764  12.988  1.00  0.00     0.022 A 
HETATM   16  C27 UNL     1      -4.932   6.808  14.145  1.00  0.00    -0.024 A 
ENDROOT
BRANCH  10  17
HETATM   17  C14 UNL     1       1.609   7.518  11.208  1.00  0.00    -0.014 C 
HETATM   18  C15 UNL     1       0.784   8.306  10.170  1.00  0.00     0.010 C 
BRANCH  17  19
HETATM   19  C16 UNL     1       2.024   6.147  10.614  1.00  0.00     0.008 C 
BRANCH  19  20
HETATM   20  C17 UNL     1       3.284   6.205   9.737  1.00  0.00     0.028 C 
BRANCH  20  21
HETATM   21  C18 UNL     1       4.155   7.377  10.107  1.00  0.00    -0.013 C 
HETATM   22  C19 UNL     1       5.367   7.374  10.698  1.00  0.00     0.008 C 
HETATM   23  C20 UNL     1       6.145   8.642  10.905  1.00  0.00     0.055 C 
BRANCH  22  24
HETATM   24  C21 UNL     1       6.068   6.160  11.175  1.00  0.00     0.171 C 
HETATM   25  O1  UNL     1       6.668   5.369  10.470  1.00  0.00    -0.646 OA
BRANCH  24  26
HETATM   26  O2  UNL     1       6.080   6.041  12.511  1.00  0.00    -0.773 OA
HETATM   27  H32 UNL     1       6.601   5.229  12.665  1.00  0.00     0.167 HD
ENDBRANCH  24  26
ENDBRANCH  22  24
ENDBRANCH  20  21
ENDBRANCH  19  20
ENDBRANCH  17  19
ENDBRANCH  10  17
BRANCH  16  28
HETATM   28  C28 UNL     1      -5.499   5.383  13.988  1.00  0.00     0.020 C 
BRANCH  28  29
HETATM   29  C29 UNL     1      -6.847   5.242  13.295  1.00  0.00     0.112 C 
BRANCH  29  30
HETATM   30  C30 UNL     1      -7.085   3.826  12.837  1.00  0.00     0.258 C 
HETATM   31  O3  UNL     1      -7.761   3.011  13.450  1.00  0.00    -0.265 OA
BRANCH  30  32
HETATM   32  O4  UNL     1      -6.427   3.582  11.670  1.00  0.00    -0.322 OA
BRANCH  32  33
HETATM   33  C31 UNL     1      -5.440   2.541  11.718  1.00  0.00     0.174 C 
HETATM   34  C32 UNL     1      -6.023   1.230  11.224  1.00  0.00     0.034 C 
ENDBRANCH  32  33
ENDBRANCH  30  32
ENDBRANCH  29  30
ENDBRANCH  28  29
ENDBRANCH  16  28
BRANCH   1  35
HETATM   35  C2  UNL     1      -6.759   7.752  15.731  1.00  0.00    -0.088 C 
HETATM   36  C1  UNL     1      -7.328   8.793  15.098  1.00  0.00     0.014 C 
HETATM   37  C3  UNL     1      -7.576   6.887  16.652  1.00  0.00     0.043 C 
ENDBRANCH   1  35
TORSDOF 12
ENDMDL
MODEL 3
REMARK minimizedAffinity -8.48946095
REMARK CNNscore 0.243769586
REMARK CNNaffinity 6.8409667
REMARK  12 active torsions:
REMARK  status: ('A' for Active; 'I' for Inactive)
REMARK    1  A    between atoms: C2_2  and  C4_4 
REMARK    2  A    between atoms: C13_13  and  C14_14 
REMARK    3  A    between atoms: C14_14  and  C16_16 
REMARK    4  A    between atoms: C16_16  and  C17_17 
REMARK    5  A    between atoms: C17_17  and  C18_18 
REMARK    6  A    between atoms: C19_19  and  C21_21 
REMARK    7  A    between atoms: C21_21  and  O2_23 
REMARK    8  A    between atoms: C27_29  and  C28_30 
REMARK    9  A    between atoms: C28_30  and  C29_31 
REMARK   10  A    between atoms: C29_31  and  C30_32 
REMARK   11  A    between atoms: C30_32  and  O4_34 
REMARK   12  A    between atoms: O4_34  and  C31_35 
ROOT
HETATM    1  C4  UNL     1      -6.294   7.811  15.559  1.00  0.00     0.022 C 
HETATM    2  C5  UNL     1      -5.552   9.118  15.877  1.00  0.00     0.010 C 
HETATM    3  C6  UNL     1      -4.057   8.859  15.930  1.00  0.00     0.007 C 
HETATM    4  C7  UNL     1      -3.489   8.537  14.535  1.00  0.00     0.004 C 
HETATM    5  C8  UNL     1      -4.278   7.409  13.808  1.00  0.00    -0.027 A 
HETATM    6  C9  UNL     1      -3.480   6.373  12.966  1.00  0.00     0.011 C 
HETATM    7  C10 UNL     1      -1.954   6.511  12.830  1.00  0.00     0.011 C 
HETATM    8  C11 UNL     1      -1.445   7.913  13.138  1.00  0.00    -0.032 C 
HETATM    9  C12 UNL     1      -1.940   8.862  12.019  1.00  0.00     0.016 C 
HETATM   10  C13 UNL     1       0.101   8.028  13.321  1.00  0.00    -0.002 C 
HETATM   11  C22 UNL     1       0.268   9.250  14.255  1.00  0.00     0.006 C 
HETATM   12  C23 UNL     1      -1.107   9.516  14.892  1.00  0.00     0.011 C 
HETATM   13  C24 UNL     1      -1.962   8.275  14.573  1.00  0.00    -0.032 C 
HETATM   14  C25 UNL     1      -1.650   7.200  15.666  1.00  0.00     0.016 C 
HETATM   15  C26 UNL     1      -5.521   7.888  13.069  1.00  0.00     0.022 A 
HETATM   16  C27 UNL     1      -5.732   7.073  14.319  1.00  0.00    -0.024 A 
ENDROOT
BRANCH  10  17
HETATM   17  C14 UNL     1       1.063   7.967  12.095  1.00  0.00    -0.014 C 
HETATM   18  C15 UNL     1       0.286   8.439  10.850  1.00  0.00     0.010 C 
BRANCH  17  19
HETATM   19  C16 UNL     1       1.730   6.597  11.806  1.00  0.00     0.008 C 
BRANCH  19  20
HETATM   20  C17 UNL     1       3.077   6.704  11.075  1.00  0.00     0.028 C 
BRANCH  20  21
HETATM   21  C18 UNL     1       2.904   6.567   9.585  1.00  0.00    -0.013 C 
HETATM   22  C19 UNL     1       3.173   5.504   8.799  1.00  0.00     0.008 C 
HETATM   23  C20 UNL     1       2.845   5.506   7.333  1.00  0.00     0.055 C 
BRANCH  22  24
HETATM   24  C21 UNL     1       3.779   4.239   9.272  1.00  0.00     0.171 C 
HETATM   25  O1  UNL     1       4.959   3.949   9.194  1.00  0.00    -0.646 OA
BRANCH  24  26
HETATM   26  O2  UNL     1       2.913   3.439   9.913  1.00  0.00    -0.773 OA
HETATM   27  H32 UNL     1       3.463   2.679  10.190  1.00  0.00     0.167 HD
ENDBRANCH  24  26
ENDBRANCH  22  24
ENDBRANCH  20  21
ENDBRANCH  19  20
ENDBRANCH  17  19
ENDBRANCH  10  17
BRANCH  16  28
HETATM   28  C28 UNL     1      -6.175   5.597  14.285  1.00  0.00     0.020 C 
BRANCH  28  29
HETATM   29  C29 UNL     1      -7.182   5.196  13.217  1.00  0.00     0.112 C 
BRANCH  29  30
HETATM   30  C30 UNL     1      -7.226   3.700  13.034  1.00  0.00     0.258 C 
HETATM   31  O3  UNL     1      -8.239   3.025  13.156  1.00  0.00    -0.265 OA
BRANCH  30  32
HETATM   32  O4  UNL     1      -5.987   3.216  12.744  1.00  0.00    -0.322 OA
BRANCH  32  33
HETATM   33  C31 UNL     1      -5.785   2.799  11.386  1.00  0.00     0.174 C 
HETATM   34  C32 UNL     1      -5.861   1.287  11.275  1.00  0.00     0.034 C 
ENDBRANCH  32  33
ENDBRANCH  30  32
ENDBRANCH  29  30
ENDBRANCH  28  29
ENDBRANCH  16  28
BRANCH   1  35
HETATM   35  C2  UNL     1      -7.805   8.046  15.544  1.00  0.00    -0.088 C 
HETATM   36  C1  UNL     1      -8.326   9.190  15.066  1.00  0.00     0.014 C 
HETATM   37  C3  UNL     1      -8.709   6.963  16.067  1.00  0.00     0.043 C 
ENDBRANCH   1  35
TORSDOF 12
ENDMDL
MODEL 4
REMARK minimizedAffinity -6.54379606
REMARK CNNscore 0.240923792
REMARK CNNaffinity 5.51022911
REMARK  12 active torsions:
REMARK  status: ('A' for Active; 'I' for Inactive)
REMARK    1  A    between atoms: C2_2  and  C4_4 
REMARK    2  A    between atoms: C13_13  and  C14_14 
REMARK    3  A    between atoms: C14_14  and  C16_16 
REMARK    4  A    between atoms: C16_16  and  C17_17 
REMARK    5  A    between atoms: C17_17  and  C18_18 
REMARK    6  A    between atoms: C19_19  and  C21_21 
REMARK    7  A    between atoms: C21_21  and  O2_23 
REMARK    8  A    between atoms: C27_29  and  C28_30 
REMARK    9  A    between atoms: C28_30  and  C29_31 
REMARK   10  A    between atoms: C29_31  and  C30_32 
REMARK   11  A    between atoms: C30_32  and  O4_34 
REMARK   12  A    between atoms: O4_34  and  C31_35 
ROOT
HETATM    1  C4  UNL     1       4.048   8.459  10.379  1.00  0.00     0.022 C 
HETATM    2  C5  UNL     1       5.369   9.067   9.883  1.00  0.00     0.010 C 
HETATM    3  C6  UNL     1       5.954   9.966  10.957  1.00  0.00     0.007 C 
HETATM    4  C7  UNL     1       6.449   9.153  12.168  1.00  0.00     0.004 C 
HETATM    5  C8  UNL     1       5.371   8.171  12.715  1.00  0.00    -0.027 A 
HETATM    6  C9  UNL     1       5.257   7.983  14.255  1.00  0.00     0.011 C 
HETATM    7  C10 UNL     1       6.228   8.721  15.190  1.00  0.00     0.011 C 
HETATM    8  C11 UNL     1       7.502   9.184  14.493  1.00  0.00    -0.032 C 
HETATM    9  C12 UNL     1       8.329   7.930  14.118  1.00  0.00     0.016 C 
HETATM   10  C13 UNL     1       8.366  10.199  15.306  1.00  0.00    -0.002 C 
HETATM   11  C22 UNL     1       9.117  10.995  14.213  1.00  0.00     0.006 C 
HETATM   12  C23 UNL     1       8.384  10.733  12.886  1.00  0.00     0.011 C 
HETATM   13  C24 UNL     1       7.054  10.057  13.270  1.00  0.00    -0.032 C 
HETATM   14  C25 UNL     1       6.038  11.193  13.622  1.00  0.00     0.016 C 
HETATM   15  C26 UNL     1       5.309   6.836  11.984  1.00  0.00     0.022 A 
HETATM   16  C27 UNL     1       4.164   7.793  11.772  1.00  0.00    -0.024 A 
ENDROOT
BRANCH  10  17
HETATM   17  C14 UNL     1       9.223   9.731  16.523  1.00  0.00    -0.014 C 
HETATM   18  C15 UNL     1       9.215   8.190  16.553  1.00  0.00     0.010 C 
BRANCH  17  19
HETATM   19  C16 UNL     1       8.811  10.284  17.912  1.00  0.00     0.008 C 
BRANCH  19  20
HETATM   20  C17 UNL     1       9.996  10.740  18.776  1.00  0.00     0.028 C 
BRANCH  20  21
HETATM   21  C18 UNL     1      11.195  11.076  17.928  1.00  0.00    -0.013 C 
HETATM   22  C19 UNL     1      12.287  11.796  18.258  1.00  0.00     0.008 C 
HETATM   23  C20 UNL     1      13.444  11.951  17.312  1.00  0.00     0.055 C 
BRANCH  22  24
HETATM   24  C21 UNL     1      12.485  12.477  19.557  1.00  0.00     0.171 C 
HETATM   25  O1  UNL     1      13.088  12.017  20.510  1.00  0.00    -0.646 OA
BRANCH  24  26
HETATM   26  O2  UNL     1      12.017  13.734  19.578  1.00  0.00    -0.773 OA
HETATM   27  H32 UNL     1      12.253  14.053  20.471  1.00  0.00     0.167 HD
ENDBRANCH  24  26
ENDBRANCH  22  24
ENDBRANCH  20  21
ENDBRANCH  19  20
ENDBRANCH  17  19
ENDBRANCH  10  17
BRANCH  16  28
HETATM   28  C28 UNL     1       2.783   7.597  12.427  1.00  0.00     0.020 C 
BRANCH  28  29
HETATM   29  C29 UNL     1       1.810   8.766  12.364  1.00  0.00     0.112 C 
BRANCH  29  30
HETATM   30  C30 UNL     1       0.425   8.311  11.980  1.00  0.00     0.258 C 
HETATM   31  O3  UNL     1      -0.601   8.730  12.497  1.00  0.00    -0.265 OA
BRANCH  30  32
HETATM   32  O4  UNL     1       0.486   7.361  11.007  1.00  0.00    -0.322 OA
BRANCH  32  33
HETATM   33  C31 UNL     1      -0.332   6.200  11.220  1.00  0.00     0.174 C 
HETATM   34  C32 UNL     1       0.532   4.981  11.486  1.00  0.00     0.034 C 
ENDBRANCH  32  33
ENDBRANCH  30  32
ENDBRANCH  29  30
ENDBRANCH  28  29
ENDBRANCH  16  28
BRANCH   1  35
HETATM   35  C2  UNL     1       3.423   7.583   9.292  1.00  0.00    -0.088 C 
HETATM   36  C1  UNL     1       3.435   6.242   9.387  1.00  0.00     0.014 C 
HETATM   37  C3  UNL     1       2.779   8.253   8.108  1.00  0.00     0.043 C 
ENDBRANCH   1  35
TORSDOF 12
ENDMDL
MODEL 5
REMARK minimizedAffinity -7.87779236
REMARK CNNscore 0.225911349
REMARK CNNaffinity 6.80852699
REMARK  12 active torsions:
REMARK  status: ('A' for Active; 'I' for Inactive)
REMARK    1  A    between atoms: C2_2  and  C4_4 
REMARK    2  A    between atoms: C13_13  and  C14_14 
REMARK    3  A    between atoms: C14_14  and  C16_16 
REMARK    4  A    between atoms: C16_16  and  C17_17 
REMARK    5  A    between atoms: C17_17  and  C18_18 
REMARK    6  A    between atoms: C19_19  and  C21_21 
REMARK    7  A    between atoms: C21_21  and  O2_23 
REMARK    8  A    between atoms: C27_29  and  C28_30 
REMARK    9  A    between atoms: C28_30  and  C29_31 
REMARK   10  A    between atoms: C29_31  and  C30_32 
REMARK   11  A    between atoms: C30_32  and  O4_34 
REMARK   12  A    between atoms: O4_34  and  C31_35 
ROOT
HETATM    1  C4  UNL     1      -5.470   7.475  15.577  1.00  0.00     0.022 C 
HETATM    2  C5  UNL     1      -4.560   8.687  15.830  1.00  0.00     0.010 C 
HETATM    3  C6  UNL     1      -3.105   8.254  15.779  1.00  0.00     0.007 C 
HETATM    4  C7  UNL     1      -2.680   7.869  14.349  1.00  0.00     0.004 C 
HETATM    5  C8  UNL     1      -3.646   6.842  13.690  1.00  0.00    -0.027 A 
HETATM    6  C9  UNL     1      -3.036   5.720  12.801  1.00  0.00     0.011 C 
HETATM    7  C10 UNL     1      -1.519   5.678  12.555  1.00  0.00     0.011 C 
HETATM    8  C11 UNL     1      -0.829   7.011  12.815  1.00  0.00    -0.032 C 
HETATM    9  C12 UNL     1      -1.289   8.012  11.726  1.00  0.00     0.016 C 
HETATM   10  C13 UNL     1       0.730   6.945  12.886  1.00  0.00    -0.002 C 
HETATM   11  C22 UNL     1       1.104   8.139  13.796  1.00  0.00     0.006 C 
HETATM   12  C23 UNL     1      -0.181   8.564  14.528  1.00  0.00     0.011 C 
HETATM   13  C24 UNL     1      -1.196   7.431  14.281  1.00  0.00    -0.032 C 
HETATM   14  C25 UNL     1      -0.933   6.326  15.356  1.00  0.00     0.016 C 
HETATM   15  C26 UNL     1      -4.874   7.463  13.037  1.00  0.00     0.022 A 
HETATM   16  C27 UNL     1      -5.089   6.677  14.305  1.00  0.00    -0.024 A 
ENDROOT
BRANCH  10  17
HETATM   17  C14 UNL     1       1.587   6.773  11.595  1.00  0.00    -0.014 C 
HETATM   18  C15 UNL     1       1.232   5.414  10.959  1.00  0.00     0.010 C 
BRANCH  17  19
HETATM   19  C16 UNL     1       3.125   6.884  11.766  1.00  0.00     0.008 C 
BRANCH  19  20
HETATM   20  C17 UNL     1       3.854   7.386  10.511  1.00  0.00     0.028 C 
BRANCH  20  21
HETATM   21  C18 UNL     1       3.452   6.598   9.291  1.00  0.00    -0.013 C 
HETATM   22  C19 UNL     1       2.765   7.013   8.207  1.00  0.00     0.008 C 
HETATM   23  C20 UNL     1       2.535   6.111   7.028  1.00  0.00     0.055 C 
BRANCH  22  24
HETATM   24  C21 UNL     1       2.194   8.369   8.041  1.00  0.00     0.171 C 
HETATM   25  O1  UNL     1       1.082   8.715   8.399  1.00  0.00    -0.646 OA
BRANCH  24  26
HETATM   26  O2  UNL     1       3.064   9.257   7.537  1.00  0.00    -0.773 OA
HETATM   27  H32 UNL     1       2.558  10.093   7.525  1.00  0.00     0.167 HD
ENDBRANCH  24  26
ENDBRANCH  22  24
ENDBRANCH  20  21
ENDBRANCH  19  20
ENDBRANCH  17  19
ENDBRANCH  10  17
BRANCH  16  28
HETATM   28  C28 UNL     1      -5.702   5.263  14.315  1.00  0.00     0.020 C 
BRANCH  28  29
HETATM   29  C29 UNL     1      -6.897   5.016  13.406  1.00  0.00     0.112 C 
BRANCH  29  30
HETATM   30  C30 UNL     1      -6.623   3.904  12.425  1.00  0.00     0.258 C 
HETATM   31  O3  UNL     1      -5.644   3.862  11.694  1.00  0.00    -0.265 OA
BRANCH  30  32
HETATM   32  O4  UNL     1      -7.623   2.981  12.455  1.00  0.00    -0.322 OA
BRANCH  32  33
HETATM   33  C31 UNL     1      -7.204   1.612  12.562  1.00  0.00     0.174 C 
HETATM   34  C32 UNL     1      -6.299   1.240  11.402  1.00  0.00     0.034 C 
ENDBRANCH  32  33
ENDBRANCH  30  32
ENDBRANCH  29  30
ENDBRANCH  28  29
ENDBRANCH  16  28
BRANCH   1  35
HETATM   35  C2  UNL     1      -6.941   7.885  15.667  1.00  0.00    -0.088 C 
HETATM   36  C1  UNL     1      -7.419   8.921  14.955  1.00  0.00     0.014 C 
HETATM   37  C3  UNL     1      -7.855   7.098  16.567  1.00  0.00     0.043 C 
ENDBRANCH   1  35
TORSDOF 12
ENDMDL
MODEL 6
REMARK minimizedAffinity -6.31467485
REMARK CNNscore 0.19569619
REMARK CNNaffinity 5.72611475
REMARK  12 active torsions:
REMARK  status: ('A' for Active; 'I' for Inactive)
REMARK    1  A    between atoms: C2_2  and  C4_4 
REMARK    2  A    between atoms: C13_13  and  C14_14 
REMARK    3  A    between atoms: C14_14  and  C16_16 
REMARK    4  A    between atoms: C16_16  and  C17_17 
REMARK    5  A    between atoms: C17_17  and  C18_18 
REMARK    6  A    between atoms: C19_19  and  C21_21 
REMARK    7  A    between atoms: C21_21  and  O2_23 
REMARK    8  A    between atoms: C27_29  and  C28_30 
REMARK    9  A    between atoms: C28_30  and  C29_31 
REMARK   10  A    between atoms: C29_31  and  C30_32 
REMARK   11  A    between atoms: C30_32  and  O4_34 
REMARK   12  A    between atoms: O4_34  and  C31_35 
ROOT
HETATM    1  C4  UNL     1      -6.035 -10.602  -0.974  1.00  0.00     0.022 C 
HETATM    2  C5  UNL     1      -5.044 -11.642  -0.430  1.00  0.00     0.010 C 
HETATM    3  C6  UNL     1      -4.395 -11.117   0.839  1.00  0.00     0.007 C 
HETATM    4  C7  UNL     1      -5.403 -11.045   2.001  1.00  0.00     0.004 C 
HETATM    5  C8  UNL     1      -6.706 -10.283   1.622  1.00  0.00    -0.027 A 
HETATM    6  C9  UNL     1      -7.357  -9.355   2.688  1.00  0.00     0.011 C 
HETATM    7  C10 UNL     1      -6.736  -9.249   4.091  1.00  0.00     0.011 C 
HETATM    8  C11 UNL     1      -5.831 -10.424   4.440  1.00  0.00    -0.032 C 
HETATM    9  C12 UNL     1      -6.716 -11.686   4.590  1.00  0.00     0.016 C 
HETATM   10  C13 UNL     1      -4.939 -10.216   5.705  1.00  0.00    -0.002 C 
HETATM   11  C22 UNL     1      -3.718 -11.129   5.444  1.00  0.00     0.006 C 
HETATM   12  C23 UNL     1      -3.730 -11.473   3.944  1.00  0.00     0.011 C 
HETATM   13  C24 UNL     1      -4.754 -10.516   3.304  1.00  0.00    -0.032 C 
HETATM   14  C25 UNL     1      -4.012  -9.173   3.003  1.00  0.00     0.016 C 
HETATM   15  C26 UNL     1      -7.751 -11.137   0.915  1.00  0.00     0.022 A 
HETATM   16  C27 UNL     1      -7.039 -10.096   0.091  1.00  0.00    -0.024 A 
ENDROOT
BRANCH  10  17
HETATM   17  C14 UNL     1      -5.550 -10.283   7.139  1.00  0.00    -0.014 C 
HETATM   18  C15 UNL     1      -6.143  -8.900   7.474  1.00  0.00     0.010 C 
BRANCH  17  19
HETATM   19  C16 UNL     1      -4.596 -10.732   8.276  1.00  0.00     0.008 C 
BRANCH  19  20
HETATM   20  C17 UNL     1      -4.729  -9.903   9.562  1.00  0.00     0.028 C 
BRANCH  20  21
HETATM   21  C18 UNL     1      -5.494 -10.653  10.622  1.00  0.00    -0.013 C 
HETATM   22  C19 UNL     1      -6.197 -10.161  11.662  1.00  0.00     0.008 C 
HETATM   23  C20 UNL     1      -6.987 -11.056  12.573  1.00  0.00     0.055 C 
BRANCH  22  24
HETATM   24  C21 UNL     1      -6.294  -8.724  12.008  1.00  0.00     0.171 C 
HETATM   25  O1  UNL     1      -6.531  -7.824  11.223  1.00  0.00    -0.646 OA
BRANCH  24  26
HETATM   26  O2  UNL     1      -6.197  -8.484  13.325  1.00  0.00    -0.773 OA
HETATM   27  H32 UNL     1      -6.316  -7.516  13.392  1.00  0.00     0.167 HD
ENDBRANCH  24  26
ENDBRANCH  22  24
ENDBRANCH  20  21
ENDBRANCH  19  20
ENDBRANCH  17  19
ENDBRANCH  10  17
BRANCH  16  28
HETATM   28  C28 UNL     1      -7.705  -8.774  -0.337  1.00  0.00     0.020 C 
BRANCH  28  29
HETATM   29  C29 UNL     1      -9.158  -8.839  -0.784  1.00  0.00     0.112 C 
BRANCH  29  30
HETATM   30  C30 UNL     1      -9.659  -7.488  -1.228  1.00  0.00     0.258 C 
HETATM   31  O3  UNL     1     -10.809  -7.100  -1.074  1.00  0.00    -0.265 OA
BRANCH  30  32
HETATM   32  O4  UNL     1      -8.667  -6.785  -1.839  1.00  0.00    -0.322 OA
BRANCH  32  33
HETATM   33  C31 UNL     1      -8.596  -6.921  -3.266  1.00  0.00     0.174 C 
HETATM   34  C32 UNL     1      -9.407  -5.834  -3.947  1.00  0.00     0.034 C 
ENDBRANCH  32  33
ENDBRANCH  30  32
ENDBRANCH  29  30
ENDBRANCH  28  29
ENDBRANCH  16  28
BRANCH   1  35
HETATM   35  C2  UNL     1      -6.666 -11.097  -2.276  1.00  0.00    -0.088 C 
HETATM   36  C1  UNL     1      -7.136 -12.352  -2.387  1.00  0.00     0.014 C 
HETATM   37  C3  UNL     1      -6.762 -10.146  -3.438  1.00  0.00     0.043 C 
ENDBRANCH   1  35
TORSDOF 12
ENDMDL
MODEL 7
REMARK minimizedAffinity -6.35748339
REMARK CNNscore 0.189264655
REMARK CNNaffinity 6.70411825
REMARK  12 active torsions:
REMARK  status: ('A' for Active; 'I' for Inactive)
REMARK    1  A    between atoms: C2_2  and  C4_4 
REMARK    2  A    between atoms: C13_13  and  C14_14 
REMARK    3  A    between atoms: C14_14  and  C16_16 
REMARK    4  A    between atoms: C16_16  and  C17_17 
REMARK    5  A    between atoms: C17_17  and  C18_18 
REMARK    6  A    between atoms: C19_19  and  C21_21 
REMARK    7  A    between atoms: C21_21  and  O2_23 
REMARK    8  A    between atoms: C27_29  and  C28_30 
REMARK    9  A    between atoms: C28_30  and  C29_31 
REMARK   10  A    between atoms: C29_31  and  C30_32 
REMARK   11  A    between atoms: C30_32  and  O4_34 
REMARK   12  A    between atoms: O4_34  and  C31_35 
ROOT
HETATM    1  C4  UNL     1      -3.724   3.614  12.547  1.00  0.00     0.022 C 
HETATM    2  C5  UNL     1      -5.047   3.606  11.765  1.00  0.00     0.010 C 
HETATM    3  C6  UNL     1      -6.203   3.874  12.713  1.00  0.00     0.007 C 
HETATM    4  C7  UNL     1      -6.184   5.324  13.233  1.00  0.00     0.004 C 
HETATM    5  C8  UNL     1      -4.803   5.734  13.823  1.00  0.00    -0.027 A 
HETATM    6  C9  UNL     1      -4.780   6.631  15.094  1.00  0.00     0.011 C 
HETATM    7  C10 UNL     1      -6.101   7.129  15.703  1.00  0.00     0.011 C 
HETATM    8  C11 UNL     1      -7.270   7.087  14.727  1.00  0.00    -0.032 C 
HETATM    9  C12 UNL     1      -7.018   8.149  13.629  1.00  0.00     0.016 C 
HETATM   10  C13 UNL     1      -8.678   7.278  15.374  1.00  0.00    -0.002 C 
HETATM   11  C22 UNL     1      -9.628   6.533  14.406  1.00  0.00     0.006 C 
HETATM   12  C23 UNL     1      -8.749   5.625  13.528  1.00  0.00     0.011 C 
HETATM   13  C24 UNL     1      -7.361   5.614  14.197  1.00  0.00    -0.032 C 
HETATM   14  C25 UNL     1      -7.392   4.522  15.317  1.00  0.00     0.016 C 
HETATM   15  C26 UNL     1      -3.792   6.210  12.787  1.00  0.00     0.022 A 
HETATM   16  C27 UNL     1      -3.542   4.871  13.432  1.00  0.00    -0.024 A 
ENDROOT
BRANCH  10  17
HETATM   17  C14 UNL     1      -9.156   8.681  15.858  1.00  0.00    -0.014 C 
HETATM   18  C15 UNL     1      -9.985   8.490  17.143  1.00  0.00     0.010 C 
BRANCH  17  19
HETATM   19  C16 UNL     1      -9.961   9.528  14.838  1.00  0.00     0.008 C 
BRANCH  19  20
HETATM   20  C17 UNL     1     -11.165  10.258  15.450  1.00  0.00     0.028 C 
BRANCH  20  21
HETATM   21  C18 UNL     1     -11.280  11.664  14.922  1.00  0.00    -0.013 C 
HETATM   22  C19 UNL     1     -10.531  12.743  15.226  1.00  0.00     0.008 C 
HETATM   23  C20 UNL     1     -10.722  14.058  14.525  1.00  0.00     0.055 C 
BRANCH  22  24
HETATM   24  C21 UNL     1      -9.446  12.758  16.234  1.00  0.00     0.171 C 
HETATM   25  O1  UNL     1      -9.606  12.807  17.440  1.00  0.00    -0.646 OA
BRANCH  24  26
HETATM   26  O2  UNL     1      -8.223  12.606  15.705  1.00  0.00    -0.773 OA
HETATM   27  H32 UNL     1      -7.634  12.599  16.485  1.00  0.00     0.167 HD
ENDBRANCH  24  26
ENDBRANCH  22  24
ENDBRANCH  20  21
ENDBRANCH  19  20
ENDBRANCH  17  19
ENDBRANCH  10  17
BRANCH  16  28
HETATM   28  C28 UNL     1      -2.463   4.655  14.512  1.00  0.00     0.020 C 
BRANCH  28  29
HETATM   29  C29 UNL     1      -1.469   5.785  14.739  1.00  0.00     0.112 C 
BRANCH  29  30
HETATM   30  C30 UNL     1      -0.376   5.774  13.701  1.00  0.00     0.258 C 
HETATM   31  O3  UNL     1       0.457   4.885  13.593  1.00  0.00    -0.265 OA
BRANCH  30  32
HETATM   32  O4  UNL     1      -0.435   6.895  12.931  1.00  0.00    -0.322 OA
BRANCH  32  33
HETATM   33  C31 UNL     1      -0.761   8.110  13.624  1.00  0.00     0.174 C 
HETATM   34  C32 UNL     1      -1.297   9.148  12.655  1.00  0.00     0.034 C 
ENDBRANCH  32  33
ENDBRANCH  30  32
ENDBRANCH  29  30
ENDBRANCH  28  29
ENDBRANCH  16  28
BRANCH   1  35
HETATM   35  C2  UNL     1      -2.553   3.303  11.614  1.00  0.00    -0.088 C 
HETATM   36  C1  UNL     1      -1.892   4.285  10.977  1.00  0.00     0.014 C 
HETATM   37  C3  UNL     1      -2.142   1.868  11.426  1.00  0.00     0.043 C 
ENDBRANCH   1  35
TORSDOF 12
ENDMDL
MODEL 8
REMARK minimizedAffinity -6.426507
REMARK CNNscore 0.182909548
REMARK CNNaffinity 5.52720213
REMARK  12 active torsions:
REMARK  status: ('A' for Active; 'I' for Inactive)
REMARK    1  A    between atoms: C2_2  and  C4_4 
REMARK    2  A    between atoms: C13_13  and  C14_14 
REMARK    3  A    between atoms: C14_14  and  C16_16 
REMARK    4  A    between atoms: C16_16  and  C17_17 
REMARK    5  A    between atoms: C17_17  and  C18_18 
REMARK    6  A    between atoms: C19_19  and  C21_21 
REMARK    7  A    between atoms: C21_21  and  O2_23 
REMARK    8  A    between atoms: C27_29  and  C28_30 
REMARK    9  A    between atoms: C28_30  and  C29_31 
REMARK   10  A    between atoms: C29_31  and  C30_32 
REMARK   11  A    between atoms: C30_32  and  O4_34 
REMARK   12  A    between atoms: O4_34  and  C31_35 
ROOT
HETATM    1  C4  UNL     1       3.970   8.275  10.387  1.00  0.00     0.022 C 
HETATM    2  C5  UNL     1       5.150   9.088   9.832  1.00  0.00     0.010 C 
HETATM    3  C6  UNL     1       5.749   9.939  10.937  1.00  0.00     0.007 C 
HETATM    4  C7  UNL     1       6.466   9.075  11.992  1.00  0.00     0.004 C 
HETATM    5  C8  UNL     1       5.574   7.918  12.529  1.00  0.00    -0.027 A 
HETATM    6  C9  UNL     1       5.657   7.561  14.041  1.00  0.00     0.011 C 
HETATM    7  C10 UNL     1       6.640   8.316  14.952  1.00  0.00     0.011 C 
HETATM    8  C11 UNL     1       7.766   9.000  14.187  1.00  0.00    -0.032 C 
HETATM    9  C12 UNL     1       8.680   7.902  13.590  1.00  0.00     0.016 C 
HETATM   10  C13 UNL     1       8.599  10.027  15.019  1.00  0.00    -0.002 C 
HETATM   11  C22 UNL     1       9.127  11.016  13.953  1.00  0.00     0.006 C 
HETATM   12  C23 UNL     1       8.281  10.801  12.686  1.00  0.00     0.011 C 
HETATM   13  C24 UNL     1       7.087   9.931  13.123  1.00  0.00    -0.032 C 
HETATM   14  C25 UNL     1       5.997  10.891  13.702  1.00  0.00     0.016 C 
HETATM   15  C26 UNL     1       5.578   6.665  11.661  1.00  0.00     0.022 A 
HETATM   16  C27 UNL     1       4.318   7.490  11.676  1.00  0.00    -0.024 A 
ENDROOT
BRANCH  10  17
HETATM   17  C14 UNL     1       9.635   9.548  16.082  1.00  0.00    -0.014 C 
HETATM   18  C15 UNL     1       9.086   8.271  16.748  1.00  0.00     0.010 C 
BRANCH  17  19
HETATM   19  C16 UNL     1      10.034  10.576  17.172  1.00  0.00     0.008 C 
BRANCH  19  20
HETATM   20  C17 UNL     1       9.005  10.712  18.304  1.00  0.00     0.028 C 
BRANCH  20  21
HETATM   21  C18 UNL     1       8.744  12.158  18.638  1.00  0.00    -0.013 C 
HETATM   22  C19 UNL     1       9.164  12.866  19.706  1.00  0.00     0.008 C 
HETATM   23  C20 UNL     1       8.891  14.338  19.832  1.00  0.00     0.055 C 
BRANCH  22  24
HETATM   24  C21 UNL     1       9.941  12.306  20.835  1.00  0.00     0.171 C 
HETATM   25  O1  UNL     1       9.481  11.646  21.749  1.00  0.00    -0.646 OA
BRANCH  24  26
HETATM   26  O2  UNL     1      11.264  12.500  20.722  1.00  0.00    -0.773 OA
HETATM   27  H32 UNL     1      11.631  12.049  21.508  1.00  0.00     0.167 HD
ENDBRANCH  24  26
ENDBRANCH  22  24
ENDBRANCH  20  21
ENDBRANCH  19  20
ENDBRANCH  17  19
ENDBRANCH  10  17
BRANCH  16  28
HETATM   28  C28 UNL     1       3.050   7.061  12.440  1.00  0.00     0.020 C 
BRANCH  28  29
HETATM   29  C29 UNL     1       1.863   8.012  12.412  1.00  0.00     0.112 C 
BRANCH  29  30
HETATM   30  C30 UNL     1       0.672   7.429  13.128  1.00  0.00     0.258 C 
HETATM   31  O3  UNL     1       0.680   7.084  14.301  1.00  0.00    -0.265 OA
BRANCH  30  32
HETATM   32  O4  UNL     1      -0.390   7.320  12.283  1.00  0.00    -0.322 OA
BRANCH  32  33
HETATM   33  C31 UNL     1      -0.121   6.681  11.026  1.00  0.00     0.174 C 
HETATM   34  C32 UNL     1      -0.374   5.188  11.122  1.00  0.00     0.034 C 
ENDBRANCH  32  33
ENDBRANCH  30  32
ENDBRANCH  29  30
ENDBRANCH  28  29
ENDBRANCH  16  28
BRANCH   1  35
HETATM   35  C2  UNL     1       3.327   7.443   9.275  1.00  0.00    -0.088 C 
HETATM   36  C1  UNL     1       3.270   6.102   9.355  1.00  0.00     0.014 C 
HETATM   37  C3  UNL     1       2.746   8.157   8.085  1.00  0.00     0.043 C 
ENDBRANCH   1  35
TORSDOF 12
ENDMDL
MODEL 9
REMARK minimizedAffinity -7.82862139
REMARK CNNscore 0.163596839
REMARK CNNaffinity 6.71836472
REMARK  12 active torsions:
REMARK  status: ('A' for Active; 'I' for Inactive)
REMARK    1  A    between atoms: C2_2  and  C4_4 
REMARK    2  A    between atoms: C13_13  and  C14_14 
REMARK    3  A    between atoms: C14_14  and  C16_16 
REMARK    4  A    between atoms: C16_16  and  C17_17 
REMARK    5  A    between atoms: C17_17  and  C18_18 
REMARK    6  A    between atoms: C19_19  and  C21_21 
REMARK    7  A    between atoms: C21_21  and  O2_23 
REMARK    8  A    between atoms: C27_29  and  C28_30 
REMARK    9  A    between atoms: C28_30  and  C29_31 
REMARK   10  A    between atoms: C29_31  and  C30_32 
REMARK   11  A    between atoms: C30_32  and  O4_34 
REMARK   12  A    between atoms: O4_34  and  C31_35 
ROOT
HETATM    1  C4  UNL     1      -0.075   7.821  13.181  1.00  0.00     0.022 C 
HETATM    2  C5  UNL     1      -0.652   8.816  14.199  1.00  0.00     0.010 C 
HETATM    3  C6  UNL     1      -2.132   9.026  13.928  1.00  0.00     0.007 C 
HETATM    4  C7  UNL     1      -2.952   7.766  14.261  1.00  0.00     0.004 C 
HETATM    5  C8  UNL     1      -2.384   6.482  13.587  1.00  0.00    -0.027 A 
HETATM    6  C9  UNL     1      -3.389   5.433  13.031  1.00  0.00     0.011 C 
HETATM    7  C10 UNL     1      -4.901   5.658  13.199  1.00  0.00     0.011 C 
HETATM    8  C11 UNL     1      -5.245   6.644  14.309  1.00  0.00    -0.032 C 
HETATM    9  C12 UNL     1      -4.878   5.990  15.664  1.00  0.00     0.016 C 
HETATM   10  C13 UNL     1      -6.724   7.142  14.313  1.00  0.00    -0.002 C 
HETATM   11  C22 UNL     1      -6.638   8.533  14.985  1.00  0.00     0.006 C 
HETATM   12  C23 UNL     1      -5.158   8.955  14.951  1.00  0.00     0.011 C 
HETATM   13  C24 UNL     1      -4.465   7.967  13.994  1.00  0.00    -0.032 C 
HETATM   14  C25 UNL     1      -4.665   8.507  12.540  1.00  0.00     0.016 C 
HETATM   15  C26 UNL     1      -1.253   5.815  14.360  1.00  0.00     0.022 A 
HETATM   16  C27 UNL     1      -0.893   6.511  13.073  1.00  0.00    -0.024 A 
ENDROOT
BRANCH  10  17
HETATM   17  C14 UNL     1      -7.883   6.218  14.800  1.00  0.00    -0.014 C 
HETATM   18  C15 UNL     1      -7.350   4.774  14.867  1.00  0.00     0.010 C 
BRANCH  17  19
HETATM   19  C16 UNL     1      -9.192   6.254  13.968  1.00  0.00     0.008 C 
BRANCH  19  20
HETATM   20  C17 UNL     1     -10.101   7.450  14.292  1.00  0.00     0.028 C 
BRANCH  20  21
HETATM   21  C18 UNL     1     -11.525   7.181  13.883  1.00  0.00    -0.013 C 
HETATM   22  C19 UNL     1     -12.384   7.994  13.233  1.00  0.00     0.008 C 
HETATM   23  C20 UNL     1     -13.748   7.525  12.814  1.00  0.00     0.055 C 
BRANCH  22  24
HETATM   24  C21 UNL     1     -12.089   9.392  12.844  1.00  0.00     0.171 C 
HETATM   25  O1  UNL     1     -11.969  10.328  13.613  1.00  0.00    -0.646 OA
BRANCH  24  26
HETATM   26  O2  UNL     1     -11.852   9.542  11.532  1.00  0.00    -0.773 OA
HETATM   27  H32 UNL     1     -11.640  10.492  11.443  1.00  0.00     0.167 HD
ENDBRANCH  24  26
ENDBRANCH  22  24
ENDBRANCH  20  21
ENDBRANCH  19  20
ENDBRANCH  17  19
ENDBRANCH  10  17
BRANCH  16  28
HETATM   28  C28 UNL     1      -0.573   5.746  11.774  1.00  0.00     0.020 C 
BRANCH  28  29
HETATM   29  C29 UNL     1       0.275   6.463  10.734  1.00  0.00     0.112 C 
BRANCH  29  30
HETATM   30  C30 UNL     1       1.439   5.613  10.290  1.00  0.00     0.258 C 
HETATM   31  O3  UNL     1       1.904   4.692  10.948  1.00  0.00    -0.265 OA
BRANCH  30  32
HETATM   32  O4  UNL     1       1.906   6.032   9.082  1.00  0.00    -0.322 OA
BRANCH  32  33
HETATM   33  C31 UNL     1       1.959   7.454   8.895  1.00  0.00     0.174 C 
HETATM   34  C32 UNL     1       1.849   7.802   7.421  1.00  0.00     0.034 C 
ENDBRANCH  32  33
ENDBRANCH  30  32
ENDBRANCH  29  30
ENDBRANCH  28  29
ENDBRANCH  16  28
BRANCH   1  35
HETATM   35  C2  UNL     1       1.425   7.631  13.414  1.00  0.00    -0.088 C 
HETATM   36  C1  UNL     1       1.882   6.722  14.293  1.00  0.00     0.014 C 
HETATM   37  C3  UNL     1       2.389   8.478  12.629  1.00  0.00     0.043 C 
ENDBRANCH   1  35
TORSDOF 12
ENDMDL
