MODEL 1
REMARK minimizedAffinity -7.86092567
REMARK CNNscore 0.814368069
REMARK CNNaffinity 7.22507095
REMARK  6 active torsions:
REMARK  status: ('A' for Active; 'I' for Inactive)
REMARK    1  A    between atoms: C4_4  and  C5_5 
REMARK    2  A    between atoms: C5_5  and  O1_6 
REMARK    3  A    between atoms: C5_5  and  C6_7 
REMARK    4  A    between atoms: C6_7  and  C7_8 
REMARK    5  A    between atoms: C7_8  and  C9_10 
REMARK    6  A    between atoms: C30_32  and  O3_33 
ROOT
HETATM    1  C9  UNL     1       4.907  55.304  -8.898  1.00  0.00    -0.002 C 
HETATM    2  C10 UNL     1       4.194  56.493  -8.193  1.00  0.00     0.007 C 
HETATM    3  C11 UNL     1       2.689  56.357  -8.464  1.00  0.00     0.015 C 
HETATM    4  C12 UNL     1       2.576  55.372  -9.641  1.00  0.00    -0.010 C 
HETATM    5  C13 UNL     1       2.852  56.197 -10.939  1.00  0.00     0.021 C 
HETATM    6  C14 UNL     1       1.257  54.637  -9.932  1.00  0.00    -0.039 C 
HETATM    7  C15 UNL     1       1.283  53.434 -10.567  1.00  0.00    -0.066 C 
HETATM    8  C16 UNL     1       2.622  52.739 -10.875  1.00  0.00     0.036 C 
HETATM    9  C17 UNL     1       3.928  53.431 -10.449  1.00  0.00     0.015 C 
HETATM   10  C18 UNL     1       3.717  54.353  -9.247  1.00  0.00    -0.029 C 
HETATM   11  C19 UNL     1       3.356  53.487  -8.002  1.00  0.00     0.016 C 
HETATM   12  C20 UNL     1      -0.010  52.676 -11.025  1.00  0.00    -0.015 C 
HETATM   13  C21 UNL     1       0.235  52.170 -12.469  1.00  0.00     0.020 C 
HETATM   14  C22 UNL     1      -0.206  51.474 -10.062  1.00  0.00     0.021 C 
HETATM   15  C23 UNL     1      -1.483  50.689 -10.303  1.00  0.00     0.080 C 
HETATM   16  C24 UNL     1      -2.689  51.590 -10.226  1.00  0.00     0.135 C 
HETATM   17  O2  UNL     1      -3.650  51.280  -9.520  1.00  0.00    -0.297 OA
HETATM   18  C25 UNL     1      -2.700  52.835 -11.123  1.00  0.00     0.018 C 
HETATM   19  C26 UNL     1      -3.023  52.384 -12.563  1.00  0.00     0.023 C 
HETATM   20  C27 UNL     1      -3.888  53.739 -10.703  1.00  0.00     0.023 C 
HETATM   21  C28 UNL     1      -1.305  53.592 -11.002  1.00  0.00     0.016 C 
HETATM   22  C29 UNL     1      -1.274  54.469  -9.736  1.00  0.00     0.043 C 
HETATM   23  C30 UNL     1      -0.034  55.348  -9.624  1.00  0.00     0.148 C 
ENDROOT
BRANCH   1  24
HETATM   24  C7  UNL     1       6.127  54.785  -8.069  1.00  0.00    -0.011 C 
HETATM   25  C8  UNL     1       7.059  53.901  -8.901  1.00  0.00     0.010 C 
BRANCH  24  26
HETATM   26  C6  UNL     1       6.896  55.996  -7.451  1.00  0.00     0.040 C 
BRANCH  26  27
HETATM   27  C5  UNL     1       7.128  55.930  -5.931  1.00  0.00     0.141 C 
BRANCH  27  28
HETATM   28  C4  UNL     1       8.587  56.099  -5.583  1.00  0.00     0.006 C 
HETATM   29  C2  UNL     1       9.179  57.225  -5.131  1.00  0.00    -0.089 C 
HETATM   30  C1  UNL     1       8.458  58.522  -4.873  1.00  0.00     0.042 C 
HETATM   31  C3  UNL     1      10.654  57.259  -4.830  1.00  0.00     0.042 C 
ENDBRANCH  27  28
BRANCH  27  32
HETATM   32  O1  UNL     1       6.709  54.658  -5.448  1.00  0.00    -0.392 OA
HETATM   33  H9  UNL     1       7.490  54.080  -5.417  1.00  0.00     0.210 HD
ENDBRANCH  27  32
ENDBRANCH  26  27
ENDBRANCH  24  26
ENDBRANCH   1  24
BRANCH  23  34
HETATM   34  O3  UNL     1      -0.028  55.849  -8.293  1.00  0.00    -0.391 OA
HETATM   35  H48 UNL     1      -0.874  56.302  -8.146  1.00  0.00     0.210 HD
ENDBRANCH  23  34
TORSDOF 6
ENDMDL
MODEL 2
REMARK minimizedAffinity -7.15517998
REMARK CNNscore 0.806203783
REMARK CNNaffinity 7.13049555
REMARK  6 active torsions:
REMARK  status: ('A' for Active; 'I' for Inactive)
REMARK    1  A    between atoms: C4_4  and  C5_5 
REMARK    2  A    between atoms: C5_5  and  O1_6 
REMARK    3  A    between atoms: C5_5  and  C6_7 
REMARK    4  A    between atoms: C6_7  and  C7_8 
REMARK    5  A    between atoms: C7_8  and  C9_10 
REMARK    6  A    between atoms: C30_32  and  O3_33 
ROOT
HETATM    1  C9  UNL     1       4.988  54.716  -9.085  1.00  0.00    -0.002 C 
HETATM    2  C10 UNL     1       4.396  55.864  -8.219  1.00  0.00     0.007 C 
HETATM    3  C11 UNL     1       2.873  55.854  -8.415  1.00  0.00     0.015 C 
HETATM    4  C12 UNL     1       2.633  55.012  -9.681  1.00  0.00    -0.010 C 
HETATM    5  C13 UNL     1       2.899  55.954 -10.898  1.00  0.00     0.021 C 
HETATM    6  C14 UNL     1       1.253  54.398  -9.971  1.00  0.00    -0.039 C 
HETATM    7  C15 UNL     1       1.164  53.272 -10.730  1.00  0.00    -0.066 C 
HETATM    8  C16 UNL     1       2.435  52.532 -11.186  1.00  0.00     0.036 C 
HETATM    9  C17 UNL     1       3.805  53.090 -10.766  1.00  0.00     0.015 C 
HETATM   10  C18 UNL     1       3.720  53.886  -9.464  1.00  0.00    -0.029 C 
HETATM   11  C19 UNL     1       3.363  52.914  -8.298  1.00  0.00     0.016 C 
HETATM   12  C20 UNL     1      -0.199  52.651 -11.190  1.00  0.00    -0.015 C 
HETATM   13  C21 UNL     1      -0.064  52.292 -12.691  1.00  0.00     0.020 C 
HETATM   14  C22 UNL     1      -0.429  51.367 -10.350  1.00  0.00     0.021 C 
HETATM   15  C23 UNL     1      -1.767  50.695 -10.598  1.00  0.00     0.080 C 
HETATM   16  C24 UNL     1      -2.903  51.656 -10.356  1.00  0.00     0.135 C 
HETATM   17  O2  UNL     1      -3.846  51.332  -9.633  1.00  0.00    -0.297 OA
HETATM   18  C25 UNL     1      -2.873  52.990 -11.114  1.00  0.00     0.018 C 
HETATM   19  C26 UNL     1      -3.300  52.720 -12.574  1.00  0.00     0.023 C 
HETATM   20  C27 UNL     1      -3.974  53.916 -10.533  1.00  0.00     0.023 C 
HETATM   21  C28 UNL     1      -1.426  53.640 -10.995  1.00  0.00     0.016 C 
HETATM   22  C29 UNL     1      -1.271  54.369  -9.647  1.00  0.00     0.043 C 
HETATM   23  C30 UNL     1       0.031  55.151  -9.516  1.00  0.00     0.148 C 
ENDROOT
BRANCH   1  24
HETATM   24  C7  UNL     1       6.211  54.034  -8.388  1.00  0.00    -0.011 C 
HETATM   25  C8  UNL     1       5.909  53.646  -6.939  1.00  0.00     0.010 C 
BRANCH  24  26
HETATM   26  C6  UNL     1       6.668  52.797  -9.223  1.00  0.00     0.040 C 
BRANCH  26  27
HETATM   27  C5  UNL     1       6.501  51.431  -8.533  1.00  0.00     0.141 C 
BRANCH  27  28
HETATM   28  C4  UNL     1       7.813  50.693  -8.433  1.00  0.00     0.006 C 
HETATM   29  C2  UNL     1       8.490  50.407  -7.299  1.00  0.00    -0.089 C 
HETATM   30  C1  UNL     1       8.021  50.766  -5.915  1.00  0.00     0.042 C 
HETATM   31  C3  UNL     1       9.801  49.668  -7.344  1.00  0.00     0.042 C 
ENDBRANCH  27  28
BRANCH  27  32
HETATM   32  O1  UNL     1       5.605  50.627  -9.295  1.00  0.00    -0.392 OA
HETATM   33  H9  UNL     1       6.138  50.069  -9.886  1.00  0.00     0.210 HD
ENDBRANCH  27  32
ENDBRANCH  26  27
ENDBRANCH  24  26
ENDBRANCH   1  24
BRANCH  23  34
HETATM   34  O3  UNL     1       0.139  55.502  -8.141  1.00  0.00    -0.391 OA
HETATM   35  H48 UNL     1      -0.664  55.989  -7.898  1.00  0.00     0.210 HD
ENDBRANCH  23  34
TORSDOF 6
ENDMDL
MODEL 3
REMARK minimizedAffinity -7.38678741
REMARK CNNscore 0.74224329
REMARK CNNaffinity 6.79019022
REMARK  6 active torsions:
REMARK  status: ('A' for Active; 'I' for Inactive)
REMARK    1  A    between atoms: C4_4  and  C5_5 
REMARK    2  A    between atoms: C5_5  and  O1_6 
REMARK    3  A    between atoms: C5_5  and  C6_7 
REMARK    4  A    between atoms: C6_7  and  C7_8 
REMARK    5  A    between atoms: C7_8  and  C9_10 
REMARK    6  A    between atoms: C30_32  and  O3_33 
ROOT
HETATM    1  C9  UNL     1       1.407  54.877 -10.014  1.00  0.00    -0.002 C 
HETATM    2  C10 UNL     1       2.399  54.069 -10.898  1.00  0.00     0.007 C 
HETATM    3  C11 UNL     1       3.800  54.232 -10.291  1.00  0.00     0.015 C 
HETATM    4  C12 UNL     1       3.693  55.441  -9.344  1.00  0.00    -0.010 C 
HETATM    5  C13 UNL     1       3.805  56.717 -10.237  1.00  0.00     0.021 C 
HETATM    6  C14 UNL     1       4.729  55.664  -8.229  1.00  0.00    -0.039 C 
HETATM    7  C15 UNL     1       4.375  56.354  -7.111  1.00  0.00    -0.066 C 
HETATM    8  C16 UNL     1       2.915  56.791  -6.888  1.00  0.00     0.036 C 
HETATM    9  C17 UNL     1       1.867  56.433  -7.956  1.00  0.00     0.015 C 
HETATM   10  C18 UNL     1       2.257  55.179  -8.738  1.00  0.00    -0.029 C 
HETATM   11  C19 UNL     1       2.216  53.951  -7.779  1.00  0.00     0.016 C 
HETATM   12  C20 UNL     1       5.392  56.747  -5.986  1.00  0.00    -0.015 C 
HETATM   13  C21 UNL     1       5.124  58.227  -5.612  1.00  0.00     0.020 C 
HETATM   14  C22 UNL     1       5.113  55.828  -4.767  1.00  0.00     0.021 C 
HETATM   15  C23 UNL     1       6.088  56.008  -3.618  1.00  0.00     0.080 C 
HETATM   16  C24 UNL     1       7.508  55.800  -4.082  1.00  0.00     0.135 C 
HETATM   17  O2  UNL     1       8.256  55.039  -3.467  1.00  0.00    -0.297 OA
HETATM   18  C25 UNL     1       7.991  56.636  -5.274  1.00  0.00     0.018 C 
HETATM   19  C26 UNL     1       8.275  58.068  -4.770  1.00  0.00     0.023 C 
HETATM   20  C27 UNL     1       9.365  56.088  -5.741  1.00  0.00     0.023 C 
HETATM   21  C28 UNL     1       6.905  56.586  -6.437  1.00  0.00     0.016 C 
HETATM   22  C29 UNL     1       7.048  55.287  -7.253  1.00  0.00     0.043 C 
HETATM   23  C30 UNL     1       6.148  55.230  -8.482  1.00  0.00     0.148 C 
ENDROOT
BRANCH   1  24
HETATM   24  C7  UNL     1       0.019  54.166  -9.899  1.00  0.00    -0.011 C 
HETATM   25  C8  UNL     1      -1.147  55.131 -10.127  1.00  0.00     0.010 C 
BRANCH  24  26
HETATM   26  C6  UNL     1      -0.038  52.963 -10.892  1.00  0.00     0.040 C 
BRANCH  26  27
HETATM   27  C5  UNL     1      -1.297  52.890 -11.776  1.00  0.00     0.141 C 
BRANCH  27  28
HETATM   28  C4  UNL     1      -2.256  51.830 -11.292  1.00  0.00     0.006 C 
HETATM   29  C2  UNL     1      -3.517  52.029 -10.851  1.00  0.00    -0.089 C 
HETATM   30  C1  UNL     1      -4.195  53.372 -10.790  1.00  0.00     0.042 C 
HETATM   31  C3  UNL     1      -4.367  50.877 -10.385  1.00  0.00     0.042 C 
ENDBRANCH  27  28
BRANCH  27  32
HETATM   32  O1  UNL     1      -0.916  52.558 -13.107  1.00  0.00    -0.392 OA
HETATM   33  H9  UNL     1      -1.000  51.595 -13.209  1.00  0.00     0.210 HD
ENDBRANCH  27  32
ENDBRANCH  26  27
ENDBRANCH  24  26
ENDBRANCH   1  24
BRANCH  23  34
HETATM   34  O3  UNL     1       6.188  53.881  -8.933  1.00  0.00    -0.391 OA
HETATM   35  H48 UNL     1       7.118  53.651  -9.088  1.00  0.00     0.210 HD
ENDBRANCH  23  34
TORSDOF 6
ENDMDL
MODEL 4
REMARK minimizedAffinity -7.58041763
REMARK CNNscore 0.710350454
REMARK CNNaffinity 7.04952574
REMARK  6 active torsions:
REMARK  status: ('A' for Active; 'I' for Inactive)
REMARK    1  A    between atoms: C4_4  and  C5_5 
REMARK    2  A    between atoms: C5_5  and  O1_6 
REMARK    3  A    between atoms: C5_5  and  C6_7 
REMARK    4  A    between atoms: C6_7  and  C7_8 
REMARK    5  A    between atoms: C7_8  and  C9_10 
REMARK    6  A    between atoms: C30_32  and  O3_33 
ROOT
HETATM    1  C9  UNL     1       4.155  54.878  -8.591  1.00  0.00    -0.002 C 
HETATM    2  C10 UNL     1       4.793  54.223  -9.850  1.00  0.00     0.007 C 
HETATM    3  C11 UNL     1       3.679  53.478 -10.599  1.00  0.00     0.015 C 
HETATM    4  C12 UNL     1       2.528  53.343  -9.586  1.00  0.00    -0.010 C 
HETATM    5  C13 UNL     1       2.883  52.128  -8.670  1.00  0.00     0.021 C 
HETATM    6  C14 UNL     1       1.092  53.057 -10.056  1.00  0.00    -0.039 C 
HETATM    7  C15 UNL     1       0.042  53.460  -9.290  1.00  0.00    -0.066 C 
HETATM    8  C16 UNL     1       0.272  54.315  -8.030  1.00  0.00     0.036 C 
HETATM    9  C17 UNL     1       1.712  54.706  -7.657  1.00  0.00     0.015 C 
HETATM   10  C18 UNL     1       2.624  54.754  -8.882  1.00  0.00    -0.029 C 
HETATM   11  C19 UNL     1       2.171  55.926  -9.805  1.00  0.00     0.016 C 
HETATM   12  C20 UNL     1      -1.448  53.098  -9.616  1.00  0.00    -0.015 C 
HETATM   13  C21 UNL     1      -2.117  52.644  -8.294  1.00  0.00     0.020 C 
HETATM   14  C22 UNL     1      -2.130  54.387 -10.147  1.00  0.00     0.021 C 
HETATM   15  C23 UNL     1      -3.561  54.184 -10.613  1.00  0.00     0.080 C 
HETATM   16  C24 UNL     1      -3.633  53.110 -11.670  1.00  0.00     0.135 C 
HETATM   17  O2  UNL     1      -4.228  53.322 -12.728  1.00  0.00    -0.297 OA
HETATM   18  C25 UNL     1      -3.027  51.743 -11.331  1.00  0.00     0.018 C 
HETATM   19  C26 UNL     1      -4.006  51.004 -10.393  1.00  0.00     0.023 C 
HETATM   20  C27 UNL     1      -2.978  50.887 -12.624  1.00  0.00     0.023 C 
HETATM   21  C28 UNL     1      -1.582  51.943 -10.696  1.00  0.00     0.016 C 
HETATM   22  C29 UNL     1      -0.532  52.167 -11.800  1.00  0.00     0.043 C 
HETATM   23  C30 UNL     1       0.903  52.213 -11.287  1.00  0.00     0.148 C 
ENDROOT
BRANCH   1  24
HETATM   24  C7  UNL     1       4.797  56.267  -8.271  1.00  0.00    -0.011 C 
HETATM   25  C8  UNL     1       3.789  57.246  -7.665  1.00  0.00     0.010 C 
BRANCH  24  26
HETATM   26  C6  UNL     1       6.031  56.072  -7.335  1.00  0.00     0.040 C 
BRANCH  26  27
HETATM   27  C5  UNL     1       5.840  56.533  -5.878  1.00  0.00     0.141 C 
BRANCH  27  28
HETATM   28  C4  UNL     1       6.894  57.533  -5.468  1.00  0.00     0.006 C 
HETATM   29  C2  UNL     1       8.215  57.292  -5.320  1.00  0.00    -0.089 C 
HETATM   30  C1  UNL     1       8.871  55.960  -5.570  1.00  0.00     0.042 C 
HETATM   31  C3  UNL     1       9.159  58.385  -4.894  1.00  0.00     0.042 C 
ENDBRANCH  27  28
BRANCH  27  32
HETATM   32  O1  UNL     1       5.945  55.408  -5.013  1.00  0.00    -0.392 OA
HETATM   33  H9  UNL     1       6.863  55.362  -4.696  1.00  0.00     0.210 HD
ENDBRANCH  27  32
ENDBRANCH  26  27
ENDBRANCH  24  26
ENDBRANCH   1  24
BRANCH  23  34
HETATM   34  O3  UNL     1       1.687  52.711 -12.365  1.00  0.00    -0.391 OA
HETATM   35  H48 UNL     1       1.538  52.133 -13.129  1.00  0.00     0.210 HD
ENDBRANCH  23  34
TORSDOF 6
ENDMDL
MODEL 5
REMARK minimizedAffinity -7.41473579
REMARK CNNscore 0.708910942
REMARK CNNaffinity 7.05460691
REMARK  6 active torsions:
REMARK  status: ('A' for Active; 'I' for Inactive)
REMARK    1  A    between atoms: C4_4  and  C5_5 
REMARK    2  A    between atoms: C5_5  and  O1_6 
REMARK    3  A    between atoms: C5_5  and  C6_7 
REMARK    4  A    between atoms: C6_7  and  C7_8 
REMARK    5  A    between atoms: C7_8  and  C9_10 
REMARK    6  A    between atoms: C30_32  and  O3_33 
ROOT
HETATM    1  C9  UNL     1      -1.720  52.537 -10.276  1.00  0.00    -0.002 C 
HETATM    2  C10 UNL     1      -1.550  51.317  -9.327  1.00  0.00     0.007 C 
HETATM    3  C11 UNL     1      -0.147  51.401  -8.709  1.00  0.00     0.015 C 
HETATM    4  C12 UNL     1       0.627  52.393  -9.596  1.00  0.00    -0.010 C 
HETATM    5  C13 UNL     1       1.102  51.591 -10.850  1.00  0.00     0.021 C 
HETATM    6  C14 UNL     1       1.902  53.084  -9.082  1.00  0.00    -0.039 C 
HETATM    7  C15 UNL     1       2.263  54.293  -9.591  1.00  0.00    -0.066 C 
HETATM    8  C16 UNL     1       1.341  55.038 -10.573  1.00  0.00     0.036 C 
HETATM    9  C17 UNL     1       0.003  54.388 -10.966  1.00  0.00     0.015 C 
HETATM   10  C18 UNL     1      -0.515  53.449  -9.877  1.00  0.00    -0.029 C 
HETATM   11  C19 UNL     1      -0.888  54.289  -8.618  1.00  0.00     0.016 C 
HETATM   12  C20 UNL     1       3.609  55.009  -9.230  1.00  0.00    -0.015 C 
HETATM   13  C21 UNL     1       4.224  55.537 -10.551  1.00  0.00     0.020 C 
HETATM   14  C22 UNL     1       3.264  56.194  -8.288  1.00  0.00     0.021 C 
HETATM   15  C23 UNL     1       4.477  56.936  -7.755  1.00  0.00     0.080 C 
HETATM   16  C24 UNL     1       5.413  55.991  -7.044  1.00  0.00     0.135 C 
HETATM   17  O2  UNL     1       5.825  56.260  -5.914  1.00  0.00    -0.297 OA
HETATM   18  C25 UNL     1       5.892  54.755  -7.817  1.00  0.00     0.018 C 
HETATM   19  C26 UNL     1       6.975  55.209  -8.820  1.00  0.00     0.023 C 
HETATM   20  C27 UNL     1       6.622  53.806  -6.831  1.00  0.00     0.023 C 
HETATM   21  C28 UNL     1       4.649  54.047  -8.514  1.00  0.00     0.016 C 
HETATM   22  C29 UNL     1       3.897  53.160  -7.505  1.00  0.00     0.043 C 
HETATM   23  C30 UNL     1       2.784  52.325  -8.127  1.00  0.00     0.148 C 
ENDROOT
BRANCH   1  24
HETATM   24  C7  UNL     1      -3.182  53.091 -10.253  1.00  0.00    -0.011 C 
HETATM   25  C8  UNL     1      -3.249  54.566 -10.656  1.00  0.00     0.010 C 
BRANCH  24  26
HETATM   26  C6  UNL     1      -4.091  52.211 -11.168  1.00  0.00     0.040 C 
BRANCH  26  27
HETATM   27  C5  UNL     1      -3.920  52.430 -12.683  1.00  0.00     0.141 C 
BRANCH  27  28
HETATM   28  C4  UNL     1      -2.505  52.157 -13.129  1.00  0.00     0.006 C 
HETATM   29  C2  UNL     1      -2.002  50.967 -13.525  1.00  0.00    -0.089 C 
HETATM   30  C1  UNL     1      -2.799  49.693 -13.610  1.00  0.00     0.042 C 
HETATM   31  C3  UNL     1      -0.560  50.833 -13.937  1.00  0.00     0.042 C 
ENDBRANCH  27  28
BRANCH  27  32
HETATM   32  O1  UNL     1      -4.224  53.785 -12.997  1.00  0.00    -0.392 OA
HETATM   33  H9  UNL     1      -3.388  54.281 -13.007  1.00  0.00     0.210 HD
ENDBRANCH  27  32
ENDBRANCH  26  27
ENDBRANCH  24  26
ENDBRANCH   1  24
BRANCH  23  34
HETATM   34  O3  UNL     1       2.025  51.812  -7.039  1.00  0.00    -0.391 OA
HETATM   35  H48 UNL     1       2.633  51.327  -6.459  1.00  0.00     0.210 HD
ENDBRANCH  23  34
TORSDOF 6
ENDMDL
MODEL 6
REMARK minimizedAffinity -7.37030411
REMARK CNNscore 0.608574271
REMARK CNNaffinity 6.15934038
REMARK  6 active torsions:
REMARK  status: ('A' for Active; 'I' for Inactive)
REMARK    1  A    between atoms: C4_4  and  C5_5 
REMARK    2  A    between atoms: C5_5  and  O1_6 
REMARK    3  A    between atoms: C5_5  and  C6_7 
REMARK    4  A    between atoms: C6_7  and  C7_8 
REMARK    5  A    between atoms: C7_8  and  C9_10 
REMARK    6  A    between atoms: C30_32  and  O3_33 
ROOT
HETATM    1  C9  UNL     1     -10.260  45.188 -26.532  1.00  0.00    -0.002 C 
HETATM    2  C10 UNL     1     -10.566  45.218 -28.057  1.00  0.00     0.007 C 
HETATM    3  C11 UNL     1     -12.088  45.103 -28.227  1.00  0.00     0.015 C 
HETATM    4  C12 UNL     1     -12.609  44.590 -26.872  1.00  0.00    -0.010 C 
HETATM    5  C13 UNL     1     -12.377  43.045 -26.863  1.00  0.00     0.021 C 
HETATM    6  C14 UNL     1     -14.087  44.755 -26.481  1.00  0.00    -0.039 C 
HETATM    7  C15 UNL     1     -14.433  44.814 -25.166  1.00  0.00    -0.066 C 
HETATM    8  C16 UNL     1     -13.350  44.857 -24.072  1.00  0.00     0.036 C 
HETATM    9  C17 UNL     1     -11.871  44.830 -24.496  1.00  0.00     0.015 C 
HETATM   10  C18 UNL     1     -11.671  45.407 -25.898  1.00  0.00    -0.029 C 
HETATM   11  C19 UNL     1     -12.002  46.930 -25.871  1.00  0.00     0.016 C 
HETATM   12  C20 UNL     1     -15.918  44.846 -24.668  1.00  0.00    -0.015 C 
HETATM   13  C21 UNL     1     -16.035  43.849 -23.488  1.00  0.00     0.020 C 
HETATM   14  C22 UNL     1     -16.211  46.290 -24.181  1.00  0.00     0.021 C 
HETATM   15  C23 UNL     1     -17.651  46.522 -23.760  1.00  0.00     0.080 C 
HETATM   16  C24 UNL     1     -18.600  46.172 -24.879  1.00  0.00     0.135 C 
HETATM   17  O2  UNL     1     -19.475  46.970 -25.222  1.00  0.00    -0.297 OA
HETATM   18  C25 UNL     1     -18.485  44.770 -25.491  1.00  0.00     0.018 C 
HETATM   19  C26 UNL     1     -19.135  43.767 -24.514  1.00  0.00     0.023 C 
HETATM   20  C27 UNL     1     -19.358  44.715 -26.772  1.00  0.00     0.023 C 
HETATM   21  C28 UNL     1     -16.958  44.446 -25.799  1.00  0.00     0.016 C 
HETATM   22  C29 UNL     1     -16.525  45.093 -27.128  1.00  0.00     0.043 C 
HETATM   23  C30 UNL     1     -15.121  44.703 -27.575  1.00  0.00     0.148 C 
ENDROOT
BRANCH   1  24
HETATM   24  C7  UNL     1      -9.064  46.125 -26.162  1.00  0.00    -0.011 C 
HETATM   25  C8  UNL     1      -8.425  45.747 -24.824  1.00  0.00     0.010 C 
BRANCH  24  26
HETATM   26  C6  UNL     1      -8.012  46.114 -27.316  1.00  0.00     0.040 C 
BRANCH  26  27
HETATM   27  C5  UNL     1      -7.749  47.473 -27.988  1.00  0.00     0.141 C 
BRANCH  27  28
HETATM   28  C4  UNL     1      -6.271  47.737 -28.151  1.00  0.00     0.006 C 
HETATM   29  C2  UNL     1      -5.394  48.028 -27.167  1.00  0.00    -0.089 C 
HETATM   30  C1  UNL     1      -5.751  48.116 -25.707  1.00  0.00     0.042 C 
HETATM   31  C3  UNL     1      -3.941  48.280 -27.473  1.00  0.00     0.042 C 
ENDBRANCH  27  28
BRANCH  27  32
HETATM   32  O1  UNL     1      -8.290  48.510 -27.177  1.00  0.00    -0.392 OA
HETATM   33  H9  UNL     1      -7.576  48.847 -26.611  1.00  0.00     0.210 HD
ENDBRANCH  27  32
ENDBRANCH  26  27
ENDBRANCH  24  26
ENDBRANCH   1  24
BRANCH  23  34
HETATM   34  O3  UNL     1     -14.783  45.598 -28.628  1.00  0.00    -0.391 OA
HETATM   35  H48 UNL     1     -15.472  45.524 -29.309  1.00  0.00     0.210 HD
ENDBRANCH  23  34
TORSDOF 6
ENDMDL
MODEL 7
REMARK minimizedAffinity -8.97890854
REMARK CNNscore 0.539976597
REMARK CNNaffinity 7.10325623
REMARK  6 active torsions:
REMARK  status: ('A' for Active; 'I' for Inactive)
REMARK    1  A    between atoms: C4_4  and  C5_5 
REMARK    2  A    between atoms: C5_5  and  O1_6 
REMARK    3  A    between atoms: C5_5  and  C6_7 
REMARK    4  A    between atoms: C6_7  and  C7_8 
REMARK    5  A    between atoms: C7_8  and  C9_10 
REMARK    6  A    between atoms: C30_32  and  O3_33 
ROOT
HETATM    1  C9  UNL     1      -2.046  49.970 -22.823  1.00  0.00    -0.002 C 
HETATM    2  C10 UNL     1      -3.209  48.942 -22.918  1.00  0.00     0.007 C 
HETATM    3  C11 UNL     1      -3.434  48.366 -21.512  1.00  0.00     0.015 C 
HETATM    4  C12 UNL     1      -2.164  48.724 -20.719  1.00  0.00    -0.010 C 
HETATM    5  C13 UNL     1      -1.084  47.664 -21.107  1.00  0.00     0.021 C 
HETATM    6  C14 UNL     1      -2.166  48.719 -19.181  1.00  0.00    -0.039 C 
HETATM    7  C15 UNL     1      -1.292  49.513 -18.505  1.00  0.00    -0.066 C 
HETATM    8  C16 UNL     1      -0.399  50.515 -19.259  1.00  0.00     0.036 C 
HETATM    9  C17 UNL     1      -0.515  50.600 -20.791  1.00  0.00     0.015 C 
HETATM   10  C18 UNL     1      -1.900  50.177 -21.281  1.00  0.00    -0.029 C 
HETATM   11  C19 UNL     1      -2.951  51.219 -20.790  1.00  0.00     0.016 C 
HETATM   12  C20 UNL     1      -1.128  49.478 -16.947  1.00  0.00    -0.015 C 
HETATM   13  C21 UNL     1       0.391  49.475 -16.640  1.00  0.00     0.020 C 
HETATM   14  C22 UNL     1      -1.786  50.765 -16.383  1.00  0.00     0.021 C 
HETATM   15  C23 UNL     1      -1.807  50.837 -14.867  1.00  0.00     0.080 C 
HETATM   16  C24 UNL     1      -2.495  49.630 -14.282  1.00  0.00     0.135 C 
HETATM   17  O2  UNL     1      -3.387  49.770 -13.443  1.00  0.00    -0.297 OA
HETATM   18  C25 UNL     1      -1.977  48.248 -14.702  1.00  0.00     0.018 C 
HETATM   19  C26 UNL     1      -0.664  47.977 -13.936  1.00  0.00     0.023 C 
HETATM   20  C27 UNL     1      -2.972  47.171 -14.199  1.00  0.00     0.023 C 
HETATM   21  C28 UNL     1      -1.800  48.203 -16.283  1.00  0.00     0.016 C 
HETATM   22  C29 UNL     1      -3.153  47.936 -16.970  1.00  0.00     0.043 C 
HETATM   23  C30 UNL     1      -3.048  47.723 -18.476  1.00  0.00     0.148 C 
ENDROOT
BRANCH   1  24
HETATM   24  C7  UNL     1      -2.270  51.190 -23.774  1.00  0.00    -0.011 C 
HETATM   25  C8  UNL     1      -3.483  52.029 -23.366  1.00  0.00     0.010 C 
BRANCH  24  26
HETATM   26  C6  UNL     1      -0.973  52.058 -23.831  1.00  0.00     0.040 C 
BRANCH  26  27
HETATM   27  C5  UNL     1      -0.592  52.594 -25.223  1.00  0.00     0.141 C 
BRANCH  27  28
HETATM   28  C4  UNL     1       0.828  52.235 -25.587  1.00  0.00     0.006 C 
HETATM   29  C2  UNL     1       1.279  51.883 -26.810  1.00  0.00    -0.089 C 
HETATM   30  C1  UNL     1       0.421  51.811 -28.045  1.00  0.00     0.042 C 
HETATM   31  C3  UNL     1       2.728  51.539 -27.034  1.00  0.00     0.042 C 
ENDBRANCH  27  28
BRANCH  27  32
HETATM   32  O1  UNL     1      -0.698  54.014 -25.223  1.00  0.00    -0.392 OA
HETATM   33  H9  UNL     1       0.184  54.377 -25.033  1.00  0.00     0.210 HD
ENDBRANCH  27  32
ENDBRANCH  26  27
ENDBRANCH  24  26
ENDBRANCH   1  24
BRANCH  23  34
HETATM   34  O3  UNL     1      -4.379  47.787 -18.974  1.00  0.00    -0.391 OA
HETATM   35  H48 UNL     1      -4.904  47.125 -18.496  1.00  0.00     0.210 HD
ENDBRANCH  23  34
TORSDOF 6
ENDMDL
MODEL 8
REMARK minimizedAffinity -7.7283082
REMARK CNNscore 0.489854157
REMARK CNNaffinity 6.68637037
REMARK  6 active torsions:
REMARK  status: ('A' for Active; 'I' for Inactive)
REMARK    1  A    between atoms: C4_4  and  C5_5 
REMARK    2  A    between atoms: C5_5  and  O1_6 
REMARK    3  A    between atoms: C5_5  and  C6_7 
REMARK    4  A    between atoms: C6_7  and  C7_8 
REMARK    5  A    between atoms: C7_8  and  C9_10 
REMARK    6  A    between atoms: C30_32  and  O3_33 
ROOT
HETATM    1  C9  UNL     1      -3.285  48.915 -20.916  1.00  0.00    -0.002 C 
HETATM    2  C10 UNL     1      -3.479  50.306 -21.585  1.00  0.00     0.007 C 
HETATM    3  C11 UNL     1      -4.714  50.216 -22.492  1.00  0.00     0.015 C 
HETATM    4  C12 UNL     1      -4.971  48.709 -22.678  1.00  0.00    -0.010 C 
HETATM    5  C13 UNL     1      -3.981  48.222 -23.783  1.00  0.00     0.021 C 
HETATM    6  C14 UNL     1      -6.344  48.195 -23.144  1.00  0.00    -0.039 C 
HETATM    7  C15 UNL     1      -6.742  46.939 -22.803  1.00  0.00    -0.066 C 
HETATM    8  C16 UNL     1      -5.897  46.081 -21.843  1.00  0.00     0.036 C 
HETATM    9  C17 UNL     1      -4.594  46.673 -21.279  1.00  0.00     0.015 C 
HETATM   10  C18 UNL     1      -4.641  48.200 -21.219  1.00  0.00    -0.029 C 
HETATM   11  C19 UNL     1      -5.708  48.632 -20.168  1.00  0.00     0.016 C 
HETATM   12  C20 UNL     1      -8.059  46.280 -23.340  1.00  0.00    -0.015 C 
HETATM   13  C21 UNL     1      -7.711  44.832 -23.770  1.00  0.00     0.020 C 
HETATM   14  C22 UNL     1      -9.078  46.261 -22.170  1.00  0.00     0.021 C 
HETATM   15  C23 UNL     1     -10.453  45.746 -22.553  1.00  0.00     0.080 C 
HETATM   16  C24 UNL     1     -11.025  46.545 -23.698  1.00  0.00     0.135 C 
HETATM   17  O2  UNL     1     -12.164  47.007 -23.623  1.00  0.00    -0.297 OA
HETATM   18  C25 UNL     1     -10.173  46.668 -24.968  1.00  0.00     0.018 C 
HETATM   19  C26 UNL     1     -10.269  45.334 -25.739  1.00  0.00     0.023 C 
HETATM   20  C27 UNL     1     -10.822  47.725 -25.900  1.00  0.00     0.023 C 
HETATM   21  C28 UNL     1      -8.681  47.059 -24.574  1.00  0.00     0.016 C 
HETATM   22  C29 UNL     1      -8.569  48.574 -24.318  1.00  0.00     0.043 C 
HETATM   23  C30 UNL     1      -7.142  49.056 -24.086  1.00  0.00     0.148 C 
ENDROOT
BRANCH   1  24
HETATM   24  C7  UNL     1      -2.761  49.044 -19.448  1.00  0.00    -0.011 C 
HETATM   25  C8  UNL     1      -2.420  47.685 -18.832  1.00  0.00     0.010 C 
BRANCH  24  26
HETATM   26  C6  UNL     1      -1.533  50.008 -19.412  1.00  0.00     0.040 C 
BRANCH  26  27
HETATM   27  C5  UNL     1      -1.867  51.504 -19.273  1.00  0.00     0.141 C 
BRANCH  27  28
HETATM   28  C4  UNL     1      -0.622  52.357 -19.299  1.00  0.00     0.006 C 
HETATM   29  C2  UNL     1       0.052  52.761 -20.397  1.00  0.00    -0.089 C 
HETATM   30  C1  UNL     1      -0.352  52.438 -21.811  1.00  0.00     0.042 C 
HETATM   31  C3  UNL     1       1.293  53.606 -20.278  1.00  0.00     0.042 C 
ENDBRANCH  27  28
BRANCH  27  32
HETATM   32  O1  UNL     1      -2.521  51.725 -18.028  1.00  0.00    -0.392 OA
HETATM   33  H9  UNL     1      -1.847  51.993 -17.382  1.00  0.00     0.210 HD
ENDBRANCH  27  32
ENDBRANCH  26  27
ENDBRANCH  24  26
ENDBRANCH   1  24
BRANCH  23  34
HETATM   34  O3  UNL     1      -7.254  50.382 -23.583  1.00  0.00    -0.391 OA
HETATM   35  H48 UNL     1      -7.768  50.897 -24.225  1.00  0.00     0.210 HD
ENDBRANCH  23  34
TORSDOF 6
ENDMDL
MODEL 9
REMARK minimizedAffinity -9.35103321
REMARK CNNscore 0.411315501
REMARK CNNaffinity 7.13312769
REMARK  6 active torsions:
REMARK  status: ('A' for Active; 'I' for Inactive)
REMARK    1  A    between atoms: C4_4  and  C5_5 
REMARK    2  A    between atoms: C5_5  and  O1_6 
REMARK    3  A    between atoms: C5_5  and  C6_7 
REMARK    4  A    between atoms: C6_7  and  C7_8 
REMARK    5  A    between atoms: C7_8  and  C9_10 
REMARK    6  A    between atoms: C30_32  and  O3_33 
ROOT
HETATM    1  C9  UNL     1      -0.280  52.687 -21.804  1.00  0.00    -0.002 C 
HETATM    2  C10 UNL     1       1.072  53.431 -21.610  1.00  0.00     0.007 C 
HETATM    3  C11 UNL     1       1.502  53.239 -20.149  1.00  0.00     0.015 C 
HETATM    4  C12 UNL     1       0.235  52.768 -19.412  1.00  0.00    -0.010 C 
HETATM    5  C13 UNL     1      -0.609  54.048 -19.116  1.00  0.00     0.021 C 
HETATM    6  C14 UNL     1       0.331  52.053 -18.053  1.00  0.00    -0.039 C 
HETATM    7  C15 UNL     1      -0.653  51.193 -17.675  1.00  0.00    -0.066 C 
HETATM    8  C16 UNL     1      -1.788  50.823 -18.648  1.00  0.00     0.036 C 
HETATM    9  C17 UNL     1      -1.786  51.445 -20.055  1.00  0.00     0.015 C 
HETATM   10  C18 UNL     1      -0.375  51.812 -20.513  1.00  0.00    -0.029 C 
HETATM   11  C19 UNL     1       0.451  50.503 -20.706  1.00  0.00     0.016 C 
HETATM   12  C20 UNL     1      -0.711  50.523 -16.260  1.00  0.00    -0.015 C 
HETATM   13  C21 UNL     1      -2.172  50.635 -15.753  1.00  0.00     0.020 C 
HETATM   14  C22 UNL     1      -0.318  49.033 -16.437  1.00  0.00     0.021 C 
HETATM   15  C23 UNL     1      -0.221  48.258 -15.134  1.00  0.00     0.080 C 
HETATM   16  C24 UNL     1       0.748  48.920 -14.188  1.00  0.00     0.135 C 
HETATM   17  O2  UNL     1       1.637  48.258 -13.648  1.00  0.00    -0.297 OA
HETATM   18  C25 UNL     1       0.520  50.402 -13.864  1.00  0.00     0.018 C 
HETATM   19  C26 UNL     1      -0.653  50.497 -12.864  1.00  0.00     0.023 C 
HETATM   20  C27 UNL     1       1.755  50.938 -13.094  1.00  0.00     0.023 C 
HETATM   21  C28 UNL     1       0.262  51.209 -15.211  1.00  0.00     0.016 C 
HETATM   22  C29 UNL     1       1.596  51.538 -15.907  1.00  0.00     0.043 C 
HETATM   23  C30 UNL     1       1.450  52.443 -17.124  1.00  0.00     0.148 C 
ENDROOT
BRANCH   1  24
HETATM   24  C7  UNL     1      -0.386  52.035 -23.221  1.00  0.00    -0.011 C 
HETATM   25  C8  UNL     1      -1.809  52.093 -23.781  1.00  0.00     0.010 C 
BRANCH  24  26
HETATM   26  C6  UNL     1       0.633  52.714 -24.189  1.00  0.00     0.040 C 
BRANCH  26  27
HETATM   27  C5  UNL     1       0.025  53.676 -25.226  1.00  0.00     0.141 C 
BRANCH  27  28
HETATM   28  C4  UNL     1       0.162  53.141 -26.630  1.00  0.00     0.006 C 
HETATM   29  C2  UNL     1       1.046  52.211 -27.053  1.00  0.00    -0.089 C 
HETATM   30  C1  UNL     1       2.049  51.524 -26.164  1.00  0.00     0.042 C 
HETATM   31  C3  UNL     1       1.082  51.772 -28.493  1.00  0.00     0.042 C 
ENDBRANCH  27  28
BRANCH  27  32
HETATM   32  O1  UNL     1       0.709  54.923 -25.165  1.00  0.00    -0.392 OA
HETATM   33  H9  UNL     1       1.407  54.912 -25.842  1.00  0.00     0.210 HD
ENDBRANCH  27  32
ENDBRANCH  26  27
ENDBRANCH  24  26
ENDBRANCH   1  24
BRANCH  23  34
HETATM   34  O3  UNL     1       2.702  52.398 -17.798  1.00  0.00    -0.391 OA
HETATM   35  H48 UNL     1       3.387  52.663 -17.163  1.00  0.00     0.210 HD
ENDBRANCH  23  34
TORSDOF 6
ENDMDL
