MODEL 1
REMARK minimizedAffinity -6.99350929
REMARK CNNscore 0.678838432
REMARK CNNaffinity 5.3685956
REMARK  2 active torsions:
REMARK  status: ('A' for Active; 'I' for Inactive)
REMARK       I    between atoms: C1_2  and  N1_3 
REMARK    1  A    between atoms: C1_2  and  C14_18 
REMARK    2  A    between atoms: N1_3  and  C2_4 
ROOT
HETATM    1  C2  UNL     1      -9.465  -2.818  -5.094  1.00  0.00     0.135 C 
HETATM    2  C3  UNL     1      -8.388  -1.709  -5.010  1.00  0.00     0.032 C 
HETATM    3  C4  UNL     1      -8.816  -0.413  -5.722  1.00  0.00     0.007 C 
HETATM    4  C5  UNL     1      -9.087  -0.643  -7.222  1.00  0.00     0.042 C 
HETATM    5  C6  UNL     1      -9.932  -1.855  -7.426  1.00  0.00    -0.021 A 
HETATM    6  C7  UNL     1     -10.075  -2.826  -6.455  1.00  0.00     0.040 A 
HETATM    7  N2  UNL     1     -10.943  -3.773  -6.923  1.00  0.00    -0.355 N 
HETATM    8  C8  UNL     1     -11.322  -3.466  -8.212  1.00  0.00     0.065 A 
HETATM    9  C9  UNL     1     -12.165  -4.146  -9.099  1.00  0.00     0.061 A 
HETATM   10 CL1  UNL     1     -12.912  -5.629  -8.657  1.00  0.00    -0.082 Cl
HETATM   11  C10 UNL     1     -12.386  -3.591 -10.361  1.00  0.00     0.026 A 
HETATM   12  C11 UNL     1     -11.782  -2.388 -10.724  1.00  0.00     0.003 A 
HETATM   13  C12 UNL     1     -10.941  -1.713  -9.830  1.00  0.00     0.014 A 
HETATM   14  C13 UNL     1     -10.703  -2.259  -8.552  1.00  0.00     0.001 A 
HETATM   15  H9  UNL     1     -11.260  -4.587  -6.408  1.00  0.00     0.166 HD
ENDROOT
BRANCH   1  16
HETATM   16  N1  UNL     1      -8.880  -4.119  -4.865  1.00  0.00    -0.347 N 
HETATM   17  C1  UNL     1      -9.640  -5.177  -4.419  1.00  0.00     0.252 C 
HETATM   18  O1  UNL     1     -10.861  -5.134  -4.319  1.00  0.00    -0.268 OA
HETATM   19  H1  UNL     1      -7.873  -4.192  -4.904  1.00  0.00     0.163 HD
BRANCH  17  20
HETATM   20  C14 UNL     1      -8.904  -6.429  -4.084  1.00  0.00     0.034 A 
HETATM   21  C15 UNL     1      -8.393  -7.189  -5.142  1.00  0.00     0.018 A 
HETATM   22  C16 UNL     1      -7.687  -8.374  -4.901  1.00  0.00     0.015 A 
HETATM   23  C17 UNL     1      -7.502  -8.807  -3.574  1.00  0.00    -0.008 A 
HETATM   24  C18 UNL     1      -6.858  -9.929  -2.983  1.00  0.00     0.030 A 
HETATM   25  C20 UNL     1      -8.036  -8.045  -2.534  1.00  0.00     0.043 A 
HETATM   26  C19 UNL     1      -7.014  -9.832  -1.620  1.00  0.00     0.089 A 
HETATM   27  N3  UNL     1      -7.730  -8.694  -1.359  1.00  0.00    -0.365 N 
HETATM   28  H17 UNL     1      -7.997  -8.375  -0.438  1.00  0.00     0.165 HD
HETATM   29  C21 UNL     1      -8.745  -6.854  -2.754  1.00  0.00     0.047 A 
ENDBRANCH  17  20
ENDBRANCH   1  16
TORSDOF 2
ENDMDL
MODEL 2
REMARK minimizedAffinity -7.27585554
REMARK CNNscore 0.667333364
REMARK CNNaffinity 5.54592705
REMARK  2 active torsions:
REMARK  status: ('A' for Active; 'I' for Inactive)
REMARK       I    between atoms: C1_2  and  N1_3 
REMARK    1  A    between atoms: C1_2  and  C14_18 
REMARK    2  A    between atoms: N1_3  and  C2_4 
ROOT
HETATM    1  C2  UNL     1     -13.747 -11.163  25.069  1.00  0.00     0.135 C 
HETATM    2  C3  UNL     1     -14.632 -10.793  23.854  1.00  0.00     0.032 C 
HETATM    3  C4  UNL     1     -14.556 -11.837  22.726  1.00  0.00     0.007 C 
HETATM    4  C5  UNL     1     -13.121 -11.996  22.186  1.00  0.00     0.042 C 
HETATM    5  C6  UNL     1     -12.145 -12.117  23.307  1.00  0.00    -0.021 A 
HETATM    6  C7  UNL     1     -12.449 -11.723  24.595  1.00  0.00     0.040 A 
HETATM    7  N2  UNL     1     -11.375 -12.005  25.393  1.00  0.00    -0.355 N 
HETATM    8  C8  UNL     1     -10.349 -12.523  24.632  1.00  0.00     0.065 A 
HETATM    9  C9  UNL     1      -9.061 -12.931  24.998  1.00  0.00     0.061 A 
HETATM   10 CL1  UNL     1      -8.519 -12.813  26.625  1.00  0.00    -0.082 Cl
HETATM   11  C10 UNL     1      -8.218 -13.437  24.007  1.00  0.00     0.026 A 
HETATM   12  C11 UNL     1      -8.654 -13.535  22.686  1.00  0.00     0.003 A 
HETATM   13  C12 UNL     1      -9.945 -13.126  22.328  1.00  0.00     0.014 A 
HETATM   14  C13 UNL     1     -10.810 -12.609  23.314  1.00  0.00     0.001 A 
HETATM   15  H9  UNL     1     -11.329 -11.853  26.393  1.00  0.00     0.166 HD
ENDROOT
BRANCH   1  16
HETATM   16  N1  UNL     1     -13.458  -9.994  25.868  1.00  0.00    -0.347 N 
HETATM   17  C1  UNL     1     -13.647  -9.995  27.232  1.00  0.00     0.252 C 
HETATM   18  O1  UNL     1     -13.933 -11.001  27.872  1.00  0.00    -0.268 OA
HETATM   19  H1  UNL     1     -13.252  -9.134  25.381  1.00  0.00     0.163 HD
BRANCH  17  20
HETATM   20  C14 UNL     1     -13.452  -8.693  27.930  1.00  0.00     0.034 A 
HETATM   21  C15 UNL     1     -14.003  -7.549  27.343  1.00  0.00     0.018 A 
HETATM   22  C16 UNL     1     -13.862  -6.292  27.945  1.00  0.00     0.015 A 
HETATM   23  C17 UNL     1     -13.144  -6.184  29.152  1.00  0.00    -0.008 A 
HETATM   24  C18 UNL     1     -12.814  -5.098  30.009  1.00  0.00     0.030 A 
HETATM   25  C20 UNL     1     -12.586  -7.334  29.711  1.00  0.00     0.043 A 
HETATM   26  C19 UNL     1     -12.070  -5.599  31.052  1.00  0.00     0.089 A 
HETATM   27  N3  UNL     1     -11.934  -6.949  30.861  1.00  0.00    -0.365 N 
HETATM   28  H17 UNL     1     -11.428  -7.574  31.473  1.00  0.00     0.165 HD
HETATM   29  C21 UNL     1     -12.717  -8.602  29.125  1.00  0.00     0.047 A 
ENDBRANCH  17  20
ENDBRANCH   1  16
TORSDOF 2
ENDMDL
MODEL 3
REMARK minimizedAffinity -7.98362398
REMARK CNNscore 0.609754741
REMARK CNNaffinity 5.26172304
REMARK  2 active torsions:
REMARK  status: ('A' for Active; 'I' for Inactive)
REMARK       I    between atoms: C1_2  and  N1_3 
REMARK    1  A    between atoms: C1_2  and  C14_18 
REMARK    2  A    between atoms: N1_3  and  C2_4 
ROOT
HETATM    1  C2  UNL     1      14.544  -6.078   6.011  1.00  0.00     0.135 C 
HETATM    2  C3  UNL     1      13.227  -6.670   6.569  1.00  0.00     0.032 C 
HETATM    3  C4  UNL     1      12.046  -6.507   5.595  1.00  0.00     0.007 C 
HETATM    4  C5  UNL     1      11.758  -5.026   5.282  1.00  0.00     0.042 C 
HETATM    5  C6  UNL     1      13.021  -4.298   4.964  1.00  0.00    -0.021 A 
HETATM    6  C7  UNL     1      14.263  -4.790   5.315  1.00  0.00     0.040 A 
HETATM    7  N2  UNL     1      15.212  -3.925   4.845  1.00  0.00    -0.355 N 
HETATM    8  C8  UNL     1      14.605  -2.843   4.244  1.00  0.00     0.065 A 
HETATM    9  C9  UNL     1      15.159  -1.704   3.649  1.00  0.00     0.061 A 
HETATM   10 CL1  UNL     1      16.860  -1.466   3.594  1.00  0.00    -0.082 Cl
HETATM   11  C10 UNL     1      14.295  -0.756   3.099  1.00  0.00     0.026 A 
HETATM   12  C11 UNL     1      12.914  -0.945   3.140  1.00  0.00     0.003 A 
HETATM   13  C12 UNL     1      12.368  -2.089   3.737  1.00  0.00     0.014 A 
HETATM   14  C13 UNL     1      13.224  -3.055   4.301  1.00  0.00     0.001 A 
HETATM   15  H9  UNL     1      16.214  -4.050   4.928  1.00  0.00     0.166 HD
ENDROOT
BRANCH   1  16
HETATM   16  N1  UNL     1      15.477  -5.808   7.080  1.00  0.00    -0.347 N 
HETATM   17  C1  UNL     1      15.141  -4.987   8.133  1.00  0.00     0.252 C 
HETATM   18  O1  UNL     1      14.011  -4.547   8.310  1.00  0.00    -0.268 OA
HETATM   19  H1  UNL     1      16.429  -6.123   6.960  1.00  0.00     0.163 HD
BRANCH  17  20
HETATM   20  C14 UNL     1      16.230  -4.669   9.101  1.00  0.00     0.034 A 
HETATM   21  C15 UNL     1      16.872  -3.432   8.977  1.00  0.00     0.018 A 
HETATM   22  C16 UNL     1      17.901  -3.065   9.853  1.00  0.00     0.015 A 
HETATM   23  C17 UNL     1      18.297  -3.962  10.863  1.00  0.00    -0.008 A 
HETATM   24  C18 UNL     1      19.278  -3.918  11.892  1.00  0.00     0.030 A 
HETATM   25  C20 UNL     1      17.657  -5.198  10.957  1.00  0.00     0.043 A 
HETATM   26  C19 UNL     1      19.220  -5.110  12.577  1.00  0.00     0.089 A 
HETATM   27  N3  UNL     1      18.243  -5.878  12.003  1.00  0.00    -0.365 N 
HETATM   28  H17 UNL     1      17.985  -6.808  12.301  1.00  0.00     0.165 HD
HETATM   29  C21 UNL     1      16.624  -5.585  10.091  1.00  0.00     0.047 A 
ENDBRANCH  17  20
ENDBRANCH   1  16
TORSDOF 2
ENDMDL
MODEL 4
REMARK minimizedAffinity -9.11439133
REMARK CNNscore 0.515800953
REMARK CNNaffinity 6.49914742
REMARK  2 active torsions:
REMARK  status: ('A' for Active; 'I' for Inactive)
REMARK       I    between atoms: C1_2  and  N1_3 
REMARK    1  A    between atoms: C1_2  and  C14_18 
REMARK    2  A    between atoms: N1_3  and  C2_4 
ROOT
HETATM    1  C2  UNL     1      -9.194   7.511  15.382  1.00  0.00     0.135 C 
HETATM    2  C3  UNL     1      -8.456   8.849  15.138  1.00  0.00     0.032 C 
HETATM    3  C4  UNL     1      -9.320  10.074  15.486  1.00  0.00     0.007 C 
HETATM    4  C5  UNL     1     -10.607  10.128  14.640  1.00  0.00     0.042 C 
HETATM    5  C6  UNL     1     -11.277   8.795  14.612  1.00  0.00    -0.021 A 
HETATM    6  C7  UNL     1     -10.614   7.630  14.940  1.00  0.00     0.040 A 
HETATM    7  N2  UNL     1     -11.504   6.596  14.864  1.00  0.00    -0.355 N 
HETATM    8  C8  UNL     1     -12.728   7.061  14.433  1.00  0.00     0.065 A 
HETATM    9  C9  UNL     1     -13.924   6.379  14.182  1.00  0.00     0.061 A 
HETATM   10 CL1  UNL     1     -14.038   4.676  14.387  1.00  0.00    -0.082 Cl
HETATM   11  C10 UNL     1     -15.031   7.115  13.757  1.00  0.00     0.026 A 
HETATM   12  C11 UNL     1     -14.944   8.496  13.590  1.00  0.00     0.003 A 
HETATM   13  C12 UNL     1     -13.744   9.172  13.844  1.00  0.00     0.014 A 
HETATM   14  C13 UNL     1     -12.614   8.446  14.271  1.00  0.00     0.001 A 
HETATM   15  H9  UNL     1     -11.302   5.628  15.084  1.00  0.00     0.166 HD
ENDROOT
BRANCH   1  16
HETATM   16  N1  UNL     1      -8.584   6.443  14.624  1.00  0.00    -0.347 N 
HETATM   17  C1  UNL     1      -7.333   5.962  14.945  1.00  0.00     0.252 C 
HETATM   18  O1  UNL     1      -6.721   6.298  15.951  1.00  0.00    -0.268 OA
HETATM   19  H1  UNL     1      -9.038   6.158  13.768  1.00  0.00     0.163 HD
BRANCH  17  20
HETATM   20  C14 UNL     1      -6.748   4.960  14.009  1.00  0.00     0.034 A 
HETATM   21  C15 UNL     1      -5.473   5.217  13.493  1.00  0.00     0.018 A 
HETATM   22  C16 UNL     1      -4.860   4.318  12.611  1.00  0.00     0.015 A 
HETATM   23  C17 UNL     1      -5.546   3.148  12.235  1.00  0.00    -0.008 A 
HETATM   24  C18 UNL     1      -5.234   2.052  11.383  1.00  0.00     0.030 A 
HETATM   25  C20 UNL     1      -6.824   2.920  12.746  1.00  0.00     0.043 A 
HETATM   26  C19 UNL     1      -6.311   1.196  11.389  1.00  0.00     0.089 A 
HETATM   27  N3  UNL     1      -7.268   1.731  12.210  1.00  0.00    -0.365 N 
HETATM   28  H17 UNL     1      -8.170   1.316  12.398  1.00  0.00     0.165 HD
HETATM   29  C21 UNL     1      -7.455   3.807  13.631  1.00  0.00     0.047 A 
ENDBRANCH  17  20
ENDBRANCH   1  16
TORSDOF 2
ENDMDL
MODEL 5
REMARK minimizedAffinity -7.15218019
REMARK CNNscore 0.377367228
REMARK CNNaffinity 4.9681797
REMARK  2 active torsions:
REMARK  status: ('A' for Active; 'I' for Inactive)
REMARK       I    between atoms: C1_2  and  N1_3 
REMARK    1  A    between atoms: C1_2  and  C14_18 
REMARK    2  A    between atoms: N1_3  and  C2_4 
ROOT
HETATM    1  C2  UNL     1       4.542  14.435   2.062  1.00  0.00     0.135 C 
HETATM    2  C3  UNL     1       5.331  15.757   2.224  1.00  0.00     0.032 C 
HETATM    3  C4  UNL     1       5.110  16.413   3.599  1.00  0.00     0.007 C 
HETATM    4  C5  UNL     1       3.628  16.761   3.839  1.00  0.00     0.042 C 
HETATM    5  C6  UNL     1       2.750  15.611   3.473  1.00  0.00    -0.021 A 
HETATM    6  C7  UNL     1       3.184  14.583   2.661  1.00  0.00     0.040 A 
HETATM    7  N2  UNL     1       2.174  13.667   2.554  1.00  0.00    -0.355 N 
HETATM    8  C8  UNL     1       1.063  14.114   3.238  1.00  0.00     0.065 A 
HETATM    9  C9  UNL     1      -0.204  13.539   3.390  1.00  0.00     0.061 A 
HETATM   10 CL1  UNL     1      -0.595  12.038   2.649  1.00  0.00    -0.082 Cl
HETATM   11  C10 UNL     1      -1.152  14.216   4.159  1.00  0.00     0.026 A 
HETATM   12  C11 UNL     1      -0.840  15.433   4.762  1.00  0.00     0.003 A 
HETATM   13  C12 UNL     1       0.431  16.001   4.606  1.00  0.00     0.014 A 
HETATM   14  C13 UNL     1       1.401  15.335   3.830  1.00  0.00     0.001 A 
HETATM   15  H9  UNL     1       2.223  12.793   2.045  1.00  0.00     0.166 HD
ENDROOT
BRANCH   1  16
HETATM   16  N1  UNL     1       4.375  14.106   0.665  1.00  0.00    -0.347 N 
HETATM   17  C1  UNL     1       5.449  13.740  -0.117  1.00  0.00     0.252 C 
HETATM   18  O1  UNL     1       6.571  13.537   0.332  1.00  0.00    -0.268 OA
HETATM   19  H1  UNL     1       3.476  14.291   0.245  1.00  0.00     0.163 HD
BRANCH  17  20
HETATM   20  C14 UNL     1       5.179  13.562  -1.572  1.00  0.00     0.034 A 
HETATM   21  C15 UNL     1       4.838  14.696  -2.316  1.00  0.00     0.018 A 
HETATM   22  C16 UNL     1       4.576  14.604  -3.689  1.00  0.00     0.015 A 
HETATM   23  C17 UNL     1       4.647  13.347  -4.319  1.00  0.00    -0.008 A 
HETATM   24  C18 UNL     1       4.445  12.901  -5.655  1.00  0.00     0.030 A 
HETATM   25  C20 UNL     1       4.970  12.225  -3.556  1.00  0.00     0.043 A 
HETATM   26  C19 UNL     1       4.640  11.539  -5.676  1.00  0.00     0.089 A 
HETATM   27  N3  UNL     1       4.952  11.140  -4.404  1.00  0.00    -0.365 N 
HETATM   28  H17 UNL     1       5.142  10.188  -4.124  1.00  0.00     0.165 HD
HETATM   29  C21 UNL     1       5.237  12.296  -2.180  1.00  0.00     0.047 A 
ENDBRANCH  17  20
ENDBRANCH   1  16
TORSDOF 2
ENDMDL
MODEL 6
REMARK minimizedAffinity -9.24679756
REMARK CNNscore 0.361158073
REMARK CNNaffinity 6.4179306
REMARK  2 active torsions:
REMARK  status: ('A' for Active; 'I' for Inactive)
REMARK       I    between atoms: C1_2  and  N1_3 
REMARK    1  A    between atoms: C1_2  and  C14_18 
REMARK    2  A    between atoms: N1_3  and  C2_4 
ROOT
HETATM    1  C2  UNL     1      -2.829   7.227  13.650  1.00  0.00     0.135 C 
HETATM    2  C3  UNL     1      -3.216   8.689  13.979  1.00  0.00     0.032 C 
HETATM    3  C4  UNL     1      -4.428   8.784  14.922  1.00  0.00     0.007 C 
HETATM    4  C5  UNL     1      -5.683   8.130  14.313  1.00  0.00     0.042 C 
HETATM    5  C6  UNL     1      -5.356   6.791  13.739  1.00  0.00    -0.021 A 
HETATM    6  C7  UNL     1      -4.063   6.415  13.440  1.00  0.00     0.040 A 
HETATM    7  N2  UNL     1      -4.088   5.127  12.981  1.00  0.00    -0.355 N 
HETATM    8  C8  UNL     1      -5.390   4.677  12.920  1.00  0.00     0.065 A 
HETATM    9  C9  UNL     1      -5.909   3.449  12.493  1.00  0.00     0.061 A 
HETATM   10 CL1  UNL     1      -4.880   2.203  11.909  1.00  0.00    -0.082 Cl
HETATM   11  C10 UNL     1      -7.290   3.257  12.551  1.00  0.00     0.026 A 
HETATM   12  C11 UNL     1      -8.129   4.265  13.024  1.00  0.00     0.003 A 
HETATM   13  C12 UNL     1      -7.601   5.490  13.450  1.00  0.00     0.014 A 
HETATM   14  C13 UNL     1      -6.209   5.705  13.397  1.00  0.00     0.001 A 
HETATM   15  H9  UNL     1      -3.277   4.580  12.716  1.00  0.00     0.166 HD
ENDROOT
BRANCH   1  16
HETATM   16  N1  UNL     1      -2.046   7.163  12.438  1.00  0.00    -0.347 N 
HETATM   17  C1  UNL     1      -0.723   7.546  12.421  1.00  0.00     0.252 C 
HETATM   18  O1  UNL     1      -0.090   7.830  13.431  1.00  0.00    -0.268 OA
HETATM   19  H1  UNL     1      -2.533   6.967  11.576  1.00  0.00     0.163 HD
BRANCH  17  20
HETATM   20  C14 UNL     1      -0.057   7.572  11.087  1.00  0.00     0.034 A 
HETATM   21  C15 UNL     1      -0.419   8.589  10.197  1.00  0.00     0.018 A 
HETATM   22  C16 UNL     1       0.168   8.677   8.928  1.00  0.00     0.015 A 
HETATM   23  C17 UNL     1       1.126   7.719   8.546  1.00  0.00    -0.008 A 
HETATM   24  C18 UNL     1       1.897   7.510   7.369  1.00  0.00     0.030 A 
HETATM   25  C20 UNL     1       1.458   6.702   9.441  1.00  0.00     0.043 A 
HETATM   26  C19 UNL     1       2.667   6.387   7.566  1.00  0.00     0.089 A 
HETATM   27  N3  UNL     1       2.391   5.903   8.817  1.00  0.00    -0.365 N 
HETATM   28  H17 UNL     1       2.811   5.080   9.226  1.00  0.00     0.165 HD
HETATM   29  C21 UNL     1       0.883   6.596  10.716  1.00  0.00     0.047 A 
ENDBRANCH  17  20
ENDBRANCH   1  16
TORSDOF 2
ENDMDL
MODEL 7
REMARK minimizedAffinity -6.75282192
REMARK CNNscore 0.316715002
REMARK CNNaffinity 4.85472059
REMARK  2 active torsions:
REMARK  status: ('A' for Active; 'I' for Inactive)
REMARK       I    between atoms: C1_2  and  N1_3 
REMARK    1  A    between atoms: C1_2  and  C14_18 
REMARK    2  A    between atoms: N1_3  and  C2_4 
ROOT
HETATM    1  C2  UNL     1       4.679  14.335   1.746  1.00  0.00     0.135 C 
HETATM    2  C3  UNL     1       5.501  15.645   1.813  1.00  0.00     0.032 C 
HETATM    3  C4  UNL     1       5.370  16.357   3.171  1.00  0.00     0.007 C 
HETATM    4  C5  UNL     1       3.910  16.745   3.478  1.00  0.00     0.042 C 
HETATM    5  C6  UNL     1       2.992  15.601   3.206  1.00  0.00    -0.021 A 
HETATM    6  C7  UNL     1       3.359  14.533   2.413  1.00  0.00     0.040 A 
HETATM    7  N2  UNL     1       2.328  13.636   2.398  1.00  0.00    -0.355 N 
HETATM    8  C8  UNL     1       1.266  14.132   3.124  1.00  0.00     0.065 A 
HETATM    9  C9  UNL     1      -0.002  13.590   3.367  1.00  0.00     0.061 A 
HETATM   10 CL1  UNL     1      -0.461  12.070   2.709  1.00  0.00    -0.082 Cl
HETATM   11  C10 UNL     1      -0.892  14.315   4.161  1.00  0.00     0.026 A 
HETATM   12  C11 UNL     1      -0.523  15.548   4.698  1.00  0.00     0.003 A 
HETATM   13  C12 UNL     1       0.747  16.083   4.450  1.00  0.00     0.014 A 
HETATM   14  C13 UNL     1       1.659  15.367   3.648  1.00  0.00     0.001 A 
HETATM   15  H9  UNL     1       2.332  12.742   1.922  1.00  0.00     0.166 HD
ENDROOT
BRANCH   1  16
HETATM   16  N1  UNL     1       4.428  13.956   0.374  1.00  0.00    -0.347 N 
HETATM   17  C1  UNL     1       5.429  13.439  -0.419  1.00  0.00     0.252 C 
HETATM   18  O1  UNL     1       6.538  13.139   0.005  1.00  0.00    -0.268 OA
HETATM   19  H1  UNL     1       3.539  14.215  -0.027  1.00  0.00     0.163 HD
BRANCH  17  20
HETATM   20  C14 UNL     1       5.089  13.218  -1.854  1.00  0.00     0.034 A 
HETATM   21  C15 UNL     1       5.361  11.960  -2.402  1.00  0.00     0.018 A 
HETATM   22  C16 UNL     1       5.065  11.680  -3.742  1.00  0.00     0.015 A 
HETATM   23  C17 UNL     1       4.497  12.687  -4.546  1.00  0.00    -0.008 A 
HETATM   24  C18 UNL     1       4.085  12.748  -5.906  1.00  0.00     0.030 A 
HETATM   25  C20 UNL     1       4.252  13.940  -3.985  1.00  0.00     0.043 A 
HETATM   26  C19 UNL     1       3.610  14.017  -6.143  1.00  0.00     0.089 A 
HETATM   27  N3  UNL     1       3.719  14.731  -4.979  1.00  0.00    -0.365 N 
HETATM   28  H17 UNL     1       3.448  15.698  -4.863  1.00  0.00     0.165 HD
HETATM   29  C21 UNL     1       4.540  14.241  -2.645  1.00  0.00     0.047 A 
ENDBRANCH  17  20
ENDBRANCH   1  16
TORSDOF 2
ENDMDL
MODEL 8
REMARK minimizedAffinity -9.06914425
REMARK CNNscore 0.31222868
REMARK CNNaffinity 6.34028006
REMARK  2 active torsions:
REMARK  status: ('A' for Active; 'I' for Inactive)
REMARK       I    between atoms: C1_2  and  N1_3 
REMARK    1  A    between atoms: C1_2  and  C14_18 
REMARK    2  A    between atoms: N1_3  and  C2_4 
ROOT
HETATM    1  C2  UNL     1      -0.981   7.339  13.546  1.00  0.00     0.135 C 
HETATM    2  C3  UNL     1      -0.317   6.879  14.866  1.00  0.00     0.032 C 
HETATM    3  C4  UNL     1       1.034   7.571  15.123  1.00  0.00     0.007 C 
HETATM    4  C5  UNL     1       2.051   7.281  14.002  1.00  0.00     0.042 C 
HETATM    5  C6  UNL     1       1.424   7.464  12.660  1.00  0.00    -0.021 A 
HETATM    6  C7  UNL     1       0.056   7.475  12.482  1.00  0.00     0.040 A 
HETATM    7  N2  UNL     1      -0.201   7.709  11.159  1.00  0.00    -0.355 N 
HETATM    8  C8  UNL     1       0.984   7.792  10.460  1.00  0.00     0.065 A 
HETATM    9  C9  UNL     1       1.223   7.992   9.095  1.00  0.00     0.061 A 
HETATM   10 CL1  UNL     1      -0.073   8.166   7.981  1.00  0.00    -0.082 Cl
HETATM   11  C10 UNL     1       2.547   8.045   8.654  1.00  0.00     0.026 A 
HETATM   12  C11 UNL     1       3.602   7.905   9.554  1.00  0.00     0.003 A 
HETATM   13  C12 UNL     1       3.354   7.706  10.919  1.00  0.00     0.014 A 
HETATM   14  C13 UNL     1       2.025   7.646  11.383  1.00  0.00     0.001 A 
HETATM   15  H9  UNL     1      -1.121   7.802  10.745  1.00  0.00     0.166 HD
ENDROOT
BRANCH   1  16
HETATM   16  N1  UNL     1      -1.953   6.370  13.095  1.00  0.00    -0.347 N 
HETATM   17  C1  UNL     1      -3.289   6.499  13.405  1.00  0.00     0.252 C 
HETATM   18  O1  UNL     1      -3.760   7.489  13.952  1.00  0.00    -0.268 OA
HETATM   19  H1  UNL     1      -1.605   5.522  12.671  1.00  0.00     0.163 HD
BRANCH  17  20
HETATM   20  C14 UNL     1      -4.174   5.368  13.008  1.00  0.00     0.034 A 
HETATM   21  C15 UNL     1      -5.527   5.446  13.355  1.00  0.00     0.018 A 
HETATM   22  C16 UNL     1      -6.418   4.421  13.011  1.00  0.00     0.015 A 
HETATM   23  C17 UNL     1      -5.936   3.295  12.317  1.00  0.00    -0.008 A 
HETATM   24  C18 UNL     1      -6.541   2.104  11.827  1.00  0.00     0.030 A 
HETATM   25  C20 UNL     1      -4.580   3.228  11.997  1.00  0.00     0.043 A 
HETATM   26  C19 UNL     1      -5.558   1.348  11.234  1.00  0.00     0.089 A 
HETATM   27  N3  UNL     1      -4.376   2.032  11.346  1.00  0.00    -0.365 N 
HETATM   28  H17 UNL     1      -3.483   1.708  11.001  1.00  0.00     0.165 HD
HETATM   29  C21 UNL     1      -3.671   4.244  12.331  1.00  0.00     0.047 A 
ENDBRANCH  17  20
ENDBRANCH   1  16
TORSDOF 2
ENDMDL
MODEL 9
REMARK minimizedAffinity -6.89018011
REMARK CNNscore 0.298430949
REMARK CNNaffinity 5.56333685
REMARK  2 active torsions:
REMARK  status: ('A' for Active; 'I' for Inactive)
REMARK       I    between atoms: C1_2  and  N1_3 
REMARK    1  A    between atoms: C1_2  and  C14_18 
REMARK    2  A    between atoms: N1_3  and  C2_4 
ROOT
HETATM    1  C2  UNL     1     -13.398   3.000  24.652  1.00  0.00     0.135 C 
HETATM    2  C3  UNL     1     -12.190   2.151  24.189  1.00  0.00     0.032 C 
HETATM    3  C4  UNL     1     -11.910   0.960  25.124  1.00  0.00     0.007 C 
HETATM    4  C5  UNL     1     -11.592   1.420  26.560  1.00  0.00     0.042 C 
HETATM    5  C6  UNL     1     -12.579   2.441  27.018  1.00  0.00    -0.021 A 
HETATM    6  C7  UNL     1     -13.372   3.147  26.136  1.00  0.00     0.040 A 
HETATM    7  N2  UNL     1     -14.196   3.962  26.861  1.00  0.00    -0.355 N 
HETATM    8  C8  UNL     1     -13.911   3.843  28.204  1.00  0.00     0.065 A 
HETATM    9  C9  UNL     1     -14.466   4.490  29.313  1.00  0.00     0.061 A 
HETATM   10 CL1  UNL     1     -15.709   5.663  29.129  1.00  0.00    -0.082 Cl
HETATM   11  C10 UNL     1     -13.986   4.162  30.582  1.00  0.00     0.026 A 
HETATM   12  C11 UNL     1     -12.979   3.211  30.737  1.00  0.00     0.003 A 
HETATM   13  C12 UNL     1     -12.428   2.567  29.621  1.00  0.00     0.014 A 
HETATM   14  C13 UNL     1     -12.897   2.886  28.331  1.00  0.00     0.001 A 
HETATM   15  H9  UNL     1     -14.909   4.571  26.476  1.00  0.00     0.166 HD
ENDROOT
BRANCH   1  16
HETATM   16  N1  UNL     1     -13.346   4.324  24.076  1.00  0.00    -0.347 N 
HETATM   17  C1  UNL     1     -13.900   4.590  22.843  1.00  0.00     0.252 C 
HETATM   18  O1  UNL     1     -14.582   3.783  22.222  1.00  0.00    -0.268 OA
HETATM   19  H1  UNL     1     -12.767   5.011  24.536  1.00  0.00     0.163 HD
BRANCH  17  20
HETATM   20  C14 UNL     1     -13.661   5.953  22.289  1.00  0.00     0.034 A 
HETATM   21  C15 UNL     1     -14.118   6.220  20.993  1.00  0.00     0.018 A 
HETATM   22  C16 UNL     1     -13.931   7.480  20.411  1.00  0.00     0.015 A 
HETATM   23  C17 UNL     1     -13.265   8.483  21.140  1.00  0.00    -0.008 A 
HETATM   24  C18 UNL     1     -12.912   9.833  20.863  1.00  0.00     0.030 A 
HETATM   25  C20 UNL     1     -12.801   8.191  22.422  1.00  0.00     0.043 A 
HETATM   26  C19 UNL     1     -12.247  10.325  21.962  1.00  0.00     0.089 A 
HETATM   27  N3  UNL     1     -12.181   9.325  22.896  1.00  0.00    -0.365 N 
HETATM   28  H17 UNL     1     -11.742   9.406  23.803  1.00  0.00     0.165 HD
HETATM   29  C21 UNL     1     -12.979   6.936  23.025  1.00  0.00     0.047 A 
ENDBRANCH  17  20
ENDBRANCH   1  16
TORSDOF 2
ENDMDL
