MODEL 1
REMARK minimizedAffinity -9.15948868
REMARK CNNscore 0.297775656
REMARK CNNaffinity 7.26780558
REMARK  23 active torsions:
REMARK  status: ('A' for Active; 'I' for Inactive)
REMARK    1  A    between atoms: C3_3  and  C4_4 
REMARK    2  A    between atoms: C5_5  and  C6_6 
REMARK    3  A    between atoms: C7_8  and  O2_9 
REMARK    4  A    between atoms: C7_8  and  C8_10 
REMARK    5  A    between atoms: C8_10  and  C10_12 
REMARK       I    between atoms: C10_12  and  N1_14 
REMARK    6  A    between atoms: N1_14  and  C11_15 
REMARK    7  A    between atoms: C11_15  and  C12_16 
REMARK    8  A    between atoms: C13_17  and  C14_18 
REMARK    9  A    between atoms: C15_19  and  C17_21 
REMARK   10  A    between atoms: C17_21  and  O4_22 
REMARK   11  A    between atoms: C17_21  and  C19_24 
REMARK   12  A    between atoms: C19_24  and  C21_26 
REMARK   13  A    between atoms: C23_28  and  O5_29 
REMARK   14  A    between atoms: C24_30  and  C25_31 
REMARK   15  A    between atoms: C26_32  and  C27_33 
REMARK   16  A    between atoms: C28_34  and  C29_35 
REMARK   17  A    between atoms: C30_36  and  C31_37 
REMARK   18  A    between atoms: C31_37  and  O7_39 
REMARK   19  A    between atoms: C32_41  and  O9_42 
REMARK   20  A    between atoms: O9_42  and  C33_43 
REMARK   21  A    between atoms: C33_43  and  C34_45 
REMARK   22  A    between atoms: C34_45  and  C35_46 
REMARK   23  A    between atoms: C41_52  and  O11_53 
ROOT
HETATM    1  C10 UNL     1       0.908   8.923  14.296  1.00  0.00     0.227 C 
HETATM    2  O3  UNL     1       1.284   9.994  13.826  1.00  0.00    -0.273 OA
HETATM    3  N1  UNL     1       1.742   7.847  14.480  1.00  0.00    -0.357 N 
HETATM    4  H14 UNL     1       1.296   6.948  14.617  1.00  0.00     0.162 HD
ENDROOT
BRANCH   1   5
HETATM    5  C8  UNL     1      -0.563   8.669  14.620  1.00  0.00     0.139 C 
HETATM    6  C9  UNL     1      -1.157   9.997  15.094  1.00  0.00     0.026 C 
BRANCH   5   7
HETATM    7  C7  UNL     1      -1.211   8.046  13.347  1.00  0.00     0.204 C 
HETATM    8  O1  UNL     1      -0.129   7.863  12.400  1.00  0.00    -0.342 OA
HETATM    9  C6  UNL     1      -0.435   6.942  11.356  1.00  0.00     0.158 C 
HETATM   10  C42 UNL     1      -0.436   5.483  11.929  1.00  0.00     0.011 C 
HETATM   11  C41 UNL     1      -1.049   5.496  13.367  1.00  0.00     0.163 C 
HETATM   12  C43 UNL     1      -1.325   4.605  11.015  1.00  0.00     0.020 C 
HETATM   13  C44 UNL     1       0.976   4.854  11.947  1.00  0.00     0.020 C 
HETATM   14  C32 UNL     1      -1.992   6.696  13.537  1.00  0.00     0.224 C 
BRANCH   9  15
HETATM   15  C5  UNL     1       0.495   7.159  10.184  1.00  0.00     0.006 C 
HETATM   16  C4  UNL     1       0.395   8.125   9.255  1.00  0.00    -0.002 C 
BRANCH  16  17
HETATM   17  C3  UNL     1       1.330   8.249   8.162  1.00  0.00    -0.005 C 
HETATM   18  C2  UNL     1       2.315   7.397   7.841  1.00  0.00    -0.031 C 
HETATM   19  C1  UNL     1       2.676   6.103   8.495  1.00  0.00     0.036 C 
ENDBRANCH  16  17
ENDBRANCH   9  15
BRANCH  11  20
HETATM   20  O11 UNL     1      -0.044   5.555  14.391  1.00  0.00    -0.392 OA
HETATM   21  H53 UNL     1       0.335   4.663  14.478  1.00  0.00     0.210 HD
ENDBRANCH  11  20
BRANCH  14  22
HETATM   22  O9  UNL     1      -2.674   6.591  14.803  1.00  0.00    -0.307 OA
BRANCH  22  23
HETATM   23  C33 UNL     1      -4.002   6.265  14.776  1.00  0.00     0.263 C 
HETATM   24  O10 UNL     1      -4.697   6.049  15.760  1.00  0.00    -0.265 OA
BRANCH  23  25
HETATM   25  C34 UNL     1      -4.489   6.285  13.344  1.00  0.00     0.149 C 
BRANCH  25  26
HETATM   26  C35 UNL     1      -5.261   5.049  12.944  1.00  0.00    -0.049 A 
HETATM   27  C36 UNL     1      -4.627   4.006  12.255  1.00  0.00     0.007 A 
HETATM   28  C37 UNL     1      -5.343   2.868  11.883  1.00  0.00     0.001 A 
HETATM   29  C38 UNL     1      -6.697   2.756  12.202  1.00  0.00     0.000 A 
HETATM   30  C39 UNL     1      -7.334   3.784  12.895  1.00  0.00     0.001 A 
HETATM   31  C40 UNL     1      -6.619   4.923  13.268  1.00  0.00     0.007 A 
ENDBRANCH  25  26
ENDBRANCH  23  25
ENDBRANCH  22  23
ENDBRANCH  14  22
BRANCH   7  32
HETATM   32  O2  UNL     1      -2.167   8.953  12.774  1.00  0.00    -0.362 OA
HETATM   33  H9  UNL     1      -1.901   9.867  12.995  1.00  0.00     0.213 HD
ENDBRANCH   7  32
ENDBRANCH   5   7
ENDBRANCH   1   5
BRANCH   3  34
HETATM   34  C11 UNL     1       3.069   7.827  13.916  1.00  0.00     0.149 C 
BRANCH  34  35
HETATM   35  C12 UNL     1       4.096   8.434  14.819  1.00  0.00    -0.007 C 
HETATM   36  C13 UNL     1       5.217   9.089  14.477  1.00  0.00    -0.002 C 
BRANCH  36  37
HETATM   37  C14 UNL     1       6.150   9.577  15.470  1.00  0.00     0.005 C 
HETATM   38  C15 UNL     1       7.452   9.251  15.608  1.00  0.00    -0.055 C 
HETATM   39  C16 UNL     1       8.206   8.271  14.743  1.00  0.00     0.046 C 
BRANCH  38  40
HETATM   40  C17 UNL     1       8.270   9.880  16.740  1.00  0.00     0.155 C 
BRANCH  40  41
HETATM   41  O4  UNL     1       9.014   8.845  17.389  1.00  0.00    -0.386 OA
HETATM   42  C18 UNL     1       9.410   7.800  16.513  1.00  0.00     0.202 C 
ENDBRANCH  40  41
BRANCH  40  43
HETATM   43  C19 UNL     1       9.251  10.985  16.263  1.00  0.00     0.044 C 
HETATM   44  C20 UNL     1       9.312  11.049  14.725  1.00  0.00     0.015 C 
BRANCH  43  45
HETATM   45  C21 UNL     1       8.881  12.379  16.823  1.00  0.00     0.131 C 
HETATM   46  C22 UNL     1       7.501  12.921  16.462  1.00  0.00     0.067 C 
HETATM   47  C23 UNL     1       7.239  13.871  17.608  1.00  0.00     0.153 C 
HETATM   48  C24 UNL     1       7.803  13.084  18.797  1.00  0.00     0.173 C 
HETATM   49  O8  UNL     1       8.930  12.355  18.271  1.00  0.00    -0.374 OA
BRANCH  47  50
HETATM   50  O5  UNL     1       5.878  14.253  17.730  1.00  0.00    -0.393 OA
HETATM   51  H35 UNL     1       5.509  14.321  16.833  1.00  0.00     0.210 HD
ENDBRANCH  47  50
BRANCH  48  52
HETATM   52  C25 UNL     1       6.815  12.138  19.436  1.00  0.00     0.007 C 
HETATM   53  C26 UNL     1       6.182  12.298  20.611  1.00  0.00    -0.001 C 
BRANCH  53  54
HETATM   54  C27 UNL     1       5.279  11.302  21.144  1.00  0.00    -0.000 C 
HETATM   55  C28 UNL     1       5.103  11.104  22.460  1.00  0.00     0.000 C 
BRANCH  55  56
HETATM   56  C29 UNL     1       4.207  10.095  22.984  1.00  0.00     0.007 C 
HETATM   57  C30 UNL     1       3.219   9.542  22.264  1.00  0.00     0.081 C 
BRANCH  57  58
HETATM   58  C31 UNL     1       2.352   8.532  22.885  1.00  0.00     0.165 C 
HETATM   59  O6  UNL     1       1.765   7.622  22.334  1.00  0.00    -0.647 OA
BRANCH  58  60
HETATM   60  O7  UNL     1       2.270   8.741  24.208  1.00  0.00    -0.773 OA
HETATM   61  H43 UNL     1       1.669   8.028  24.514  1.00  0.00     0.167 HD
ENDBRANCH  58  60
ENDBRANCH  57  58
ENDBRANCH  55  56
ENDBRANCH  53  54
ENDBRANCH  48  52
ENDBRANCH  43  45
ENDBRANCH  40  43
ENDBRANCH  38  40
ENDBRANCH  36  37
ENDBRANCH  34  35
ENDBRANCH   3  34
TORSDOF 23
ENDMDL
MODEL 2
REMARK minimizedAffinity -7.8767786
REMARK CNNscore 0.284047186
REMARK CNNaffinity 6.48893595
REMARK  23 active torsions:
REMARK  status: ('A' for Active; 'I' for Inactive)
REMARK    1  A    between atoms: C3_3  and  C4_4 
REMARK    2  A    between atoms: C5_5  and  C6_6 
REMARK    3  A    between atoms: C7_8  and  O2_9 
REMARK    4  A    between atoms: C7_8  and  C8_10 
REMARK    5  A    between atoms: C8_10  and  C10_12 
REMARK       I    between atoms: C10_12  and  N1_14 
REMARK    6  A    between atoms: N1_14  and  C11_15 
REMARK    7  A    between atoms: C11_15  and  C12_16 
REMARK    8  A    between atoms: C13_17  and  C14_18 
REMARK    9  A    between atoms: C15_19  and  C17_21 
REMARK   10  A    between atoms: C17_21  and  O4_22 
REMARK   11  A    between atoms: C17_21  and  C19_24 
REMARK   12  A    between atoms: C19_24  and  C21_26 
REMARK   13  A    between atoms: C23_28  and  O5_29 
REMARK   14  A    between atoms: C24_30  and  C25_31 
REMARK   15  A    between atoms: C26_32  and  C27_33 
REMARK   16  A    between atoms: C28_34  and  C29_35 
REMARK   17  A    between atoms: C30_36  and  C31_37 
REMARK   18  A    between atoms: C31_37  and  O7_39 
REMARK   19  A    between atoms: C32_41  and  O9_42 
REMARK   20  A    between atoms: O9_42  and  C33_43 
REMARK   21  A    between atoms: C33_43  and  C34_45 
REMARK   22  A    between atoms: C34_45  and  C35_46 
REMARK   23  A    between atoms: C41_52  and  O11_53 
ROOT
HETATM    1  C10 UNL     1      -1.494   9.974  14.804  1.00  0.00     0.227 C 
HETATM    2  O3  UNL     1      -0.308   9.985  15.125  1.00  0.00    -0.273 OA
HETATM    3  N1  UNL     1      -2.182  11.102  14.427  1.00  0.00    -0.357 N 
HETATM    4  H14 UNL     1      -3.193  11.039  14.440  1.00  0.00     0.162 HD
ENDROOT
BRANCH   1   5
HETATM    5  C8  UNL     1      -2.332   8.701  14.900  1.00  0.00     0.139 C 
HETATM    6  C9  UNL     1      -3.692   9.098  15.479  1.00  0.00     0.026 C 
BRANCH   5   7
HETATM    7  C7  UNL     1      -2.355   8.060  13.480  1.00  0.00     0.204 C 
HETATM    8  O1  UNL     1      -0.977   8.044  13.030  1.00  0.00    -0.342 OA
HETATM    9  C6  UNL     1      -0.738   7.138  11.955  1.00  0.00     0.158 C 
HETATM   10  C42 UNL     1      -0.780   5.666  12.494  1.00  0.00     0.011 C 
HETATM   11  C41 UNL     1      -1.899   5.547  13.579  1.00  0.00     0.163 C 
HETATM   12  C43 UNL     1      -1.131   4.729  11.312  1.00  0.00     0.020 C 
HETATM   13  C44 UNL     1       0.581   5.206  13.064  1.00  0.00     0.020 C 
HETATM   14  C32 UNL     1      -2.974   6.622  13.360  1.00  0.00     0.224 C 
BRANCH   9  15
HETATM   15  C5  UNL     1       0.538   7.510  11.237  1.00  0.00     0.006 C 
HETATM   16  C4  UNL     1       0.738   7.493   9.907  1.00  0.00    -0.002 C 
BRANCH  16  17
HETATM   17  C3  UNL     1       2.001   7.860   9.309  1.00  0.00    -0.005 C 
HETATM   18  C2  UNL     1       2.327   7.798   8.010  1.00  0.00    -0.031 C 
HETATM   19  C1  UNL     1       1.477   7.375   6.856  1.00  0.00     0.036 C 
ENDBRANCH  16  17
ENDBRANCH   9  15
BRANCH  11  20
HETATM   20  O11 UNL     1      -1.384   5.681  14.914  1.00  0.00    -0.392 OA
HETATM   21  H53 UNL     1      -0.961   4.836  15.148  1.00  0.00     0.210 HD
ENDBRANCH  11  20
BRANCH  14  22
HETATM   22  O9  UNL     1      -4.075   6.385  14.262  1.00  0.00    -0.307 OA
BRANCH  22  23
HETATM   23  C33 UNL     1      -5.338   6.456  13.744  1.00  0.00     0.263 C 
HETATM   24  O10 UNL     1      -5.720   7.278  12.922  1.00  0.00    -0.265 OA
BRANCH  23  25
HETATM   25  C34 UNL     1      -6.165   5.314  14.293  1.00  0.00     0.149 C 
BRANCH  25  26
HETATM   26  C35 UNL     1      -6.245   4.120  13.372  1.00  0.00    -0.049 A 
HETATM   27  C36 UNL     1      -5.212   3.853  12.462  1.00  0.00     0.007 A 
HETATM   28  C37 UNL     1      -5.290   2.752  11.608  1.00  0.00     0.001 A 
HETATM   29  C38 UNL     1      -6.396   1.903  11.660  1.00  0.00     0.000 A 
HETATM   30  C39 UNL     1      -7.424   2.155  12.567  1.00  0.00     0.001 A 
HETATM   31  C40 UNL     1      -7.348   3.255  13.422  1.00  0.00     0.007 A 
ENDBRANCH  25  26
ENDBRANCH  23  25
ENDBRANCH  22  23
ENDBRANCH  14  22
BRANCH   7  32
HETATM   32  O2  UNL     1      -3.119   8.872  12.574  1.00  0.00    -0.362 OA
HETATM   33  H9  UNL     1      -3.074   9.801  12.874  1.00  0.00     0.213 HD
ENDBRANCH   7  32
ENDBRANCH   5   7
ENDBRANCH   1   5
BRANCH   3  34
HETATM   34  C11 UNL     1      -1.617  12.416  14.609  1.00  0.00     0.149 C 
BRANCH  34  35
HETATM   35  C12 UNL     1      -2.303  13.204  15.679  1.00  0.00    -0.007 C 
HETATM   36  C13 UNL     1      -2.970  12.742  16.749  1.00  0.00    -0.002 C 
BRANCH  36  37
HETATM   37  C14 UNL     1      -3.633  13.631  17.679  1.00  0.00     0.005 C 
HETATM   38  C15 UNL     1      -3.099  14.247  18.754  1.00  0.00    -0.055 C 
HETATM   39  C16 UNL     1      -1.672  14.108  19.223  1.00  0.00     0.046 C 
BRANCH  38  40
HETATM   40  C17 UNL     1      -3.982  15.150  19.620  1.00  0.00     0.155 C 
BRANCH  40  41
HETATM   41  O4  UNL     1      -4.267  16.344  18.884  1.00  0.00    -0.386 OA
HETATM   42  C18 UNL     1      -3.102  17.046  18.475  1.00  0.00     0.202 C 
ENDBRANCH  40  41
BRANCH  40  43
HETATM   43  C19 UNL     1      -5.322  14.490  20.047  1.00  0.00     0.044 C 
HETATM   44  C20 UNL     1      -5.536  14.601  21.568  1.00  0.00     0.015 C 
BRANCH  43  45
HETATM   45  C21 UNL     1      -6.537  15.102  19.310  1.00  0.00     0.131 C 
HETATM   46  C22 UNL     1      -7.172  14.257  18.210  1.00  0.00     0.067 C 
HETATM   47  C23 UNL     1      -8.583  14.799  18.187  1.00  0.00     0.153 C 
HETATM   48  C24 UNL     1      -8.863  14.996  19.682  1.00  0.00     0.173 C 
HETATM   49  O8  UNL     1      -7.598  15.378  20.259  1.00  0.00    -0.374 OA
BRANCH  47  50
HETATM   50  O5  UNL     1      -9.503  13.959  17.508  1.00  0.00    -0.393 OA
HETATM   51  H35 UNL     1      -9.034  13.550  16.762  1.00  0.00     0.210 HD
ENDBRANCH  47  50
BRANCH  48  52
HETATM   52  C25 UNL     1      -9.409  13.771  20.375  1.00  0.00     0.007 C 
HETATM   53  C26 UNL     1      -9.076  13.311  21.593  1.00  0.00    -0.001 C 
BRANCH  53  54
HETATM   54  C27 UNL     1      -9.641  12.100  22.144  1.00  0.00    -0.000 C 
HETATM   55  C28 UNL     1     -10.509  11.327  21.473  1.00  0.00     0.000 C 
BRANCH  55  56
HETATM   56  C29 UNL     1     -11.081  10.123  22.038  1.00  0.00     0.007 C 
HETATM   57  C30 UNL     1     -10.864   9.729  23.303  1.00  0.00     0.081 C 
BRANCH  57  58
HETATM   58  C31 UNL     1     -11.479   8.486  23.786  1.00  0.00     0.165 C 
HETATM   59  O6  UNL     1     -11.036   7.358  23.696  1.00  0.00    -0.647 OA
BRANCH  58  60
HETATM   60  O7  UNL     1     -12.659   8.748  24.369  1.00  0.00    -0.773 OA
HETATM   61  H43 UNL     1     -12.981   7.861  24.641  1.00  0.00     0.167 HD
ENDBRANCH  58  60
ENDBRANCH  57  58
ENDBRANCH  55  56
ENDBRANCH  53  54
ENDBRANCH  48  52
ENDBRANCH  43  45
ENDBRANCH  40  43
ENDBRANCH  38  40
ENDBRANCH  36  37
ENDBRANCH  34  35
ENDBRANCH   3  34
TORSDOF 23
ENDMDL
MODEL 3
REMARK minimizedAffinity -7.77050066
REMARK CNNscore 0.269877672
REMARK CNNaffinity 6.61454964
REMARK  23 active torsions:
REMARK  status: ('A' for Active; 'I' for Inactive)
REMARK    1  A    between atoms: C3_3  and  C4_4 
REMARK    2  A    between atoms: C5_5  and  C6_6 
REMARK    3  A    between atoms: C7_8  and  O2_9 
REMARK    4  A    between atoms: C7_8  and  C8_10 
REMARK    5  A    between atoms: C8_10  and  C10_12 
REMARK       I    between atoms: C10_12  and  N1_14 
REMARK    6  A    between atoms: N1_14  and  C11_15 
REMARK    7  A    between atoms: C11_15  and  C12_16 
REMARK    8  A    between atoms: C13_17  and  C14_18 
REMARK    9  A    between atoms: C15_19  and  C17_21 
REMARK   10  A    between atoms: C17_21  and  O4_22 
REMARK   11  A    between atoms: C17_21  and  C19_24 
REMARK   12  A    between atoms: C19_24  and  C21_26 
REMARK   13  A    between atoms: C23_28  and  O5_29 
REMARK   14  A    between atoms: C24_30  and  C25_31 
REMARK   15  A    between atoms: C26_32  and  C27_33 
REMARK   16  A    between atoms: C28_34  and  C29_35 
REMARK   17  A    between atoms: C30_36  and  C31_37 
REMARK   18  A    between atoms: C31_37  and  O7_39 
REMARK   19  A    between atoms: C32_41  and  O9_42 
REMARK   20  A    between atoms: O9_42  and  C33_43 
REMARK   21  A    between atoms: C33_43  and  C34_45 
REMARK   22  A    between atoms: C34_45  and  C35_46 
REMARK   23  A    between atoms: C41_52  and  O11_53 
ROOT
HETATM    1  C10 UNL     1       1.594   8.861  16.137  1.00  0.00     0.227 C 
HETATM    2  O3  UNL     1       1.868   8.220  17.148  1.00  0.00    -0.273 OA
HETATM    3  N1  UNL     1       0.469   9.641  16.021  1.00  0.00    -0.357 N 
HETATM    4  H14 UNL     1       0.199   9.909  15.083  1.00  0.00     0.162 HD
ENDROOT
BRANCH   1   5
HETATM    5  C8  UNL     1       2.445   8.756  14.873  1.00  0.00     0.139 C 
HETATM    6  C9  UNL     1       3.907   8.677  15.318  1.00  0.00     0.026 C 
BRANCH   5   7
HETATM    7  C7  UNL     1       1.910   7.539  14.061  1.00  0.00     0.204 C 
HETATM    8  O1  UNL     1       0.465   7.631  14.114  1.00  0.00    -0.342 OA
HETATM    9  C6  UNL     1      -0.192   6.865  13.107  1.00  0.00     0.158 C 
HETATM   10  C42 UNL     1      -0.007   7.564  11.716  1.00  0.00     0.011 C 
HETATM   11  C41 UNL     1       1.431   8.170  11.632  1.00  0.00     0.163 C 
HETATM   12  C43 UNL     1      -0.160   6.488  10.611  1.00  0.00     0.020 C 
HETATM   13  C44 UNL     1      -1.072   8.653  11.454  1.00  0.00     0.020 C 
HETATM   14  C32 UNL     1       2.386   7.416  12.569  1.00  0.00     0.224 C 
BRANCH   9  15
HETATM   15  C5  UNL     1      -1.630   6.616  13.501  1.00  0.00     0.006 C 
HETATM   16  C4  UNL     1      -2.334   5.492  13.278  1.00  0.00    -0.002 C 
BRANCH  16  17
HETATM   17  C3  UNL     1      -3.712   5.348  13.685  1.00  0.00    -0.005 C 
HETATM   18  C2  UNL     1      -4.643   4.566  13.120  1.00  0.00    -0.031 C 
HETATM   19  C1  UNL     1      -4.497   3.630  11.964  1.00  0.00     0.036 C 
ENDBRANCH  16  17
ENDBRANCH   9  15
BRANCH  11  20
HETATM   20  O11 UNL     1       1.459   9.564  11.976  1.00  0.00    -0.392 OA
HETATM   21  H53 UNL     1       1.123  10.060  11.208  1.00  0.00     0.210 HD
ENDBRANCH  11  20
BRANCH  14  22
HETATM   22  O9  UNL     1       3.734   7.878  12.348  1.00  0.00    -0.307 OA
BRANCH  22  23
HETATM   23  C33 UNL     1       4.485   7.205  11.424  1.00  0.00     0.263 C 
HETATM   24  O10 UNL     1       5.688   7.347  11.253  1.00  0.00    -0.265 OA
BRANCH  23  25
HETATM   25  C34 UNL     1       3.606   6.209  10.700  1.00  0.00     0.149 C 
BRANCH  25  26
HETATM   26  C35 UNL     1       3.172   6.664   9.326  1.00  0.00    -0.049 A 
HETATM   27  C36 UNL     1       2.809   5.728   8.348  1.00  0.00     0.007 A 
HETATM   28  C37 UNL     1       2.412   6.151   7.079  1.00  0.00     0.001 A 
HETATM   29  C38 UNL     1       2.367   7.512   6.776  1.00  0.00     0.000 A 
HETATM   30  C39 UNL     1       2.717   8.451   7.745  1.00  0.00     0.001 A 
HETATM   31  C40 UNL     1       3.114   8.030   9.015  1.00  0.00     0.007 A 
ENDBRANCH  25  26
ENDBRANCH  23  25
ENDBRANCH  22  23
ENDBRANCH  14  22
BRANCH   7  32
HETATM   32  O2  UNL     1       2.310   6.306  14.683  1.00  0.00    -0.362 OA
HETATM   33  H9  UNL     1       2.415   6.460  15.642  1.00  0.00     0.213 HD
ENDBRANCH   7  32
ENDBRANCH   5   7
ENDBRANCH   1   5
BRANCH   3  34
HETATM   34  C11 UNL     1      -0.588   9.575  17.000  1.00  0.00     0.149 C 
BRANCH  34  35
HETATM   35  C12 UNL     1      -1.348  10.857  17.126  1.00  0.00    -0.007 C 
HETATM   36  C13 UNL     1      -2.309  11.166  18.012  1.00  0.00    -0.002 C 
BRANCH  36  37
HETATM   37  C14 UNL     1      -2.998  12.438  17.978  1.00  0.00     0.005 C 
HETATM   38  C15 UNL     1      -2.624  13.595  18.565  1.00  0.00    -0.055 C 
HETATM   39  C16 UNL     1      -1.391  13.786  19.414  1.00  0.00     0.046 C 
BRANCH  38  40
HETATM   40  C17 UNL     1      -3.506  14.837  18.411  1.00  0.00     0.155 C 
BRANCH  40  41
HETATM   41  O4  UNL     1      -3.998  14.879  17.068  1.00  0.00    -0.386 OA
HETATM   42  C18 UNL     1      -4.843  15.991  16.811  1.00  0.00     0.202 C 
ENDBRANCH  40  41
BRANCH  40  43
HETATM   43  C19 UNL     1      -4.711  14.873  19.391  1.00  0.00     0.044 C 
HETATM   44  C20 UNL     1      -5.026  13.468  19.937  1.00  0.00     0.015 C 
BRANCH  43  45
HETATM   45  C21 UNL     1      -4.476  15.845  20.572  1.00  0.00     0.131 C 
HETATM   46  C22 UNL     1      -5.563  16.882  20.836  1.00  0.00     0.067 C 
HETATM   47  C23 UNL     1      -5.358  17.170  22.306  1.00  0.00     0.153 C 
HETATM   48  C24 UNL     1      -5.059  15.770  22.855  1.00  0.00     0.173 C 
HETATM   49  O8  UNL     1      -4.339  15.094  21.804  1.00  0.00    -0.374 OA
BRANCH  47  50
HETATM   50  O5  UNL     1      -6.455  17.833  22.914  1.00  0.00    -0.393 OA
HETATM   51  H35 UNL     1      -6.832  18.443  22.257  1.00  0.00     0.210 HD
ENDBRANCH  47  50
BRANCH  48  52
HETATM   52  C25 UNL     1      -6.287  14.982  23.243  1.00  0.00     0.007 C 
HETATM   53  C26 UNL     1      -7.166  15.276  24.216  1.00  0.00    -0.001 C 
BRANCH  53  54
HETATM   54  C27 UNL     1      -8.293  14.424  24.524  1.00  0.00    -0.000 C 
HETATM   55  C28 UNL     1      -8.614  13.344  23.794  1.00  0.00     0.000 C 
BRANCH  55  56
HETATM   56  C29 UNL     1      -9.752  12.505  24.102  1.00  0.00     0.007 C 
HETATM   57  C30 UNL     1     -10.190  11.531  23.290  1.00  0.00     0.081 C 
BRANCH  57  58
HETATM   58  C31 UNL     1     -11.362  10.737  23.681  1.00  0.00     0.165 C 
HETATM   59  O6  UNL     1     -12.172  10.204  22.949  1.00  0.00    -0.647 OA
BRANCH  58  60
HETATM   60  O7  UNL     1     -11.449  10.666  25.018  1.00  0.00    -0.773 OA
HETATM   61  H43 UNL     1     -12.258  10.132  25.166  1.00  0.00     0.167 HD
ENDBRANCH  58  60
ENDBRANCH  57  58
ENDBRANCH  55  56
ENDBRANCH  53  54
ENDBRANCH  48  52
ENDBRANCH  43  45
ENDBRANCH  40  43
ENDBRANCH  38  40
ENDBRANCH  36  37
ENDBRANCH  34  35
ENDBRANCH   3  34
TORSDOF 23
ENDMDL
MODEL 4
REMARK minimizedAffinity -8.44136524
REMARK CNNscore 0.213303983
REMARK CNNaffinity 6.70006943
REMARK  23 active torsions:
REMARK  status: ('A' for Active; 'I' for Inactive)
REMARK    1  A    between atoms: C3_3  and  C4_4 
REMARK    2  A    between atoms: C5_5  and  C6_6 
REMARK    3  A    between atoms: C7_8  and  O2_9 
REMARK    4  A    between atoms: C7_8  and  C8_10 
REMARK    5  A    between atoms: C8_10  and  C10_12 
REMARK       I    between atoms: C10_12  and  N1_14 
REMARK    6  A    between atoms: N1_14  and  C11_15 
REMARK    7  A    between atoms: C11_15  and  C12_16 
REMARK    8  A    between atoms: C13_17  and  C14_18 
REMARK    9  A    between atoms: C15_19  and  C17_21 
REMARK   10  A    between atoms: C17_21  and  O4_22 
REMARK   11  A    between atoms: C17_21  and  C19_24 
REMARK   12  A    between atoms: C19_24  and  C21_26 
REMARK   13  A    between atoms: C23_28  and  O5_29 
REMARK   14  A    between atoms: C24_30  and  C25_31 
REMARK   15  A    between atoms: C26_32  and  C27_33 
REMARK   16  A    between atoms: C28_34  and  C29_35 
REMARK   17  A    between atoms: C30_36  and  C31_37 
REMARK   18  A    between atoms: C31_37  and  O7_39 
REMARK   19  A    between atoms: C32_41  and  O9_42 
REMARK   20  A    between atoms: O9_42  and  C33_43 
REMARK   21  A    between atoms: C33_43  and  C34_45 
REMARK   22  A    between atoms: C34_45  and  C35_46 
REMARK   23  A    between atoms: C41_52  and  O11_53 
ROOT
HETATM    1  C10 UNL     1      -0.290   7.746  14.415  1.00  0.00     0.227 C 
HETATM    2  O3  UNL     1      -0.717   8.197  13.356  1.00  0.00    -0.273 OA
HETATM    3  N1  UNL     1      -0.240   6.402  14.695  1.00  0.00    -0.357 N 
HETATM    4  H14 UNL     1      -0.127   6.148  15.669  1.00  0.00     0.162 HD
ENDROOT
BRANCH   1   5
HETATM    5  C8  UNL     1       0.129   8.666  15.561  1.00  0.00     0.139 C 
HETATM    6  C9  UNL     1      -0.854   8.432  16.710  1.00  0.00     0.026 C 
BRANCH   5   7
HETATM    7  C7  UNL     1       1.626   8.362  15.868  1.00  0.00     0.204 C 
HETATM    8  O1  UNL     1       2.270   8.200  14.580  1.00  0.00    -0.342 OA
HETATM    9  C6  UNL     1       3.689   8.328  14.633  1.00  0.00     0.158 C 
HETATM   10  C42 UNL     1       4.071   9.833  14.851  1.00  0.00     0.011 C 
HETATM   11  C41 UNL     1       3.041  10.488  15.827  1.00  0.00     0.163 C 
HETATM   12  C43 UNL     1       5.477   9.886  15.498  1.00  0.00     0.020 C 
HETATM   13  C44 UNL     1       4.140  10.624  13.524  1.00  0.00     0.020 C 
HETATM   14  C32 UNL     1       2.403   9.421  16.728  1.00  0.00     0.224 C 
BRANCH   9  15
HETATM   15  C5  UNL     1       4.313   7.689  13.413  1.00  0.00     0.006 C 
HETATM   16  C4  UNL     1       3.966   7.909  12.133  1.00  0.00    -0.002 C 
BRANCH  16  17
HETATM   17  C3  UNL     1       4.617   7.244  11.029  1.00  0.00    -0.005 C 
HETATM   18  C2  UNL     1       4.147   6.205  10.322  1.00  0.00    -0.031 C 
HETATM   19  C1  UNL     1       2.839   5.497  10.464  1.00  0.00     0.036 C 
ENDBRANCH  16  17
ENDBRANCH   9  15
BRANCH  11  20
HETATM   20  O11 UNL     1       1.995  11.186  15.134  1.00  0.00    -0.392 OA
HETATM   21  H53 UNL     1       2.363  12.035  14.830  1.00  0.00     0.210 HD
ENDBRANCH  11  20
BRANCH  14  22
HETATM   22  O9  UNL     1       1.591  10.067  17.730  1.00  0.00    -0.307 OA
BRANCH  22  23
HETATM   23  C33 UNL     1       2.240  10.664  18.775  1.00  0.00     0.263 C 
HETATM   24  O10 UNL     1       3.343  11.191  18.714  1.00  0.00    -0.265 OA
BRANCH  23  25
HETATM   25  C34 UNL     1       1.347  10.635  19.996  1.00  0.00     0.149 C 
BRANCH  25  26
HETATM   26  C35 UNL     1       2.089  10.383  21.288  1.00  0.00    -0.049 A 
HETATM   27  C36 UNL     1       2.681  11.445  21.986  1.00  0.00     0.007 A 
HETATM   28  C37 UNL     1       3.370  11.210  23.177  1.00  0.00     0.001 A 
HETATM   29  C38 UNL     1       3.467   9.915  23.686  1.00  0.00     0.000 A 
HETATM   30  C39 UNL     1       2.873   8.854  23.004  1.00  0.00     0.001 A 
HETATM   31  C40 UNL     1       2.184   9.087  21.813  1.00  0.00     0.007 A 
ENDBRANCH  25  26
ENDBRANCH  23  25
ENDBRANCH  22  23
ENDBRANCH  14  22
BRANCH   7  32
HETATM   32  O2  UNL     1       1.748   7.127  16.595  1.00  0.00    -0.362 OA
HETATM   33  H9  UNL     1       0.996   6.550  16.358  1.00  0.00     0.213 HD
ENDBRANCH   7  32
ENDBRANCH   5   7
ENDBRANCH   1   5
BRANCH   3  34
HETATM   34  C11 UNL     1      -0.903   5.439  13.852  1.00  0.00     0.149 C 
BRANCH  34  35
HETATM   35  C12 UNL     1      -2.395   5.516  13.940  1.00  0.00    -0.007 C 
HETATM   36  C13 UNL     1      -3.284   5.533  12.935  1.00  0.00    -0.002 C 
BRANCH  36  37
HETATM   37  C14 UNL     1      -4.706   5.666  13.174  1.00  0.00     0.005 C 
HETATM   38  C15 UNL     1      -5.393   6.794  13.451  1.00  0.00    -0.055 C 
HETATM   39  C16 UNL     1      -4.794   8.172  13.591  1.00  0.00     0.046 C 
BRANCH  38  40
HETATM   40  C17 UNL     1      -6.905   6.717  13.680  1.00  0.00     0.155 C 
BRANCH  40  41
HETATM   41  O4  UNL     1      -7.431   5.657  12.874  1.00  0.00    -0.386 OA
HETATM   42  C18 UNL     1      -8.742   5.262  13.246  1.00  0.00     0.202 C 
ENDBRANCH  40  41
BRANCH  40  43
HETATM   43  C19 UNL     1      -7.301   6.468  15.160  1.00  0.00     0.044 C 
HETATM   44  C20 UNL     1      -6.113   5.915  15.969  1.00  0.00     0.015 C 
BRANCH  43  45
HETATM   45  C21 UNL     1      -7.840   7.747  15.845  1.00  0.00     0.131 C 
HETATM   46  C22 UNL     1      -8.046   8.969  14.955  1.00  0.00     0.067 C 
HETATM   47  C23 UNL     1      -9.108   9.726  15.720  1.00  0.00     0.153 C 
HETATM   48  C24 UNL     1     -10.015   8.586  16.200  1.00  0.00     0.173 C 
HETATM   49  O8  UNL     1      -9.130   7.474  16.447  1.00  0.00    -0.374 OA
BRANCH  47  50
HETATM   50  O5  UNL     1      -9.756  10.728  14.953  1.00  0.00    -0.393 OA
HETATM   51  H35 UNL     1      -9.095  11.115  14.354  1.00  0.00     0.210 HD
ENDBRANCH  47  50
BRANCH  48  52
HETATM   52  C25 UNL     1     -11.090   8.195  15.215  1.00  0.00     0.007 C 
HETATM   53  C26 UNL     1     -11.627   8.964  14.252  1.00  0.00    -0.001 C 
BRANCH  53  54
HETATM   54  C27 UNL     1     -12.683   8.491  13.385  1.00  0.00    -0.000 C 
HETATM   55  C28 UNL     1     -13.886   8.108  13.839  1.00  0.00     0.000 C 
BRANCH  55  56
HETATM   56  C29 UNL     1     -14.932   7.623  12.965  1.00  0.00     0.007 C 
HETATM   57  C30 UNL     1     -16.063   7.057  13.413  1.00  0.00     0.081 C 
BRANCH  57  58
HETATM   58  C31 UNL     1     -17.065   6.584  12.448  1.00  0.00     0.165 C 
HETATM   59  O6  UNL     1     -17.713   7.252  11.667  1.00  0.00    -0.647 OA
BRANCH  58  60
HETATM   60  O7  UNL     1     -17.199   5.252  12.534  1.00  0.00    -0.773 OA
HETATM   61  H43 UNL     1     -17.888   5.048  11.866  1.00  0.00     0.167 HD
ENDBRANCH  58  60
ENDBRANCH  57  58
ENDBRANCH  55  56
ENDBRANCH  53  54
ENDBRANCH  48  52
ENDBRANCH  43  45
ENDBRANCH  40  43
ENDBRANCH  38  40
ENDBRANCH  36  37
ENDBRANCH  34  35
ENDBRANCH   3  34
TORSDOF 23
ENDMDL
MODEL 5
REMARK minimizedAffinity -8.99229527
REMARK CNNscore 0.193990901
REMARK CNNaffinity 6.12872076
REMARK  23 active torsions:
REMARK  status: ('A' for Active; 'I' for Inactive)
REMARK    1  A    between atoms: C3_3  and  C4_4 
REMARK    2  A    between atoms: C5_5  and  C6_6 
REMARK    3  A    between atoms: C7_8  and  O2_9 
REMARK    4  A    between atoms: C7_8  and  C8_10 
REMARK    5  A    between atoms: C8_10  and  C10_12 
REMARK       I    between atoms: C10_12  and  N1_14 
REMARK    6  A    between atoms: N1_14  and  C11_15 
REMARK    7  A    between atoms: C11_15  and  C12_16 
REMARK    8  A    between atoms: C13_17  and  C14_18 
REMARK    9  A    between atoms: C15_19  and  C17_21 
REMARK   10  A    between atoms: C17_21  and  O4_22 
REMARK   11  A    between atoms: C17_21  and  C19_24 
REMARK   12  A    between atoms: C19_24  and  C21_26 
REMARK   13  A    between atoms: C23_28  and  O5_29 
REMARK   14  A    between atoms: C24_30  and  C25_31 
REMARK   15  A    between atoms: C26_32  and  C27_33 
REMARK   16  A    between atoms: C28_34  and  C29_35 
REMARK   17  A    between atoms: C30_36  and  C31_37 
REMARK   18  A    between atoms: C31_37  and  O7_39 
REMARK   19  A    between atoms: C32_41  and  O9_42 
REMARK   20  A    between atoms: O9_42  and  C33_43 
REMARK   21  A    between atoms: C33_43  and  C34_45 
REMARK   22  A    between atoms: C34_45  and  C35_46 
REMARK   23  A    between atoms: C41_52  and  O11_53 
ROOT
HETATM    1  C10 UNL     1      -0.571   9.569  15.347  1.00  0.00     0.227 C 
HETATM    2  O3  UNL     1      -0.207  10.714  15.093  1.00  0.00    -0.273 OA
HETATM    3  N1  UNL     1      -1.540   9.275  16.276  1.00  0.00    -0.357 N 
HETATM    4  H14 UNL     1      -1.580   8.317  16.599  1.00  0.00     0.162 HD
ENDROOT
BRANCH   1   5
HETATM    5  C8  UNL     1       0.112   8.358  14.715  1.00  0.00     0.139 C 
HETATM    6  C9  UNL     1       0.293   7.313  15.818  1.00  0.00     0.026 C 
BRANCH   5   7
HETATM    7  C7  UNL     1      -0.760   7.924  13.499  1.00  0.00     0.204 C 
HETATM    8  O1  UNL     1       0.166   7.695  12.408  1.00  0.00    -0.342 OA
HETATM    9  C6  UNL     1      -0.380   6.908  11.352  1.00  0.00     0.158 C 
HETATM   10  C42 UNL     1      -0.498   5.416  11.820  1.00  0.00     0.011 C 
HETATM   11  C41 UNL     1      -0.925   5.380  13.323  1.00  0.00     0.163 C 
HETATM   12  C43 UNL     1      -1.597   4.729  10.972  1.00  0.00     0.020 C 
HETATM   13  C44 UNL     1       0.814   4.625  11.609  1.00  0.00     0.020 C 
HETATM   14  C32 UNL     1      -1.678   6.665  13.697  1.00  0.00     0.224 C 
BRANCH   9  15
HETATM   15  C5  UNL     1       0.420   7.110  10.086  1.00  0.00     0.006 C 
HETATM   16  C4  UNL     1       0.350   8.169   9.260  1.00  0.00    -0.002 C 
BRANCH  16  17
HETATM   17  C3  UNL     1       1.152   8.272   8.063  1.00  0.00    -0.005 C 
HETATM   18  C2  UNL     1       2.335   7.684   7.831  1.00  0.00    -0.031 C 
HETATM   19  C1  UNL     1       3.106   6.760   8.716  1.00  0.00     0.036 C 
ENDBRANCH  16  17
ENDBRANCH   9  15
BRANCH  11  20
HETATM   20  O11 UNL     1       0.197   5.234  14.208  1.00  0.00    -0.392 OA
HETATM   21  H53 UNL     1       0.467   4.300  14.184  1.00  0.00     0.210 HD
ENDBRANCH  11  20
BRANCH  14  22
HETATM   22  O9  UNL     1      -2.209   6.535  15.031  1.00  0.00    -0.307 OA
BRANCH  22  23
HETATM   23  C33 UNL     1      -3.557   6.341  15.156  1.00  0.00     0.263 C 
HETATM   24  O10 UNL     1      -4.134   6.034  16.190  1.00  0.00    -0.265 OA
BRANCH  23  25
HETATM   25  C34 UNL     1      -4.225   6.637  13.831  1.00  0.00     0.149 C 
BRANCH  25  26
HETATM   26  C35 UNL     1      -5.205   5.574  13.391  1.00  0.00    -0.049 A 
HETATM   27  C36 UNL     1      -4.749   4.387  12.802  1.00  0.00     0.007 A 
HETATM   28  C37 UNL     1      -5.656   3.408  12.392  1.00  0.00     0.001 A 
HETATM   29  C38 UNL     1      -7.025   3.603  12.573  1.00  0.00     0.000 A 
HETATM   30  C39 UNL     1      -7.488   4.777  13.166  1.00  0.00     0.001 A 
HETATM   31  C40 UNL     1      -6.583   5.756  13.577  1.00  0.00     0.007 A 
ENDBRANCH  25  26
ENDBRANCH  23  25
ENDBRANCH  22  23
ENDBRANCH  14  22
BRANCH   7  32
HETATM   32  O2  UNL     1      -1.655   8.983  13.120  1.00  0.00    -0.362 OA
HETATM   33  H9  UNL     1      -1.249   9.838  13.365  1.00  0.00     0.213 HD
ENDBRANCH   7  32
ENDBRANCH   5   7
ENDBRANCH   1   5
BRANCH   3  34
HETATM   34  C11 UNL     1      -2.033  10.282  17.182  1.00  0.00     0.149 C 
BRANCH  34  35
HETATM   35  C12 UNL     1      -1.223  10.386  18.436  1.00  0.00    -0.007 C 
HETATM   36  C13 UNL     1      -0.315  11.320  18.761  1.00  0.00    -0.002 C 
BRANCH  36  37
HETATM   37  C14 UNL     1       0.436  11.259  19.996  1.00  0.00     0.005 C 
HETATM   38  C15 UNL     1       1.721  10.884  20.162  1.00  0.00    -0.055 C 
HETATM   39  C16 UNL     1       2.646  10.420  19.064  1.00  0.00     0.046 C 
BRANCH  38  40
HETATM   40  C17 UNL     1       2.330  10.883  21.567  1.00  0.00     0.155 C 
BRANCH  40  41
HETATM   41  O4  UNL     1       3.016   9.643  21.762  1.00  0.00    -0.386 OA
HETATM   42  C18 UNL     1       2.329   8.746  22.622  1.00  0.00     0.202 C 
ENDBRANCH  40  41
BRANCH  40  43
HETATM   43  C19 UNL     1       3.320  12.052  21.821  1.00  0.00     0.044 C 
HETATM   44  C20 UNL     1       3.233  12.549  23.276  1.00  0.00     0.015 C 
BRANCH  43  45
HETATM   45  C21 UNL     1       4.782  11.662  21.496  1.00  0.00     0.131 C 
HETATM   46  C22 UNL     1       5.507  12.516  20.460  1.00  0.00     0.067 C 
HETATM   47  C23 UNL     1       6.952  12.310  20.854  1.00  0.00     0.153 C 
HETATM   48  C24 UNL     1       6.860  12.332  22.385  1.00  0.00     0.173 C 
HETATM   49  O8  UNL     1       5.587  11.732  22.699  1.00  0.00    -0.374 OA
BRANCH  47  50
HETATM   50  O5  UNL     1       7.837  13.265  20.291  1.00  0.00    -0.393 OA
HETATM   51  H35 UNL     1       7.511  13.480  19.401  1.00  0.00     0.210 HD
ENDBRANCH  47  50
BRANCH  48  52
HETATM   52  C25 UNL     1       6.955  13.713  22.990  1.00  0.00     0.007 C 
HETATM   53  C26 UNL     1       8.055  14.311  23.478  1.00  0.00    -0.001 C 
BRANCH  53  54
HETATM   54  C27 UNL     1       8.020  15.629  24.070  1.00  0.00    -0.000 C 
HETATM   55  C28 UNL     1       8.847  16.011  25.056  1.00  0.00     0.000 C 
BRANCH  55  56
HETATM   56  C29 UNL     1       8.794  17.328  25.652  1.00  0.00     0.007 C 
HETATM   57  C30 UNL     1       9.689  18.293  25.388  1.00  0.00     0.081 C 
BRANCH  57  58
HETATM   58  C31 UNL     1       9.561  19.597  26.049  1.00  0.00     0.165 C 
HETATM   59  O6  UNL     1       8.626  20.004  26.710  1.00  0.00    -0.647 OA
BRANCH  58  60
HETATM   60  O7  UNL     1      10.656  20.341  25.825  1.00  0.00    -0.773 OA
HETATM   61  H43 UNL     1      10.462  21.180  26.295  1.00  0.00     0.167 HD
ENDBRANCH  58  60
ENDBRANCH  57  58
ENDBRANCH  55  56
ENDBRANCH  53  54
ENDBRANCH  48  52
ENDBRANCH  43  45
ENDBRANCH  40  43
ENDBRANCH  38  40
ENDBRANCH  36  37
ENDBRANCH  34  35
ENDBRANCH   3  34
TORSDOF 23
ENDMDL
MODEL 6
REMARK minimizedAffinity -8.41154385
REMARK CNNscore 0.17415522
REMARK CNNaffinity 7.29030752
REMARK  23 active torsions:
REMARK  status: ('A' for Active; 'I' for Inactive)
REMARK    1  A    between atoms: C3_3  and  C4_4 
REMARK    2  A    between atoms: C5_5  and  C6_6 
REMARK    3  A    between atoms: C7_8  and  O2_9 
REMARK    4  A    between atoms: C7_8  and  C8_10 
REMARK    5  A    between atoms: C8_10  and  C10_12 
REMARK       I    between atoms: C10_12  and  N1_14 
REMARK    6  A    between atoms: N1_14  and  C11_15 
REMARK    7  A    between atoms: C11_15  and  C12_16 
REMARK    8  A    between atoms: C13_17  and  C14_18 
REMARK    9  A    between atoms: C15_19  and  C17_21 
REMARK   10  A    between atoms: C17_21  and  O4_22 
REMARK   11  A    between atoms: C17_21  and  C19_24 
REMARK   12  A    between atoms: C19_24  and  C21_26 
REMARK   13  A    between atoms: C23_28  and  O5_29 
REMARK   14  A    between atoms: C24_30  and  C25_31 
REMARK   15  A    between atoms: C26_32  and  C27_33 
REMARK   16  A    between atoms: C28_34  and  C29_35 
REMARK   17  A    between atoms: C30_36  and  C31_37 
REMARK   18  A    between atoms: C31_37  and  O7_39 
REMARK   19  A    between atoms: C32_41  and  O9_42 
REMARK   20  A    between atoms: O9_42  and  C33_43 
REMARK   21  A    between atoms: C33_43  and  C34_45 
REMARK   22  A    between atoms: C34_45  and  C35_46 
REMARK   23  A    between atoms: C41_52  and  O11_53 
ROOT
HETATM    1  C10 UNL     1       1.643   7.583  13.880  1.00  0.00     0.227 C 
HETATM    2  O3  UNL     1       1.857   6.374  13.830  1.00  0.00    -0.273 OA
HETATM    3  N1  UNL     1       0.460   8.156  13.480  1.00  0.00    -0.357 N 
HETATM    4  H14 UNL     1       0.476   9.153  13.311  1.00  0.00     0.162 HD
ENDROOT
BRANCH   1   5
HETATM    5  C8  UNL     1       2.733   8.567  14.300  1.00  0.00     0.139 C 
HETATM    6  C9  UNL     1       3.779   7.774  15.085  1.00  0.00     0.026 C 
BRANCH   5   7
HETATM    7  C7  UNL     1       3.238   9.271  13.005  1.00  0.00     0.204 C 
HETATM    8  O1  UNL     1       3.710  10.576  13.421  1.00  0.00    -0.342 OA
HETATM    9  C6  UNL     1       4.576  11.198  12.474  1.00  0.00     0.158 C 
HETATM   10  C42 UNL     1       5.968  10.477  12.486  1.00  0.00     0.011 C 
HETATM   11  C41 UNL     1       5.750   8.941  12.679  1.00  0.00     0.163 C 
HETATM   12  C43 UNL     1       6.648  10.717  11.115  1.00  0.00     0.020 C 
HETATM   13  C44 UNL     1       6.912  11.032  13.577  1.00  0.00     0.020 C 
HETATM   14  C32 UNL     1       4.355   8.532  12.185  1.00  0.00     0.224 C 
BRANCH   9  15
HETATM   15  C5  UNL     1       4.634  12.687  12.724  1.00  0.00     0.006 C 
HETATM   16  C4  UNL     1       3.584  13.508  12.898  1.00  0.00    -0.002 C 
BRANCH  16  17
HETATM   17  C3  UNL     1       3.738  14.926  13.125  1.00  0.00    -0.005 C 
HETATM   18  C2  UNL     1       3.904  15.879  12.196  1.00  0.00    -0.031 C 
HETATM   19  C1  UNL     1       3.939  15.734  10.709  1.00  0.00     0.036 C 
ENDBRANCH  16  17
ENDBRANCH   9  15
BRANCH  11  20
HETATM   20  O11 UNL     1       5.888   8.536  14.050  1.00  0.00    -0.392 OA
HETATM   21  H53 UNL     1       6.840   8.503  14.249  1.00  0.00     0.210 HD
ENDBRANCH  11  20
BRANCH  14  22
HETATM   22  O9  UNL     1       4.243   7.094  12.213  1.00  0.00    -0.307 OA
BRANCH  22  23
HETATM   23  C33 UNL     1       4.467   6.424  11.042  1.00  0.00     0.263 C 
HETATM   24  O10 UNL     1       5.558   6.280  10.507  1.00  0.00    -0.265 OA
BRANCH  23  25
HETATM   25  C34 UNL     1       3.164   5.830  10.553  1.00  0.00     0.149 C 
BRANCH  25  26
HETATM   26  C35 UNL     1       2.705   6.378   9.222  1.00  0.00    -0.049 A 
HETATM   27  C36 UNL     1       2.129   7.653   9.139  1.00  0.00     0.007 A 
HETATM   28  C37 UNL     1       1.701   8.155   7.909  1.00  0.00     0.001 A 
HETATM   29  C38 UNL     1       1.850   7.393   6.750  1.00  0.00     0.000 A 
HETATM   30  C39 UNL     1       2.430   6.127   6.822  1.00  0.00     0.001 A 
HETATM   31  C40 UNL     1       2.859   5.623   8.051  1.00  0.00     0.007 A 
ENDBRANCH  25  26
ENDBRANCH  23  25
ENDBRANCH  22  23
ENDBRANCH  14  22
BRANCH   7  32
HETATM   32  O2  UNL     1       2.154   9.455  12.078  1.00  0.00    -0.362 OA
HETATM   33  H9  UNL     1       1.321   9.529  12.583  1.00  0.00     0.213 HD
ENDBRANCH   7  32
ENDBRANCH   5   7
ENDBRANCH   1   5
BRANCH   3  34
HETATM   34  C11 UNL     1      -0.529   7.395  12.756  1.00  0.00     0.149 C 
BRANCH  34  35
HETATM   35  C12 UNL     1      -1.865   7.386  13.428  1.00  0.00    -0.007 C 
HETATM   36  C13 UNL     1      -2.171   7.798  14.669  1.00  0.00    -0.002 C 
BRANCH  36  37
HETATM   37  C14 UNL     1      -3.509   7.677  15.206  1.00  0.00     0.005 C 
HETATM   38  C15 UNL     1      -4.675   7.963  14.589  1.00  0.00    -0.055 C 
HETATM   39  C16 UNL     1      -4.813   8.502  13.186  1.00  0.00     0.046 C 
BRANCH  38  40
HETATM   40  C17 UNL     1      -5.993   7.770  15.343  1.00  0.00     0.155 C 
BRANCH  40  41
HETATM   41  O4  UNL     1      -7.062   8.227  14.509  1.00  0.00    -0.386 OA
HETATM   42  C18 UNL     1      -7.925   9.153  15.153  1.00  0.00     0.202 C 
ENDBRANCH  40  41
BRANCH  40  43
HETATM   43  C19 UNL     1      -6.269   6.298  15.754  1.00  0.00     0.044 C 
HETATM   44  C20 UNL     1      -7.579   6.180  16.554  1.00  0.00     0.015 C 
BRANCH  43  45
HETATM   45  C21 UNL     1      -6.324   5.349  14.532  1.00  0.00     0.131 C 
HETATM   46  C22 UNL     1      -7.344   4.217  14.587  1.00  0.00     0.067 C 
HETATM   47  C23 UNL     1      -7.576   3.946  13.117  1.00  0.00     0.153 C 
HETATM   48  C24 UNL     1      -7.583   5.366  12.539  1.00  0.00     0.173 C 
HETATM   49  O8  UNL     1      -6.637   6.107  13.337  1.00  0.00    -0.374 OA
BRANCH  47  50
HETATM   50  O5  UNL     1      -8.745   3.185  12.857  1.00  0.00    -0.393 OA
HETATM   51  H35 UNL     1      -8.847   2.544  13.581  1.00  0.00     0.210 HD
ENDBRANCH  47  50
BRANCH  48  52
HETATM   52  C25 UNL     1      -8.935   6.038  12.566  1.00  0.00     0.007 C 
HETATM   53  C26 UNL     1      -9.698   6.282  13.645  1.00  0.00    -0.001 C 
BRANCH  53  54
HETATM   54  C27 UNL     1     -11.000   6.904  13.547  1.00  0.00    -0.000 C 
HETATM   55  C28 UNL     1     -11.230   8.179  13.896  1.00  0.00     0.000 C 
BRANCH  55  56
HETATM   56  C29 UNL     1     -12.540   8.788  13.807  1.00  0.00     0.007 C 
HETATM   57  C30 UNL     1     -13.173   9.007  12.644  1.00  0.00     0.081 C 
BRANCH  57  58
HETATM   58  C31 UNL     1     -14.498   9.641  12.652  1.00  0.00     0.165 C 
HETATM   59  O6  UNL     1     -14.863  10.584  13.326  1.00  0.00    -0.647 OA
BRANCH  58  60
HETATM   60  O7  UNL     1     -15.313   9.022  11.784  1.00  0.00    -0.773 OA
HETATM   61  H43 UNL     1     -16.158   9.512  11.877  1.00  0.00     0.167 HD
ENDBRANCH  58  60
ENDBRANCH  57  58
ENDBRANCH  55  56
ENDBRANCH  53  54
ENDBRANCH  48  52
ENDBRANCH  43  45
ENDBRANCH  40  43
ENDBRANCH  38  40
ENDBRANCH  36  37
ENDBRANCH  34  35
ENDBRANCH   3  34
TORSDOF 23
ENDMDL
MODEL 7
REMARK minimizedAffinity -9.02550697
REMARK CNNscore 0.170830533
REMARK CNNaffinity 6.3098526
REMARK  23 active torsions:
REMARK  status: ('A' for Active; 'I' for Inactive)
REMARK    1  A    between atoms: C3_3  and  C4_4 
REMARK    2  A    between atoms: C5_5  and  C6_6 
REMARK    3  A    between atoms: C7_8  and  O2_9 
REMARK    4  A    between atoms: C7_8  and  C8_10 
REMARK    5  A    between atoms: C8_10  and  C10_12 
REMARK       I    between atoms: C10_12  and  N1_14 
REMARK    6  A    between atoms: N1_14  and  C11_15 
REMARK    7  A    between atoms: C11_15  and  C12_16 
REMARK    8  A    between atoms: C13_17  and  C14_18 
REMARK    9  A    between atoms: C15_19  and  C17_21 
REMARK   10  A    between atoms: C17_21  and  O4_22 
REMARK   11  A    between atoms: C17_21  and  C19_24 
REMARK   12  A    between atoms: C19_24  and  C21_26 
REMARK   13  A    between atoms: C23_28  and  O5_29 
REMARK   14  A    between atoms: C24_30  and  C25_31 
REMARK   15  A    between atoms: C26_32  and  C27_33 
REMARK   16  A    between atoms: C28_34  and  C29_35 
REMARK   17  A    between atoms: C30_36  and  C31_37 
REMARK   18  A    between atoms: C31_37  and  O7_39 
REMARK   19  A    between atoms: C32_41  and  O9_42 
REMARK   20  A    between atoms: O9_42  and  C33_43 
REMARK   21  A    between atoms: C33_43  and  C34_45 
REMARK   22  A    between atoms: C34_45  and  C35_46 
REMARK   23  A    between atoms: C41_52  and  O11_53 
ROOT
HETATM    1  C10 UNL     1      -1.763  10.084  16.373  1.00  0.00     0.227 C 
HETATM    2  O3  UNL     1      -2.902  10.540  16.431  1.00  0.00    -0.273 OA
HETATM    3  N1  UNL     1      -0.876  10.136  17.420  1.00  0.00    -0.357 N 
HETATM    4  H14 UNL     1       0.098   9.980  17.194  1.00  0.00     0.162 HD
ENDROOT
BRANCH   1   5
HETATM    5  C8  UNL     1      -1.204   9.505  15.074  1.00  0.00     0.139 C 
HETATM    6  C9  UNL     1       0.297   9.801  15.057  1.00  0.00     0.026 C 
BRANCH   5   7
HETATM    7  C7  UNL     1      -1.606   8.001  15.033  1.00  0.00     0.204 C 
HETATM    8  O1  UNL     1      -2.994   7.949  15.445  1.00  0.00    -0.342 OA
HETATM    9  C6  UNL     1      -3.653   6.738  15.080  1.00  0.00     0.158 C 
HETATM   10  C42 UNL     1      -3.911   6.730  13.534  1.00  0.00     0.011 C 
HETATM   11  C41 UNL     1      -2.692   7.381  12.804  1.00  0.00     0.163 C 
HETATM   12  C43 UNL     1      -4.040   5.257  13.074  1.00  0.00     0.020 C 
HETATM   13  C44 UNL     1      -5.223   7.452  13.149  1.00  0.00     0.020 C 
HETATM   14  C32 UNL     1      -1.425   7.255  13.663  1.00  0.00     0.224 C 
BRANCH   9  15
HETATM   15  C5  UNL     1      -4.889   6.545  15.928  1.00  0.00     0.006 C 
HETATM   16  C4  UNL     1      -6.145   6.891  15.595  1.00  0.00    -0.002 C 
BRANCH  16  17
HETATM   17  C3  UNL     1      -7.268   6.673  16.478  1.00  0.00    -0.005 C 
HETATM   18  C2  UNL     1      -8.446   7.312  16.457  1.00  0.00    -0.031 C 
HETATM   19  C1  UNL     1      -8.914   8.373  15.515  1.00  0.00     0.036 C 
ENDBRANCH  16  17
ENDBRANCH   9  15
BRANCH  11  20
HETATM   20  O11 UNL     1      -2.908   8.770  12.509  1.00  0.00    -0.392 OA
HETATM   21  H53 UNL     1      -3.493   8.815  11.733  1.00  0.00     0.210 HD
ENDBRANCH  11  20
BRANCH  14  22
HETATM   22  O9  UNL     1      -0.287   7.706  12.900  1.00  0.00    -0.307 OA
BRANCH  22  23
HETATM   23  C33 UNL     1       0.695   6.790  12.635  1.00  0.00     0.263 C 
HETATM   24  O10 UNL     1       1.660   6.562  13.352  1.00  0.00    -0.265 OA
BRANCH  23  25
HETATM   25  C34 UNL     1       0.359   6.058  11.355  1.00  0.00     0.149 C 
BRANCH  25  26
HETATM   26  C35 UNL     1       0.992   6.662  10.123  1.00  0.00    -0.049 A 
HETATM   27  C36 UNL     1       0.423   7.787   9.510  1.00  0.00     0.007 A 
HETATM   28  C37 UNL     1       1.006   8.340   8.369  1.00  0.00     0.001 A 
HETATM   29  C38 UNL     1       2.167   7.780   7.834  1.00  0.00     0.000 A 
HETATM   30  C39 UNL     1       2.744   6.666   8.442  1.00  0.00     0.001 A 
HETATM   31  C40 UNL     1       2.162   6.111   9.582  1.00  0.00     0.007 A 
ENDBRANCH  25  26
ENDBRANCH  23  25
ENDBRANCH  22  23
ENDBRANCH  14  22
BRANCH   7  32
HETATM   32  O2  UNL     1      -0.824   7.247  15.975  1.00  0.00    -0.362 OA
HETATM   33  H9  UNL     1      -0.566   7.837  16.709  1.00  0.00     0.213 HD
ENDBRANCH   7  32
ENDBRANCH   5   7
ENDBRANCH   1   5
BRANCH   3  34
HETATM   34  C11 UNL     1      -1.146  10.941  18.585  1.00  0.00     0.149 C 
BRANCH  34  35
HETATM   35  C12 UNL     1      -0.116  10.778  19.658  1.00  0.00    -0.007 C 
HETATM   36  C13 UNL     1       0.797  11.671  20.073  1.00  0.00    -0.002 C 
BRANCH  36  37
HETATM   37  C14 UNL     1       1.772  11.350  21.093  1.00  0.00     0.005 C 
HETATM   38  C15 UNL     1       2.482  12.209  21.854  1.00  0.00    -0.055 C 
HETATM   39  C16 UNL     1       2.412  13.714  21.773  1.00  0.00     0.046 C 
BRANCH  38  40
HETATM   40  C17 UNL     1       3.477  11.660  22.881  1.00  0.00     0.155 C 
BRANCH  40  41
HETATM   41  O4  UNL     1       2.972  10.417  23.379  1.00  0.00    -0.386 OA
HETATM   42  C18 UNL     1       3.679   9.285  22.896  1.00  0.00     0.202 C 
ENDBRANCH  40  41
BRANCH  40  43
HETATM   43  C19 UNL     1       4.902  11.431  22.309  1.00  0.00     0.044 C 
HETATM   44  C20 UNL     1       4.895  11.453  20.769  1.00  0.00     0.015 C 
BRANCH  43  45
HETATM   45  C21 UNL     1       5.918  12.475  22.834  1.00  0.00     0.131 C 
HETATM   46  C22 UNL     1       7.290  11.953  23.245  1.00  0.00     0.067 C 
HETATM   47  C23 UNL     1       8.149  13.185  23.068  1.00  0.00     0.153 C 
HETATM   48  C24 UNL     1       7.573  13.780  21.778  1.00  0.00     0.173 C 
HETATM   49  O8  UNL     1       6.164  13.475  21.814  1.00  0.00    -0.374 OA
BRANCH  47  50
HETATM   50  O5  UNL     1       9.540  12.908  23.035  1.00  0.00    -0.393 OA
HETATM   51  H35 UNL     1       9.710  12.174  23.649  1.00  0.00     0.210 HD
ENDBRANCH  47  50
BRANCH  48  52
HETATM   52  C25 UNL     1       8.197  13.237  20.514  1.00  0.00     0.007 C 
HETATM   53  C26 UNL     1       8.460  11.951  20.227  1.00  0.00    -0.001 C 
BRANCH  53  54
HETATM   54  C27 UNL     1       9.097  11.549  18.993  1.00  0.00    -0.000 C 
HETATM   55  C28 UNL     1       8.431  10.974  17.980  1.00  0.00     0.000 C 
BRANCH  55  56
HETATM   56  C29 UNL     1       9.080  10.562  16.753  1.00  0.00     0.007 C 
HETATM   57  C30 UNL     1       8.894   9.358  16.190  1.00  0.00     0.081 C 
BRANCH  57  58
HETATM   58  C31 UNL     1       9.605   9.025  14.949  1.00  0.00     0.165 C 
HETATM   59  O6  UNL     1       9.513   9.578  13.871  1.00  0.00    -0.647 OA
BRANCH  58  60
HETATM   60  O7  UNL     1      10.413   7.971  15.146  1.00  0.00    -0.773 OA
HETATM   61  H43 UNL     1      10.823   7.831  14.266  1.00  0.00     0.167 HD
ENDBRANCH  58  60
ENDBRANCH  57  58
ENDBRANCH  55  56
ENDBRANCH  53  54
ENDBRANCH  48  52
ENDBRANCH  43  45
ENDBRANCH  40  43
ENDBRANCH  38  40
ENDBRANCH  36  37
ENDBRANCH  34  35
ENDBRANCH   3  34
TORSDOF 23
ENDMDL
MODEL 8
REMARK minimizedAffinity -8.83282185
REMARK CNNscore 0.169737846
REMARK CNNaffinity 5.99628496
REMARK  23 active torsions:
REMARK  status: ('A' for Active; 'I' for Inactive)
REMARK    1  A    between atoms: C3_3  and  C4_4 
REMARK    2  A    between atoms: C5_5  and  C6_6 
REMARK    3  A    between atoms: C7_8  and  O2_9 
REMARK    4  A    between atoms: C7_8  and  C8_10 
REMARK    5  A    between atoms: C8_10  and  C10_12 
REMARK       I    between atoms: C10_12  and  N1_14 
REMARK    6  A    between atoms: N1_14  and  C11_15 
REMARK    7  A    between atoms: C11_15  and  C12_16 
REMARK    8  A    between atoms: C13_17  and  C14_18 
REMARK    9  A    between atoms: C15_19  and  C17_21 
REMARK   10  A    between atoms: C17_21  and  O4_22 
REMARK   11  A    between atoms: C17_21  and  C19_24 
REMARK   12  A    between atoms: C19_24  and  C21_26 
REMARK   13  A    between atoms: C23_28  and  O5_29 
REMARK   14  A    between atoms: C24_30  and  C25_31 
REMARK   15  A    between atoms: C26_32  and  C27_33 
REMARK   16  A    between atoms: C28_34  and  C29_35 
REMARK   17  A    between atoms: C30_36  and  C31_37 
REMARK   18  A    between atoms: C31_37  and  O7_39 
REMARK   19  A    between atoms: C32_41  and  O9_42 
REMARK   20  A    between atoms: O9_42  and  C33_43 
REMARK   21  A    between atoms: C33_43  and  C34_45 
REMARK   22  A    between atoms: C34_45  and  C35_46 
REMARK   23  A    between atoms: C41_52  and  O11_53 
ROOT
HETATM    1  C10 UNL     1       4.982   8.518  15.071  1.00  0.00     0.227 C 
HETATM    2  O3  UNL     1       5.288   7.451  15.596  1.00  0.00    -0.273 OA
HETATM    3  N1  UNL     1       5.867   9.286  14.353  1.00  0.00    -0.357 N 
HETATM    4  H14 UNL     1       5.602  10.249  14.193  1.00  0.00     0.162 HD
ENDROOT
BRANCH   1   5
HETATM    5  C8  UNL     1       3.598   9.133  15.269  1.00  0.00     0.139 C 
HETATM    6  C9  UNL     1       3.566  10.440  14.473  1.00  0.00     0.026 C 
BRANCH   5   7
HETATM    7  C7  UNL     1       2.554   8.054  14.854  1.00  0.00     0.204 C 
HETATM    8  O1  UNL     1       1.284   8.504  15.387  1.00  0.00    -0.342 OA
HETATM    9  C6  UNL     1       0.156   7.884  14.774  1.00  0.00     0.158 C 
HETATM   10  C42 UNL     1      -0.030   8.454  13.326  1.00  0.00     0.011 C 
HETATM   11  C41 UNL     1       1.374   8.680  12.676  1.00  0.00     0.163 C 
HETATM   12  C43 UNL     1      -0.804   7.405  12.489  1.00  0.00     0.020 C 
HETATM   13  C44 UNL     1      -0.854   9.763  13.306  1.00  0.00     0.020 C 
HETATM   14  C32 UNL     1       2.416   7.753  13.319  1.00  0.00     0.224 C 
BRANCH   9  15
HETATM   15  C5  UNL     1      -1.057   8.017  15.665  1.00  0.00     0.006 C 
HETATM   16  C4  UNL     1      -1.521   9.153  16.216  1.00  0.00    -0.002 C 
BRANCH  16  17
HETATM   17  C3  UNL     1      -2.688   9.181  17.065  1.00  0.00    -0.005 C 
HETATM   18  C2  UNL     1      -2.848   9.885  18.196  1.00  0.00    -0.031 C 
HETATM   19  C1  UNL     1      -1.893  10.833  18.845  1.00  0.00     0.036 C 
ENDBRANCH  16  17
ENDBRANCH   9  15
BRANCH  11  20
HETATM   20  O11 UNL     1       1.826  10.037  12.807  1.00  0.00    -0.392 OA
HETATM   21  H53 UNL     1       1.350  10.567  12.144  1.00  0.00     0.210 HD
ENDBRANCH  11  20
BRANCH  14  22
HETATM   22  O9  UNL     1       3.657   7.856  12.591  1.00  0.00    -0.307 OA
BRANCH  22  23
HETATM   23  C33 UNL     1       3.923   6.886  11.663  1.00  0.00     0.263 C 
HETATM   24  O10 UNL     1       5.040   6.504  11.341  1.00  0.00    -0.265 OA
BRANCH  23  25
HETATM   25  C34 UNL     1       2.618   6.314  11.154  1.00  0.00     0.149 C 
BRANCH  25  26
HETATM   26  C35 UNL     1       2.320   6.661   9.714  1.00  0.00    -0.049 A 
HETATM   27  C36 UNL     1       1.534   7.779   9.400  1.00  0.00     0.007 A 
HETATM   28  C37 UNL     1       1.257   8.094   8.069  1.00  0.00     0.001 A 
HETATM   29  C38 UNL     1       1.767   7.302   7.040  1.00  0.00     0.000 A 
HETATM   30  C39 UNL     1       2.557   6.194   7.343  1.00  0.00     0.001 A 
HETATM   31  C40 UNL     1       2.836   5.877   8.673  1.00  0.00     0.007 A 
ENDBRANCH  25  26
ENDBRANCH  23  25
ENDBRANCH  22  23
ENDBRANCH  14  22
BRANCH   7  32
HETATM   32  O2  UNL     1       2.875   6.788  15.455  1.00  0.00    -0.362 OA
HETATM   33  H9  UNL     1       3.353   6.952  16.292  1.00  0.00     0.213 HD
ENDBRANCH   7  32
ENDBRANCH   5   7
ENDBRANCH   1   5
BRANCH   3  34
HETATM   34  C11 UNL     1       7.280   9.000  14.364  1.00  0.00     0.149 C 
BRANCH  34  35
HETATM   35  C12 UNL     1       8.015   9.733  15.441  1.00  0.00    -0.007 C 
HETATM   36  C13 UNL     1       8.229   9.346  16.709  1.00  0.00    -0.002 C 
BRANCH  36  37
HETATM   37  C14 UNL     1       8.917  10.192  17.661  1.00  0.00     0.005 C 
HETATM   38  C15 UNL     1       8.370  10.991  18.601  1.00  0.00    -0.055 C 
HETATM   39  C16 UNL     1       6.891  11.180  18.835  1.00  0.00     0.046 C 
BRANCH  38  40
HETATM   40  C17 UNL     1       9.282  11.818  19.511  1.00  0.00     0.155 C 
BRANCH  40  41
HETATM   41  O4  UNL     1      10.434  11.031  19.830  1.00  0.00    -0.386 OA
HETATM   42  C18 UNL     1      11.625  11.795  19.945  1.00  0.00     0.202 C 
ENDBRANCH  40  41
BRANCH  40  43
HETATM   43  C19 UNL     1       9.746  13.158  18.880  1.00  0.00     0.044 C 
HETATM   44  C20 UNL     1       9.506  13.170  17.359  1.00  0.00     0.015 C 
BRANCH  43  45
HETATM   45  C21 UNL     1       9.046  14.381  19.521  1.00  0.00     0.131 C 
HETATM   46  C22 UNL     1       7.610  14.657  19.087  1.00  0.00     0.067 C 
HETATM   47  C23 UNL     1       7.071  15.410  20.282  1.00  0.00     0.153 C 
HETATM   48  C24 UNL     1       7.709  14.641  21.445  1.00  0.00     0.173 C 
HETATM   49  O8  UNL     1       9.000  14.220  20.961  1.00  0.00    -0.374 OA
BRANCH  47  50
HETATM   50  O5  UNL     1       5.655  15.486  20.315  1.00  0.00    -0.393 OA
HETATM   51  H35 UNL     1       5.342  15.566  19.398  1.00  0.00     0.210 HD
ENDBRANCH  47  50
BRANCH  48  52
HETATM   52  C25 UNL     1       6.907  13.450  21.911  1.00  0.00     0.007 C 
HETATM   53  C26 UNL     1       7.177  12.649  22.956  1.00  0.00    -0.001 C 
BRANCH  53  54
HETATM   54  C27 UNL     1       6.353  11.508  23.289  1.00  0.00    -0.000 C 
HETATM   55  C28 UNL     1       5.216  11.213  22.640  1.00  0.00     0.000 C 
BRANCH  55  56
HETATM   56  C29 UNL     1       4.391  10.077  22.991  1.00  0.00     0.007 C 
HETATM   57  C30 UNL     1       3.152   9.890  22.509  1.00  0.00     0.081 C 
BRANCH  57  58
HETATM   58  C31 UNL     1       2.384   8.711  22.930  1.00  0.00     0.165 C 
HETATM   59  O6  UNL     1       1.898   7.852  22.221  1.00  0.00    -0.647 OA
BRANCH  58  60
HETATM   60  O7  UNL     1       2.265   8.688  24.267  1.00  0.00    -0.773 OA
HETATM   61  H43 UNL     1       1.736   7.879  24.434  1.00  0.00     0.167 HD
ENDBRANCH  58  60
ENDBRANCH  57  58
ENDBRANCH  55  56
ENDBRANCH  53  54
ENDBRANCH  48  52
ENDBRANCH  43  45
ENDBRANCH  40  43
ENDBRANCH  38  40
ENDBRANCH  36  37
ENDBRANCH  34  35
ENDBRANCH   3  34
TORSDOF 23
ENDMDL
MODEL 9
REMARK minimizedAffinity -8.03337193
REMARK CNNscore 0.168388754
REMARK CNNaffinity 5.36231995
REMARK  23 active torsions:
REMARK  status: ('A' for Active; 'I' for Inactive)
REMARK    1  A    between atoms: C3_3  and  C4_4 
REMARK    2  A    between atoms: C5_5  and  C6_6 
REMARK    3  A    between atoms: C7_8  and  O2_9 
REMARK    4  A    between atoms: C7_8  and  C8_10 
REMARK    5  A    between atoms: C8_10  and  C10_12 
REMARK       I    between atoms: C10_12  and  N1_14 
REMARK    6  A    between atoms: N1_14  and  C11_15 
REMARK    7  A    between atoms: C11_15  and  C12_16 
REMARK    8  A    between atoms: C13_17  and  C14_18 
REMARK    9  A    between atoms: C15_19  and  C17_21 
REMARK   10  A    between atoms: C17_21  and  O4_22 
REMARK   11  A    between atoms: C17_21  and  C19_24 
REMARK   12  A    between atoms: C19_24  and  C21_26 
REMARK   13  A    between atoms: C23_28  and  O5_29 
REMARK   14  A    between atoms: C24_30  and  C25_31 
REMARK   15  A    between atoms: C26_32  and  C27_33 
REMARK   16  A    between atoms: C28_34  and  C29_35 
REMARK   17  A    between atoms: C30_36  and  C31_37 
REMARK   18  A    between atoms: C31_37  and  O7_39 
REMARK   19  A    between atoms: C32_41  and  O9_42 
REMARK   20  A    between atoms: O9_42  and  C33_43 
REMARK   21  A    between atoms: C33_43  and  C34_45 
REMARK   22  A    between atoms: C34_45  and  C35_46 
REMARK   23  A    between atoms: C41_52  and  O11_53 
ROOT
HETATM    1  C10 UNL     1      -1.702  10.277  16.743  1.00  0.00     0.227 C 
HETATM    2  O3  UNL     1      -1.732   9.614  17.778  1.00  0.00    -0.273 OA
HETATM    3  N1  UNL     1      -1.210  11.558  16.683  1.00  0.00    -0.357 N 
HETATM    4  H14 UNL     1      -1.468  12.103  15.870  1.00  0.00     0.162 HD
ENDROOT
BRANCH   1   5
HETATM    5  C8  UNL     1      -2.316   9.754  15.446  1.00  0.00     0.139 C 
HETATM    6  C9  UNL     1      -3.397  10.751  15.024  1.00  0.00     0.026 C 
BRANCH   5   7
HETATM    7  C7  UNL     1      -1.147   9.545  14.438  1.00  0.00     0.204 C 
HETATM    8  O1  UNL     1       0.045  10.027  15.107  1.00  0.00    -0.342 OA
HETATM    9  C6  UNL     1       1.256   9.550  14.527  1.00  0.00     0.158 C 
HETATM   10  C42 UNL     1       1.441   8.033  14.878  1.00  0.00     0.011 C 
HETATM   11  C41 UNL     1       0.049   7.323  14.839  1.00  0.00     0.163 C 
HETATM   12  C43 UNL     1       2.356   7.397  13.802  1.00  0.00     0.020 C 
HETATM   13  C44 UNL     1       2.120   7.821  16.250  1.00  0.00     0.020 C 
HETATM   14  C32 UNL     1      -0.914   8.082  13.915  1.00  0.00     0.224 C 
BRANCH   9  15
HETATM   15  C5  UNL     1       2.411  10.436  14.935  1.00  0.00     0.006 C 
HETATM   16  C4  UNL     1       2.759  11.603  14.365  1.00  0.00    -0.002 C 
BRANCH  16  17
HETATM   17  C3  UNL     1       3.889  12.380  14.820  1.00  0.00    -0.005 C 
HETATM   18  C2  UNL     1       4.387  13.488  14.253  1.00  0.00    -0.031 C 
HETATM   19  C1  UNL     1       3.897  14.217  13.044  1.00  0.00     0.036 C 
ENDBRANCH  16  17
ENDBRANCH   9  15
BRANCH  11  20
HETATM   20  O11 UNL     1      -0.551   7.220  16.140  1.00  0.00    -0.392 OA
HETATM   21  H53 UNL     1      -0.106   6.492  16.608  1.00  0.00     0.210 HD
ENDBRANCH  11  20
BRANCH  14  22
HETATM   22  O9  UNL     1      -2.128   7.319  13.761  1.00  0.00    -0.307 OA
BRANCH  22  23
HETATM   23  C33 UNL     1      -2.063   6.183  13.002  1.00  0.00     0.263 C 
HETATM   24  O10 UNL     1      -1.514   6.091  11.912  1.00  0.00    -0.265 OA
BRANCH  23  25
HETATM   25  C34 UNL     1      -2.714   5.044  13.756  1.00  0.00     0.149 C 
BRANCH  25  26
HETATM   26  C35 UNL     1      -4.140   4.770  13.337  1.00  0.00    -0.049 A 
HETATM   27  C36 UNL     1      -5.166   5.660  13.683  1.00  0.00     0.007 A 
HETATM   28  C37 UNL     1      -6.483   5.403  13.298  1.00  0.00     0.001 A 
HETATM   29  C38 UNL     1      -6.786   4.260  12.558  1.00  0.00     0.000 A 
HETATM   30  C39 UNL     1      -5.770   3.374  12.202  1.00  0.00     0.001 A 
HETATM   31  C40 UNL     1      -4.453   3.629  12.585  1.00  0.00     0.007 A 
ENDBRANCH  25  26
ENDBRANCH  23  25
ENDBRANCH  22  23
ENDBRANCH  14  22
BRANCH   7  32
HETATM   32  O2  UNL     1      -1.356  10.336  13.256  1.00  0.00    -0.362 OA
HETATM   33  H9  UNL     1      -1.882  11.123  13.496  1.00  0.00     0.213 HD
ENDBRANCH   7  32
ENDBRANCH   5   7
ENDBRANCH   1   5
BRANCH   3  34
HETATM   34  C11 UNL     1      -0.907  12.297  17.884  1.00  0.00     0.149 C 
BRANCH  34  35
HETATM   35  C12 UNL     1       0.216  11.698  18.670  1.00  0.00    -0.007 C 
HETATM   36  C13 UNL     1       0.242  11.395  19.978  1.00  0.00    -0.002 C 
BRANCH  36  37
HETATM   37  C14 UNL     1       1.428  10.865  20.616  1.00  0.00     0.005 C 
HETATM   38  C15 UNL     1       2.325  11.532  21.372  1.00  0.00    -0.055 C 
HETATM   39  C16 UNL     1       2.277  13.006  21.691  1.00  0.00     0.046 C 
BRANCH  38  40
HETATM   40  C17 UNL     1       3.526  10.780  21.954  1.00  0.00     0.155 C 
BRANCH  40  41
HETATM   41  O4  UNL     1       3.353   9.384  21.696  1.00  0.00    -0.386 OA
HETATM   42  C18 UNL     1       2.925   8.648  22.832  1.00  0.00     0.202 C 
ENDBRANCH  40  41
BRANCH  40  43
HETATM   43  C19 UNL     1       4.891  11.236  21.371  1.00  0.00     0.044 C 
HETATM   44  C20 UNL     1       4.753  11.661  19.897  1.00  0.00     0.015 C 
BRANCH  43  45
HETATM   45  C21 UNL     1       5.518  12.394  22.185  1.00  0.00     0.131 C 
HETATM   46  C22 UNL     1       6.742  12.055  23.031  1.00  0.00     0.067 C 
HETATM   47  C23 UNL     1       7.425  13.400  23.128  1.00  0.00     0.153 C 
HETATM   48  C24 UNL     1       7.222  13.952  21.711  1.00  0.00     0.173 C 
HETATM   49  O8  UNL     1       5.937  13.452  21.288  1.00  0.00    -0.374 OA
BRANCH  47  50
HETATM   50  O5  UNL     1       8.776  13.323  23.555  1.00  0.00    -0.393 OA
HETATM   51  H35 UNL     1       8.839  12.599  24.202  1.00  0.00     0.210 HD
ENDBRANCH  47  50
BRANCH  48  52
HETATM   52  C25 UNL     1       8.295  13.546  20.730  1.00  0.00     0.007 C 
HETATM   53  C26 UNL     1       9.317  12.702  20.949  1.00  0.00    -0.001 C 
BRANCH  53  54
HETATM   54  C27 UNL     1      10.312  12.413  19.940  1.00  0.00    -0.000 C 
HETATM   55  C28 UNL     1      11.454  11.761  20.204  1.00  0.00     0.000 C 
BRANCH  55  56
HETATM   56  C29 UNL     1      12.450  11.489  19.190  1.00  0.00     0.007 C 
HETATM   57  C30 UNL     1      12.430  12.047  17.969  1.00  0.00     0.081 C 
BRANCH  57  58
HETATM   58  C31 UNL     1      13.478  11.703  17.001  1.00  0.00     0.165 C 
HETATM   59  O6  UNL     1      14.662  11.970  17.064  1.00  0.00    -0.647 OA
BRANCH  58  60
HETATM   60  O7  UNL     1      12.952  11.024  15.969  1.00  0.00    -0.773 OA
HETATM   61  H43 UNL     1      13.725  10.857  15.388  1.00  0.00     0.167 HD
ENDBRANCH  58  60
ENDBRANCH  57  58
ENDBRANCH  55  56
ENDBRANCH  53  54
ENDBRANCH  48  52
ENDBRANCH  43  45
ENDBRANCH  40  43
ENDBRANCH  38  40
ENDBRANCH  36  37
ENDBRANCH  34  35
ENDBRANCH   3  34
TORSDOF 23
ENDMDL
