MODEL 1
REMARK minimizedAffinity -8.8677454
REMARK CNNscore 0.322589278
REMARK CNNaffinity 7.02280807
REMARK  19 active torsions:
REMARK  status: ('A' for Active; 'I' for Inactive)
REMARK    1  A    between atoms: O1_2  and  C2_3 
REMARK    2  A    between atoms: C2_3  and  C3_4 
REMARK    3  A    between atoms: C2_3  and  C28_36 
REMARK    4  A    between atoms: C3_4  and  C4_5 
REMARK    5  A    between atoms: C4_5  and  C6_7 
REMARK    6  A    between atoms: C6_7  and  O2_8 
REMARK    7  A    between atoms: C6_7  and  C7_9 
REMARK    8  A    between atoms: C8_10  and  C9_11 
REMARK    9  A    between atoms: C10_12  and  C11_13 
REMARK   10  A    between atoms: C11_13  and  N1_14 
REMARK       I    between atoms: N1_14  and  C12_15 
REMARK   11  A    between atoms: C12_15  and  C13_17 
REMARK   12  A    between atoms: C13_17  and  C16_20 
REMARK   13  A    between atoms: C16_20  and  O4_21 
REMARK   14  A    between atoms: C16_20  and  C17_22 
REMARK   15  A    between atoms: C19_24  and  C20_25 
REMARK   16  A    between atoms: C21_26  and  C22_27 
REMARK   17  A    between atoms: C23_28  and  C24_29 
REMARK   18  A    between atoms: C26_31  and  N2_33 
REMARK   19  A    between atoms: C28_36  and  O7_37 
ROOT
HETATM    1  C9  UNL     1      -3.401  48.643 -26.925  1.00  0.00    -0.003 C 
HETATM    2  C10 UNL     1      -3.409  49.875 -26.396  1.00  0.00    -0.007 C 
ENDROOT
BRANCH   1   3
HETATM    3  C8  UNL     1      -3.836  48.354 -28.273  1.00  0.00    -0.002 C 
HETATM    4  C7  UNL     1      -5.123  48.437 -28.639  1.00  0.00     0.005 C 
BRANCH   4   5
HETATM    5  C6  UNL     1      -5.639  48.127 -30.014  1.00  0.00     0.144 C 
BRANCH   5   6
HETATM    6  C4  UNL     1      -7.115  48.569 -30.224  1.00  0.00     0.016 C 
HETATM    7  C5  UNL     1      -7.995  47.926 -29.144  1.00  0.00     0.013 C 
BRANCH   6   8
HETATM    8  C3  UNL     1      -7.643  48.221 -31.629  1.00  0.00     0.042 C 
BRANCH   8   9
HETATM    9  C2  UNL     1      -7.153  46.937 -32.365  1.00  0.00     0.159 C 
BRANCH   9  10
HETATM   10  O1  UNL     1      -6.610  47.442 -33.607  1.00  0.00    -0.388 OA
HETATM   11  C1  UNL     1      -5.184  47.412 -33.682  1.00  0.00     0.202 C 
ENDBRANCH   9  10
BRANCH   9  12
HETATM   12  C28 UNL     1      -8.251  45.881 -32.782  1.00  0.00     0.133 C 
HETATM   13  C29 UNL     1      -9.677  46.504 -32.951  1.00  0.00     0.114 C 
HETATM   14  C30 UNL     1     -10.553  45.827 -34.005  1.00  0.00     0.023 C 
HETATM   15  C31 UNL     1     -10.335  46.338 -31.609  1.00  0.00     0.227 C 
HETATM   16  O8  UNL     1     -11.262  47.014 -31.193  1.00  0.00    -0.273 OA
HETATM   17  N3  UNL     1      -9.734  45.274 -30.977  1.00  0.00    -0.332 N 
HETATM   18  C32 UNL     1     -10.052  44.942 -29.607  1.00  0.00     0.154 C 
HETATM   19  C33 UNL     1      -8.489  44.795 -31.676  1.00  0.00     0.183 A 
HETATM   20  C34 UNL     1      -7.350  44.346 -30.697  1.00  0.00     0.294 A 
HETATM   21  C35 UNL     1      -8.508  43.251 -31.983  1.00  0.00     0.169 A 
HETATM   22  O9  UNL     1      -6.731  44.807 -29.762  1.00  0.00    -0.262 OA
HETATM   23  O10 UNL     1      -7.355  43.055 -31.115  1.00  0.00    -0.311 OA
HETATM   24  C36 UNL     1      -8.244  42.595 -33.325  1.00  0.00     0.043 C 
BRANCH  12  25
HETATM   25  O7  UNL     1      -7.875  45.252 -34.016  1.00  0.00    -0.383 OA
HETATM   26  H42 UNL     1      -7.661  45.931 -34.676  1.00  0.00     0.210 HD
ENDBRANCH  12  25
ENDBRANCH   9  12
ENDBRANCH   8   9
ENDBRANCH   6   8
ENDBRANCH   5   6
BRANCH   5  27
HETATM   27  O2  UNL     1      -4.787  48.784 -30.944  1.00  0.00    -0.391 OA
HETATM   28  H12 UNL     1      -3.890  48.435 -30.805  1.00  0.00     0.210 HD
ENDBRANCH   5  27
ENDBRANCH   4   5
ENDBRANCH   1   3
BRANCH   2  29
HETATM   29  C11 UNL     1      -2.923  50.181 -25.017  1.00  0.00     0.149 C 
BRANCH  29  30
HETATM   30  N1  UNL     1      -1.622  50.792 -25.119  1.00  0.00    -0.357 N 
HETATM   31  C12 UNL     1      -1.500  52.164 -25.041  1.00  0.00     0.228 C 
HETATM   32  O3  UNL     1      -2.470  52.880 -24.794  1.00  0.00    -0.273 OA
HETATM   33  H19 UNL     1      -0.872  50.247 -25.522  1.00  0.00     0.162 HD
BRANCH  31  34
HETATM   34  C13 UNL     1      -0.082  52.740 -25.286  1.00  0.00     0.063 C 
HETATM   35  C14 UNL     1      -0.141  53.587 -26.572  1.00  0.00     0.028 C 
HETATM   36  C15 UNL     1       0.870  51.540 -25.437  1.00  0.00     0.028 C 
BRANCH  34  37
HETATM   37  C16 UNL     1       0.283  53.603 -24.026  1.00  0.00     0.164 C 
BRANCH  37  38
HETATM   38  O4  UNL     1       1.480  54.348 -24.308  1.00  0.00    -0.390 OA
HETATM   39  H27 UNL     1       1.201  55.072 -24.911  1.00  0.00     0.210 HD
ENDBRANCH  37  38
BRANCH  37  40
HETATM   40  C17 UNL     1       0.511  53.024 -22.624  1.00  0.00    -0.054 C 
HETATM   41  C18 UNL     1       0.111  51.560 -22.556  1.00  0.00     0.046 C 
HETATM   42  C19 UNL     1       1.004  53.695 -21.563  1.00  0.00     0.005 C 
BRANCH  42  43
HETATM   43  C20 UNL     1       1.184  53.180 -20.218  1.00  0.00     0.000 C 
HETATM   44  C21 UNL     1       0.203  53.170 -19.301  1.00  0.00     0.000 C 
BRANCH  44  45
HETATM   45  C22 UNL     1       0.392  52.638 -17.965  1.00  0.00     0.001 C 
HETATM   46  C23 UNL     1       1.600  52.294 -17.485  1.00  0.00     0.009 C 
BRANCH  46  47
HETATM   47  C24 UNL     1       1.889  51.739 -16.153  1.00  0.00    -0.034 C 
HETATM   48  C25 UNL     1       0.813  50.844 -15.566  1.00  0.00     0.050 C 
HETATM   49  C26 UNL     1       3.062  52.010 -15.529  1.00  0.00     0.082 C 
HETATM   50  C27 UNL     1       4.240  52.838 -15.926  1.00  0.00     0.075 C 
BRANCH  49  51
HETATM   51  N2  UNL     1       3.264  51.441 -14.210  1.00  0.00    -0.120 N 
HETATM   52  O5  UNL     1       2.863  52.108 -13.250  1.00  0.00    -0.532 OA
HETATM   53  O6  UNL     1       3.793  50.324 -14.152  1.00  0.00    -0.532 OA
ENDBRANCH  49  51
ENDBRANCH  46  47
ENDBRANCH  44  45
ENDBRANCH  42  43
ENDBRANCH  37  40
ENDBRANCH  34  37
ENDBRANCH  31  34
ENDBRANCH  29  30
ENDBRANCH   2  29
TORSDOF 19
ENDMDL
MODEL 2
REMARK minimizedAffinity -8.90275002
REMARK CNNscore 0.27619493
REMARK CNNaffinity 6.93252325
REMARK  19 active torsions:
REMARK  status: ('A' for Active; 'I' for Inactive)
REMARK    1  A    between atoms: O1_2  and  C2_3 
REMARK    2  A    between atoms: C2_3  and  C3_4 
REMARK    3  A    between atoms: C2_3  and  C28_36 
REMARK    4  A    between atoms: C3_4  and  C4_5 
REMARK    5  A    between atoms: C4_5  and  C6_7 
REMARK    6  A    between atoms: C6_7  and  O2_8 
REMARK    7  A    between atoms: C6_7  and  C7_9 
REMARK    8  A    between atoms: C8_10  and  C9_11 
REMARK    9  A    between atoms: C10_12  and  C11_13 
REMARK   10  A    between atoms: C11_13  and  N1_14 
REMARK       I    between atoms: N1_14  and  C12_15 
REMARK   11  A    between atoms: C12_15  and  C13_17 
REMARK   12  A    between atoms: C13_17  and  C16_20 
REMARK   13  A    between atoms: C16_20  and  O4_21 
REMARK   14  A    between atoms: C16_20  and  C17_22 
REMARK   15  A    between atoms: C19_24  and  C20_25 
REMARK   16  A    between atoms: C21_26  and  C22_27 
REMARK   17  A    between atoms: C23_28  and  C24_29 
REMARK   18  A    between atoms: C26_31  and  N2_33 
REMARK   19  A    between atoms: C28_36  and  O7_37 
ROOT
HETATM    1  C9  UNL     1      -3.450  48.700 -27.039  1.00  0.00    -0.003 C 
HETATM    2  C10 UNL     1      -3.436  49.792 -26.261  1.00  0.00    -0.007 C 
ENDROOT
BRANCH   1   3
HETATM    3  C8  UNL     1      -4.431  48.476 -28.076  1.00  0.00    -0.002 C 
HETATM    4  C7  UNL     1      -5.570  47.805 -27.846  1.00  0.00     0.005 C 
BRANCH   4   5
HETATM    5  C6  UNL     1      -6.615  47.520 -28.885  1.00  0.00     0.144 C 
BRANCH   5   6
HETATM    6  C4  UNL     1      -7.660  46.465 -28.423  1.00  0.00     0.016 C 
HETATM    7  C5  UNL     1      -7.726  46.457 -26.890  1.00  0.00     0.013 C 
BRANCH   6   8
HETATM    8  C3  UNL     1      -7.353  45.054 -28.958  1.00  0.00     0.042 C 
BRANCH   8   9
HETATM    9  C2  UNL     1      -8.078  44.511 -30.227  1.00  0.00     0.159 C 
BRANCH   9  10
HETATM   10  O1  UNL     1      -8.530  43.196 -29.825  1.00  0.00    -0.388 OA
HETATM   11  C1  UNL     1      -9.824  43.177 -29.221  1.00  0.00     0.202 C 
ENDBRANCH   9  10
BRANCH   9  12
HETATM   12  C28 UNL     1      -7.197  44.279 -31.517  1.00  0.00     0.133 C 
HETATM   13  C29 UNL     1      -6.020  45.303 -31.656  1.00  0.00     0.114 C 
HETATM   14  C30 UNL     1      -4.770  44.755 -32.344  1.00  0.00     0.023 C 
HETATM   15  C31 UNL     1      -6.575  46.418 -32.497  1.00  0.00     0.227 C 
HETATM   16  O8  UNL     1      -6.150  47.562 -32.514  1.00  0.00    -0.273 OA
HETATM   17  N3  UNL     1      -7.597  45.901 -33.258  1.00  0.00    -0.332 N 
HETATM   18  C32 UNL     1      -8.426  46.757 -34.077  1.00  0.00     0.154 C 
HETATM   19  C33 UNL     1      -8.002  44.511 -32.842  1.00  0.00     0.183 A 
HETATM   20  C34 UNL     1      -9.544  44.251 -32.931  1.00  0.00     0.294 A 
HETATM   21  C35 UNL     1      -8.000  43.485 -34.035  1.00  0.00     0.169 A 
HETATM   22  O9  UNL     1     -10.569  44.748 -32.513  1.00  0.00    -0.262 OA
HETATM   23  O10 UNL     1      -9.434  43.285 -33.877  1.00  0.00    -0.311 OA
HETATM   24  C36 UNL     1      -7.305  42.137 -34.064  1.00  0.00     0.043 C 
BRANCH  12  25
HETATM   25  O7  UNL     1      -6.651  42.951 -31.499  1.00  0.00    -0.383 OA
HETATM   26  H42 UNL     1      -6.215  42.789 -30.648  1.00  0.00     0.210 HD
ENDBRANCH  12  25
ENDBRANCH   9  12
ENDBRANCH   8   9
ENDBRANCH   6   8
ENDBRANCH   5   6
BRANCH   5  27
HETATM   27  O2  UNL     1      -7.255  48.752 -29.191  1.00  0.00    -0.391 OA
HETATM   28  H12 UNL     1      -6.569  49.356 -29.522  1.00  0.00     0.210 HD
ENDBRANCH   5  27
ENDBRANCH   4   5
ENDBRANCH   1   3
BRANCH   2  29
HETATM   29  C11 UNL     1      -2.398  50.043 -25.215  1.00  0.00     0.149 C 
BRANCH  29  30
HETATM   30  N1  UNL     1      -1.656  51.220 -25.587  1.00  0.00    -0.357 N 
HETATM   31  C12 UNL     1      -0.399  51.092 -26.141  1.00  0.00     0.228 C 
HETATM   32  O3  UNL     1       0.072  49.987 -26.411  1.00  0.00    -0.273 OA
HETATM   33  H19 UNL     1      -1.935  52.105 -25.186  1.00  0.00     0.162 HD
BRANCH  31  34
HETATM   34  C13 UNL     1       0.376  52.410 -26.394  1.00  0.00     0.063 C 
HETATM   35  C14 UNL     1      -0.009  52.913 -27.800  1.00  0.00     0.028 C 
HETATM   36  C15 UNL     1       1.875  52.075 -26.301  1.00  0.00     0.028 C 
BRANCH  34  37
HETATM   37  C16 UNL     1      -0.056  53.416 -25.268  1.00  0.00     0.164 C 
BRANCH  37  38
HETATM   38  O4  UNL     1       0.143  54.757 -25.746  1.00  0.00    -0.390 OA
HETATM   39  H27 UNL     1      -0.589  54.919 -26.382  1.00  0.00     0.210 HD
ENDBRANCH  37  38
BRANCH  37  40
HETATM   40  C17 UNL     1       0.529  53.422 -23.851  1.00  0.00    -0.054 C 
HETATM   41  C18 UNL     1       1.375  54.659 -23.604  1.00  0.00     0.046 C 
HETATM   42  C19 UNL     1       0.338  52.471 -22.913  1.00  0.00     0.005 C 
BRANCH  42  43
HETATM   43  C20 UNL     1       0.919  52.433 -21.584  1.00  0.00     0.000 C 
HETATM   44  C21 UNL     1       0.456  53.168 -20.561  1.00  0.00     0.000 C 
BRANCH  44  45
HETATM   45  C22 UNL     1       1.037  53.108 -19.233  1.00  0.00     0.001 C 
HETATM   46  C23 UNL     1       0.648  52.211 -18.311  1.00  0.00     0.009 C 
BRANCH  46  47
HETATM   47  C24 UNL     1       1.169  52.079 -16.940  1.00  0.00    -0.034 C 
HETATM   48  C25 UNL     1       2.518  52.728 -16.685  1.00  0.00     0.050 C 
HETATM   49  C26 UNL     1       0.453  51.436 -15.986  1.00  0.00     0.082 C 
HETATM   50  C27 UNL     1      -0.874  50.751 -16.020  1.00  0.00     0.075 C 
BRANCH  49  51
HETATM   51  N2  UNL     1       1.043  51.332 -14.664  1.00  0.00    -0.120 N 
HETATM   52  O5  UNL     1       0.774  52.234 -13.863  1.00  0.00    -0.532 OA
HETATM   53  O6  UNL     1       1.741  50.336 -14.435  1.00  0.00    -0.532 OA
ENDBRANCH  49  51
ENDBRANCH  46  47
ENDBRANCH  44  45
ENDBRANCH  42  43
ENDBRANCH  37  40
ENDBRANCH  34  37
ENDBRANCH  31  34
ENDBRANCH  29  30
ENDBRANCH   2  29
TORSDOF 19
ENDMDL
MODEL 3
REMARK minimizedAffinity -8.63522339
REMARK CNNscore 0.254948765
REMARK CNNaffinity 6.57806826
REMARK  19 active torsions:
REMARK  status: ('A' for Active; 'I' for Inactive)
REMARK    1  A    between atoms: O1_2  and  C2_3 
REMARK    2  A    between atoms: C2_3  and  C3_4 
REMARK    3  A    between atoms: C2_3  and  C28_36 
REMARK    4  A    between atoms: C3_4  and  C4_5 
REMARK    5  A    between atoms: C4_5  and  C6_7 
REMARK    6  A    between atoms: C6_7  and  O2_8 
REMARK    7  A    between atoms: C6_7  and  C7_9 
REMARK    8  A    between atoms: C8_10  and  C9_11 
REMARK    9  A    between atoms: C10_12  and  C11_13 
REMARK   10  A    between atoms: C11_13  and  N1_14 
REMARK       I    between atoms: N1_14  and  C12_15 
REMARK   11  A    between atoms: C12_15  and  C13_17 
REMARK   12  A    between atoms: C13_17  and  C16_20 
REMARK   13  A    between atoms: C16_20  and  O4_21 
REMARK   14  A    between atoms: C16_20  and  C17_22 
REMARK   15  A    between atoms: C19_24  and  C20_25 
REMARK   16  A    between atoms: C21_26  and  C22_27 
REMARK   17  A    between atoms: C23_28  and  C24_29 
REMARK   18  A    between atoms: C26_31  and  N2_33 
REMARK   19  A    between atoms: C28_36  and  O7_37 
ROOT
HETATM    1  C9  UNL     1      -3.496  48.595 -27.245  1.00  0.00    -0.003 C 
HETATM    2  C10 UNL     1      -3.501  49.534 -26.288  1.00  0.00    -0.007 C 
ENDROOT
BRANCH   1   3
HETATM    3  C8  UNL     1      -4.616  48.351 -28.124  1.00  0.00    -0.002 C 
HETATM    4  C7  UNL     1      -5.729  47.731 -27.706  1.00  0.00     0.005 C 
BRANCH   4   5
HETATM    5  C6  UNL     1      -6.914  47.427 -28.576  1.00  0.00     0.144 C 
BRANCH   5   6
HETATM    6  C4  UNL     1      -8.115  46.838 -27.783  1.00  0.00     0.016 C 
HETATM    7  C5  UNL     1      -7.770  46.811 -26.288  1.00  0.00     0.013 C 
BRANCH   6   8
HETATM    8  C3  UNL     1      -8.513  45.432 -28.271  1.00  0.00     0.042 C 
BRANCH   8   9
HETATM    9  C2  UNL     1      -9.872  45.200 -28.999  1.00  0.00     0.159 C 
BRANCH   9  10
HETATM   10  O1  UNL     1     -10.619  44.377 -28.072  1.00  0.00    -0.388 OA
HETATM   11  C1  UNL     1     -11.955  44.822 -27.833  1.00  0.00     0.202 C 
ENDBRANCH   9  10
BRANCH   9  12
HETATM   12  C28 UNL     1      -9.836  44.387 -30.352  1.00  0.00     0.133 C 
HETATM   13  C29 UNL     1      -8.728  43.280 -30.381  1.00  0.00     0.114 C 
HETATM   14  C30 UNL     1      -9.074  42.045 -31.211  1.00  0.00     0.023 C 
HETATM   15  C31 UNL     1      -7.530  43.947 -30.999  1.00  0.00     0.227 C 
HETATM   16  O8  UNL     1      -6.373  43.590 -30.849  1.00  0.00    -0.273 OA
HETATM   17  N3  UNL     1      -7.985  44.983 -31.781  1.00  0.00    -0.332 N 
HETATM   18  C32 UNL     1      -7.065  45.907 -32.407  1.00  0.00     0.154 C 
HETATM   19  C33 UNL     1      -9.447  45.282 -31.579  1.00  0.00     0.183 A 
HETATM   20  C34 UNL     1      -9.790  46.810 -31.632  1.00  0.00     0.294 A 
HETATM   21  C35 UNL     1     -10.266  45.294 -32.923  1.00  0.00     0.169 A 
HETATM   22  O9  UNL     1      -9.435  47.834 -31.087  1.00  0.00    -0.262 OA
HETATM   23  O10 UNL     1     -10.582  46.703 -32.728  1.00  0.00    -0.311 OA
HETATM   24  C36 UNL     1     -11.544  44.527 -33.208  1.00  0.00     0.043 C 
BRANCH  12  25
HETATM   25  O7  UNL     1     -11.110  43.766 -30.580  1.00  0.00    -0.383 OA
HETATM   26  H42 UNL     1     -11.377  43.271 -29.789  1.00  0.00     0.210 HD
ENDBRANCH  12  25
ENDBRANCH   9  12
ENDBRANCH   8   9
ENDBRANCH   6   8
ENDBRANCH   5   6
BRANCH   5  27
HETATM   27  O2  UNL     1      -7.289  48.640 -29.217  1.00  0.00    -0.391 OA
HETATM   28  H12 UNL     1      -6.523  48.937 -29.736  1.00  0.00     0.210 HD
ENDBRANCH   5  27
ENDBRANCH   4   5
ENDBRANCH   1   3
BRANCH   2  29
HETATM   29  C11 UNL     1      -2.329  49.814 -25.404  1.00  0.00     0.149 C 
BRANCH  29  30
HETATM   30  N1  UNL     1      -1.695  51.025 -25.861  1.00  0.00    -0.357 N 
HETATM   31  C12 UNL     1      -0.367  51.006 -26.233  1.00  0.00     0.228 C 
HETATM   32  O3  UNL     1       0.273  49.954 -26.270  1.00  0.00    -0.273 OA
HETATM   33  H19 UNL     1      -2.137  51.906 -25.638  1.00  0.00     0.162 HD
BRANCH  31  34
HETATM   34  C13 UNL     1       0.264  52.375 -26.591  1.00  0.00     0.063 C 
HETATM   35  C14 UNL     1      -0.278  52.789 -27.973  1.00  0.00     0.028 C 
HETATM   36  C15 UNL     1       1.789  52.174 -26.614  1.00  0.00     0.028 C 
BRANCH  34  37
HETATM   37  C16 UNL     1      -0.163  53.383 -25.464  1.00  0.00     0.164 C 
BRANCH  37  38
HETATM   38  O4  UNL     1       0.069  54.722 -25.930  1.00  0.00    -0.390 OA
HETATM   39  H27 UNL     1      -0.651  54.903 -26.574  1.00  0.00     0.210 HD
ENDBRANCH  37  38
BRANCH  37  40
HETATM   40  C17 UNL     1       0.403  53.367 -24.039  1.00  0.00    -0.054 C 
HETATM   41  C18 UNL     1       1.234  54.608 -23.758  1.00  0.00     0.046 C 
HETATM   42  C19 UNL     1       0.209  52.398 -23.122  1.00  0.00     0.005 C 
BRANCH  42  43
HETATM   43  C20 UNL     1       0.772  52.340 -21.786  1.00  0.00     0.000 C 
HETATM   44  C21 UNL     1       0.495  53.247 -20.834  1.00  0.00     0.000 C 
BRANCH  44  45
HETATM   45  C22 UNL     1       1.054  53.168 -19.498  1.00  0.00     0.001 C 
HETATM   46  C23 UNL     1       0.625  52.281 -18.583  1.00  0.00     0.009 C 
BRANCH  46  47
HETATM   47  C24 UNL     1       1.120  52.133 -17.205  1.00  0.00    -0.034 C 
HETATM   48  C25 UNL     1       2.436  52.827 -16.901  1.00  0.00     0.050 C 
HETATM   49  C26 UNL     1       0.410  51.436 -16.284  1.00  0.00     0.082 C 
HETATM   50  C27 UNL     1      -0.888  50.700 -16.367  1.00  0.00     0.075 C 
BRANCH  49  51
HETATM   51  N2  UNL     1       0.974  51.319 -14.953  1.00  0.00    -0.120 N 
HETATM   52  O5  UNL     1       0.691  52.214 -14.149  1.00  0.00    -0.532 OA
HETATM   53  O6  UNL     1       1.668  50.320 -14.720  1.00  0.00    -0.532 OA
ENDBRANCH  49  51
ENDBRANCH  46  47
ENDBRANCH  44  45
ENDBRANCH  42  43
ENDBRANCH  37  40
ENDBRANCH  34  37
ENDBRANCH  31  34
ENDBRANCH  29  30
ENDBRANCH   2  29
TORSDOF 19
ENDMDL
MODEL 4
REMARK minimizedAffinity -8.86658669
REMARK CNNscore 0.233623475
REMARK CNNaffinity 6.84820557
REMARK  19 active torsions:
REMARK  status: ('A' for Active; 'I' for Inactive)
REMARK    1  A    between atoms: O1_2  and  C2_3 
REMARK    2  A    between atoms: C2_3  and  C3_4 
REMARK    3  A    between atoms: C2_3  and  C28_36 
REMARK    4  A    between atoms: C3_4  and  C4_5 
REMARK    5  A    between atoms: C4_5  and  C6_7 
REMARK    6  A    between atoms: C6_7  and  O2_8 
REMARK    7  A    between atoms: C6_7  and  C7_9 
REMARK    8  A    between atoms: C8_10  and  C9_11 
REMARK    9  A    between atoms: C10_12  and  C11_13 
REMARK   10  A    between atoms: C11_13  and  N1_14 
REMARK       I    between atoms: N1_14  and  C12_15 
REMARK   11  A    between atoms: C12_15  and  C13_17 
REMARK   12  A    between atoms: C13_17  and  C16_20 
REMARK   13  A    between atoms: C16_20  and  O4_21 
REMARK   14  A    between atoms: C16_20  and  C17_22 
REMARK   15  A    between atoms: C19_24  and  C20_25 
REMARK   16  A    between atoms: C21_26  and  C22_27 
REMARK   17  A    between atoms: C23_28  and  C24_29 
REMARK   18  A    between atoms: C26_31  and  N2_33 
REMARK   19  A    between atoms: C28_36  and  O7_37 
ROOT
HETATM    1  C9  UNL     1      -3.688  48.582 -26.794  1.00  0.00    -0.003 C 
HETATM    2  C10 UNL     1      -3.259  49.837 -26.591  1.00  0.00    -0.007 C 
ENDROOT
BRANCH   1   3
HETATM    3  C8  UNL     1      -4.302  48.142 -28.026  1.00  0.00    -0.002 C 
HETATM    4  C7  UNL     1      -5.632  48.043 -28.163  1.00  0.00     0.005 C 
BRANCH   4   5
HETATM    5  C6  UNL     1      -6.328  47.569 -29.406  1.00  0.00     0.144 C 
BRANCH   5   6
HETATM    6  C4  UNL     1      -7.764  47.039 -29.135  1.00  0.00     0.016 C 
HETATM    7  C5  UNL     1      -8.707  48.228 -28.903  1.00  0.00     0.013 C 
BRANCH   6   8
HETATM    8  C3  UNL     1      -7.820  46.066 -27.942  1.00  0.00     0.042 C 
BRANCH   8   9
HETATM    9  C2  UNL     1      -8.825  46.300 -26.773  1.00  0.00     0.159 C 
BRANCH   9  10
HETATM   10  O1  UNL     1      -8.068  45.934 -25.595  1.00  0.00    -0.388 OA
HETATM   11  C1  UNL     1      -7.832  47.013 -24.689  1.00  0.00     0.202 C 
ENDBRANCH   9  10
BRANCH   9  12
HETATM   12  C28 UNL     1     -10.119  45.395 -26.742  1.00  0.00     0.133 C 
HETATM   13  C29 UNL     1     -10.285  44.507 -28.021  1.00  0.00     0.114 C 
HETATM   14  C30 UNL     1     -10.975  43.164 -27.786  1.00  0.00     0.023 C 
HETATM   15  C31 UNL     1     -11.139  45.323 -28.951  1.00  0.00     0.227 C 
HETATM   16  O8  UNL     1     -11.178  45.193 -30.164  1.00  0.00    -0.273 OA
HETATM   17  N3  UNL     1     -11.882  46.190 -28.185  1.00  0.00    -0.332 N 
HETATM   18  C32 UNL     1     -12.708  47.208 -28.796  1.00  0.00     0.154 C 
HETATM   19  C33 UNL     1     -11.441  46.238 -26.746  1.00  0.00     0.183 A 
HETATM   20  C34 UNL     1     -11.512  47.670 -26.113  1.00  0.00     0.294 A 
HETATM   21  C35 UNL     1     -12.617  45.989 -25.731  1.00  0.00     0.169 A 
HETATM   22  O9  UNL     1     -11.092  48.783 -26.349  1.00  0.00    -0.262 OA
HETATM   23  O10 UNL     1     -12.443  47.330 -25.187  1.00  0.00    -0.311 OA
HETATM   24  C36 UNL     1     -12.631  44.984 -24.594  1.00  0.00     0.043 C 
BRANCH  12  25
HETATM   25  O7  UNL     1     -10.085  44.539 -25.590  1.00  0.00    -0.383 OA
HETATM   26  H42 UNL     1      -9.235  44.072 -25.556  1.00  0.00     0.210 HD
ENDBRANCH  12  25
ENDBRANCH   9  12
ENDBRANCH   8   9
ENDBRANCH   6   8
ENDBRANCH   5   6
BRANCH   5  27
HETATM   27  O2  UNL     1      -6.367  48.665 -30.312  1.00  0.00    -0.391 OA
HETATM   28  H12 UNL     1      -5.446  48.923 -30.486  1.00  0.00     0.210 HD
ENDBRANCH   5  27
ENDBRANCH   4   5
ENDBRANCH   1   3
BRANCH   2  29
HETATM   29  C11 UNL     1      -2.588  50.283 -25.333  1.00  0.00     0.149 C 
BRANCH  29  30
HETATM   30  N1  UNL     1      -1.737  51.403 -25.646  1.00  0.00    -0.357 N 
HETATM   31  C12 UNL     1      -0.497  51.186 -26.211  1.00  0.00     0.228 C 
HETATM   32  O3  UNL     1      -0.132  50.057 -26.539  1.00  0.00    -0.273 OA
HETATM   33  H19 UNL     1      -1.933  52.288 -25.199  1.00  0.00     0.162 HD
BRANCH  31  34
HETATM   34  C13 UNL     1       0.398  52.437 -26.398  1.00  0.00     0.063 C 
HETATM   35  C14 UNL     1       0.149  52.979 -27.819  1.00  0.00     0.028 C 
HETATM   36  C15 UNL     1       1.855  51.977 -26.210  1.00  0.00     0.028 C 
BRANCH  34  37
HETATM   37  C16 UNL     1      -0.022  53.469 -25.290  1.00  0.00     0.164 C 
BRANCH  37  38
HETATM   38  O4  UNL     1       0.235  54.797 -25.775  1.00  0.00    -0.390 OA
HETATM   39  H27 UNL     1      -0.475  54.979 -26.429  1.00  0.00     0.210 HD
ENDBRANCH  37  38
BRANCH  37  40
HETATM   40  C17 UNL     1       0.531  53.467 -23.860  1.00  0.00    -0.054 C 
HETATM   41  C18 UNL     1       1.321  54.731 -23.568  1.00  0.00     0.046 C 
HETATM   42  C19 UNL     1       0.358  52.489 -22.947  1.00  0.00     0.005 C 
BRANCH  42  43
HETATM   43  C20 UNL     1       0.911  52.446 -21.606  1.00  0.00     0.000 C 
HETATM   44  C21 UNL     1       0.476  53.232 -20.609  1.00  0.00     0.000 C 
BRANCH  44  45
HETATM   45  C22 UNL     1       1.027  53.166 -19.269  1.00  0.00     0.001 C 
HETATM   46  C23 UNL     1       0.696  52.201 -18.394  1.00  0.00     0.009 C 
BRANCH  46  47
HETATM   47  C24 UNL     1       1.192  52.057 -17.016  1.00  0.00    -0.034 C 
HETATM   48  C25 UNL     1       2.549  52.680 -16.737  1.00  0.00     0.050 C 
HETATM   49  C26 UNL     1       0.450  51.426 -16.074  1.00  0.00     0.082 C 
HETATM   50  C27 UNL     1      -0.889  50.766 -16.130  1.00  0.00     0.075 C 
BRANCH  49  51
HETATM   51  N2  UNL     1       1.016  51.308 -14.744  1.00  0.00    -0.120 N 
HETATM   52  O5  UNL     1       1.795  50.367 -14.553  1.00  0.00    -0.532 OA
HETATM   53  O6  UNL     1       0.700  52.173 -13.917  1.00  0.00    -0.532 OA
ENDBRANCH  49  51
ENDBRANCH  46  47
ENDBRANCH  44  45
ENDBRANCH  42  43
ENDBRANCH  37  40
ENDBRANCH  34  37
ENDBRANCH  31  34
ENDBRANCH  29  30
ENDBRANCH   2  29
TORSDOF 19
ENDMDL
MODEL 5
REMARK minimizedAffinity -8.24479485
REMARK CNNscore 0.2238556
REMARK CNNaffinity 6.69523859
REMARK  19 active torsions:
REMARK  status: ('A' for Active; 'I' for Inactive)
REMARK    1  A    between atoms: O1_2  and  C2_3 
REMARK    2  A    between atoms: C2_3  and  C3_4 
REMARK    3  A    between atoms: C2_3  and  C28_36 
REMARK    4  A    between atoms: C3_4  and  C4_5 
REMARK    5  A    between atoms: C4_5  and  C6_7 
REMARK    6  A    between atoms: C6_7  and  O2_8 
REMARK    7  A    between atoms: C6_7  and  C7_9 
REMARK    8  A    between atoms: C8_10  and  C9_11 
REMARK    9  A    between atoms: C10_12  and  C11_13 
REMARK   10  A    between atoms: C11_13  and  N1_14 
REMARK       I    between atoms: N1_14  and  C12_15 
REMARK   11  A    between atoms: C12_15  and  C13_17 
REMARK   12  A    between atoms: C13_17  and  C16_20 
REMARK   13  A    between atoms: C16_20  and  O4_21 
REMARK   14  A    between atoms: C16_20  and  C17_22 
REMARK   15  A    between atoms: C19_24  and  C20_25 
REMARK   16  A    between atoms: C21_26  and  C22_27 
REMARK   17  A    between atoms: C23_28  and  C24_29 
REMARK   18  A    between atoms: C26_31  and  N2_33 
REMARK   19  A    between atoms: C28_36  and  O7_37 
ROOT
HETATM    1  C9  UNL     1      -4.013  48.244 -27.639  1.00  0.00    -0.003 C 
HETATM    2  C10 UNL     1      -3.711  48.362 -26.338  1.00  0.00    -0.007 C 
ENDROOT
BRANCH   1   3
HETATM    3  C8  UNL     1      -5.343  47.954 -28.123  1.00  0.00    -0.002 C 
HETATM    4  C7  UNL     1      -5.613  47.826 -29.431  1.00  0.00     0.005 C 
BRANCH   4   5
HETATM    5  C6  UNL     1      -6.976  47.550 -29.996  1.00  0.00     0.144 C 
BRANCH   5   6
HETATM    6  C4  UNL     1      -7.697  46.365 -29.294  1.00  0.00     0.016 C 
HETATM    7  C5  UNL     1      -7.324  45.055 -30.001  1.00  0.00     0.013 C 
BRANCH   6   8
HETATM    8  C3  UNL     1      -9.227  46.541 -29.257  1.00  0.00     0.042 C 
BRANCH   8   9
HETATM    9  C2  UNL     1      -9.946  46.956 -27.937  1.00  0.00     0.159 C 
BRANCH   9  10
HETATM   10  O1  UNL     1      -8.895  47.571 -27.155  1.00  0.00    -0.388 OA
HETATM   11  C1  UNL     1      -9.243  48.836 -26.592  1.00  0.00     0.202 C 
ENDBRANCH   9  10
BRANCH   9  12
HETATM   12  C28 UNL     1     -10.522  45.796 -27.035  1.00  0.00     0.133 C 
HETATM   13  C29 UNL     1     -10.572  44.410 -27.763  1.00  0.00     0.114 C 
HETATM   14  C30 UNL     1     -10.376  43.199 -26.852  1.00  0.00     0.023 C 
HETATM   15  C31 UNL     1     -11.949  44.336 -28.362  1.00  0.00     0.227 C 
HETATM   16  O8  UNL     1     -12.263  43.640 -29.313  1.00  0.00    -0.273 OA
HETATM   17  N3  UNL     1     -12.773  45.150 -27.620  1.00  0.00    -0.332 N 
HETATM   18  C32 UNL     1     -14.138  45.401 -28.026  1.00  0.00     0.154 C 
HETATM   19  C33 UNL     1     -12.025  46.025 -26.649  1.00  0.00     0.183 A 
HETATM   20  C34 UNL     1     -12.631  47.463 -26.501  1.00  0.00     0.294 A 
HETATM   21  C35 UNL     1     -12.558  45.906 -25.173  1.00  0.00     0.169 A 
HETATM   22  O9  UNL     1     -12.930  48.395 -27.217  1.00  0.00    -0.262 OA
HETATM   23  O10 UNL     1     -12.945  47.310 -25.190  1.00  0.00    -0.311 OA
HETATM   24  C36 UNL     1     -11.727  45.628 -23.934  1.00  0.00     0.043 C 
BRANCH  12  25
HETATM   25  O7  UNL     1      -9.725  45.663 -25.848  1.00  0.00    -0.383 OA
HETATM   26  H42 UNL     1      -8.788  45.592 -26.091  1.00  0.00     0.210 HD
ENDBRANCH  12  25
ENDBRANCH   9  12
ENDBRANCH   8   9
ENDBRANCH   6   8
ENDBRANCH   5   6
BRANCH   5  27
HETATM   27  O2  UNL     1      -7.738  48.743 -29.864  1.00  0.00    -0.391 OA
HETATM   28  H12 UNL     1      -7.272  49.436 -30.362  1.00  0.00     0.210 HD
ENDBRANCH   5  27
ENDBRANCH   4   5
ENDBRANCH   1   3
BRANCH   2  29
HETATM   29  C11 UNL     1      -2.345  48.701 -25.838  1.00  0.00     0.149 C 
BRANCH  29  30
HETATM   30  N1  UNL     1      -2.454  49.832 -24.951  1.00  0.00    -0.357 N 
HETATM   31  C12 UNL     1      -1.467  50.796 -24.944  1.00  0.00     0.228 C 
HETATM   32  O3  UNL     1      -0.533  50.762 -25.745  1.00  0.00    -0.273 OA
HETATM   33  H19 UNL     1      -3.087  49.761 -24.167  1.00  0.00     0.162 HD
BRANCH  31  34
HETATM   34  C13 UNL     1      -1.605  51.908 -23.874  1.00  0.00     0.063 C 
HETATM   35  C14 UNL     1      -2.859  52.735 -24.221  1.00  0.00     0.028 C 
HETATM   36  C15 UNL     1      -0.324  52.759 -23.944  1.00  0.00     0.028 C 
BRANCH  34  37
HETATM   37  C16 UNL     1      -1.738  51.189 -22.483  1.00  0.00     0.164 C 
BRANCH  37  38
HETATM   38  O4  UNL     1      -2.941  51.645 -21.842  1.00  0.00    -0.390 OA
HETATM   39  H27 UNL     1      -3.675  51.195 -22.314  1.00  0.00     0.210 HD
ENDBRANCH  37  38
BRANCH  37  40
HETATM   40  C17 UNL     1      -0.671  51.242 -21.383  1.00  0.00    -0.054 C 
HETATM   41  C18 UNL     1      -0.212  49.849 -20.987  1.00  0.00     0.046 C 
HETATM   42  C19 UNL     1      -0.175  52.361 -20.817  1.00  0.00     0.005 C 
BRANCH  42  43
HETATM   43  C20 UNL     1       0.799  52.433 -19.744  1.00  0.00     0.000 C 
HETATM   44  C21 UNL     1       0.460  52.620 -18.458  1.00  0.00     0.000 C 
BRANCH  44  45
HETATM   45  C22 UNL     1       1.443  52.674 -17.393  1.00  0.00     0.001 C 
HETATM   46  C23 UNL     1       1.547  51.720 -16.452  1.00  0.00     0.009 C 
BRANCH  46  47
HETATM   47  C24 UNL     1       2.502  51.692 -15.332  1.00  0.00    -0.034 C 
HETATM   48  C25 UNL     1       3.819  52.408 -15.573  1.00  0.00     0.050 C 
HETATM   49  C26 UNL     1       2.184  51.080 -14.165  1.00  0.00     0.082 C 
HETATM   50  C27 UNL     1       0.963  50.343 -13.721  1.00  0.00     0.075 C 
BRANCH  49  51
HETATM   51  N2  UNL     1       3.185  51.080 -13.116  1.00  0.00    -0.120 N 
HETATM   52  O5  UNL     1       4.051  50.199 -13.174  1.00  0.00    -0.532 OA
HETATM   53  O6  UNL     1       3.112  51.976 -12.266  1.00  0.00    -0.532 OA
ENDBRANCH  49  51
ENDBRANCH  46  47
ENDBRANCH  44  45
ENDBRANCH  42  43
ENDBRANCH  37  40
ENDBRANCH  34  37
ENDBRANCH  31  34
ENDBRANCH  29  30
ENDBRANCH   2  29
TORSDOF 19
ENDMDL
MODEL 6
REMARK minimizedAffinity -8.05542755
REMARK CNNscore 0.197758958
REMARK CNNaffinity 6.43726015
REMARK  19 active torsions:
REMARK  status: ('A' for Active; 'I' for Inactive)
REMARK    1  A    between atoms: O1_2  and  C2_3 
REMARK    2  A    between atoms: C2_3  and  C3_4 
REMARK    3  A    between atoms: C2_3  and  C28_36 
REMARK    4  A    between atoms: C3_4  and  C4_5 
REMARK    5  A    between atoms: C4_5  and  C6_7 
REMARK    6  A    between atoms: C6_7  and  O2_8 
REMARK    7  A    between atoms: C6_7  and  C7_9 
REMARK    8  A    between atoms: C8_10  and  C9_11 
REMARK    9  A    between atoms: C10_12  and  C11_13 
REMARK   10  A    between atoms: C11_13  and  N1_14 
REMARK       I    between atoms: N1_14  and  C12_15 
REMARK   11  A    between atoms: C12_15  and  C13_17 
REMARK   12  A    between atoms: C13_17  and  C16_20 
REMARK   13  A    between atoms: C16_20  and  O4_21 
REMARK   14  A    between atoms: C16_20  and  C17_22 
REMARK   15  A    between atoms: C19_24  and  C20_25 
REMARK   16  A    between atoms: C21_26  and  C22_27 
REMARK   17  A    between atoms: C23_28  and  C24_29 
REMARK   18  A    between atoms: C26_31  and  N2_33 
REMARK   19  A    between atoms: C28_36  and  O7_37 
ROOT
HETATM    1  C9  UNL     1      -4.763  48.096 -27.101  1.00  0.00    -0.003 C 
HETATM    2  C10 UNL     1      -3.494  48.514 -26.984  1.00  0.00    -0.007 C 
ENDROOT
BRANCH   1   3
HETATM    3  C8  UNL     1      -5.490  48.104 -28.349  1.00  0.00    -0.002 C 
HETATM    4  C7  UNL     1      -4.888  48.350 -29.523  1.00  0.00     0.005 C 
BRANCH   4   5
HETATM    5  C6  UNL     1      -5.591  48.397 -30.848  1.00  0.00     0.144 C 
BRANCH   5   6
HETATM    6  C4  UNL     1      -6.186  47.023 -31.270  1.00  0.00     0.016 C 
HETATM    7  C5  UNL     1      -5.172  46.283 -32.153  1.00  0.00     0.013 C 
BRANCH   6   8
HETATM    8  C3  UNL     1      -7.536  47.162 -31.998  1.00  0.00     0.042 C 
BRANCH   8   9
HETATM    9  C2  UNL     1      -8.838  46.576 -31.373  1.00  0.00     0.159 C 
BRANCH   9  10
HETATM   10  O1  UNL     1      -8.538  46.511 -29.959  1.00  0.00    -0.388 OA
HETATM   11  C1  UNL     1      -9.180  47.516 -29.173  1.00  0.00     0.202 C 
ENDBRANCH   9  10
BRANCH   9  12
HETATM   12  C28 UNL     1      -9.240  45.106 -31.788  1.00  0.00     0.133 C 
HETATM   13  C29 UNL     1     -10.785  44.852 -31.751  1.00  0.00     0.114 C 
HETATM   14  C30 UNL     1     -11.295  43.842 -32.778  1.00  0.00     0.023 C 
HETATM   15  C31 UNL     1     -11.055  44.307 -30.376  1.00  0.00     0.227 C 
HETATM   16  O8  UNL     1     -12.132  44.351 -29.803  1.00  0.00    -0.273 OA
HETATM   17  N3  UNL     1      -9.895  43.726 -29.920  1.00  0.00    -0.332 N 
HETATM   18  C32 UNL     1      -9.791  43.227 -28.567  1.00  0.00     0.154 C 
HETATM   19  C33 UNL     1      -8.699  44.031 -30.783  1.00  0.00     0.183 A 
HETATM   20  C34 UNL     1      -7.376  44.246 -29.973  1.00  0.00     0.294 A 
HETATM   21  C35 UNL     1      -7.927  42.740 -31.246  1.00  0.00     0.169 A 
HETATM   22  O9  UNL     1      -6.979  44.939 -29.060  1.00  0.00    -0.262 OA
HETATM   23  O10 UNL     1      -6.742  43.178 -30.520  1.00  0.00    -0.311 OA
HETATM   24  C36 UNL     1      -7.540  42.381 -32.669  1.00  0.00     0.043 C 
BRANCH  12  25
HETATM   25  O7  UNL     1      -8.760  44.828 -33.112  1.00  0.00    -0.383 OA
HETATM   26  H42 UNL     1      -9.040  45.535 -33.715  1.00  0.00     0.210 HD
ENDBRANCH  12  25
ENDBRANCH   9  12
ENDBRANCH   8   9
ENDBRANCH   6   8
ENDBRANCH   5   6
BRANCH   5  27
HETATM   27  O2  UNL     1      -6.620  49.373 -30.746  1.00  0.00    -0.391 OA
HETATM   28  H12 UNL     1      -6.191  50.218 -30.532  1.00  0.00     0.210 HD
ENDBRANCH   5  27
ENDBRANCH   4   5
ENDBRANCH   1   3
BRANCH   2  29
HETATM   29  C11 UNL     1      -2.728  48.469 -25.701  1.00  0.00     0.149 C 
BRANCH  29  30
HETATM   30  N1  UNL     1      -2.603  49.814 -25.200  1.00  0.00    -0.357 N 
HETATM   31  C12 UNL     1      -2.603  50.042 -23.840  1.00  0.00     0.228 C 
HETATM   32  O3  UNL     1      -2.617  49.111 -23.034  1.00  0.00    -0.273 OA
HETATM   33  H19 UNL     1      -2.800  50.577 -25.833  1.00  0.00     0.162 HD
BRANCH  31  34
HETATM   34  C13 UNL     1      -2.590  51.527 -23.394  1.00  0.00     0.063 C 
HETATM   35  C14 UNL     1      -3.379  51.623 -22.074  1.00  0.00     0.028 C 
HETATM   36  C15 UNL     1      -3.260  52.338 -24.518  1.00  0.00     0.028 C 
BRANCH  34  37
HETATM   37  C16 UNL     1      -1.084  51.935 -23.214  1.00  0.00     0.164 C 
BRANCH  37  38
HETATM   38  O4  UNL     1      -0.280  51.139 -24.100  1.00  0.00    -0.390 OA
HETATM   39  H27 UNL     1      -0.431  51.513 -24.996  1.00  0.00     0.210 HD
ENDBRANCH  37  38
BRANCH  37  40
HETATM   40  C17 UNL     1      -0.338  51.894 -21.875  1.00  0.00    -0.054 C 
HETATM   41  C18 UNL     1      -0.080  50.466 -21.426  1.00  0.00     0.046 C 
HETATM   42  C19 UNL     1       0.059  52.965 -21.158  1.00  0.00     0.005 C 
BRANCH  42  43
HETATM   43  C20 UNL     1       0.724  52.949 -19.868  1.00  0.00     0.000 C 
HETATM   44  C21 UNL     1       0.086  52.672 -18.719  1.00  0.00     0.000 C 
BRANCH  44  45
HETATM   45  C22 UNL     1       0.767  52.644 -17.439  1.00  0.00     0.001 C 
HETATM   46  C23 UNL     1       1.990  52.108 -17.278  1.00  0.00     0.009 C 
BRANCH  46  47
HETATM   47  C24 UNL     1       2.753  52.025 -16.022  1.00  0.00    -0.034 C 
HETATM   48  C25 UNL     1       4.030  52.845 -15.973  1.00  0.00     0.050 C 
HETATM   49  C26 UNL     1       2.303  51.274 -14.987  1.00  0.00     0.082 C 
HETATM   50  C27 UNL     1       1.090  50.417 -14.822  1.00  0.00     0.075 C 
BRANCH  49  51
HETATM   51  N2  UNL     1       3.122  51.228 -13.790  1.00  0.00    -0.120 N 
HETATM   52  O5  UNL     1       2.866  52.057 -12.909  1.00  0.00    -0.532 OA
HETATM   53  O6  UNL     1       3.988  50.346 -13.732  1.00  0.00    -0.532 OA
ENDBRANCH  49  51
ENDBRANCH  46  47
ENDBRANCH  44  45
ENDBRANCH  42  43
ENDBRANCH  37  40
ENDBRANCH  34  37
ENDBRANCH  31  34
ENDBRANCH  29  30
ENDBRANCH   2  29
TORSDOF 19
ENDMDL
MODEL 7
REMARK minimizedAffinity -8.25012398
REMARK CNNscore 0.188714266
REMARK CNNaffinity 6.22135973
REMARK  19 active torsions:
REMARK  status: ('A' for Active; 'I' for Inactive)
REMARK    1  A    between atoms: O1_2  and  C2_3 
REMARK    2  A    between atoms: C2_3  and  C3_4 
REMARK    3  A    between atoms: C2_3  and  C28_36 
REMARK    4  A    between atoms: C3_4  and  C4_5 
REMARK    5  A    between atoms: C4_5  and  C6_7 
REMARK    6  A    between atoms: C6_7  and  O2_8 
REMARK    7  A    between atoms: C6_7  and  C7_9 
REMARK    8  A    between atoms: C8_10  and  C9_11 
REMARK    9  A    between atoms: C10_12  and  C11_13 
REMARK   10  A    between atoms: C11_13  and  N1_14 
REMARK       I    between atoms: N1_14  and  C12_15 
REMARK   11  A    between atoms: C12_15  and  C13_17 
REMARK   12  A    between atoms: C13_17  and  C16_20 
REMARK   13  A    between atoms: C16_20  and  O4_21 
REMARK   14  A    between atoms: C16_20  and  C17_22 
REMARK   15  A    between atoms: C19_24  and  C20_25 
REMARK   16  A    between atoms: C21_26  and  C22_27 
REMARK   17  A    between atoms: C23_28  and  C24_29 
REMARK   18  A    between atoms: C26_31  and  N2_33 
REMARK   19  A    between atoms: C28_36  and  O7_37 
ROOT
HETATM    1  C9  UNL     1      -3.500  48.929 -27.402  1.00  0.00    -0.003 C 
HETATM    2  C10 UNL     1      -4.489  48.859 -28.305  1.00  0.00    -0.007 C 
ENDROOT
BRANCH   1   3
HETATM    3  C8  UNL     1      -2.664  50.094 -27.228  1.00  0.00    -0.002 C 
HETATM    4  C7  UNL     1      -3.031  51.125 -26.452  1.00  0.00     0.005 C 
BRANCH   4   5
HETATM    5  C6  UNL     1      -2.220  52.372 -26.251  1.00  0.00     0.144 C 
BRANCH   5   6
HETATM    6  C4  UNL     1      -1.502  52.414 -24.872  1.00  0.00     0.016 C 
HETATM    7  C5  UNL     1      -0.549  51.216 -24.761  1.00  0.00     0.013 C 
BRANCH   6   8
HETATM    8  C3  UNL     1      -2.490  52.430 -23.691  1.00  0.00     0.042 C 
BRANCH   8   9
HETATM    9  C2  UNL     1      -2.102  51.789 -22.323  1.00  0.00     0.159 C 
BRANCH   9  10
HETATM   10  O1  UNL     1      -0.659  51.885 -22.299  1.00  0.00    -0.388 OA
HETATM   11  C1  UNL     1      -0.142  52.732 -21.272  1.00  0.00     0.202 C 
ENDBRANCH   9  10
BRANCH   9  12
HETATM   12  C28 UNL     1      -2.428  50.256 -22.127  1.00  0.00     0.133 C 
HETATM   13  C29 UNL     1      -3.477  49.709 -23.153  1.00  0.00     0.114 C 
HETATM   14  C30 UNL     1      -3.295  48.241 -23.537  1.00  0.00     0.023 C 
HETATM   15  C31 UNL     1      -4.806  49.858 -22.465  1.00  0.00     0.227 C 
HETATM   16  O8  UNL     1      -5.884  49.930 -23.032  1.00  0.00    -0.273 OA
HETATM   17  N3  UNL     1      -4.578  49.853 -21.109  1.00  0.00    -0.332 N 
HETATM   18  C32 UNL     1      -5.647  50.116 -20.171  1.00  0.00     0.154 C 
HETATM   19  C33 UNL     1      -3.119  49.961 -20.751  1.00  0.00     0.183 A 
HETATM   20  C34 UNL     1      -2.845  50.838 -19.482  1.00  0.00     0.294 A 
HETATM   21  C35 UNL     1      -2.636  48.823 -19.778  1.00  0.00     0.169 A 
HETATM   22  O9  UNL     1      -3.095  51.957 -19.087  1.00  0.00    -0.262 OA
HETATM   23  O10 UNL     1      -2.327  49.815 -18.757  1.00  0.00    -0.311 OA
HETATM   24  C36 UNL     1      -1.437  47.915 -19.976  1.00  0.00     0.043 C 
BRANCH  12  25
HETATM   25  O7  UNL     1      -1.223  49.485 -22.247  1.00  0.00    -0.383 OA
HETATM   26  H42 UNL     1      -0.763  49.724 -23.068  1.00  0.00     0.210 HD
ENDBRANCH  12  25
ENDBRANCH   9  12
ENDBRANCH   8   9
ENDBRANCH   6   8
ENDBRANCH   5   6
BRANCH   5  27
HETATM   27  O2  UNL     1      -1.269  52.432 -27.307  1.00  0.00    -0.391 OA
HETATM   28  H12 UNL     1      -1.770  52.454 -28.140  1.00  0.00     0.210 HD
ENDBRANCH   5  27
ENDBRANCH   4   5
ENDBRANCH   1   3
BRANCH   2  29
HETATM   29  C11 UNL     1      -5.380  47.670 -28.459  1.00  0.00     0.149 C 
BRANCH  29  30
HETATM   30  N1  UNL     1      -6.748  48.124 -28.458  1.00  0.00    -0.357 N 
HETATM   31  C12 UNL     1      -7.704  47.423 -29.163  1.00  0.00     0.228 C 
HETATM   32  O3  UNL     1      -7.436  46.360 -29.724  1.00  0.00    -0.273 OA
HETATM   33  H19 UNL     1      -6.930  49.080 -28.187  1.00  0.00     0.162 HD
BRANCH  31  34
HETATM   34  C13 UNL     1      -9.120  48.052 -29.208  1.00  0.00     0.063 C 
HETATM   35  C14 UNL     1      -9.073  49.231 -30.199  1.00  0.00     0.028 C 
HETATM   36  C15 UNL     1      -9.447  48.521 -27.779  1.00  0.00     0.028 C 
BRANCH  34  37
HETATM   37  C16 UNL     1     -10.106  46.924 -29.679  1.00  0.00     0.164 C 
BRANCH  37  38
HETATM   38  O4  UNL     1     -10.099  46.875 -31.115  1.00  0.00    -0.390 OA
HETATM   39  H27 UNL     1      -9.250  46.444 -31.358  1.00  0.00     0.210 HD
ENDBRANCH  37  38
BRANCH  37  40
HETATM   40  C17 UNL     1     -11.590  46.867 -29.299  1.00  0.00    -0.054 C 
HETATM   41  C18 UNL     1     -12.335  48.099 -29.784  1.00  0.00     0.046 C 
HETATM   42  C19 UNL     1     -12.196  45.868 -28.625  1.00  0.00     0.005 C 
BRANCH  42  43
HETATM   43  C20 UNL     1     -13.587  45.815 -28.214  1.00  0.00     0.000 C 
HETATM   44  C21 UNL     1     -14.397  44.784 -28.504  1.00  0.00     0.000 C 
BRANCH  44  45
HETATM   45  C22 UNL     1     -15.781  44.738 -28.073  1.00  0.00     0.001 C 
HETATM   46  C23 UNL     1     -16.209  45.319 -26.939  1.00  0.00     0.009 C 
BRANCH  46  47
HETATM   47  C24 UNL     1     -17.585  45.317 -26.416  1.00  0.00    -0.034 C 
HETATM   48  C25 UNL     1     -18.626  44.665 -27.309  1.00  0.00     0.050 C 
HETATM   49  C26 UNL     1     -17.865  45.848 -25.201  1.00  0.00     0.082 C 
HETATM   50  C27 UNL     1     -17.006  46.513 -24.176  1.00  0.00     0.075 C 
BRANCH  49  51
HETATM   51  N2  UNL     1     -19.249  45.825 -24.765  1.00  0.00    -0.120 N 
HETATM   52  O5  UNL     1     -19.981  46.725 -25.192  1.00  0.00    -0.532 OA
HETATM   53  O6  UNL     1     -19.592  44.893 -24.026  1.00  0.00    -0.532 OA
ENDBRANCH  49  51
ENDBRANCH  46  47
ENDBRANCH  44  45
ENDBRANCH  42  43
ENDBRANCH  37  40
ENDBRANCH  34  37
ENDBRANCH  31  34
ENDBRANCH  29  30
ENDBRANCH   2  29
TORSDOF 19
ENDMDL
MODEL 8
REMARK minimizedAffinity -8.19321632
REMARK CNNscore 0.185043573
REMARK CNNaffinity 6.40615225
REMARK  19 active torsions:
REMARK  status: ('A' for Active; 'I' for Inactive)
REMARK    1  A    between atoms: O1_2  and  C2_3 
REMARK    2  A    between atoms: C2_3  and  C3_4 
REMARK    3  A    between atoms: C2_3  and  C28_36 
REMARK    4  A    between atoms: C3_4  and  C4_5 
REMARK    5  A    between atoms: C4_5  and  C6_7 
REMARK    6  A    between atoms: C6_7  and  O2_8 
REMARK    7  A    between atoms: C6_7  and  C7_9 
REMARK    8  A    between atoms: C8_10  and  C9_11 
REMARK    9  A    between atoms: C10_12  and  C11_13 
REMARK   10  A    between atoms: C11_13  and  N1_14 
REMARK       I    between atoms: N1_14  and  C12_15 
REMARK   11  A    between atoms: C12_15  and  C13_17 
REMARK   12  A    between atoms: C13_17  and  C16_20 
REMARK   13  A    between atoms: C16_20  and  O4_21 
REMARK   14  A    between atoms: C16_20  and  C17_22 
REMARK   15  A    between atoms: C19_24  and  C20_25 
REMARK   16  A    between atoms: C21_26  and  C22_27 
REMARK   17  A    between atoms: C23_28  and  C24_29 
REMARK   18  A    between atoms: C26_31  and  N2_33 
REMARK   19  A    between atoms: C28_36  and  O7_37 
ROOT
HETATM    1  C9  UNL     1      -5.201  48.169 -25.803  1.00  0.00    -0.003 C 
HETATM    2  C10 UNL     1      -3.989  48.664 -25.515  1.00  0.00    -0.007 C 
ENDROOT
BRANCH   1   3
HETATM    3  C8  UNL     1      -6.300  48.160 -24.865  1.00  0.00    -0.002 C 
HETATM    4  C7  UNL     1      -7.141  47.120 -24.761  1.00  0.00     0.005 C 
BRANCH   4   5
HETATM    5  C6  UNL     1      -8.313  47.062 -23.825  1.00  0.00     0.144 C 
BRANCH   5   6
HETATM    6  C4  UNL     1      -9.625  46.602 -24.521  1.00  0.00     0.016 C 
HETATM    7  C5  UNL     1      -9.449  45.167 -25.035  1.00  0.00     0.013 C 
BRANCH   6   8
HETATM    8  C3  UNL     1     -10.044  47.539 -25.669  1.00  0.00     0.042 C 
BRANCH   8   9
HETATM    9  C2  UNL     1      -9.719  47.174 -27.150  1.00  0.00     0.159 C 
BRANCH   9  10
HETATM   10  O1  UNL     1      -9.065  48.361 -27.658  1.00  0.00    -0.388 OA
HETATM   11  C1  UNL     1      -7.847  48.107 -28.359  1.00  0.00     0.202 C 
ENDBRANCH   9  10
BRANCH   9  12
HETATM   12  C28 UNL     1     -10.943  46.921 -28.115  1.00  0.00     0.133 C 
HETATM   13  C29 UNL     1     -12.278  46.613 -27.356  1.00  0.00     0.114 C 
HETATM   14  C30 UNL     1     -13.545  47.088 -28.067  1.00  0.00     0.023 C 
HETATM   15  C31 UNL     1     -12.327  45.114 -27.250  1.00  0.00     0.227 C 
HETATM   16  O8  UNL     1     -12.962  44.491 -26.416  1.00  0.00    -0.273 OA
HETATM   17  N3  UNL     1     -11.573  44.597 -28.278  1.00  0.00    -0.332 N 
HETATM   18  C32 UNL     1     -11.311  43.178 -28.371  1.00  0.00     0.154 C 
HETATM   19  C33 UNL     1     -10.756  45.637 -28.997  1.00  0.00     0.183 A 
HETATM   20  C34 UNL     1      -9.338  45.133 -29.434  1.00  0.00     0.294 A 
HETATM   21  C35 UNL     1     -10.979  45.629 -30.555  1.00  0.00     0.169 A 
HETATM   22  O9  UNL     1      -8.364  44.623 -28.923  1.00  0.00    -0.262 OA
HETATM   23  O10 UNL     1      -9.580  45.276 -30.762  1.00  0.00    -0.311 OA
HETATM   24  C36 UNL     1     -11.328  46.824 -31.422  1.00  0.00     0.043 C 
BRANCH  12  25
HETATM   25  O7  UNL     1     -11.145  48.068 -28.954  1.00  0.00    -0.383 OA
HETATM   26  H42 UNL     1     -11.190  48.868 -28.407  1.00  0.00     0.210 HD
ENDBRANCH  12  25
ENDBRANCH   9  12
ENDBRANCH   8   9
ENDBRANCH   6   8
ENDBRANCH   5   6
BRANCH   5  27
HETATM   27  O2  UNL     1      -7.969  46.167 -22.773  1.00  0.00    -0.391 OA
HETATM   28  H12 UNL     1      -7.176  46.526 -22.341  1.00  0.00     0.210 HD
ENDBRANCH   5  27
ENDBRANCH   4   5
ENDBRANCH   1   3
BRANCH   2  29
HETATM   29  C11 UNL     1      -2.864  48.710 -26.497  1.00  0.00     0.149 C 
BRANCH  29  30
HETATM   30  N1  UNL     1      -1.931  49.722 -26.071  1.00  0.00    -0.357 N 
HETATM   31  C12 UNL     1      -1.562  50.725 -26.943  1.00  0.00     0.228 C 
HETATM   32  O3  UNL     1      -2.082  50.831 -28.055  1.00  0.00    -0.273 OA
HETATM   33  H19 UNL     1      -1.357  49.529 -25.263  1.00  0.00     0.162 HD
BRANCH  31  34
HETATM   34  C13 UNL     1      -0.463  51.696 -26.444  1.00  0.00     0.063 C 
HETATM   35  C14 UNL     1      -0.211  52.727 -27.562  1.00  0.00     0.028 C 
HETATM   36  C15 UNL     1       0.789  50.848 -26.158  1.00  0.00     0.028 C 
BRANCH  34  37
HETATM   37  C16 UNL     1      -1.009  52.368 -25.133  1.00  0.00     0.164 C 
BRANCH  37  38
HETATM   38  O4  UNL     1      -1.000  53.795 -25.308  1.00  0.00    -0.390 OA
HETATM   39  H27 UNL     1      -1.756  53.990 -25.903  1.00  0.00     0.210 HD
ENDBRANCH  37  38
BRANCH  37  40
HETATM   40  C17 UNL     1      -0.407  52.147 -23.740  1.00  0.00    -0.054 C 
HETATM   41  C18 UNL     1      -1.079  50.989 -23.022  1.00  0.00     0.046 C 
HETATM   42  C19 UNL     1       0.592  52.865 -23.188  1.00  0.00     0.005 C 
BRANCH  42  43
HETATM   43  C20 UNL     1       1.144  52.704 -21.855  1.00  0.00     0.000 C 
HETATM   44  C21 UNL     1       0.630  53.308 -20.772  1.00  0.00     0.000 C 
BRANCH  44  45
HETATM   45  C22 UNL     1       1.182  53.125 -19.443  1.00  0.00     0.001 C 
HETATM   46  C23 UNL     1       0.605  52.337 -18.519  1.00  0.00     0.009 C 
BRANCH  46  47
HETATM   47  C24 UNL     1       1.084  52.098 -17.148  1.00  0.00    -0.034 C 
HETATM   48  C25 UNL     1       2.405  52.754 -16.788  1.00  0.00     0.050 C 
HETATM   49  C26 UNL     1       0.354  51.355 -16.280  1.00  0.00     0.082 C 
HETATM   50  C27 UNL     1      -0.952  50.643 -16.421  1.00  0.00     0.075 C 
BRANCH  49  51
HETATM   51  N2  UNL     1       0.902  51.149 -14.952  1.00  0.00    -0.120 N 
HETATM   52  O5  UNL     1       0.882  52.119 -14.186  1.00  0.00    -0.532 OA
HETATM   53  O6  UNL     1       1.317  50.015 -14.683  1.00  0.00    -0.532 OA
ENDBRANCH  49  51
ENDBRANCH  46  47
ENDBRANCH  44  45
ENDBRANCH  42  43
ENDBRANCH  37  40
ENDBRANCH  34  37
ENDBRANCH  31  34
ENDBRANCH  29  30
ENDBRANCH   2  29
TORSDOF 19
ENDMDL
MODEL 9
REMARK minimizedAffinity -8.52474499
REMARK CNNscore 0.175136045
REMARK CNNaffinity 6.55804634
REMARK  19 active torsions:
REMARK  status: ('A' for Active; 'I' for Inactive)
REMARK    1  A    between atoms: O1_2  and  C2_3 
REMARK    2  A    between atoms: C2_3  and  C3_4 
REMARK    3  A    between atoms: C2_3  and  C28_36 
REMARK    4  A    between atoms: C3_4  and  C4_5 
REMARK    5  A    between atoms: C4_5  and  C6_7 
REMARK    6  A    between atoms: C6_7  and  O2_8 
REMARK    7  A    between atoms: C6_7  and  C7_9 
REMARK    8  A    between atoms: C8_10  and  C9_11 
REMARK    9  A    between atoms: C10_12  and  C11_13 
REMARK   10  A    between atoms: C11_13  and  N1_14 
REMARK       I    between atoms: N1_14  and  C12_15 
REMARK   11  A    between atoms: C12_15  and  C13_17 
REMARK   12  A    between atoms: C13_17  and  C16_20 
REMARK   13  A    between atoms: C16_20  and  O4_21 
REMARK   14  A    between atoms: C16_20  and  C17_22 
REMARK   15  A    between atoms: C19_24  and  C20_25 
REMARK   16  A    between atoms: C21_26  and  C22_27 
REMARK   17  A    between atoms: C23_28  and  C24_29 
REMARK   18  A    between atoms: C26_31  and  N2_33 
REMARK   19  A    between atoms: C28_36  and  O7_37 
ROOT
HETATM    1  C9  UNL     1      -3.772  48.545 -27.324  1.00  0.00    -0.003 C 
HETATM    2  C10 UNL     1      -4.268  48.464 -26.081  1.00  0.00    -0.007 C 
ENDROOT
BRANCH   1   3
HETATM    3  C8  UNL     1      -4.591  48.488 -28.512  1.00  0.00    -0.002 C 
HETATM    4  C7  UNL     1      -5.772  47.852 -28.533  1.00  0.00     0.005 C 
BRANCH   4   5
HETATM    5  C6  UNL     1      -6.657  47.737 -29.740  1.00  0.00     0.144 C 
BRANCH   5   6
HETATM    6  C4  UNL     1      -8.171  47.718 -29.386  1.00  0.00     0.016 C 
HETATM    7  C5  UNL     1      -8.332  47.583 -27.865  1.00  0.00     0.013 C 
BRANCH   6   8
HETATM    8  C3  UNL     1      -8.934  46.594 -30.112  1.00  0.00     0.042 C 
BRANCH   8   9
HETATM    9  C2  UNL     1      -8.210  45.272 -30.510  1.00  0.00     0.159 C 
BRANCH   9  10
HETATM   10  O1  UNL     1      -7.358  44.994 -29.374  1.00  0.00    -0.388 OA
HETATM   11  C1  UNL     1      -7.916  44.081 -28.428  1.00  0.00     0.202 C 
ENDBRANCH   9  10
BRANCH   9  12
HETATM   12  C28 UNL     1      -7.245  45.326 -31.759  1.00  0.00     0.133 C 
HETATM   13  C29 UNL     1      -7.731  46.312 -32.875  1.00  0.00     0.114 C 
HETATM   14  C30 UNL     1      -6.612  46.978 -33.676  1.00  0.00     0.023 C 
HETATM   15  C31 UNL     1      -8.545  45.464 -33.813  1.00  0.00     0.227 C 
HETATM   16  O8  UNL     1      -9.409  45.883 -34.566  1.00  0.00    -0.273 OA
HETATM   17  N3  UNL     1      -8.107  44.166 -33.691  1.00  0.00    -0.332 N 
HETATM   18  C32 UNL     1      -8.786  43.082 -34.366  1.00  0.00     0.154 C 
HETATM   19  C33 UNL     1      -7.177  43.960 -32.525  1.00  0.00     0.183 A 
HETATM   20  C34 UNL     1      -7.379  42.589 -31.792  1.00  0.00     0.294 A 
HETATM   21  C35 UNL     1      -5.820  43.273 -32.931  1.00  0.00     0.169 A 
HETATM   22  O9  UNL     1      -8.281  41.969 -31.270  1.00  0.00    -0.262 OA
HETATM   23  O10 UNL     1      -6.138  42.128 -32.088  1.00  0.00    -0.311 OA
HETATM   24  C36 UNL     1      -4.425  43.768 -32.601  1.00  0.00     0.043 C 
BRANCH  12  25
HETATM   25  O7  UNL     1      -5.930  45.721 -31.339  1.00  0.00    -0.383 OA
HETATM   26  H42 UNL     1      -5.987  46.530 -30.806  1.00  0.00     0.210 HD
ENDBRANCH  12  25
ENDBRANCH   9  12
ENDBRANCH   8   9
ENDBRANCH   6   8
ENDBRANCH   5   6
BRANCH   5  27
HETATM   27  O2  UNL     1      -6.360  48.839 -30.589  1.00  0.00    -0.391 OA
HETATM   28  H12 UNL     1      -5.418  48.774 -30.820  1.00  0.00     0.210 HD
ENDBRANCH   5  27
ENDBRANCH   4   5
ENDBRANCH   1   3
BRANCH   2  29
HETATM   29  C11 UNL     1      -3.426  48.563 -24.850  1.00  0.00     0.149 C 
BRANCH  29  30
HETATM   30  N1  UNL     1      -2.384  49.528 -25.090  1.00  0.00    -0.357 N 
HETATM   31  C12 UNL     1      -2.707  50.859 -25.260  1.00  0.00     0.228 C 
HETATM   32  O3  UNL     1      -3.863  51.260 -25.122  1.00  0.00    -0.273 OA
HETATM   33  H19 UNL     1      -1.487  49.189 -25.407  1.00  0.00     0.162 HD
BRANCH  31  34
HETATM   34  C13 UNL     1      -1.538  51.804 -25.637  1.00  0.00     0.063 C 
HETATM   35  C14 UNL     1      -1.905  52.490 -26.968  1.00  0.00     0.028 C 
HETATM   36  C15 UNL     1      -0.280  50.928 -25.775  1.00  0.00     0.028 C 
BRANCH  34  37
HETATM   37  C16 UNL     1      -1.389  52.836 -24.462  1.00  0.00     0.164 C 
BRANCH  37  38
HETATM   38  O4  UNL     1      -0.379  53.795 -24.816  1.00  0.00    -0.390 OA
HETATM   39  H27 UNL     1      -0.798  54.383 -25.481  1.00  0.00     0.210 HD
ENDBRANCH  37  38
BRANCH  37  40
HETATM   40  C17 UNL     1      -1.063  52.449 -23.015  1.00  0.00    -0.054 C 
HETATM   41  C18 UNL     1      -2.273  51.856 -22.312  1.00  0.00     0.046 C 
HETATM   42  C19 UNL     1       0.132  52.596 -22.407  1.00  0.00     0.005 C 
BRANCH  42  43
HETATM   43  C20 UNL     1       0.450  52.281 -21.027  1.00  0.00     0.000 C 
HETATM   44  C21 UNL     1       0.631  53.220 -20.084  1.00  0.00     0.000 C 
BRANCH  44  45
HETATM   45  C22 UNL     1       0.933  52.890 -18.705  1.00  0.00     0.001 C 
HETATM   46  C23 UNL     1       0.454  51.788 -18.101  1.00  0.00     0.009 C 
BRANCH  46  47
HETATM   47  C24 UNL     1       0.695  51.376 -16.708  1.00  0.00    -0.034 C 
HETATM   48  C25 UNL     1      -0.349  50.453 -16.106  1.00  0.00     0.050 C 
HETATM   49  C26 UNL     1       1.801  51.792 -16.044  1.00  0.00     0.082 C 
HETATM   50  C27 UNL     1       2.939  52.673 -16.446  1.00  0.00     0.075 C 
BRANCH  49  51
HETATM   51  N2  UNL     1       1.958  51.358 -14.669  1.00  0.00    -0.120 N 
HETATM   52  O5  UNL     1       2.416  50.223 -14.493  1.00  0.00    -0.532 OA
HETATM   53  O6  UNL     1       1.650  52.167 -13.784  1.00  0.00    -0.532 OA
ENDBRANCH  49  51
ENDBRANCH  46  47
ENDBRANCH  44  45
ENDBRANCH  42  43
ENDBRANCH  37  40
ENDBRANCH  34  37
ENDBRANCH  31  34
ENDBRANCH  29  30
ENDBRANCH   2  29
TORSDOF 19
ENDMDL
