MODEL 1
REMARK minimizedAffinity -6.67254543
REMARK CNNscore 0.563044965
REMARK CNNaffinity 6.09602928
REMARK  6 active torsions:
REMARK  status: ('A' for Active; 'I' for Inactive)
REMARK    1  A    between atoms: C2_2  and  O2_4 
REMARK    2  A    between atoms: O2_4  and  C3_5 
REMARK    3  A    between atoms: C13_15  and  C14_16 
REMARK    4  A    between atoms: C14_16  and  C16_18 
REMARK    5  A    between atoms: C16_18  and  C17_19 
REMARK    6  A    between atoms: C17_19  and  C18_20 
ROOT
HETATM    1  C3  UNL     1     -14.333  44.589 -28.533  1.00  0.00     0.132 C 
HETATM    2  C4  UNL     1     -13.180  43.597 -28.355  1.00  0.00     0.033 C 
HETATM    3  C5  UNL     1     -11.987  43.940 -29.246  1.00  0.00     0.013 C 
HETATM    4  C6  UNL     1     -11.546  45.376 -29.008  1.00  0.00    -0.028 A 
HETATM    5  C7  UNL     1     -10.584  45.621 -27.874  1.00  0.00     0.021 A 
HETATM    6  C8  UNL     1     -10.102  45.818 -29.307  1.00  0.00    -0.027 A 
HETATM    7  C9  UNL     1      -9.076  44.799 -29.770  1.00  0.00     0.011 C 
HETATM    8  C10 UNL     1      -7.679  45.381 -29.651  1.00  0.00     0.011 C 
HETATM    9  C11 UNL     1      -7.402  46.591 -30.572  1.00  0.00    -0.032 C 
HETATM   10  C12 UNL     1      -6.364  47.461 -29.820  1.00  0.00     0.016 C 
HETATM   11  C13 UNL     1      -6.893  46.237 -32.015  1.00  0.00    -0.002 C 
HETATM   12  C22 UNL     1      -8.164  45.942 -32.819  1.00  0.00     0.006 C 
HETATM   13  C23 UNL     1      -9.273  46.794 -32.214  1.00  0.00     0.011 C 
HETATM   14  C24 UNL     1      -8.740  47.399 -30.883  1.00  0.00    -0.032 C 
HETATM   15  C25 UNL     1      -8.447  48.903 -31.162  1.00  0.00     0.016 C 
HETATM   16  C26 UNL     1      -9.804  47.284 -29.722  1.00  0.00     0.004 C 
HETATM   17  C27 UNL     1     -11.085  48.091 -30.045  1.00  0.00     0.006 C 
HETATM   18  C28 UNL     1     -12.253  47.814 -29.109  1.00  0.00     0.006 C 
HETATM   19  C29 UNL     1     -12.685  46.357 -29.246  1.00  0.00    -0.003 C 
HETATM   20  C30 UNL     1     -13.854  46.031 -28.310  1.00  0.00     0.038 C 
ENDROOT
BRANCH  11  21
HETATM   21  C14 UNL     1      -5.737  45.229 -32.319  1.00  0.00    -0.014 C 
HETATM   22  C15 UNL     1      -4.357  45.813 -31.994  1.00  0.00     0.010 C 
BRANCH  21  23
HETATM   23  C16 UNL     1      -5.870  43.792 -31.761  1.00  0.00     0.008 C 
BRANCH  23  24
HETATM   24  C17 UNL     1      -6.756  42.893 -32.640  1.00  0.00     0.028 C 
BRANCH  24  25
HETATM   25  C18 UNL     1      -6.054  42.522 -33.919  1.00  0.00    -0.025 C 
HETATM   26  C19 UNL     1      -4.804  42.040 -34.059  1.00  0.00    -0.091 C 
HETATM   27  C20 UNL     1      -3.830  41.829 -32.931  1.00  0.00     0.042 C 
HETATM   28  C21 UNL     1      -4.270  41.671 -35.418  1.00  0.00     0.042 C 
ENDBRANCH  24  25
ENDBRANCH  23  24
ENDBRANCH  21  23
ENDBRANCH  11  21
BRANCH   1  29
HETATM   29  O2  UNL     1     -15.345  44.245 -27.567  1.00  0.00    -0.316 OA
BRANCH  29  30
HETATM   30  C2  UNL     1     -16.635  44.329 -27.992  1.00  0.00     0.255 C 
HETATM   31  C1  UNL     1     -17.489  44.918 -26.911  1.00  0.00     0.126 C 
HETATM   32  O1  UNL     1     -17.053  43.971 -29.082  1.00  0.00    -0.266 OA
ENDBRANCH  29  30
ENDBRANCH   1  29
TORSDOF 6
ENDMDL
MODEL 2
REMARK minimizedAffinity -6.91388893
REMARK CNNscore 0.500552297
REMARK CNNaffinity 6.62065172
REMARK  6 active torsions:
REMARK  status: ('A' for Active; 'I' for Inactive)
REMARK    1  A    between atoms: C2_2  and  O2_4 
REMARK    2  A    between atoms: O2_4  and  C3_5 
REMARK    3  A    between atoms: C13_15  and  C14_16 
REMARK    4  A    between atoms: C14_16  and  C16_18 
REMARK    5  A    between atoms: C16_18  and  C17_19 
REMARK    6  A    between atoms: C17_19  and  C18_20 
ROOT
HETATM    1  C3  UNL     1       1.036  51.091 -15.234  1.00  0.00     0.132 C 
HETATM    2  C4  UNL     1       2.363  50.708 -14.571  1.00  0.00     0.033 C 
HETATM    3  C5  UNL     1       2.815  51.753 -13.551  1.00  0.00     0.013 C 
HETATM    4  C6  UNL     1       1.718  52.002 -12.528  1.00  0.00    -0.028 A 
HETATM    5  C7  UNL     1       1.662  51.077 -11.339  1.00  0.00     0.021 A 
HETATM    6  C8  UNL     1       2.054  52.535 -11.123  1.00  0.00    -0.027 A 
HETATM    7  C9  UNL     1       3.501  52.742 -10.715  1.00  0.00     0.011 C 
HETATM    8  C10 UNL     1       3.594  52.917  -9.210  1.00  0.00     0.011 C 
HETATM    9  C11 UNL     1       2.898  54.183  -8.662  1.00  0.00    -0.032 C 
HETATM   10  C12 UNL     1       2.430  53.819  -7.232  1.00  0.00     0.016 C 
HETATM   11  C13 UNL     1       3.780  55.483  -8.648  1.00  0.00    -0.002 C 
HETATM   12  C22 UNL     1       3.661  56.056 -10.064  1.00  0.00     0.006 C 
HETATM   13  C23 UNL     1       2.286  55.656 -10.584  1.00  0.00     0.011 C 
HETATM   14  C24 UNL     1       1.681  54.621  -9.592  1.00  0.00    -0.032 C 
HETATM   15  C25 UNL     1       0.583  55.370  -8.781  1.00  0.00     0.016 C 
HETATM   16  C26 UNL     1       1.024  53.402 -10.350  1.00  0.00     0.004 C 
HETATM   17  C27 UNL     1      -0.166  53.856 -11.232  1.00  0.00     0.006 C 
HETATM   18  C28 UNL     1      -0.674  52.791 -12.194  1.00  0.00     0.006 C 
HETATM   19  C29 UNL     1       0.421  52.440 -13.196  1.00  0.00    -0.003 C 
HETATM   20  C30 UNL     1      -0.046  51.360 -14.179  1.00  0.00     0.038 C 
ENDROOT
BRANCH  11  21
HETATM   21  C14 UNL     1       5.237  55.553  -8.086  1.00  0.00    -0.014 C 
HETATM   22  C15 UNL     1       6.288  55.231  -9.153  1.00  0.00     0.010 C 
BRANCH  21  23
HETATM   23  C16 UNL     1       5.639  56.813  -7.282  1.00  0.00     0.008 C 
BRANCH  23  24
HETATM   24  C17 UNL     1       6.506  56.485  -6.056  1.00  0.00     0.028 C 
BRANCH  24  25
HETATM   25  C18 UNL     1       7.202  57.715  -5.538  1.00  0.00    -0.025 C 
HETATM   26  C19 UNL     1       6.700  58.655  -4.712  1.00  0.00    -0.091 C 
HETATM   27  C20 UNL     1       5.291  58.676  -4.185  1.00  0.00     0.042 C 
HETATM   28  C21 UNL     1       7.556  59.806  -4.249  1.00  0.00     0.042 C 
ENDBRANCH  24  25
ENDBRANCH  23  24
ENDBRANCH  21  23
ENDBRANCH  11  21
BRANCH   1  29
HETATM   29  O2  UNL     1       0.648  49.990 -16.078  1.00  0.00    -0.316 OA
BRANCH  29  30
HETATM   30  C2  UNL     1       0.133  50.317 -17.294  1.00  0.00     0.255 C 
HETATM   31  C1  UNL     1       0.541  51.711 -17.661  1.00  0.00     0.126 C 
HETATM   32  O1  UNL     1      -0.570  49.599 -17.988  1.00  0.00    -0.266 OA
ENDBRANCH  29  30
ENDBRANCH   1  29
TORSDOF 6
ENDMDL
MODEL 3
REMARK minimizedAffinity -6.64813662
REMARK CNNscore 0.49862349
REMARK CNNaffinity 6.05563688
REMARK  6 active torsions:
REMARK  status: ('A' for Active; 'I' for Inactive)
REMARK    1  A    between atoms: C2_2  and  O2_4 
REMARK    2  A    between atoms: O2_4  and  C3_5 
REMARK    3  A    between atoms: C13_15  and  C14_16 
REMARK    4  A    between atoms: C14_16  and  C16_18 
REMARK    5  A    between atoms: C16_18  and  C17_19 
REMARK    6  A    between atoms: C17_19  and  C18_20 
ROOT
HETATM    1  C3  UNL     1       7.466  50.990  -5.538  1.00  0.00     0.132 C 
HETATM    2  C4  UNL     1       6.781  50.379  -6.764  1.00  0.00     0.033 C 
HETATM    3  C5  UNL     1       5.606  51.229  -7.246  1.00  0.00     0.013 C 
HETATM    4  C6  UNL     1       6.058  52.659  -7.499  1.00  0.00    -0.028 A 
HETATM    5  C7  UNL     1       6.646  52.965  -8.853  1.00  0.00     0.021 A 
HETATM    6  C8  UNL     1       5.295  53.565  -8.483  1.00  0.00    -0.027 A 
HETATM    7  C9  UNL     1       4.124  53.012  -9.274  1.00  0.00     0.011 C 
HETATM    8  C10 UNL     1       3.775  53.956 -10.410  1.00  0.00     0.011 C 
HETATM    9  C11 UNL     1       3.263  55.343  -9.964  1.00  0.00    -0.032 C 
HETATM   10  C12 UNL     1       3.695  56.328 -11.079  1.00  0.00     0.016 C 
HETATM   11  C13 UNL     1       1.717  55.439  -9.703  1.00  0.00    -0.002 C 
HETATM   12  C22 UNL     1       1.527  54.932  -8.270  1.00  0.00     0.006 C 
HETATM   13  C23 UNL     1       2.802  55.277  -7.510  1.00  0.00     0.011 C 
HETATM   14  C24 UNL     1       3.863  55.752  -8.546  1.00  0.00    -0.032 C 
HETATM   15  C25 UNL     1       3.972  57.298  -8.395  1.00  0.00     0.016 C 
HETATM   16  C26 UNL     1       5.276  55.103  -8.272  1.00  0.00     0.004 C 
HETATM   17  C27 UNL     1       5.840  55.531  -6.895  1.00  0.00     0.006 C 
HETATM   18  C28 UNL     1       7.061  54.741  -6.446  1.00  0.00     0.006 C 
HETATM   19  C29 UNL     1       6.684  53.275  -6.256  1.00  0.00    -0.003 C 
HETATM   20  C30 UNL     1       7.890  52.440  -5.815  1.00  0.00     0.038 C 
ENDROOT
BRANCH  11  21
HETATM   21  C14 UNL     1       0.623  54.906 -10.685  1.00  0.00    -0.014 C 
HETATM   22  C15 UNL     1       0.883  53.457 -11.113  1.00  0.00     0.010 C 
BRANCH  21  23
HETATM   23  C16 UNL     1      -0.859  55.104 -10.287  1.00  0.00     0.008 C 
BRANCH  23  24
HETATM   24  C17 UNL     1      -1.434  53.905  -9.516  1.00  0.00     0.028 C 
BRANCH  24  25
HETATM   25  C18 UNL     1      -2.648  53.346 -10.208  1.00  0.00    -0.025 C 
HETATM   26  C19 UNL     1      -3.240  52.155  -9.993  1.00  0.00    -0.091 C 
HETATM   27  C20 UNL     1      -2.747  51.109  -9.030  1.00  0.00     0.042 C 
HETATM   28  C21 UNL     1      -4.487  51.770 -10.745  1.00  0.00     0.042 C 
ENDBRANCH  24  25
ENDBRANCH  23  24
ENDBRANCH  21  23
ENDBRANCH  11  21
BRANCH   1  29
HETATM   29  O2  UNL     1       8.621  50.180  -5.247  1.00  0.00    -0.316 OA
BRANCH  29  30
HETATM   30  C2  UNL     1       9.646  50.251  -6.139  1.00  0.00     0.255 C 
HETATM   31  C1  UNL     1      10.941  50.449  -5.412  1.00  0.00     0.126 C 
HETATM   32  O1  UNL     1       9.542  50.178  -7.354  1.00  0.00    -0.266 OA
ENDBRANCH  29  30
ENDBRANCH   1  29
TORSDOF 6
ENDMDL
MODEL 4
REMARK minimizedAffinity -7.16816568
REMARK CNNscore 0.493277669
REMARK CNNaffinity 5.88047171
REMARK  6 active torsions:
REMARK  status: ('A' for Active; 'I' for Inactive)
REMARK    1  A    between atoms: C2_2  and  O2_4 
REMARK    2  A    between atoms: O2_4  and  C3_5 
REMARK    3  A    between atoms: C13_15  and  C14_16 
REMARK    4  A    between atoms: C14_16  and  C16_18 
REMARK    5  A    between atoms: C16_18  and  C17_19 
REMARK    6  A    between atoms: C17_19  and  C18_20 
ROOT
HETATM    1  C3  UNL     1     -15.678  45.722 -25.874  1.00  0.00     0.132 C 
HETATM    2  C4  UNL     1     -15.025  46.938 -25.210  1.00  0.00     0.033 C 
HETATM    3  C5  UNL     1     -13.501  46.884 -25.292  1.00  0.00     0.013 C 
HETATM    4  C6  UNL     1     -13.054  46.714 -26.736  1.00  0.00    -0.028 A 
HETATM    5  C7  UNL     1     -12.909  47.966 -27.563  1.00  0.00     0.021 A 
HETATM    6  C8  UNL     1     -11.659  47.179 -27.191  1.00  0.00    -0.027 A 
HETATM    7  C9  UNL     1     -10.738  47.887 -26.214  1.00  0.00     0.011 C 
HETATM    8  C10 UNL     1      -9.600  48.554 -26.966  1.00  0.00     0.011 C 
HETATM    9  C11 UNL     1      -8.646  47.580 -27.693  1.00  0.00    -0.032 C 
HETATM   10  C12 UNL     1      -8.116  48.353 -28.926  1.00  0.00     0.016 C 
HETATM   11  C13 UNL     1      -7.458  47.029 -26.826  1.00  0.00    -0.002 C 
HETATM   12  C22 UNL     1      -8.048  45.843 -26.056  1.00  0.00     0.006 C 
HETATM   13  C23 UNL     1      -9.145  45.253 -26.932  1.00  0.00     0.011 C 
HETATM   14  C24 UNL     1      -9.399  46.239 -28.110  1.00  0.00    -0.032 C 
HETATM   15  C25 UNL     1      -8.759  45.595 -29.376  1.00  0.00     0.016 C 
HETATM   16  C26 UNL     1     -10.941  46.460 -28.365  1.00  0.00     0.004 C 
HETATM   17  C27 UNL     1     -11.641  45.144 -28.785  1.00  0.00     0.006 C 
HETATM   18  C28 UNL     1     -13.162  45.216 -28.784  1.00  0.00     0.006 C 
HETATM   19  C29 UNL     1     -13.663  45.470 -27.366  1.00  0.00    -0.003 C 
HETATM   20  C30 UNL     1     -15.193  45.562 -27.322  1.00  0.00     0.038 C 
ENDROOT
BRANCH  11  21
HETATM   21  C14 UNL     1      -6.524  47.920 -25.944  1.00  0.00    -0.014 C 
HETATM   22  C15 UNL     1      -6.621  47.569 -24.456  1.00  0.00     0.010 C 
BRANCH  21  23
HETATM   23  C16 UNL     1      -5.045  48.064 -26.380  1.00  0.00     0.008 C 
BRANCH  23  24
HETATM   24  C17 UNL     1      -4.128  48.516 -25.232  1.00  0.00     0.028 C 
BRANCH  24  25
HETATM   25  C18 UNL     1      -4.014  50.017 -25.187  1.00  0.00    -0.025 C 
HETATM   26  C19 UNL     1      -2.986  50.775 -25.614  1.00  0.00    -0.091 C 
HETATM   27  C20 UNL     1      -1.699  50.241 -26.182  1.00  0.00     0.042 C 
HETATM   28  C21 UNL     1      -3.056  52.278 -25.539  1.00  0.00     0.042 C 
ENDBRANCH  24  25
ENDBRANCH  23  24
ENDBRANCH  21  23
ENDBRANCH  11  21
BRANCH   1  29
HETATM   29  O2  UNL     1     -17.103  45.935 -25.846  1.00  0.00    -0.316 OA
BRANCH  29  30
HETATM   30  C2  UNL     1     -17.703  45.827 -24.630  1.00  0.00     0.255 C 
HETATM   31  C1  UNL     1     -18.728  46.907 -24.471  1.00  0.00     0.126 C 
HETATM   32  O1  UNL     1     -17.448  44.989 -23.779  1.00  0.00    -0.266 OA
ENDBRANCH  29  30
ENDBRANCH   1  29
TORSDOF 6
ENDMDL
MODEL 5
REMARK minimizedAffinity -6.42440462
REMARK CNNscore 0.42074582
REMARK CNNaffinity 6.11805153
REMARK  6 active torsions:
REMARK  status: ('A' for Active; 'I' for Inactive)
REMARK    1  A    between atoms: C2_2  and  O2_4 
REMARK    2  A    between atoms: O2_4  and  C3_5 
REMARK    3  A    between atoms: C13_15  and  C14_16 
REMARK    4  A    between atoms: C14_16  and  C16_18 
REMARK    5  A    between atoms: C16_18  and  C17_19 
REMARK    6  A    between atoms: C17_19  and  C18_20 
ROOT
HETATM    1  C3  UNL     1       8.643  54.345  -3.789  1.00  0.00     0.132 C 
HETATM    2  C4  UNL     1       8.506  53.348  -4.944  1.00  0.00     0.033 C 
HETATM    3  C5  UNL     1       7.162  53.483  -5.658  1.00  0.00     0.013 C 
HETATM    4  C6  UNL     1       6.947  54.917  -6.114  1.00  0.00    -0.028 A 
HETATM    5  C7  UNL     1       7.530  55.310  -7.448  1.00  0.00     0.021 A 
HETATM    6  C8  UNL     1       6.015  55.239  -7.297  1.00  0.00    -0.027 A 
HETATM    7  C9  UNL     1       5.358  54.113  -8.075  1.00  0.00     0.011 C 
HETATM    8  C10 UNL     1       4.796  54.646  -9.381  1.00  0.00     0.011 C 
HETATM    9  C11 UNL     1       3.648  55.668  -9.221  1.00  0.00    -0.032 C 
HETATM   10  C12 UNL     1       3.750  56.607 -10.449  1.00  0.00     0.016 C 
HETATM   11  C13 UNL     1       2.208  55.051  -9.107  1.00  0.00    -0.002 C 
HETATM   12  C22 UNL     1       2.055  54.680  -7.628  1.00  0.00     0.006 C 
HETATM   13  C23 UNL     1       2.901  55.669  -6.838  1.00  0.00     0.011 C 
HETATM   14  C24 UNL     1       3.774  56.468  -7.849  1.00  0.00    -0.032 C 
HETATM   15  C25 UNL     1       3.145  57.888  -7.956  1.00  0.00     0.016 C 
HETATM   16  C26 UNL     1       5.268  56.599  -7.355  1.00  0.00     0.004 C 
HETATM   17  C27 UNL     1       5.359  57.394  -6.029  1.00  0.00     0.006 C 
HETATM   18  C28 UNL     1       6.722  57.331  -5.354  1.00  0.00     0.006 C 
HETATM   19  C29 UNL     1       7.027  55.892  -4.948  1.00  0.00    -0.003 C 
HETATM   20  C30 UNL     1       8.399  55.781  -4.273  1.00  0.00     0.038 C 
ENDROOT
BRANCH  11  21
HETATM   21  C14 UNL     1       1.640  53.958 -10.069  1.00  0.00    -0.014 C 
HETATM   22  C15 UNL     1       1.447  52.609  -9.368  1.00  0.00     0.010 C 
BRANCH  21  23
HETATM   23  C16 UNL     1       0.395  54.320 -10.915  1.00  0.00     0.008 C 
BRANCH  23  24
HETATM   24  C17 UNL     1      -0.642  55.137 -10.127  1.00  0.00     0.028 C 
BRANCH  24  25
HETATM   25  C18 UNL     1      -2.044  54.778 -10.540  1.00  0.00    -0.025 C 
HETATM   26  C19 UNL     1      -2.785  53.737 -10.111  1.00  0.00    -0.091 C 
HETATM   27  C20 UNL     1      -2.311  52.679  -9.152  1.00  0.00     0.042 C 
HETATM   28  C21 UNL     1      -4.200  53.551 -10.594  1.00  0.00     0.042 C 
ENDBRANCH  24  25
ENDBRANCH  23  24
ENDBRANCH  21  23
ENDBRANCH  11  21
BRANCH   1  29
HETATM   29  O2  UNL     1       9.981  54.214  -3.270  1.00  0.00    -0.316 OA
BRANCH  29  30
HETATM   30  C2  UNL     1      10.887  55.131  -3.705  1.00  0.00     0.255 C 
HETATM   31  C1  UNL     1      11.149  56.138  -2.627  1.00  0.00     0.126 C 
HETATM   32  O1  UNL     1      11.408  55.153  -4.810  1.00  0.00    -0.266 OA
ENDBRANCH  29  30
ENDBRANCH   1  29
TORSDOF 6
ENDMDL
MODEL 6
REMARK minimizedAffinity -6.83471918
REMARK CNNscore 0.326254249
REMARK CNNaffinity 5.6839757
REMARK  6 active torsions:
REMARK  status: ('A' for Active; 'I' for Inactive)
REMARK    1  A    between atoms: C2_2  and  O2_4 
REMARK    2  A    between atoms: O2_4  and  C3_5 
REMARK    3  A    between atoms: C13_15  and  C14_16 
REMARK    4  A    between atoms: C14_16  and  C16_18 
REMARK    5  A    between atoms: C16_18  and  C17_19 
REMARK    6  A    between atoms: C17_19  and  C18_20 
ROOT
HETATM    1  C3  UNL     1      -4.010  41.416 -34.384  1.00  0.00     0.132 C 
HETATM    2  C4  UNL     1      -3.881  42.086 -33.012  1.00  0.00     0.033 C 
HETATM    3  C5  UNL     1      -4.888  43.221 -32.834  1.00  0.00     0.013 C 
HETATM    4  C6  UNL     1      -6.300  42.721 -33.095  1.00  0.00    -0.028 A 
HETATM    5  C7  UNL     1      -7.030  42.087 -31.937  1.00  0.00     0.021 A 
HETATM    6  C8  UNL     1      -7.517  43.430 -32.471  1.00  0.00    -0.027 A 
HETATM    7  C9  UNL     1      -7.312  44.595 -31.520  1.00  0.00     0.011 C 
HETATM    8  C10 UNL     1      -8.601  44.885 -30.772  1.00  0.00     0.011 C 
HETATM    9  C11 UNL     1      -9.769  45.368 -31.660  1.00  0.00    -0.032 C 
HETATM   10  C12 UNL     1     -11.060  44.877 -30.958  1.00  0.00     0.016 C 
HETATM   11  C13 UNL     1      -9.827  46.916 -31.915  1.00  0.00    -0.002 C 
HETATM   12  C22 UNL     1      -8.866  47.159 -33.084  1.00  0.00     0.006 C 
HETATM   13  C23 UNL     1      -8.882  45.896 -33.934  1.00  0.00     0.011 C 
HETATM   14  C24 UNL     1      -9.644  44.794 -33.142  1.00  0.00    -0.032 C 
HETATM   15  C25 UNL     1     -11.039  44.643 -33.816  1.00  0.00     0.016 C 
HETATM   16  C26 UNL     1      -8.889  43.408 -33.197  1.00  0.00     0.004 C 
HETATM   17  C27 UNL     1      -8.797  42.869 -34.645  1.00  0.00     0.006 C 
HETATM   18  C28 UNL     1      -7.857  41.684 -34.814  1.00  0.00     0.006 C 
HETATM   19  C29 UNL     1      -6.430  42.111 -34.483  1.00  0.00    -0.003 C 
HETATM   20  C30 UNL     1      -5.449  40.942 -34.629  1.00  0.00     0.038 C 
ENDROOT
BRANCH  11  21
HETATM   21  C14 UNL     1      -9.703  47.999 -30.793  1.00  0.00    -0.014 C 
HETATM   22  C15 UNL     1     -10.770  47.834 -29.706  1.00  0.00     0.010 C 
BRANCH  21  23
HETATM   23  C16 UNL     1      -8.308  48.226 -30.164  1.00  0.00     0.008 C 
BRANCH  23  24
HETATM   24  C17 UNL     1      -8.146  47.526 -28.806  1.00  0.00     0.028 C 
BRANCH  24  25
HETATM   25  C18 UNL     1      -6.829  47.876 -28.167  1.00  0.00    -0.025 C 
HETATM   26  C19 UNL     1      -5.607  47.844 -28.734  1.00  0.00    -0.091 C 
HETATM   27  C20 UNL     1      -5.320  47.385 -30.138  1.00  0.00     0.042 C 
HETATM   28  C21 UNL     1      -4.389  48.278 -27.960  1.00  0.00     0.042 C 
ENDBRANCH  24  25
ENDBRANCH  23  24
ENDBRANCH  21  23
ENDBRANCH  11  21
BRANCH   1  29
HETATM   29  O2  UNL     1      -3.106  40.294 -34.396  1.00  0.00    -0.316 OA
BRANCH  29  30
HETATM   30  C2  UNL     1      -3.192  39.465 -35.472  1.00  0.00     0.255 C 
HETATM   31  C1  UNL     1      -3.394  38.054 -35.012  1.00  0.00     0.126 C 
HETATM   32  O1  UNL     1      -3.106  39.802 -36.643  1.00  0.00    -0.266 OA
ENDBRANCH  29  30
ENDBRANCH   1  29
TORSDOF 6
ENDMDL
MODEL 7
REMARK minimizedAffinity -6.68448019
REMARK CNNscore 0.299590915
REMARK CNNaffinity 5.42331934
REMARK  6 active torsions:
REMARK  status: ('A' for Active; 'I' for Inactive)
REMARK    1  A    between atoms: C2_2  and  O2_4 
REMARK    2  A    between atoms: O2_4  and  C3_5 
REMARK    3  A    between atoms: C13_15  and  C14_16 
REMARK    4  A    between atoms: C14_16  and  C16_18 
REMARK    5  A    between atoms: C16_18  and  C17_19 
REMARK    6  A    between atoms: C17_19  and  C18_20 
ROOT
HETATM    1  C3  UNL     1       9.721  55.927  -3.978  1.00  0.00     0.132 C 
HETATM    2  C4  UNL     1       9.618  56.529  -5.383  1.00  0.00     0.033 C 
HETATM    3  C5  UNL     1       8.314  56.138  -6.079  1.00  0.00     0.013 C 
HETATM    4  C6  UNL     1       7.121  56.507  -5.211  1.00  0.00    -0.028 A 
HETATM    5  C7  UNL     1       6.593  57.914  -5.330  1.00  0.00     0.021 A 
HETATM    6  C8  UNL     1       5.737  56.759  -5.837  1.00  0.00    -0.027 A 
HETATM    7  C9  UNL     1       5.567  56.718  -7.345  1.00  0.00     0.011 C 
HETATM    8  C10 UNL     1       4.237  57.339  -7.732  1.00  0.00     0.011 C 
HETATM    9  C11 UNL     1       2.994  56.574  -7.226  1.00  0.00    -0.032 C 
HETATM   10  C12 UNL     1       1.896  57.646  -7.018  1.00  0.00     0.016 C 
HETATM   11  C13 UNL     1       2.481  55.424  -8.166  1.00  0.00    -0.002 C 
HETATM   12  C22 UNL     1       3.347  54.210  -7.812  1.00  0.00     0.006 C 
HETATM   13  C23 UNL     1       3.725  54.354  -6.344  1.00  0.00     0.011 C 
HETATM   14  C24 UNL     1       3.313  55.781  -5.880  1.00  0.00    -0.032 C 
HETATM   15  C25 UNL     1       2.038  55.614  -5.000  1.00  0.00     0.016 C 
HETATM   16  C26 UNL     1       4.448  56.468  -5.024  1.00  0.00     0.004 C 
HETATM   17  C27 UNL     1       4.723  55.685  -3.716  1.00  0.00     0.006 C 
HETATM   18  C28 UNL     1       5.977  56.126  -2.975  1.00  0.00     0.006 C 
HETATM   19  C29 UNL     1       7.206  55.855  -3.838  1.00  0.00    -0.003 C 
HETATM   20  C30 UNL     1       8.493  56.296  -3.133  1.00  0.00     0.038 C 
ENDROOT
BRANCH  11  21
HETATM   21  C14 UNL     1       2.255  55.581  -9.705  1.00  0.00    -0.014 C 
HETATM   22  C15 UNL     1       3.474  55.135 -10.520  1.00  0.00     0.010 C 
BRANCH  21  23
HETATM   23  C16 UNL     1       0.951  54.999 -10.303  1.00  0.00     0.008 C 
BRANCH  23  24
HETATM   24  C17 UNL     1      -0.271  55.227  -9.399  1.00  0.00     0.028 C 
BRANCH  24  25
HETATM   25  C18 UNL     1      -1.554  55.013 -10.157  1.00  0.00    -0.025 C 
HETATM   26  C19 UNL     1      -2.389  53.959 -10.076  1.00  0.00    -0.091 C 
HETATM   27  C20 UNL     1      -2.157  52.738  -9.228  1.00  0.00     0.042 C 
HETATM   28  C21 UNL     1      -3.666  53.928 -10.875  1.00  0.00     0.042 C 
ENDBRANCH  24  25
ENDBRANCH  23  24
ENDBRANCH  21  23
ENDBRANCH  11  21
BRANCH   1  29
HETATM   29  O2  UNL     1      10.918  56.454  -3.375  1.00  0.00    -0.316 OA
BRANCH  29  30
HETATM   30  C2  UNL     1      11.900  56.845  -4.232  1.00  0.00     0.255 C 
HETATM   31  C1  UNL     1      11.913  58.339  -4.343  1.00  0.00     0.126 C 
HETATM   32  O1  UNL     1      12.658  56.103  -4.838  1.00  0.00    -0.266 OA
ENDBRANCH  29  30
ENDBRANCH   1  29
TORSDOF 6
ENDMDL
MODEL 8
REMARK minimizedAffinity -7.33568335
REMARK CNNscore 0.257098585
REMARK CNNaffinity 6.49944067
REMARK  6 active torsions:
REMARK  status: ('A' for Active; 'I' for Inactive)
REMARK    1  A    between atoms: C2_2  and  O2_4 
REMARK    2  A    between atoms: O2_4  and  C3_5 
REMARK    3  A    between atoms: C13_15  and  C14_16 
REMARK    4  A    between atoms: C14_16  and  C16_18 
REMARK    5  A    between atoms: C16_18  and  C17_19 
REMARK    6  A    between atoms: C17_19  and  C18_20 
ROOT
HETATM    1  C3  UNL     1      -5.088  44.989 -18.130  1.00  0.00     0.132 C 
HETATM    2  C4  UNL     1      -3.924  44.649 -19.067  1.00  0.00     0.033 C 
HETATM    3  C5  UNL     1      -3.881  45.573 -20.283  1.00  0.00     0.013 C 
HETATM    4  C6  UNL     1      -3.851  47.027 -19.841  1.00  0.00    -0.028 A 
HETATM    5  C7  UNL     1      -2.503  47.622 -19.523  1.00  0.00     0.021 A 
HETATM    6  C8  UNL     1      -3.257  48.118 -20.752  1.00  0.00    -0.027 A 
HETATM    7  C9  UNL     1      -2.620  47.737 -22.076  1.00  0.00     0.011 C 
HETATM    8  C10 UNL     1      -1.804  48.900 -22.611  1.00  0.00     0.011 C 
HETATM    9  C11 UNL     1      -2.629  50.155 -22.975  1.00  0.00    -0.032 C 
HETATM   10  C12 UNL     1      -1.685  51.360 -22.739  1.00  0.00     0.016 C 
HETATM   11  C13 UNL     1      -3.211  50.179 -24.433  1.00  0.00    -0.002 C 
HETATM   12  C22 UNL     1      -4.512  49.373 -24.352  1.00  0.00     0.006 C 
HETATM   13  C23 UNL     1      -5.054  49.558 -22.940  1.00  0.00     0.011 C 
HETATM   14  C24 UNL     1      -3.951  50.254 -22.090  1.00  0.00    -0.032 C 
HETATM   15  C25 UNL     1      -4.401  51.732 -21.899  1.00  0.00     0.016 C 
HETATM   16  C26 UNL     1      -3.789  49.574 -20.675  1.00  0.00     0.004 C 
HETATM   17  C27 UNL     1      -5.083  49.700 -19.833  1.00  0.00     0.006 C 
HETATM   18  C28 UNL     1      -5.098  48.843 -18.576  1.00  0.00     0.006 C 
HETATM   19  C29 UNL     1      -5.044  47.368 -18.959  1.00  0.00    -0.003 C 
HETATM   20  C30 UNL     1      -5.046  46.467 -17.719  1.00  0.00     0.038 C 
ENDROOT
BRANCH  11  21
HETATM   21  C14 UNL     1      -2.380  49.860 -25.718  1.00  0.00    -0.014 C 
HETATM   22  C15 UNL     1      -2.781  48.524 -26.354  1.00  0.00     0.010 C 
BRANCH  21  23
HETATM   23  C16 UNL     1      -2.263  50.967 -26.793  1.00  0.00     0.008 C 
BRANCH  23  24
HETATM   24  C17 UNL     1      -1.389  52.147 -26.339  1.00  0.00     0.028 C 
BRANCH  24  25
HETATM   25  C18 UNL     1       0.009  51.693 -26.011  1.00  0.00    -0.025 C 
HETATM   26  C19 UNL     1       1.065  51.621 -26.844  1.00  0.00    -0.091 C 
HETATM   27  C20 UNL     1       1.027  51.940 -28.314  1.00  0.00     0.042 C 
HETATM   28  C21 UNL     1       2.416  51.188 -26.336  1.00  0.00     0.042 C 
ENDBRANCH  24  25
ENDBRANCH  23  24
ENDBRANCH  21  23
ENDBRANCH  11  21
BRANCH   1  29
HETATM   29  O2  UNL     1      -4.961  44.144 -16.970  1.00  0.00    -0.316 OA
BRANCH  29  30
HETATM   30  C2  UNL     1      -4.188  44.625 -15.958  1.00  0.00     0.255 C 
HETATM   31  C1  UNL     1      -5.042  44.930 -14.766  1.00  0.00     0.126 C 
HETATM   32  O1  UNL     1      -2.980  44.799 -16.003  1.00  0.00    -0.266 OA
ENDBRANCH  29  30
ENDBRANCH   1  29
TORSDOF 6
ENDMDL
MODEL 9
REMARK minimizedAffinity -6.82781267
REMARK CNNscore 0.249039218
REMARK CNNaffinity 6.27524519
REMARK  6 active torsions:
REMARK  status: ('A' for Active; 'I' for Inactive)
REMARK    1  A    between atoms: C2_2  and  O2_4 
REMARK    2  A    between atoms: O2_4  and  C3_5 
REMARK    3  A    between atoms: C13_15  and  C14_16 
REMARK    4  A    between atoms: C14_16  and  C16_18 
REMARK    5  A    between atoms: C16_18  and  C17_19 
REMARK    6  A    between atoms: C17_19  and  C18_20 
ROOT
HETATM    1  C3  UNL     1      -0.608  51.337 -14.471  1.00  0.00     0.132 C 
HETATM    2  C4  UNL     1       0.769  50.747 -14.151  1.00  0.00     0.033 C 
HETATM    3  C5  UNL     1       1.645  51.729 -13.374  1.00  0.00     0.013 C 
HETATM    4  C6  UNL     1       0.923  52.205 -12.123  1.00  0.00    -0.028 A 
HETATM    5  C7  UNL     1       1.045  51.347 -10.890  1.00  0.00     0.021 A 
HETATM    6  C8  UNL     1       1.711  52.718 -10.903  1.00  0.00    -0.027 A 
HETATM    7  C9  UNL     1       3.229  52.679 -10.908  1.00  0.00     0.011 C 
HETATM    8  C10 UNL     1       3.756  52.887  -9.500  1.00  0.00     0.011 C 
HETATM    9  C11 UNL     1       3.450  54.274  -8.893  1.00  0.00    -0.032 C 
HETATM   10  C12 UNL     1       3.338  54.048  -7.365  1.00  0.00     0.016 C 
HETATM   11  C13 UNL     1       4.500  55.397  -9.216  1.00  0.00    -0.002 C 
HETATM   12  C22 UNL     1       4.093  55.933 -10.593  1.00  0.00     0.006 C 
HETATM   13  C23 UNL     1       2.583  55.765 -10.699  1.00  0.00     0.011 C 
HETATM   14  C24 UNL     1       2.112  54.889  -9.503  1.00  0.00    -0.032 C 
HETATM   15  C25 UNL     1       1.413  55.848  -8.495  1.00  0.00     0.016 C 
HETATM   16  C26 UNL     1       1.085  53.780  -9.960  1.00  0.00     0.004 C 
HETATM   17  C27 UNL     1      -0.210  54.407 -10.532  1.00  0.00     0.006 C 
HETATM   18  C28 UNL     1      -1.126  53.417 -11.236  1.00  0.00     0.006 C 
HETATM   19  C29 UNL     1      -0.418  52.842 -12.459  1.00  0.00    -0.003 C 
HETATM   20  C30 UNL     1      -1.303  51.829 -13.194  1.00  0.00     0.038 C 
ENDROOT
BRANCH  11  21
HETATM   21  C14 UNL     1       6.047  55.226  -9.064  1.00  0.00    -0.014 C 
HETATM   22  C15 UNL     1       6.552  55.691  -7.694  1.00  0.00     0.010 C 
BRANCH  21  23
HETATM   23  C16 UNL     1       6.659  53.855  -9.440  1.00  0.00     0.008 C 
BRANCH  23  24
HETATM   24  C17 UNL     1       6.912  52.961  -8.215  1.00  0.00     0.028 C 
BRANCH  24  25
HETATM   25  C18 UNL     1       7.203  51.543  -8.629  1.00  0.00    -0.025 C 
HETATM   26  C19 UNL     1       7.724  50.558  -7.872  1.00  0.00    -0.091 C 
HETATM   27  C20 UNL     1       8.174  50.714  -6.445  1.00  0.00     0.042 C 
HETATM   28  C21 UNL     1       7.906  49.172  -8.434  1.00  0.00     0.042 C 
ENDBRANCH  24  25
ENDBRANCH  23  24
ENDBRANCH  21  23
ENDBRANCH  11  21
BRANCH   1  29
HETATM   29  O2  UNL     1      -1.384  50.293 -15.091  1.00  0.00    -0.316 OA
BRANCH  29  30
HETATM   30  C2  UNL     1      -1.725  50.490 -16.393  1.00  0.00     0.255 C 
HETATM   31  C1  UNL     1      -0.828  49.684 -17.282  1.00  0.00     0.126 C 
HETATM   32  O1  UNL     1      -2.618  51.221 -16.795  1.00  0.00    -0.266 OA
ENDBRANCH  29  30
ENDBRANCH   1  29
TORSDOF 6
ENDMDL
