MODEL 1
REMARK minimizedAffinity -6.13320494
REMARK CNNscore 0.714372993
REMARK CNNaffinity 6.76351166
REMARK  13 active torsions:
REMARK  status: ('A' for Active; 'I' for Inactive)
REMARK    1  A    between atoms: C2_2  and  C3_3 
REMARK    2  A    between atoms: C3_3  and  C4_4 
REMARK    3  A    between atoms: C4_4  and  O2_6 
REMARK    4  A    between atoms: O2_6  and  C5_7 
REMARK    5  A    between atoms: C7_9  and  C8_10 
REMARK    6  A    between atoms: C15_18  and  O4_20 
REMARK    7  A    between atoms: C17_21  and  O5_22 
REMARK    8  A    between atoms: C20_25  and  O6_27 
REMARK    9  A    between atoms: O6_27  and  C22_28 
REMARK   10  A    between atoms: C22_28  and  C23_30 
REMARK   11  A    between atoms: C23_30  and  C24_31 
REMARK   12  A    between atoms: C27_34  and  O8_36 
REMARK   13  A    between atoms: O8_36  and  C29_37 
ROOT
HETATM    1  C5  UNL     1       1.189  10.769  18.228  1.00  0.00     0.167 C 
HETATM    2  C6  UNL     1       2.213  10.822  17.093  1.00  0.00     0.041 C 
HETATM    3  C7  UNL     1       1.717  10.237  15.761  1.00  0.00    -0.002 C 
HETATM    4  C11 UNL     1       0.186   9.956  15.656  1.00  0.00     0.032 C 
HETATM    5  C12 UNL     1      -0.134   8.445  15.817  1.00  0.00     0.161 C 
HETATM    6  O3  UNL     1      -1.348   8.347  16.557  1.00  0.00    -0.377 OA
HETATM    7  C13 UNL     1      -1.738   9.589  17.101  1.00  0.00     0.132 C 
HETATM    8  C14 UNL     1      -3.236   9.841  16.827  1.00  0.00     0.072 C 
HETATM    9  C15 UNL     1      -3.832   9.952  15.393  1.00  0.00     0.082 C 
HETATM   10  C16 UNL     1      -3.230  11.067  14.528  1.00  0.00     0.049 C 
HETATM   11  C17 UNL     1      -4.063   8.605  14.628  1.00  0.00     0.152 C 
HETATM   12  C18 UNL     1      -2.966   7.550  14.485  1.00  0.00     0.038 C 
HETATM   13  C19 UNL     1      -1.663   7.961  13.779  1.00  0.00     0.043 C 
HETATM   14  C20 UNL     1      -0.323   7.603  14.507  1.00  0.00     0.093 C 
HETATM   15  C21 UNL     1      -0.333   6.085  14.814  1.00  0.00     0.049 C 
HETATM   16  C26 UNL     1      -0.762  10.679  16.645  1.00  0.00     0.059 C 
HETATM   17  C27 UNL     1      -0.095  11.516  17.792  1.00  0.00     0.100 C 
HETATM   18  C28 UNL     1      -1.090  11.822  18.930  1.00  0.00     0.050 C 
ENDROOT
BRANCH  14  19
HETATM   19  O6  UNL     1       0.699   7.890  13.504  1.00  0.00    -0.308 OA
BRANCH  19  20
HETATM   20  C22 UNL     1       0.636   7.360  12.254  1.00  0.00     0.259 C 
HETATM   21  O7  UNL     1       0.685   6.170  11.983  1.00  0.00    -0.265 OA
BRANCH  20  22
HETATM   22  C23 UNL     1       0.523   8.467  11.231  1.00  0.00     0.111 C 
BRANCH  22  23
HETATM   23  C24 UNL     1       0.685   7.923   9.816  1.00  0.00     0.005 C 
HETATM   24  C25 UNL     1      -0.241   8.629   8.839  1.00  0.00     0.005 C 
ENDBRANCH  22  23
ENDBRANCH  20  22
ENDBRANCH  19  20
ENDBRANCH  14  19
BRANCH   3  25
HETATM   25  C8  UNL     1       2.264  10.987  14.506  1.00  0.00    -0.018 C 
HETATM   26  C9  UNL     1       2.817  12.383  14.793  1.00  0.00     0.010 C 
HETATM   27  C10 UNL     1       3.317  10.158  13.761  1.00  0.00     0.010 C 
ENDBRANCH   3  25
BRANCH  11  28
HETATM   28  O5  UNL     1      -4.573   8.888  13.313  1.00  0.00    -0.393 OA
HETATM   29  H29 UNL     1      -5.355   9.452  13.470  1.00  0.00     0.210 HD
ENDBRANCH  11  28
BRANCH  17  30
HETATM   30  O8  UNL     1       0.222  12.794  17.122  1.00  0.00    -0.308 OA
BRANCH  30  31
HETATM   31  C29 UNL     1      -0.587  13.885  17.172  1.00  0.00     0.255 C 
HETATM   32  C30 UNL     1      -0.050  14.882  18.155  1.00  0.00     0.126 C 
HETATM   33  O9  UNL     1      -1.612  14.061  16.536  1.00  0.00    -0.266 OA
ENDBRANCH  30  31
ENDBRANCH  17  30
BRANCH   9  34
HETATM   34  O4  UNL     1      -5.209  10.426  15.599  1.00  0.00    -0.388 OA
HETATM   35  H27 UNL     1      -5.170  11.283  16.061  1.00  0.00     0.210 HD
ENDBRANCH   9  34
BRANCH   1  36
HETATM   36  O2  UNL     1       1.835  11.346  19.379  1.00  0.00    -0.313 OA
BRANCH  36  37
HETATM   37  C4  UNL     1       2.326  10.476  20.300  1.00  0.00     0.259 C 
HETATM   38  O1  UNL     1       2.674   9.326  20.061  1.00  0.00    -0.265 OA
BRANCH  37  39
HETATM   39  C3  UNL     1       2.462  11.124  21.655  1.00  0.00     0.111 C 
BRANCH  39  40
HETATM   40  C2  UNL     1       2.948  10.155  22.726  1.00  0.00     0.005 C 
HETATM   41  C1  UNL     1       4.387  10.441  23.126  1.00  0.00     0.005 C 
ENDBRANCH  39  40
ENDBRANCH  37  39
ENDBRANCH  36  37
ENDBRANCH   1  36
TORSDOF 13
ENDMDL
MODEL 2
REMARK minimizedAffinity -6.5750165
REMARK CNNscore 0.531795263
REMARK CNNaffinity 6.66163063
REMARK  13 active torsions:
REMARK  status: ('A' for Active; 'I' for Inactive)
REMARK    1  A    between atoms: C2_2  and  C3_3 
REMARK    2  A    between atoms: C3_3  and  C4_4 
REMARK    3  A    between atoms: C4_4  and  O2_6 
REMARK    4  A    between atoms: O2_6  and  C5_7 
REMARK    5  A    between atoms: C7_9  and  C8_10 
REMARK    6  A    between atoms: C15_18  and  O4_20 
REMARK    7  A    between atoms: C17_21  and  O5_22 
REMARK    8  A    between atoms: C20_25  and  O6_27 
REMARK    9  A    between atoms: O6_27  and  C22_28 
REMARK   10  A    between atoms: C22_28  and  C23_30 
REMARK   11  A    between atoms: C23_30  and  C24_31 
REMARK   12  A    between atoms: C27_34  and  O8_36 
REMARK   13  A    between atoms: O8_36  and  C29_37 
ROOT
HETATM    1  C5  UNL     1       3.327   5.887  10.667  1.00  0.00     0.167 C 
HETATM    2  C6  UNL     1       2.117   6.187   9.783  1.00  0.00     0.041 C 
HETATM    3  C7  UNL     1       0.904   6.755  10.536  1.00  0.00    -0.002 C 
HETATM    4  C11 UNL     1       1.156   7.224  12.002  1.00  0.00     0.032 C 
HETATM    5  C12 UNL     1       0.632   6.190  13.035  1.00  0.00     0.161 C 
HETATM    6  O3  UNL     1       1.560   6.165  14.117  1.00  0.00    -0.377 OA
HETATM    7  C13 UNL     1       2.742   6.875  13.815  1.00  0.00     0.132 C 
HETATM    8  C14 UNL     1       3.114   7.807  14.989  1.00  0.00     0.072 C 
HETATM    9  C15 UNL     1       2.197   8.965  15.480  1.00  0.00     0.082 C 
HETATM   10  C16 UNL     1       1.866  10.022  14.419  1.00  0.00     0.049 C 
HETATM   11  C17 UNL     1       0.978   8.556  16.375  1.00  0.00     0.152 C 
HETATM   12  C18 UNL     1      -0.007   7.462  15.962  1.00  0.00     0.038 C 
HETATM   13  C19 UNL     1      -0.779   7.652  14.646  1.00  0.00     0.043 C 
HETATM   14  C20 UNL     1      -0.788   6.441  13.652  1.00  0.00     0.093 C 
HETATM   15  C21 UNL     1      -1.295   5.195  14.418  1.00  0.00     0.049 C 
HETATM   16  C26 UNL     1       2.612   7.527  12.434  1.00  0.00     0.059 C 
HETATM   17  C27 UNL     1       3.749   7.178  11.410  1.00  0.00     0.100 C 
HETATM   18  C28 UNL     1       5.132   7.118  12.090  1.00  0.00     0.050 C 
ENDROOT
BRANCH  14  19
HETATM   19  O6  UNL     1      -1.775   6.830  12.648  1.00  0.00    -0.308 OA
BRANCH  19  20
HETATM   20  C22 UNL     1      -2.910   7.495  12.989  1.00  0.00     0.259 C 
HETATM   21  O7  UNL     1      -3.162   8.658  12.716  1.00  0.00    -0.265 OA
BRANCH  20  22
HETATM   22  C23 UNL     1      -3.816   6.587  13.788  1.00  0.00     0.111 C 
BRANCH  22  23
HETATM   23  C24 UNL     1      -4.812   5.872  12.881  1.00  0.00     0.005 C 
HETATM   24  C25 UNL     1      -4.548   4.375  12.835  1.00  0.00     0.005 C 
ENDBRANCH  22  23
ENDBRANCH  20  22
ENDBRANCH  19  20
ENDBRANCH  14  19
BRANCH   3  25
HETATM   25  C8  UNL     1       0.093   7.805   9.714  1.00  0.00    -0.018 C 
HETATM   26  C9  UNL     1      -0.495   8.944  10.546  1.00  0.00     0.010 C 
HETATM   27  C10 UNL     1       0.916   8.383   8.556  1.00  0.00     0.010 C 
ENDBRANCH   3  25
BRANCH  11  28
HETATM   28  O5  UNL     1       0.216   9.731  16.704  1.00  0.00    -0.393 OA
HETATM   29  H29 UNL     1       0.869  10.346  17.092  1.00  0.00     0.210 HD
ENDBRANCH  11  28
BRANCH  17  30
HETATM   30  O8  UNL     1       3.746   8.349  10.508  1.00  0.00    -0.308 OA
BRANCH  30  31
HETATM   31  C29 UNL     1       4.676   9.337  10.564  1.00  0.00     0.255 C 
HETATM   32  C30 UNL     1       4.520  10.122  11.833  1.00  0.00     0.126 C 
HETATM   33  O9  UNL     1       5.523   9.589   9.725  1.00  0.00    -0.266 OA
ENDBRANCH  30  31
ENDBRANCH  17  30
BRANCH   9  34
HETATM   34  O4  UNL     1       3.030   9.722  16.426  1.00  0.00    -0.388 OA
HETATM   35  H27 UNL     1       3.819  10.040  15.951  1.00  0.00     0.210 HD
ENDBRANCH   9  34
BRANCH   1  36
HETATM   36  O2  UNL     1       4.344   5.362   9.793  1.00  0.00    -0.313 OA
BRANCH  36  37
HETATM   37  C4  UNL     1       4.088   4.158   9.217  1.00  0.00     0.259 C 
HETATM   38  O1  UNL     1       4.176   3.077   9.787  1.00  0.00    -0.265 OA
BRANCH  37  39
HETATM   39  C3  UNL     1       3.607   4.315   7.796  1.00  0.00     0.111 C 
BRANCH  39  40
HETATM   40  C2  UNL     1       4.351   3.414   6.819  1.00  0.00     0.005 C 
HETATM   41  C1  UNL     1       3.441   2.932   5.700  1.00  0.00     0.005 C 
ENDBRANCH  39  40
ENDBRANCH  37  39
ENDBRANCH  36  37
ENDBRANCH   1  36
TORSDOF 13
ENDMDL
MODEL 3
REMARK minimizedAffinity -5.69699097
REMARK CNNscore 0.485509485
REMARK CNNaffinity 6.83155966
REMARK  13 active torsions:
REMARK  status: ('A' for Active; 'I' for Inactive)
REMARK    1  A    between atoms: C2_2  and  C3_3 
REMARK    2  A    between atoms: C3_3  and  C4_4 
REMARK    3  A    between atoms: C4_4  and  O2_6 
REMARK    4  A    between atoms: O2_6  and  C5_7 
REMARK    5  A    between atoms: C7_9  and  C8_10 
REMARK    6  A    between atoms: C15_18  and  O4_20 
REMARK    7  A    between atoms: C17_21  and  O5_22 
REMARK    8  A    between atoms: C20_25  and  O6_27 
REMARK    9  A    between atoms: O6_27  and  C22_28 
REMARK   10  A    between atoms: C22_28  and  C23_30 
REMARK   11  A    between atoms: C23_30  and  C24_31 
REMARK   12  A    between atoms: C27_34  and  O8_36 
REMARK   13  A    between atoms: O8_36  and  C29_37 
ROOT
HETATM    1  C5  UNL     1       4.172  14.092  -1.314  1.00  0.00     0.167 C 
HETATM    2  C6  UNL     1       2.811  14.514  -1.867  1.00  0.00     0.041 C 
HETATM    3  C7  UNL     1       1.845  15.081  -0.815  1.00  0.00    -0.002 C 
HETATM    4  C11 UNL     1       2.461  15.425   0.576  1.00  0.00     0.032 C 
HETATM    5  C12 UNL     1       2.126  14.343   1.637  1.00  0.00     0.161 C 
HETATM    6  O3  UNL     1       3.277  14.193   2.466  1.00  0.00    -0.377 OA
HETATM    7  C13 UNL     1       4.398  14.867   1.938  1.00  0.00     0.132 C 
HETATM    8  C14 UNL     1       5.091  15.689   3.046  1.00  0.00     0.072 C 
HETATM    9  C15 UNL     1       4.390  16.849   3.811  1.00  0.00     0.082 C 
HETATM   10  C16 UNL     1       3.889  17.997   2.926  1.00  0.00     0.049 C 
HETATM   11  C17 UNL     1       3.388  16.432   4.941  1.00  0.00     0.152 C 
HETATM   12  C18 UNL     1       2.267  15.420   4.706  1.00  0.00     0.038 C 
HETATM   13  C19 UNL     1       1.224  15.745   3.624  1.00  0.00     0.043 C 
HETATM   14  C20 UNL     1       0.907  14.614   2.587  1.00  0.00     0.093 C 
HETATM   15  C21 UNL     1       0.514  13.339   3.373  1.00  0.00     0.049 C 
HETATM   16  C26 UNL     1       3.993  15.626   0.670  1.00  0.00     0.059 C 
HETATM   17  C27 UNL     1       4.836  15.301  -0.613  1.00  0.00     0.100 C 
HETATM   18  C28 UNL     1       6.333  15.125  -0.284  1.00  0.00     0.050 C 
ENDROOT
BRANCH  14  19
HETATM   19  O6  UNL     1      -0.259  15.123   1.871  1.00  0.00    -0.308 OA
BRANCH  19  20
HETATM   20  C22 UNL     1      -1.173  14.285   1.316  1.00  0.00     0.259 C 
HETATM   21  O7  UNL     1      -1.057  13.713   0.243  1.00  0.00    -0.265 OA
BRANCH  20  22
HETATM   22  C23 UNL     1      -2.385  14.180   2.214  1.00  0.00     0.111 C 
BRANCH  22  23
HETATM   23  C24 UNL     1      -3.242  15.439   2.125  1.00  0.00     0.005 C 
HETATM   24  C25 UNL     1      -4.474  15.214   1.262  1.00  0.00     0.005 C 
ENDBRANCH  22  23
ENDBRANCH  20  22
ENDBRANCH  19  20
ENDBRANCH  14  19
BRANCH   3  25
HETATM   25  C8  UNL     1       0.933  16.227  -1.355  1.00  0.00    -0.018 C 
HETATM   26  C9  UNL     1       1.187  17.592  -0.717  1.00  0.00     0.010 C 
HETATM   27  C10 UNL     1       1.012  16.348  -2.882  1.00  0.00     0.010 C 
ENDBRANCH   3  25
BRANCH  11  28
HETATM   28  O5  UNL     1       2.800  17.614   5.513  1.00  0.00    -0.393 OA
HETATM   29  H29 UNL     1       3.563  18.166   5.773  1.00  0.00     0.210 HD
ENDBRANCH  11  28
BRANCH  17  30
HETATM   30  O8  UNL     1       4.698  16.536  -1.415  1.00  0.00    -0.308 OA
BRANCH  30  31
HETATM   31  C29 UNL     1       5.630  16.951  -2.313  1.00  0.00     0.255 C 
HETATM   32  C30 UNL     1       6.319  18.185  -1.810  1.00  0.00     0.126 C 
HETATM   33  O9  UNL     1       5.890  16.432  -3.385  1.00  0.00    -0.266 OA
ENDBRANCH  30  31
ENDBRANCH  17  30
BRANCH   9  34
HETATM   34  O4  UNL     1       5.466  17.493   4.578  1.00  0.00    -0.388 OA
HETATM   35  H27 UNL     1       6.141  17.807   3.951  1.00  0.00     0.210 HD
ENDBRANCH   9  34
BRANCH   1  36
HETATM   36  O2  UNL     1       4.923  13.586  -2.435  1.00  0.00    -0.313 OA
BRANCH  36  37
HETATM   37  C4  UNL     1       5.330  12.292  -2.360  1.00  0.00     0.259 C 
HETATM   38  O1  UNL     1       6.065  11.839  -1.491  1.00  0.00    -0.265 OA
BRANCH  37  39
HETATM   39  C3  UNL     1       4.704  11.451  -3.445  1.00  0.00     0.111 C 
BRANCH  39  40
HETATM   40  C2  UNL     1       4.977  11.994  -4.842  1.00  0.00     0.005 C 
HETATM   41  C1  UNL     1       5.314  10.878  -5.819  1.00  0.00     0.005 C 
ENDBRANCH  39  40
ENDBRANCH  37  39
ENDBRANCH  36  37
ENDBRANCH   1  36
TORSDOF 13
ENDMDL
MODEL 4
REMARK minimizedAffinity -6.19570827
REMARK CNNscore 0.477289855
REMARK CNNaffinity 6.67573023
REMARK  13 active torsions:
REMARK  status: ('A' for Active; 'I' for Inactive)
REMARK    1  A    between atoms: C2_2  and  C3_3 
REMARK    2  A    between atoms: C3_3  and  C4_4 
REMARK    3  A    between atoms: C4_4  and  O2_6 
REMARK    4  A    between atoms: O2_6  and  C5_7 
REMARK    5  A    between atoms: C7_9  and  C8_10 
REMARK    6  A    between atoms: C15_18  and  O4_20 
REMARK    7  A    between atoms: C17_21  and  O5_22 
REMARK    8  A    between atoms: C20_25  and  O6_27 
REMARK    9  A    between atoms: O6_27  and  C22_28 
REMARK   10  A    between atoms: C22_28  and  C23_30 
REMARK   11  A    between atoms: C23_30  and  C24_31 
REMARK   12  A    between atoms: C27_34  and  O8_36 
REMARK   13  A    between atoms: O8_36  and  C29_37 
ROOT
HETATM    1  C5  UNL     1      -1.756  12.953  15.114  1.00  0.00     0.167 C 
HETATM    2  C6  UNL     1      -2.896  12.838  16.126  1.00  0.00     0.041 C 
HETATM    3  C7  UNL     1      -3.412  11.407  16.344  1.00  0.00    -0.002 C 
HETATM    4  C11 UNL     1      -2.536  10.259  15.756  1.00  0.00     0.032 C 
HETATM    5  C12 UNL     1      -3.133   9.696  14.438  1.00  0.00     0.161 C 
HETATM    6  O3  UNL     1      -2.040   9.397  13.572  1.00  0.00    -0.377 OA
HETATM    7  C13 UNL     1      -0.821   9.911  14.064  1.00  0.00     0.132 C 
HETATM    8  C14 UNL     1       0.279   8.830  13.986  1.00  0.00     0.072 C 
HETATM    9  C15 UNL     1       0.202   7.480  14.756  1.00  0.00     0.082 C 
HETATM   10  C16 UNL     1       0.089   7.611  16.280  1.00  0.00     0.049 C 
HETATM   11  C17 UNL     1      -0.727   6.379  14.140  1.00  0.00     0.152 C 
HETATM   12  C18 UNL     1      -2.178   6.660  13.751  1.00  0.00     0.038 C 
HETATM   13  C19 UNL     1      -3.137   7.136  14.855  1.00  0.00     0.043 C 
HETATM   14  C20 UNL     1      -4.009   8.398  14.537  1.00  0.00     0.093 C 
HETATM   15  C21 UNL     1      -4.771   8.135  13.215  1.00  0.00     0.049 C 
HETATM   16  C26 UNL     1      -1.051  10.561  15.433  1.00  0.00     0.059 C 
HETATM   17  C27 UNL     1      -0.581  12.052  15.564  1.00  0.00     0.100 C 
HETATM   18  C28 UNL     1       0.751  12.298  14.826  1.00  0.00     0.050 C 
ENDROOT
BRANCH  14  19
HETATM   19  O6  UNL     1      -4.958   8.447  15.646  1.00  0.00    -0.308 OA
BRANCH  19  20
HETATM   20  C22 UNL     1      -6.278   8.183  15.462  1.00  0.00     0.259 C 
HETATM   21  O7  UNL     1      -7.106   8.964  15.019  1.00  0.00    -0.265 OA
BRANCH  20  22
HETATM   22  C23 UNL     1      -6.588   6.775  15.916  1.00  0.00     0.111 C 
BRANCH  22  23
HETATM   23  C24 UNL     1      -7.481   6.059  14.908  1.00  0.00     0.005 C 
HETATM   24  C25 UNL     1      -6.685   5.092  14.046  1.00  0.00     0.005 C 
ENDBRANCH  22  23
ENDBRANCH  20  22
ENDBRANCH  19  20
ENDBRANCH  14  19
BRANCH   3  25
HETATM   25  C8  UNL     1      -3.854  11.118  17.812  1.00  0.00    -0.018 C 
HETATM   26  C9  UNL     1      -3.060  10.011  18.506  1.00  0.00     0.010 C 
HETATM   27  C10 UNL     1      -3.835  12.386  18.674  1.00  0.00     0.010 C 
ENDBRANCH   3  25
BRANCH  11  28
HETATM   28  O5  UNL     1      -0.717   5.220  14.992  1.00  0.00    -0.393 OA
HETATM   29  H29 UNL     1       0.229   5.000  15.095  1.00  0.00     0.210 HD
ENDBRANCH  11  28
BRANCH  17  30
HETATM   30  O8  UNL     1      -0.319  12.185  17.013  1.00  0.00    -0.308 OA
BRANCH  30  31
HETATM   31  C29 UNL     1       0.495  11.346  17.705  1.00  0.00     0.255 C 
HETATM   32  C30 UNL     1       0.083  11.299  19.146  1.00  0.00     0.126 C 
HETATM   33  O9  UNL     1       1.439  10.715  17.260  1.00  0.00    -0.266 OA
ENDBRANCH  30  31
ENDBRANCH  17  30
BRANCH   9  34
HETATM   34  O4  UNL     1       1.535   6.882  14.592  1.00  0.00    -0.388 OA
HETATM   35  H27 UNL     1       2.192   7.495  14.967  1.00  0.00     0.210 HD
ENDBRANCH   9  34
BRANCH   1  36
HETATM   36  O2  UNL     1      -1.421  14.352  15.042  1.00  0.00    -0.313 OA
BRANCH  36  37
HETATM   37  C4  UNL     1      -1.958  15.054  14.010  1.00  0.00     0.259 C 
HETATM   38  O1  UNL     1      -1.921  14.710  12.835  1.00  0.00    -0.265 OA
BRANCH  37  39
HETATM   39  C3  UNL     1      -2.678  16.288  14.496  1.00  0.00     0.111 C 
BRANCH  39  40
HETATM   40  C2  UNL     1      -4.094  16.399  13.944  1.00  0.00     0.005 C 
HETATM   41  C1  UNL     1      -5.041  15.433  14.638  1.00  0.00     0.005 C 
ENDBRANCH  39  40
ENDBRANCH  37  39
ENDBRANCH  36  37
ENDBRANCH   1  36
TORSDOF 13
ENDMDL
MODEL 5
REMARK minimizedAffinity -5.99954748
REMARK CNNscore 0.470196068
REMARK CNNaffinity 6.04139566
REMARK  13 active torsions:
REMARK  status: ('A' for Active; 'I' for Inactive)
REMARK    1  A    between atoms: C2_2  and  C3_3 
REMARK    2  A    between atoms: C3_3  and  C4_4 
REMARK    3  A    between atoms: C4_4  and  O2_6 
REMARK    4  A    between atoms: O2_6  and  C5_7 
REMARK    5  A    between atoms: C7_9  and  C8_10 
REMARK    6  A    between atoms: C15_18  and  O4_20 
REMARK    7  A    between atoms: C17_21  and  O5_22 
REMARK    8  A    between atoms: C20_25  and  O6_27 
REMARK    9  A    between atoms: O6_27  and  C22_28 
REMARK   10  A    between atoms: C22_28  and  C23_30 
REMARK   11  A    between atoms: C23_30  and  C24_31 
REMARK   12  A    between atoms: C27_34  and  O8_36 
REMARK   13  A    between atoms: O8_36  and  C29_37 
ROOT
HETATM    1  C5  UNL     1       1.937  10.659  19.034  1.00  0.00     0.167 C 
HETATM    2  C6  UNL     1       2.536  10.150  17.723  1.00  0.00     0.041 C 
HETATM    3  C7  UNL     1       1.527  10.020  16.571  1.00  0.00    -0.002 C 
HETATM    4  C11 UNL     1       0.135  10.689  16.792  1.00  0.00     0.032 C 
HETATM    5  C12 UNL     1      -0.956   9.644  17.148  1.00  0.00     0.161 C 
HETATM    6  O3  UNL     1      -1.815  10.243  18.116  1.00  0.00    -0.377 OA
HETATM    7  C13 UNL     1      -1.289  11.455  18.610  1.00  0.00     0.132 C 
HETATM    8  C14 UNL     1      -2.383  12.546  18.610  1.00  0.00     0.072 C 
HETATM    9  C15 UNL     1      -3.090  13.042  17.316  1.00  0.00     0.082 C 
HETATM   10  C16 UNL     1      -2.154  13.629  16.252  1.00  0.00     0.049 C 
HETATM   11  C17 UNL     1      -4.212  12.115  16.735  1.00  0.00     0.152 C 
HETATM   12  C18 UNL     1      -3.987  10.625  16.479  1.00  0.00     0.038 C 
HETATM   13  C19 UNL     1      -2.871  10.226  15.499  1.00  0.00     0.043 C 
HETATM   14  C20 UNL     1      -1.868   9.124  15.982  1.00  0.00     0.093 C 
HETATM   15  C21 UNL     1      -2.689   7.887  16.422  1.00  0.00     0.049 C 
HETATM   16  C26 UNL     1       0.014  11.789  17.875  1.00  0.00     0.059 C 
HETATM   17  C27 UNL     1       1.265  12.031  18.791  1.00  0.00     0.100 C 
HETATM   18  C28 UNL     1       0.897  12.814  20.067  1.00  0.00     0.050 C 
ENDROOT
BRANCH  14  19
HETATM   19  O6  UNL     1      -1.108   8.802  14.777  1.00  0.00    -0.308 OA
BRANCH  19  20
HETATM   20  C22 UNL     1      -1.621   9.012  13.537  1.00  0.00     0.259 C 
HETATM   21  O7  UNL     1      -1.534  10.047  12.896  1.00  0.00    -0.265 OA
BRANCH  20  22
HETATM   22  C23 UNL     1      -2.350   7.774  13.067  1.00  0.00     0.111 C 
BRANCH  22  23
HETATM   23  C24 UNL     1      -3.844   8.043  12.916  1.00  0.00     0.005 C 
HETATM   24  C25 UNL     1      -4.667   6.802  13.225  1.00  0.00     0.005 C 
ENDBRANCH  22  23
ENDBRANCH  20  22
ENDBRANCH  19  20
ENDBRANCH  14  19
BRANCH   3  25
HETATM   25  C8  UNL     1       2.128  10.359  15.171  1.00  0.00    -0.018 C 
HETATM   26  C9  UNL     1       3.412  11.185  15.216  1.00  0.00     0.010 C 
HETATM   27  C10 UNL     1       2.352   9.099  14.326  1.00  0.00     0.010 C 
ENDBRANCH   3  25
BRANCH  11  28
HETATM   28  O5  UNL     1      -4.728  12.696  15.524  1.00  0.00    -0.393 OA
HETATM   29  H29 UNL     1      -4.985  13.604  15.779  1.00  0.00     0.210 HD
ENDBRANCH  11  28
BRANCH  17  30
HETATM   30  O8  UNL     1       2.113  12.910  17.958  1.00  0.00    -0.308 OA
BRANCH  30  31
HETATM   31  C29 UNL     1       2.913  13.881  18.471  1.00  0.00     0.255 C 
HETATM   32  C30 UNL     1       4.296  13.347  18.694  1.00  0.00     0.126 C 
HETATM   33  O9  UNL     1       2.590  15.027  18.736  1.00  0.00    -0.266 OA
ENDBRANCH  30  31
ENDBRANCH  17  30
BRANCH   9  34
HETATM   34  O4  UNL     1      -3.858  14.221  17.741  1.00  0.00    -0.388 OA
HETATM   35  H27 UNL     1      -3.235  14.875  18.107  1.00  0.00     0.210 HD
ENDBRANCH   9  34
BRANCH   1  36
HETATM   36  O2  UNL     1       3.023  10.703  19.981  1.00  0.00    -0.313 OA
BRANCH  36  37
HETATM   37  C4  UNL     1       2.817  10.080  21.171  1.00  0.00     0.259 C 
HETATM   38  O1  UNL     1       2.399   8.936  21.299  1.00  0.00    -0.265 OA
BRANCH  37  39
HETATM   39  C3  UNL     1       3.238  10.950  22.330  1.00  0.00     0.111 C 
BRANCH  39  40
HETATM   40  C2  UNL     1       4.562  10.513  22.944  1.00  0.00     0.005 C 
HETATM   41  C1  UNL     1       5.593  11.630  22.900  1.00  0.00     0.005 C 
ENDBRANCH  39  40
ENDBRANCH  37  39
ENDBRANCH  36  37
ENDBRANCH   1  36
TORSDOF 13
ENDMDL
MODEL 6
REMARK minimizedAffinity -5.68562794
REMARK CNNscore 0.421383113
REMARK CNNaffinity 6.38260889
REMARK  13 active torsions:
REMARK  status: ('A' for Active; 'I' for Inactive)
REMARK    1  A    between atoms: C2_2  and  C3_3 
REMARK    2  A    between atoms: C3_3  and  C4_4 
REMARK    3  A    between atoms: C4_4  and  O2_6 
REMARK    4  A    between atoms: O2_6  and  C5_7 
REMARK    5  A    between atoms: C7_9  and  C8_10 
REMARK    6  A    between atoms: C15_18  and  O4_20 
REMARK    7  A    between atoms: C17_21  and  O5_22 
REMARK    8  A    between atoms: C20_25  and  O6_27 
REMARK    9  A    between atoms: O6_27  and  C22_28 
REMARK   10  A    between atoms: C22_28  and  C23_30 
REMARK   11  A    between atoms: C23_30  and  C24_31 
REMARK   12  A    between atoms: C27_34  and  O8_36 
REMARK   13  A    between atoms: O8_36  and  C29_37 
ROOT
HETATM    1  C5  UNL     1     -13.412   7.234  23.806  1.00  0.00     0.167 C 
HETATM    2  C6  UNL     1     -13.226   5.783  23.359  1.00  0.00     0.041 C 
HETATM    3  C7  UNL     1     -13.855   4.742  24.298  1.00  0.00    -0.002 C 
HETATM    4  C11 UNL     1     -14.832   5.291  25.384  1.00  0.00     0.032 C 
HETATM    5  C12 UNL     1     -14.160   5.352  26.783  1.00  0.00     0.161 C 
HETATM    6  O3  UNL     1     -14.634   6.533  27.428  1.00  0.00    -0.377 OA
HETATM    7  C13 UNL     1     -15.343   7.370  26.541  1.00  0.00     0.132 C 
HETATM    8  C14 UNL     1     -16.664   7.833  27.193  1.00  0.00     0.072 C 
HETATM    9  C15 UNL     1     -17.790   6.850  27.627  1.00  0.00     0.082 C 
HETATM   10  C16 UNL     1     -18.361   5.983  26.498  1.00  0.00     0.049 C 
HETATM   11  C17 UNL     1     -17.561   6.079  28.971  1.00  0.00     0.152 C 
HETATM   12  C18 UNL     1     -16.273   5.308  29.260  1.00  0.00     0.038 C 
HETATM   13  C19 UNL     1     -15.892   4.164  28.305  1.00  0.00     0.043 C 
HETATM   14  C20 UNL     1     -14.422   4.156  27.764  1.00  0.00     0.093 C 
HETATM   15  C21 UNL     1     -13.463   4.207  28.978  1.00  0.00     0.049 C 
HETATM   16  C26 UNL     1     -15.453   6.693  25.170  1.00  0.00     0.059 C 
HETATM   17  C27 UNL     1     -14.923   7.532  23.955  1.00  0.00     0.100 C 
HETATM   18  C28 UNL     1     -15.284   9.025  24.090  1.00  0.00     0.050 C 
ENDROOT
BRANCH  14  19
HETATM   19  O6  UNL     1     -14.307   2.857  27.106  1.00  0.00    -0.308 OA
BRANCH  19  20
HETATM   20  C22 UNL     1     -13.693   1.807  27.712  1.00  0.00     0.259 C 
HETATM   21  O7  UNL     1     -14.175   1.114  28.595  1.00  0.00    -0.265 OA
BRANCH  20  22
HETATM   22  C23 UNL     1     -12.300   1.632  27.152  1.00  0.00     0.111 C 
BRANCH  22  23
HETATM   23  C24 UNL     1     -12.273   1.920  25.654  1.00  0.00     0.005 C 
HETATM   24  C25 UNL     1     -11.239   1.063  24.941  1.00  0.00     0.005 C 
ENDBRANCH  22  23
ENDBRANCH  20  22
ENDBRANCH  19  20
ENDBRANCH  14  19
BRANCH   3  25
HETATM   25  C8  UNL     1     -14.440   3.501  23.555  1.00  0.00    -0.018 C 
HETATM   26  C9  UNL     1     -15.965   3.406  23.584  1.00  0.00     0.010 C 
HETATM   27  C10 UNL     1     -13.945   3.419  22.105  1.00  0.00     0.010 C 
ENDBRANCH   3  25
BRANCH  11  28
HETATM   28  O5  UNL     1     -18.667   5.187  29.200  1.00  0.00    -0.393 OA
HETATM   29  H29 UNL     1     -19.458   5.758  29.142  1.00  0.00     0.210 HD
ENDBRANCH  11  28
BRANCH  17  30
HETATM   30  O8  UNL     1     -15.698   6.987  22.820  1.00  0.00    -0.308 OA
BRANCH  30  31
HETATM   31  C29 UNL     1     -15.725   7.563  21.589  1.00  0.00     0.255 C 
HETATM   32  C30 UNL     1     -15.225   6.598  20.556  1.00  0.00     0.126 C 
HETATM   33  O9  UNL     1     -16.085   8.697  21.323  1.00  0.00    -0.266 OA
ENDBRANCH  30  31
ENDBRANCH  17  30
BRANCH   9  34
HETATM   34  O4  UNL     1     -18.930   7.716  27.962  1.00  0.00    -0.388 OA
HETATM   35  H27 UNL     1     -19.163   8.233  27.171  1.00  0.00     0.210 HD
ENDBRANCH   9  34
BRANCH   1  36
HETATM   36  O2  UNL     1     -12.754   8.047  22.816  1.00  0.00    -0.313 OA
BRANCH  36  37
HETATM   37  C4  UNL     1     -11.645   8.720  23.222  1.00  0.00     0.259 C 
HETATM   38  O1  UNL     1     -10.608   8.194  23.606  1.00  0.00    -0.265 OA
BRANCH  37  39
HETATM   39  C3  UNL     1     -11.818  10.212  23.073  1.00  0.00     0.111 C 
BRANCH  39  40
HETATM   40  C2  UNL     1     -10.869  11.006  23.961  1.00  0.00     0.005 C 
HETATM   41  C1  UNL     1      -9.926  11.870  23.137  1.00  0.00     0.005 C 
ENDBRANCH  39  40
ENDBRANCH  37  39
ENDBRANCH  36  37
ENDBRANCH   1  36
TORSDOF 13
ENDMDL
MODEL 7
REMARK minimizedAffinity -5.34905958
REMARK CNNscore 0.409069002
REMARK CNNaffinity 6.28098106
REMARK  13 active torsions:
REMARK  status: ('A' for Active; 'I' for Inactive)
REMARK    1  A    between atoms: C2_2  and  C3_3 
REMARK    2  A    between atoms: C3_3  and  C4_4 
REMARK    3  A    between atoms: C4_4  and  O2_6 
REMARK    4  A    between atoms: O2_6  and  C5_7 
REMARK    5  A    between atoms: C7_9  and  C8_10 
REMARK    6  A    between atoms: C15_18  and  O4_20 
REMARK    7  A    between atoms: C17_21  and  O5_22 
REMARK    8  A    between atoms: C20_25  and  O6_27 
REMARK    9  A    between atoms: O6_27  and  C22_28 
REMARK   10  A    between atoms: C22_28  and  C23_30 
REMARK   11  A    between atoms: C23_30  and  C24_31 
REMARK   12  A    between atoms: C27_34  and  O8_36 
REMARK   13  A    between atoms: O8_36  and  C29_37 
ROOT
HETATM    1  C5  UNL     1       4.029  14.406   0.514  1.00  0.00     0.167 C 
HETATM    2  C6  UNL     1       3.037  14.744  -0.599  1.00  0.00     0.041 C 
HETATM    3  C7  UNL     1       1.597  14.982  -0.117  1.00  0.00    -0.002 C 
HETATM    4  C11 UNL     1       1.400  15.145   1.421  1.00  0.00     0.032 C 
HETATM    5  C12 UNL     1       0.829  13.854   2.068  1.00  0.00     0.161 C 
HETATM    6  O3  UNL     1       1.456  13.705   3.340  1.00  0.00    -0.377 OA
HETATM    7  C13 UNL     1       2.533  14.602   3.506  1.00  0.00     0.132 C 
HETATM    8  C14 UNL     1       2.440  15.292   4.884  1.00  0.00     0.072 C 
HETATM    9  C15 UNL     1       1.244  16.194   5.306  1.00  0.00     0.082 C 
HETATM   10  C16 UNL     1       1.002  17.409   4.402  1.00  0.00     0.049 C 
HETATM   11  C17 UNL     1      -0.065  15.454   5.745  1.00  0.00     0.152 C 
HETATM   12  C18 UNL     1      -0.714  14.367   4.889  1.00  0.00     0.038 C 
HETATM   13  C19 UNL     1      -1.164  14.745   3.468  1.00  0.00     0.043 C 
HETATM   14  C20 UNL     1      -0.720  13.790   2.309  1.00  0.00     0.093 C 
HETATM   15  C21 UNL     1      -1.172  12.353   2.670  1.00  0.00     0.049 C 
HETATM   16  C26 UNL     1       2.631  15.520   2.282  1.00  0.00     0.059 C 
HETATM   17  C27 UNL     1       4.026  15.544   1.563  1.00  0.00     0.100 C 
HETATM   18  C28 UNL     1       5.191  15.505   2.573  1.00  0.00     0.050 C 
ENDROOT
BRANCH  14  19
HETATM   19  O6  UNL     1      -1.485  14.267   1.160  1.00  0.00    -0.308 OA
BRANCH  19  20
HETATM   20  C22 UNL     1      -2.628  14.985   1.317  1.00  0.00     0.259 C 
HETATM   21  O7  UNL     1      -3.703  14.539   1.688  1.00  0.00    -0.265 OA
BRANCH  20  22
HETATM   22  C23 UNL     1      -2.385  16.427   0.936  1.00  0.00     0.111 C 
BRANCH  22  23
HETATM   23  C24 UNL     1      -2.880  17.372   2.026  1.00  0.00     0.005 C 
HETATM   24  C25 UNL     1      -4.214  18.001   1.654  1.00  0.00     0.005 C 
ENDBRANCH  22  23
ENDBRANCH  20  22
ENDBRANCH  19  20
ENDBRANCH  14  19
BRANCH   3  25
HETATM   25  C8  UNL     1       0.839  16.080  -0.927  1.00  0.00    -0.018 C 
HETATM   26  C9  UNL     1       1.747  17.041  -1.694  1.00  0.00     0.010 C 
HETATM   27  C10 UNL     1      -0.196  15.474  -1.882  1.00  0.00     0.010 C 
ENDBRANCH   3  25
BRANCH  11  28
HETATM   28  O5  UNL     1      -1.077  16.428   6.058  1.00  0.00    -0.393 OA
HETATM   29  H29 UNL     1      -0.656  17.017   6.714  1.00  0.00     0.210 HD
ENDBRANCH  11  28
BRANCH  17  30
HETATM   30  O8  UNL     1       4.038  16.875   0.920  1.00  0.00    -0.308 OA
BRANCH  30  31
HETATM   31  C29 UNL     1       3.574  18.000   1.524  1.00  0.00     0.255 C 
HETATM   32  C30 UNL     1       4.642  18.601   2.389  1.00  0.00     0.126 C 
HETATM   33  O9  UNL     1       2.458  18.479   1.414  1.00  0.00    -0.266 OA
ENDBRANCH  30  31
ENDBRANCH  17  30
BRANCH   9  34
HETATM   34  O4  UNL     1       1.677  16.821   6.564  1.00  0.00    -0.388 OA
HETATM   35  H27 UNL     1       2.490  17.328   6.387  1.00  0.00     0.210 HD
ENDBRANCH   9  34
BRANCH   1  36
HETATM   36  O2  UNL     1       5.304  14.212  -0.129  1.00  0.00    -0.313 OA
BRANCH  36  37
HETATM   37  C4  UNL     1       5.283  14.024  -1.475  1.00  0.00     0.259 C 
HETATM   38  O1  UNL     1       5.291  14.922  -2.307  1.00  0.00    -0.265 OA
BRANCH  37  39
HETATM   39  C3  UNL     1       5.323  12.558  -1.828  1.00  0.00     0.111 C 
BRANCH  39  40
HETATM   40  C2  UNL     1       4.466  12.221  -3.042  1.00  0.00     0.005 C 
HETATM   41  C1  UNL     1       5.295  11.597  -4.154  1.00  0.00     0.005 C 
ENDBRANCH  39  40
ENDBRANCH  37  39
ENDBRANCH  36  37
ENDBRANCH   1  36
TORSDOF 13
ENDMDL
MODEL 8
REMARK minimizedAffinity -6.95626926
REMARK CNNscore 0.381288439
REMARK CNNaffinity 6.66592073
REMARK  13 active torsions:
REMARK  status: ('A' for Active; 'I' for Inactive)
REMARK    1  A    between atoms: C2_2  and  C3_3 
REMARK    2  A    between atoms: C3_3  and  C4_4 
REMARK    3  A    between atoms: C4_4  and  O2_6 
REMARK    4  A    between atoms: O2_6  and  C5_7 
REMARK    5  A    between atoms: C7_9  and  C8_10 
REMARK    6  A    between atoms: C15_18  and  O4_20 
REMARK    7  A    between atoms: C17_21  and  O5_22 
REMARK    8  A    between atoms: C20_25  and  O6_27 
REMARK    9  A    between atoms: O6_27  and  C22_28 
REMARK   10  A    between atoms: C22_28  and  C23_30 
REMARK   11  A    between atoms: C23_30  and  C24_31 
REMARK   12  A    between atoms: C27_34  and  O8_36 
REMARK   13  A    between atoms: O8_36  and  C29_37 
ROOT
HETATM    1  C5  UNL     1       1.169   5.284  11.254  1.00  0.00     0.167 C 
HETATM    2  C6  UNL     1       0.029   6.293  11.398  1.00  0.00     0.041 C 
HETATM    3  C7  UNL     1       0.464   7.675  11.912  1.00  0.00    -0.002 C 
HETATM    4  C11 UNL     1       1.998   7.956  11.928  1.00  0.00     0.032 C 
HETATM    5  C12 UNL     1       2.590   7.836  13.358  1.00  0.00     0.161 C 
HETATM    6  O3  UNL     1       3.880   7.241  13.233  1.00  0.00    -0.377 OA
HETATM    7  C13 UNL     1       4.108   6.743  11.933  1.00  0.00     0.132 C 
HETATM    8  C14 UNL     1       5.499   7.188  11.432  1.00  0.00     0.072 C 
HETATM    9  C15 UNL     1       5.900   8.680  11.246  1.00  0.00     0.082 C 
HETATM   10  C16 UNL     1       5.019   9.468  10.267  1.00  0.00     0.049 C 
HETATM   11  C17 UNL     1       6.271   9.470  12.547  1.00  0.00     0.152 C 
HETATM   12  C18 UNL     1       5.364   9.487  13.777  1.00  0.00     0.038 C 
HETATM   13  C19 UNL     1       3.938  10.037  13.610  1.00  0.00     0.043 C 
HETATM   14  C20 UNL     1       2.772   9.161  14.179  1.00  0.00     0.093 C 
HETATM   15  C21 UNL     1       3.079   8.860  15.667  1.00  0.00     0.049 C 
HETATM   16  C26 UNL     1       2.913   7.082  11.035  1.00  0.00     0.059 C 
HETATM   17  C27 UNL     1       2.246   5.863  10.305  1.00  0.00     0.100 C 
HETATM   18  C28 UNL     1       3.297   4.848   9.812  1.00  0.00     0.050 C 
ENDROOT
BRANCH  14  19
HETATM   19  O6  UNL     1       1.608  10.039  14.090  1.00  0.00    -0.308 OA
BRANCH  19  20
HETATM   20  C22 UNL     1       0.815  10.277  15.167  1.00  0.00     0.259 C 
HETATM   21  O7  UNL     1       1.077  11.031  16.091  1.00  0.00    -0.265 OA
BRANCH  20  22
HETATM   22  C23 UNL     1      -0.443   9.444  15.073  1.00  0.00     0.111 C 
BRANCH  22  23
HETATM   23  C24 UNL     1      -0.331   8.185  15.927  1.00  0.00     0.005 C 
HETATM   24  C25 UNL     1      -0.908   6.974  15.211  1.00  0.00     0.005 C 
ENDBRANCH  22  23
ENDBRANCH  20  22
ENDBRANCH  19  20
ENDBRANCH  14  19
BRANCH   3  25
HETATM   25  C8  UNL     1      -0.344   8.856  11.291  1.00  0.00    -0.018 C 
HETATM   26  C9  UNL     1      -0.491   8.793   9.771  1.00  0.00     0.010 C 
HETATM   27  C10 UNL     1      -1.727   9.005  11.938  1.00  0.00     0.010 C 
ENDBRANCH   3  25
BRANCH  11  28
HETATM   28  O5  UNL     1       6.572  10.834  12.204  1.00  0.00    -0.393 OA
HETATM   29  H29 UNL     1       7.258  10.767  11.511  1.00  0.00     0.210 HD
ENDBRANCH  11  28
BRANCH  17  30
HETATM   30  O8  UNL     1       1.639   6.490   9.112  1.00  0.00    -0.308 OA
BRANCH  30  31
HETATM   31  C29 UNL     1       2.288   6.625   7.927  1.00  0.00     0.255 C 
HETATM   32  C30 UNL     1       2.653   8.062   7.698  1.00  0.00     0.126 C 
HETATM   33  O9  UNL     1       2.547   5.737   7.133  1.00  0.00    -0.266 OA
ENDBRANCH  30  31
ENDBRANCH  17  30
BRANCH   9  34
HETATM   34  O4  UNL     1       7.188   8.634  10.539  1.00  0.00    -0.388 OA
HETATM   35  H27 UNL     1       7.055   8.169   9.693  1.00  0.00     0.210 HD
ENDBRANCH   9  34
BRANCH   1  36
HETATM   36  O2  UNL     1       0.569   4.065  10.775  1.00  0.00    -0.313 OA
BRANCH  36  37
HETATM   37  C4  UNL     1      -0.243   3.406  11.643  1.00  0.00     0.259 C 
HETATM   38  O1  UNL     1      -0.137   2.222  11.939  1.00  0.00    -0.265 OA
BRANCH  37  39
HETATM   39  C3  UNL     1      -1.259   4.333  12.264  1.00  0.00     0.111 C 
BRANCH  39  40
HETATM   40  C2  UNL     1      -2.685   3.813  12.138  1.00  0.00     0.005 C 
HETATM   41  C1  UNL     1      -3.114   3.706  10.683  1.00  0.00     0.005 C 
ENDBRANCH  39  40
ENDBRANCH  37  39
ENDBRANCH  36  37
ENDBRANCH   1  36
TORSDOF 13
ENDMDL
MODEL 9
REMARK minimizedAffinity -5.19661713
REMARK CNNscore 0.36998105
REMARK CNNaffinity 6.25008535
REMARK  13 active torsions:
REMARK  status: ('A' for Active; 'I' for Inactive)
REMARK    1  A    between atoms: C2_2  and  C3_3 
REMARK    2  A    between atoms: C3_3  and  C4_4 
REMARK    3  A    between atoms: C4_4  and  O2_6 
REMARK    4  A    between atoms: O2_6  and  C5_7 
REMARK    5  A    between atoms: C7_9  and  C8_10 
REMARK    6  A    between atoms: C15_18  and  O4_20 
REMARK    7  A    between atoms: C17_21  and  O5_22 
REMARK    8  A    between atoms: C20_25  and  O6_27 
REMARK    9  A    between atoms: O6_27  and  C22_28 
REMARK   10  A    between atoms: C22_28  and  C23_30 
REMARK   11  A    between atoms: C23_30  and  C24_31 
REMARK   12  A    between atoms: C27_34  and  O8_36 
REMARK   13  A    between atoms: O8_36  and  C29_37 
ROOT
HETATM    1  C5  UNL     1     -11.928  -7.606   0.870  1.00  0.00     0.167 C 
HETATM    2  C6  UNL     1     -13.014  -7.763  -0.195  1.00  0.00     0.041 C 
HETATM    3  C7  UNL     1     -12.484  -8.089  -1.600  1.00  0.00    -0.002 C 
HETATM    4  C11 UNL     1     -10.984  -8.505  -1.695  1.00  0.00     0.032 C 
HETATM    5  C12 UNL     1     -10.096  -7.343  -2.218  1.00  0.00     0.161 C 
HETATM    6  O3  UNL     1      -8.862  -7.402  -1.507  1.00  0.00    -0.377 OA
HETATM    7  C13 UNL     1      -8.918  -8.305  -0.424  1.00  0.00     0.132 C 
HETATM    8  C14 UNL     1      -7.669  -9.213  -0.427  1.00  0.00     0.072 C 
HETATM    9  C15 UNL     1      -7.324 -10.182  -1.595  1.00  0.00     0.082 C 
HETATM   10  C16 UNL     1      -8.398 -11.234  -1.901  1.00  0.00     0.049 C 
HETATM   11  C17 UNL     1      -6.684  -9.536  -2.871  1.00  0.00     0.152 C 
HETATM   12  C18 UNL     1      -7.304  -8.327  -3.571  1.00  0.00     0.038 C 
HETATM   13  C19 UNL     1      -8.735  -8.469  -4.116  1.00  0.00     0.043 C 
HETATM   14  C20 UNL     1      -9.747  -7.332  -3.748  1.00  0.00     0.093 C 
HETATM   15  C21 UNL     1      -9.124  -5.979  -4.170  1.00  0.00     0.049 C 
HETATM   16  C26 UNL     1     -10.280  -9.007  -0.410  1.00  0.00     0.059 C 
HETATM   17  C27 UNL     1     -11.084  -8.901   0.933  1.00  0.00     0.100 C 
HETATM   18  C28 UNL     1     -10.160  -9.019   2.163  1.00  0.00     0.050 C 
ENDROOT
BRANCH  14  19
HETATM   19  O6  UNL     1     -10.906  -7.620  -4.589  1.00  0.00    -0.308 OA
BRANCH  19  20
HETATM   20  C22 UNL     1     -11.649  -6.623  -5.137  1.00  0.00     0.259 C 
HETATM   21  O7  UNL     1     -12.416  -5.891  -4.531  1.00  0.00    -0.265 OA
BRANCH  20  22
HETATM   22  C23 UNL     1     -11.412  -6.566  -6.629  1.00  0.00     0.111 C 
BRANCH  22  23
HETATM   23  C24 UNL     1     -11.211  -5.129  -7.097  1.00  0.00     0.005 C 
HETATM   24  C25 UNL     1     -12.310  -4.697  -8.054  1.00  0.00     0.005 C 
ENDBRANCH  22  23
ENDBRANCH  20  22
ENDBRANCH  19  20
ENDBRANCH  14  19
BRANCH   3  25
HETATM   25  C8  UNL     1     -13.412  -9.045  -2.413  1.00  0.00    -0.018 C 
HETATM   26  C9  UNL     1     -12.691 -10.223  -3.067  1.00  0.00     0.010 C 
HETATM   27  C10 UNL     1     -14.582  -9.561  -1.566  1.00  0.00     0.010 C 
ENDBRANCH   3  25
BRANCH  11  28
HETATM   28  O5  UNL     1      -6.470 -10.556  -3.863  1.00  0.00    -0.393 OA
HETATM   29  H29 UNL     1      -5.950 -11.242  -3.400  1.00  0.00     0.210 HD
ENDBRANCH  11  28
BRANCH  17  30
HETATM   30  O8  UNL     1     -11.937 -10.108   0.899  1.00  0.00    -0.308 OA
BRANCH  30  31
HETATM   31  C29 UNL     1     -11.895 -11.079   1.848  1.00  0.00     0.255 C 
HETATM   32  C30 UNL     1     -11.115 -12.258   1.347  1.00  0.00     0.126 C 
HETATM   33  O9  UNL     1     -12.412 -11.042   2.952  1.00  0.00    -0.266 OA
ENDBRANCH  30  31
ENDBRANCH  17  30
BRANCH   9  34
HETATM   34  O4  UNL     1      -6.219 -11.004  -1.082  1.00  0.00    -0.388 OA
HETATM   35  H27 UNL     1      -6.530 -11.469  -0.284  1.00  0.00     0.210 HD
ENDBRANCH   9  34
BRANCH   1  36
HETATM   36  O2  UNL     1     -12.613  -7.298   2.100  1.00  0.00    -0.313 OA
BRANCH  36  37
HETATM   37  C4  UNL     1     -11.997  -6.421   2.935  1.00  0.00     0.259 C 
HETATM   38  O1  UNL     1     -11.775  -6.624   4.122  1.00  0.00    -0.265 OA
BRANCH  37  39
HETATM   39  C3  UNL     1     -11.550  -5.180   2.203  1.00  0.00     0.111 C 
BRANCH  39  40
HETATM   40  C2  UNL     1     -11.856  -3.900   2.970  1.00  0.00     0.005 C 
HETATM   41  C1  UNL     1     -12.709  -4.176   4.199  1.00  0.00     0.005 C 
ENDBRANCH  39  40
ENDBRANCH  37  39
ENDBRANCH  36  37
ENDBRANCH   1  36
TORSDOF 13
ENDMDL
