MODEL 1
REMARK minimizedAffinity -9.50326824
REMARK CNNscore 0.67432338
REMARK CNNaffinity 7.48865843
REMARK  10 active torsions:
REMARK  status: ('A' for Active; 'I' for Inactive)
REMARK    1  A    between atoms: O1_2  and  C2_3 
REMARK    2  A    between atoms: C4_5  and  O2_6 
REMARK    3  A    between atoms: O2_6  and  C5_7 
REMARK    4  A    between atoms: C8_10  and  C9_11 
REMARK    5  A    between atoms: N1_12  and  C10_14 
REMARK    6  A    between atoms: C10_14  and  C11_15 
REMARK    7  A    between atoms: C21_27  and  C22_28 
REMARK    8  A    between atoms: C28_36  and  O5_37 
REMARK    9  A    between atoms: C32_41  and  O6_42 
REMARK   10  A    between atoms: C36_47  and  O8_48 
ROOT
HETATM    1  C5  UNL     1       0.227   8.014  12.429  1.00  0.00     0.127 C 
HETATM    2  C6  UNL     1      -0.918   8.909  11.933  1.00  0.00     0.033 C 
HETATM    3  C7  UNL     1      -1.895   9.532  12.936  1.00  0.00     0.021 C 
HETATM    4  C8  UNL     1      -1.739   9.175  14.444  1.00  0.00     0.026 C 
HETATM    5  C16 UNL     1      -2.399  10.356  15.281  1.00  0.00     0.009 C 
HETATM    6  C17 UNL     1      -3.556   9.981  16.225  1.00  0.00     0.007 C 
HETATM    7  C18 UNL     1      -4.267  11.236  16.747  1.00  0.00     0.013 C 
HETATM    8  C19 UNL     1      -3.322  12.201  17.510  1.00  0.00    -0.005 C 
HETATM    9  C20 UNL     1      -3.001  11.602  18.901  1.00  0.00     0.019 C 
HETATM   10  C21 UNL     1      -3.926  13.636  17.641  1.00  0.00     0.028 C 
HETATM   11  C26 UNL     1      -3.706  14.262  16.252  1.00  0.00     0.013 C 
HETATM   12  C27 UNL     1      -2.468  13.574  15.659  1.00  0.00     0.040 C 
HETATM   13  C28 UNL     1      -2.034  12.500  16.680  1.00  0.00     0.070 C 
HETATM   14  C29 UNL     1      -1.377  11.231  16.060  1.00  0.00     0.026 C 
HETATM   15  C30 UNL     1      -0.160  11.543  15.174  1.00  0.00     0.011 C 
HETATM   16  C31 UNL     1       0.549  10.299  14.624  1.00  0.00     0.039 C 
HETATM   17  C32 UNL     1      -0.242   8.986  14.778  1.00  0.00     0.073 C 
HETATM   18  C33 UNL     1       0.376   7.859  13.940  1.00  0.00     0.071 C 
ENDROOT
BRANCH   1  19
HETATM   19  O2  UNL     1       1.436   8.594  11.909  1.00  0.00    -0.356 OA
BRANCH  19  20
HETATM   20  C4  UNL     1       2.083   7.809  10.899  1.00  0.00     0.263 C 
HETATM   21  C3  UNL     1       2.460   6.469  11.546  1.00  0.00     0.095 C 
HETATM   22  C2  UNL     1       2.728   5.362  10.520  1.00  0.00     0.156 C 
HETATM   23  C36 UNL     1       3.056   5.993   9.155  1.00  0.00     0.175 C 
HETATM   24  C34 UNL     1       1.871   6.872   8.698  1.00  0.00     0.151 C 
HETATM   25  O7  UNL     1       1.254   7.612   9.768  1.00  0.00    -0.354 OA
HETATM   26  C35 UNL     1       2.297   7.862   7.609  1.00  0.00     0.042 C 
BRANCH  22  27
HETATM   27  O1  UNL     1       1.544   4.554  10.457  1.00  0.00    -0.388 OA
HETATM   28  C1  UNL     1       0.804   4.544  11.672  1.00  0.00     0.202 C 
ENDBRANCH  22  27
BRANCH  23  29
HETATM   29  O8  UNL     1       3.399   4.999   8.190  1.00  0.00    -0.390 OA
HETATM   30  H50 UNL     1       3.784   5.436   7.410  1.00  0.00     0.210 HD
ENDBRANCH  23  29
ENDBRANCH  19  20
ENDBRANCH   1  19
BRANCH  17  31
HETATM   31  O6  UNL     1      -0.122   8.576  16.155  1.00  0.00    -0.389 OA
HETATM   32  H42 UNL     1       0.820   8.377  16.327  1.00  0.00     0.210 HD
ENDBRANCH  17  31
BRANCH   4  33
HETATM   33  C9  UNL     1      -2.448   7.848  14.757  1.00  0.00     0.069 C 
HETATM   34  N1  UNL     1      -3.153   7.215  13.886  1.00  0.00    -0.397 N 
ATOM     35  H1  UNL     1      -3.275   7.549  12.930  1.00  0.00     0.159 HD
BRANCH  34  36
HETATM   36  C10 UNL     1      -3.770   5.973  14.376  1.00  0.00     0.158 C 
BRANCH  36  37
HETATM   37  C11 UNL     1      -4.049   5.029  13.243  1.00  0.00    -0.025 A 
HETATM   38  C12 UNL     1      -5.318   4.458  13.085  1.00  0.00     0.011 A 
HETATM   39  C13 UNL     1      -5.561   3.597  12.023  1.00  0.00     0.018 A 
HETATM   40  C14 UNL     1      -4.517   3.317  11.152  1.00  0.00     0.087 A 
HETATM   41  N2  UNL     1      -3.283   3.852  11.268  1.00  0.00    -0.375 N 
HETATM   42  C15 UNL     1      -3.083   4.702  12.301  1.00  0.00     0.096 A 
ATOM     43  H2  UNL     1      -2.539   3.626  10.609  1.00  0.00     0.164 HD
ENDBRANCH  36  37
ENDBRANCH  34  36
ENDBRANCH   4  33
BRANCH  13  44
HETATM   44  O5  UNL     1      -1.084  13.125  17.558  1.00  0.00    -0.389 OA
HETATM   45  H36 UNL     1      -0.317  13.433  17.046  1.00  0.00     0.210 HD
ENDBRANCH  13  44
BRANCH  10  46
HETATM   46  C22 UNL     1      -5.326  13.741  18.180  1.00  0.00    -0.045 A 
HETATM   47  C23 UNL     1      -5.776  13.594  19.424  1.00  0.00     0.087 A 
HETATM   48  C24 UNL     1      -7.234  13.708  19.375  1.00  0.00     0.283 A 
HETATM   49  O3  UNL     1      -7.972  13.601  20.343  1.00  0.00    -0.260 OA
HETATM   50  O4  UNL     1      -7.626  13.928  18.095  1.00  0.00    -0.314 OA
HETATM   51  C25 UNL     1      -6.468  13.986  17.256  1.00  0.00     0.213 A 
ENDBRANCH  10  46
TORSDOF 10
ENDMDL
MODEL 2
REMARK minimizedAffinity -9.46524525
REMARK CNNscore 0.428304911
REMARK CNNaffinity 6.85785437
REMARK  10 active torsions:
REMARK  status: ('A' for Active; 'I' for Inactive)
REMARK    1  A    between atoms: O1_2  and  C2_3 
REMARK    2  A    between atoms: C4_5  and  O2_6 
REMARK    3  A    between atoms: O2_6  and  C5_7 
REMARK    4  A    between atoms: C8_10  and  C9_11 
REMARK    5  A    between atoms: N1_12  and  C10_14 
REMARK    6  A    between atoms: C10_14  and  C11_15 
REMARK    7  A    between atoms: C21_27  and  C22_28 
REMARK    8  A    between atoms: C28_36  and  O5_37 
REMARK    9  A    between atoms: C32_41  and  O6_42 
REMARK   10  A    between atoms: C36_47  and  O8_48 
ROOT
HETATM    1  C5  UNL     1      -0.444   6.680  12.509  1.00  0.00     0.127 C 
HETATM    2  C6  UNL     1      -0.988   8.047  12.069  1.00  0.00     0.033 C 
HETATM    3  C7  UNL     1      -1.827   8.887  13.037  1.00  0.00     0.021 C 
HETATM    4  C8  UNL     1      -2.171   8.289  14.434  1.00  0.00     0.026 C 
HETATM    5  C16 UNL     1      -2.467   9.509  15.412  1.00  0.00     0.009 C 
HETATM    6  C17 UNL     1      -3.856   9.552  16.075  1.00  0.00     0.007 C 
HETATM    7  C18 UNL     1      -4.096  10.904  16.757  1.00  0.00     0.013 C 
HETATM    8  C19 UNL     1      -3.039  11.237  17.843  1.00  0.00    -0.005 C 
HETATM    9  C20 UNL     1      -3.307  10.368  19.096  1.00  0.00     0.019 C 
HETATM   10  C21 UNL     1      -3.025  12.756  18.205  1.00  0.00     0.028 C 
HETATM   11  C26 UNL     1      -2.267  13.412  17.036  1.00  0.00     0.013 C 
HETATM   12  C27 UNL     1      -1.314  12.341  16.486  1.00  0.00     0.040 C 
HETATM   13  C28 UNL     1      -1.590  11.053  17.291  1.00  0.00     0.070 C 
HETATM   14  C29 UNL     1      -1.381   9.726  16.503  1.00  0.00     0.026 C 
HETATM   15  C30 UNL     1       0.023   9.593  15.890  1.00  0.00     0.011 C 
HETATM   16  C31 UNL     1       0.272   8.256  15.183  1.00  0.00     0.039 C 
HETATM   17  C32 UNL     1      -0.994   7.416  14.926  1.00  0.00     0.073 C 
HETATM   18  C33 UNL     1      -0.713   6.263  13.953  1.00  0.00     0.071 C 
ENDROOT
BRANCH   1  19
HETATM   19  O2  UNL     1       0.978   6.737  12.309  1.00  0.00    -0.356 OA
BRANCH  19  20
HETATM   20  C4  UNL     1       1.381   7.401  11.104  1.00  0.00     0.263 C 
HETATM   21  C3  UNL     1       2.896   7.197  10.964  1.00  0.00     0.095 C 
HETATM   22  C2  UNL     1       3.403   7.429   9.536  1.00  0.00     0.156 C 
HETATM   23  C36 UNL     1       2.388   8.289   8.762  1.00  0.00     0.175 C 
HETATM   24  C34 UNL     1       1.021   7.570   8.735  1.00  0.00     0.151 C 
HETATM   25  O7  UNL     1       0.694   6.904   9.969  1.00  0.00    -0.354 OA
HETATM   26  C35 UNL     1      -0.115   8.541   8.394  1.00  0.00     0.042 C 
BRANCH  22  27
HETATM   27  O1  UNL     1       3.566   6.136   8.934  1.00  0.00    -0.388 OA
HETATM   28  C1  UNL     1       3.850   5.109   9.877  1.00  0.00     0.202 C 
ENDBRANCH  22  27
BRANCH  23  29
HETATM   29  O8  UNL     1       2.861   8.603   7.453  1.00  0.00    -0.390 OA
HETATM   30  H50 UNL     1       2.296   9.297   7.071  1.00  0.00     0.210 HD
ENDBRANCH  23  29
ENDBRANCH  19  20
ENDBRANCH   1  19
BRANCH  17  31
HETATM   31  O6  UNL     1      -1.361   6.806  16.179  1.00  0.00    -0.389 OA
HETATM   32  H42 UNL     1      -0.644   6.191  16.434  1.00  0.00     0.210 HD
ENDBRANCH  17  31
BRANCH   4  33
HETATM   33  C9  UNL     1      -3.405   7.380  14.339  1.00  0.00     0.069 C 
HETATM   34  N1  UNL     1      -4.141   7.097  15.357  1.00  0.00    -0.397 N 
ATOM     35  H1  UNL     1      -3.957   7.470  16.288  1.00  0.00     0.159 HD
BRANCH  34  36
HETATM   36  C10 UNL     1      -5.267   6.196  15.072  1.00  0.00     0.158 C 
BRANCH  36  37
HETATM   37  C11 UNL     1      -6.578   6.865  15.370  1.00  0.00    -0.025 A 
HETATM   38  C12 UNL     1      -6.807   8.192  14.988  1.00  0.00     0.011 A 
HETATM   39  C13 UNL     1      -8.031   8.789  15.260  1.00  0.00     0.018 A 
HETATM   40  C14 UNL     1      -8.992   8.042  15.927  1.00  0.00     0.087 A 
HETATM   41  N2  UNL     1      -8.811   6.759  16.306  1.00  0.00    -0.375 N 
HETATM   42  C15 UNL     1      -7.616   6.199  16.009  1.00  0.00     0.096 A 
ATOM     43  H2  UNL     1      -9.540   6.238  16.793  1.00  0.00     0.164 HD
ENDBRANCH  36  37
ENDBRANCH  34  36
ENDBRANCH   4  33
BRANCH  13  44
HETATM   44  O5  UNL     1      -0.692  11.066  18.413  1.00  0.00    -0.389 OA
HETATM   45  H36 UNL     1       0.228  11.075  18.096  1.00  0.00     0.210 HD
ENDBRANCH  13  44
BRANCH  10  46
HETATM   46  C22 UNL     1      -4.345  13.389  18.550  1.00  0.00    -0.045 A 
HETATM   47  C23 UNL     1      -5.100  14.230  17.848  1.00  0.00     0.087 A 
HETATM   48  C24 UNL     1      -6.234  14.607  18.692  1.00  0.00     0.283 A 
HETATM   49  O3  UNL     1      -7.116  15.386  18.364  1.00  0.00    -0.260 OA
HETATM   50  O4  UNL     1      -6.134  13.974  19.888  1.00  0.00    -0.314 OA
HETATM   51  C25 UNL     1      -4.963  13.152  19.884  1.00  0.00     0.213 A 
ENDBRANCH  10  46
TORSDOF 10
ENDMDL
MODEL 3
REMARK minimizedAffinity -11.1293983
REMARK CNNscore 0.394657135
REMARK CNNaffinity 7.64518118
REMARK  10 active torsions:
REMARK  status: ('A' for Active; 'I' for Inactive)
REMARK    1  A    between atoms: O1_2  and  C2_3 
REMARK    2  A    between atoms: C4_5  and  O2_6 
REMARK    3  A    between atoms: O2_6  and  C5_7 
REMARK    4  A    between atoms: C8_10  and  C9_11 
REMARK    5  A    between atoms: N1_12  and  C10_14 
REMARK    6  A    between atoms: C10_14  and  C11_15 
REMARK    7  A    between atoms: C21_27  and  C22_28 
REMARK    8  A    between atoms: C28_36  and  O5_37 
REMARK    9  A    between atoms: C32_41  and  O6_42 
REMARK   10  A    between atoms: C36_47  and  O8_48 
ROOT
HETATM    1  C5  UNL     1      -4.910   6.386  14.747  1.00  0.00     0.127 C 
HETATM    2  C6  UNL     1      -5.362   7.394  13.680  1.00  0.00     0.033 C 
HETATM    3  C7  UNL     1      -6.837   7.472  13.274  1.00  0.00     0.021 C 
HETATM    4  C8  UNL     1      -7.838   6.463  13.912  1.00  0.00     0.026 C 
HETATM    5  C16 UNL     1      -9.286   7.117  13.833  1.00  0.00     0.009 C 
HETATM    6  C17 UNL     1     -10.365   6.335  13.061  1.00  0.00     0.007 C 
HETATM    7  C18 UNL     1     -11.611   7.200  12.832  1.00  0.00     0.013 C 
HETATM    8  C19 UNL     1     -12.246   7.717  14.149  1.00  0.00    -0.005 C 
HETATM    9  C20 UNL     1     -12.981   6.549  14.851  1.00  0.00     0.019 C 
HETATM   10  C21 UNL     1     -13.209   8.923  13.905  1.00  0.00     0.028 C 
HETATM   11  C26 UNL     1     -12.265  10.121  13.701  1.00  0.00     0.013 C 
HETATM   12  C27 UNL     1     -10.985   9.799  14.486  1.00  0.00     0.040 C 
HETATM   13  C28 UNL     1     -11.173   8.381  15.068  1.00  0.00     0.070 C 
HETATM   14  C29 UNL     1      -9.864   7.549  15.209  1.00  0.00     0.026 C 
HETATM   15  C30 UNL     1      -8.780   8.250  16.045  1.00  0.00     0.011 C 
HETATM   16  C31 UNL     1      -7.518   7.408  16.264  1.00  0.00     0.039 C 
HETATM   17  C32 UNL     1      -7.410   6.161  15.366  1.00  0.00     0.073 C 
HETATM   18  C33 UNL     1      -6.002   5.554  15.415  1.00  0.00     0.071 C 
ENDROOT
BRANCH   1  19
HETATM   19  O2  UNL     1      -4.240   7.156  15.759  1.00  0.00    -0.356 OA
BRANCH  19  20
HETATM   20  C4  UNL     1      -3.222   8.033  15.259  1.00  0.00     0.263 C 
HETATM   21  C3  UNL     1      -2.246   8.293  16.414  1.00  0.00     0.095 C 
HETATM   22  C2  UNL     1      -0.883   8.814  15.943  1.00  0.00     0.156 C 
HETATM   23  C36 UNL     1      -1.022   9.421  14.536  1.00  0.00     0.175 C 
HETATM   24  C34 UNL     1      -1.551   8.345  13.562  1.00  0.00     0.151 C 
HETATM   25  O7  UNL     1      -2.551   7.484  14.140  1.00  0.00    -0.354 OA
HETATM   26  C35 UNL     1      -2.131   8.976  12.293  1.00  0.00     0.042 C 
BRANCH  22  27
HETATM   27  O1  UNL     1       0.017   7.696  15.949  1.00  0.00    -0.388 OA
HETATM   28  C1  UNL     1       1.354   8.052  16.280  1.00  0.00     0.202 C 
ENDBRANCH  22  27
BRANCH  23  29
HETATM   29  O8  UNL     1       0.205   9.997  14.093  1.00  0.00    -0.390 OA
HETATM   30  H50 UNL     1       0.034  10.535  13.300  1.00  0.00     0.210 HD
ENDBRANCH  23  29
ENDBRANCH  19  20
ENDBRANCH   1  19
BRANCH  17  31
HETATM   31  O6  UNL     1      -8.298   5.165  15.912  1.00  0.00    -0.389 OA
HETATM   32  H42 UNL     1      -7.964   4.922  16.800  1.00  0.00     0.210 HD
ENDBRANCH  17  31
BRANCH   4  33
HETATM   33  C9  UNL     1      -7.819   5.132  13.144  1.00  0.00     0.069 C 
HETATM   34  N1  UNL     1      -8.044   3.999  13.712  1.00  0.00    -0.397 N 
ATOM     35  H1  UNL     1      -8.261   3.915  14.705  1.00  0.00     0.159 HD
BRANCH  34  36
HETATM   36  C10 UNL     1      -7.965   2.834  12.818  1.00  0.00     0.158 C 
BRANCH  36  37
HETATM   37  C11 UNL     1      -6.562   2.636  12.319  1.00  0.00    -0.025 A 
HETATM   38  C12 UNL     1      -5.566   3.582  12.592  1.00  0.00     0.011 A 
HETATM   39  C13 UNL     1      -4.272   3.374  12.133  1.00  0.00     0.018 A 
HETATM   40  C14 UNL     1      -4.012   2.227  11.397  1.00  0.00     0.087 A 
HETATM   41  N2  UNL     1      -4.943   1.290  11.120  1.00  0.00    -0.375 N 
HETATM   42  C15 UNL     1      -6.189   1.510  11.596  1.00  0.00     0.096 A 
ATOM     43  H2  UNL     1      -4.718   0.456  10.577  1.00  0.00     0.164 HD
ENDBRANCH  36  37
ENDBRANCH  34  36
ENDBRANCH   4  33
BRANCH  13  44
HETATM   44  O5  UNL     1     -11.755   8.544  16.371  1.00  0.00    -0.389 OA
HETATM   45  H36 UNL     1     -11.157   9.064  16.936  1.00  0.00     0.210 HD
ENDBRANCH  13  44
BRANCH  10  46
HETATM   46  C22 UNL     1     -14.266   8.750  12.848  1.00  0.00    -0.045 A 
HETATM   47  C23 UNL     1     -14.944   9.664  12.160  1.00  0.00     0.087 A 
HETATM   48  C24 UNL     1     -15.916   8.952  11.329  1.00  0.00     0.283 A 
HETATM   49  O3  UNL     1     -16.720   9.491  10.584  1.00  0.00    -0.260 OA
HETATM   50  O4  UNL     1     -15.794   7.617  11.538  1.00  0.00    -0.314 OA
HETATM   51  C25 UNL     1     -14.744   7.387  12.483  1.00  0.00     0.213 A 
ENDBRANCH  10  46
TORSDOF 10
ENDMDL
MODEL 4
REMARK minimizedAffinity -11.3795633
REMARK CNNscore 0.379605919
REMARK CNNaffinity 7.86767769
REMARK  10 active torsions:
REMARK  status: ('A' for Active; 'I' for Inactive)
REMARK    1  A    between atoms: O1_2  and  C2_3 
REMARK    2  A    between atoms: C4_5  and  O2_6 
REMARK    3  A    between atoms: O2_6  and  C5_7 
REMARK    4  A    between atoms: C8_10  and  C9_11 
REMARK    5  A    between atoms: N1_12  and  C10_14 
REMARK    6  A    between atoms: C10_14  and  C11_15 
REMARK    7  A    between atoms: C21_27  and  C22_28 
REMARK    8  A    between atoms: C28_36  and  O5_37 
REMARK    9  A    between atoms: C32_41  and  O6_42 
REMARK   10  A    between atoms: C36_47  and  O8_48 
ROOT
HETATM    1  C5  UNL     1      -4.994   6.416  14.787  1.00  0.00     0.127 C 
HETATM    2  C6  UNL     1      -5.440   7.429  13.722  1.00  0.00     0.033 C 
HETATM    3  C7  UNL     1      -6.912   7.503  13.304  1.00  0.00     0.021 C 
HETATM    4  C8  UNL     1      -7.914   6.485  13.926  1.00  0.00     0.026 C 
HETATM    5  C16 UNL     1      -9.364   7.134  13.838  1.00  0.00     0.009 C 
HETATM    6  C17 UNL     1     -10.433   6.351  13.053  1.00  0.00     0.007 C 
HETATM    7  C18 UNL     1     -11.680   7.212  12.818  1.00  0.00     0.013 C 
HETATM    8  C19 UNL     1     -12.330   7.718  14.133  1.00  0.00    -0.005 C 
HETATM    9  C20 UNL     1     -13.066   6.542  14.821  1.00  0.00     0.019 C 
HETATM   10  C21 UNL     1     -13.296   8.921  13.887  1.00  0.00     0.028 C 
HETATM   11  C26 UNL     1     -12.355  10.124  13.700  1.00  0.00     0.013 C 
HETATM   12  C27 UNL     1     -11.081   9.804  14.494  1.00  0.00     0.040 C 
HETATM   13  C28 UNL     1     -11.268   8.381  15.065  1.00  0.00     0.070 C 
HETATM   14  C29 UNL     1      -9.956   7.553  15.212  1.00  0.00     0.026 C 
HETATM   15  C30 UNL     1      -8.883   8.254  16.063  1.00  0.00     0.011 C 
HETATM   16  C31 UNL     1      -7.619   7.417  16.287  1.00  0.00     0.039 C 
HETATM   17  C32 UNL     1      -7.498   6.176  15.382  1.00  0.00     0.073 C 
HETATM   18  C33 UNL     1      -6.087   5.575  15.440  1.00  0.00     0.071 C 
ENDROOT
BRANCH   1  19
HETATM   19  O2  UNL     1      -4.335   7.182  15.810  1.00  0.00    -0.356 OA
BRANCH  19  20
HETATM   20  C4  UNL     1      -2.904   7.100  15.783  1.00  0.00     0.263 C 
HETATM   21  C3  UNL     1      -2.542   5.839  14.986  1.00  0.00     0.095 C 
HETATM   22  C2  UNL     1      -1.099   5.848  14.471  1.00  0.00     0.156 C 
HETATM   23  C36 UNL     1      -0.261   6.835  15.303  1.00  0.00     0.175 C 
HETATM   24  C34 UNL     1      -0.876   8.247  15.198  1.00  0.00     0.151 C 
HETATM   25  O7  UNL     1      -2.317   8.252  15.206  1.00  0.00    -0.354 OA
HETATM   26  C35 UNL     1      -0.385   9.157  16.329  1.00  0.00     0.042 C 
BRANCH  22  27
HETATM   27  O1  UNL     1      -1.150   6.234  13.090  1.00  0.00    -0.388 OA
HETATM   28  C1  UNL     1      -0.981   5.141  12.193  1.00  0.00     0.202 C 
ENDBRANCH  22  27
BRANCH  23  29
HETATM   29  O8  UNL     1       1.111   6.811  14.914  1.00  0.00    -0.390 OA
HETATM   30  H50 UNL     1       1.637   7.291  15.579  1.00  0.00     0.210 HD
ENDBRANCH  23  29
ENDBRANCH  19  20
ENDBRANCH   1  19
BRANCH  17  31
HETATM   31  O6  UNL     1      -8.385   5.172  15.914  1.00  0.00    -0.389 OA
HETATM   32  H42 UNL     1      -8.058   4.925  16.803  1.00  0.00     0.210 HD
ENDBRANCH  17  31
BRANCH   4  33
HETATM   33  C9  UNL     1      -7.882   5.160  13.150  1.00  0.00     0.069 C 
HETATM   34  N1  UNL     1      -8.107   4.022  13.709  1.00  0.00    -0.397 N 
ATOM     35  H1  UNL     1      -8.332   3.931  14.700  1.00  0.00     0.159 HD
BRANCH  34  36
HETATM   36  C10 UNL     1      -8.014   2.863  12.808  1.00  0.00     0.158 C 
BRANCH  36  37
HETATM   37  C11 UNL     1      -6.602   2.663  12.335  1.00  0.00    -0.025 A 
HETATM   38  C12 UNL     1      -5.613   3.614  12.615  1.00  0.00     0.011 A 
HETATM   39  C13 UNL     1      -4.311   3.404  12.181  1.00  0.00     0.018 A 
HETATM   40  C14 UNL     1      -4.036   2.251  11.461  1.00  0.00     0.087 A 
HETATM   41  N2  UNL     1      -4.961   1.309  11.177  1.00  0.00    -0.375 N 
HETATM   42  C15 UNL     1      -6.215   1.531  11.629  1.00  0.00     0.096 A 
ATOM     43  H2  UNL     1      -4.724   0.471  10.646  1.00  0.00     0.164 HD
ENDBRANCH  36  37
ENDBRANCH  34  36
ENDBRANCH   4  33
BRANCH  13  44
HETATM   44  O5  UNL     1     -11.862   8.533  16.364  1.00  0.00    -0.389 OA
HETATM   45  H36 UNL     1     -11.271   9.051  16.937  1.00  0.00     0.210 HD
ENDBRANCH  13  44
BRANCH  10  46
HETATM   46  C22 UNL     1     -14.342   8.750  12.820  1.00  0.00    -0.045 A 
HETATM   47  C23 UNL     1     -15.011   9.666  12.124  1.00  0.00     0.087 A 
HETATM   48  C24 UNL     1     -15.977   8.956  11.284  1.00  0.00     0.283 A 
HETATM   49  O3  UNL     1     -16.771   9.496  10.531  1.00  0.00    -0.260 OA
HETATM   50  O4  UNL     1     -15.861   7.620  11.496  1.00  0.00    -0.314 OA
HETATM   51  C25 UNL     1     -14.821   7.388  12.452  1.00  0.00     0.213 A 
ENDBRANCH  10  46
TORSDOF 10
ENDMDL
MODEL 5
REMARK minimizedAffinity -8.96432304
REMARK CNNscore 0.260377675
REMARK CNNaffinity 6.85342598
REMARK  10 active torsions:
REMARK  status: ('A' for Active; 'I' for Inactive)
REMARK    1  A    between atoms: O1_2  and  C2_3 
REMARK    2  A    between atoms: C4_5  and  O2_6 
REMARK    3  A    between atoms: O2_6  and  C5_7 
REMARK    4  A    between atoms: C8_10  and  C9_11 
REMARK    5  A    between atoms: N1_12  and  C10_14 
REMARK    6  A    between atoms: C10_14  and  C11_15 
REMARK    7  A    between atoms: C21_27  and  C22_28 
REMARK    8  A    between atoms: C28_36  and  O5_37 
REMARK    9  A    between atoms: C32_41  and  O6_42 
REMARK   10  A    between atoms: C36_47  and  O8_48 
ROOT
HETATM    1  C5  UNL     1      -3.774   7.919  14.819  1.00  0.00     0.127 C 
HETATM    2  C6  UNL     1      -2.680   7.224  15.642  1.00  0.00     0.033 C 
HETATM    3  C7  UNL     1      -1.457   8.016  16.117  1.00  0.00     0.021 C 
HETATM    4  C8  UNL     1      -1.324   9.506  15.685  1.00  0.00     0.026 C 
HETATM    5  C16 UNL     1      -0.391  10.227  16.753  1.00  0.00     0.009 C 
HETATM    6  C17 UNL     1       0.899  10.882  16.225  1.00  0.00     0.007 C 
HETATM    7  C18 UNL     1       1.821  11.288  17.382  1.00  0.00     0.013 C 
HETATM    8  C19 UNL     1       1.156  12.276  18.376  1.00  0.00    -0.005 C 
HETATM    9  C20 UNL     1       1.081  13.678  17.724  1.00  0.00     0.019 C 
HETATM   10  C21 UNL     1       1.909  12.331  19.744  1.00  0.00     0.028 C 
HETATM   11  C26 UNL     1       1.461  11.049  20.469  1.00  0.00     0.013 C 
HETATM   12  C27 UNL     1       0.066  10.711  19.926  1.00  0.00     0.040 C 
HETATM   13  C28 UNL     1      -0.243  11.757  18.833  1.00  0.00     0.070 C 
HETATM   14  C29 UNL     1      -1.135  11.243  17.663  1.00  0.00     0.026 C 
HETATM   15  C30 UNL     1      -2.477  10.655  18.131  1.00  0.00     0.011 C 
HETATM   16  C31 UNL     1      -3.402  10.222  16.987  1.00  0.00     0.039 C 
HETATM   17  C32 UNL     1      -2.727  10.148  15.604  1.00  0.00     0.073 C 
HETATM   18  C33 UNL     1      -3.613   9.419  14.586  1.00  0.00     0.071 C 
ENDROOT
BRANCH   1  19
HETATM   19  O2  UNL     1      -5.004   7.698  15.530  1.00  0.00    -0.356 OA
BRANCH  19  20
HETATM   20  C4  UNL     1      -5.721   6.526  15.121  1.00  0.00     0.263 C 
HETATM   21  C3  UNL     1      -7.157   6.673  15.644  1.00  0.00     0.095 C 
HETATM   22  C2  UNL     1      -8.156   5.764  14.920  1.00  0.00     0.156 C 
HETATM   23  C36 UNL     1      -7.403   4.601  14.249  1.00  0.00     0.175 C 
HETATM   24  C34 UNL     1      -6.371   5.167  13.249  1.00  0.00     0.151 C 
HETATM   25  O7  UNL     1      -5.707   6.358  13.715  1.00  0.00    -0.354 OA
HETATM   26  C35 UNL     1      -5.303   4.126  12.897  1.00  0.00     0.042 C 
BRANCH  22  27
HETATM   27  O1  UNL     1      -8.839   6.576  13.955  1.00  0.00    -0.388 OA
HETATM   28  C1  UNL     1      -9.891   7.354  14.516  1.00  0.00     0.202 C 
ENDBRANCH  22  27
BRANCH  23  29
HETATM   29  O8  UNL     1      -8.303   3.680  13.637  1.00  0.00    -0.390 OA
HETATM   30  H50 UNL     1      -7.816   2.872  13.398  1.00  0.00     0.210 HD
ENDBRANCH  23  29
ENDBRANCH  19  20
ENDBRANCH   1  19
BRANCH  17  31
HETATM   31  O6  UNL     1      -2.590  11.501  15.124  1.00  0.00    -0.389 OA
HETATM   32  H42 UNL     1      -3.490  11.865  14.997  1.00  0.00     0.210 HD
ENDBRANCH  17  31
BRANCH   4  33
HETATM   33  C9  UNL     1      -0.695   9.604  14.287  1.00  0.00     0.069 C 
HETATM   34  N1  UNL     1      -0.092   8.615  13.725  1.00  0.00    -0.397 N 
ATOM     35  H1  UNL     1      -0.006   7.701  14.168  1.00  0.00     0.159 HD
BRANCH  34  36
HETATM   36  C10 UNL     1       0.461   8.906  12.393  1.00  0.00     0.158 C 
BRANCH  36  37
HETATM   37  C11 UNL     1       1.138   7.695  11.817  1.00  0.00    -0.025 A 
HETATM   38  C12 UNL     1       0.526   6.949  10.803  1.00  0.00     0.011 A 
HETATM   39  C13 UNL     1       1.173   5.840  10.274  1.00  0.00     0.018 A 
HETATM   40  C14 UNL     1       2.415   5.498  10.788  1.00  0.00     0.087 A 
HETATM   41  N2  UNL     1       3.040   6.195  11.761  1.00  0.00    -0.375 N 
HETATM   42  C15 UNL     1       2.393   7.281  12.243  1.00  0.00     0.096 A 
ATOM     43  H2  UNL     1       3.954   5.917  12.116  1.00  0.00     0.164 HD
ENDBRANCH  36  37
ENDBRANCH  34  36
ENDBRANCH   4  33
BRANCH  13  44
HETATM   44  O5  UNL     1      -0.921  12.845  19.482  1.00  0.00    -0.389 OA
HETATM   45  H36 UNL     1      -1.746  12.524  19.885  1.00  0.00     0.210 HD
ENDBRANCH  13  44
BRANCH  10  46
HETATM   46  C22 UNL     1       3.395  12.558  19.697  1.00  0.00    -0.045 A 
HETATM   47  C23 UNL     1       4.396  11.682  19.743  1.00  0.00     0.087 A 
HETATM   48  C24 UNL     1       5.644  12.446  19.757  1.00  0.00     0.283 A 
HETATM   49  O3  UNL     1       6.760  11.953  19.818  1.00  0.00    -0.260 OA
HETATM   50  O4  UNL     1       5.360  13.773  19.716  1.00  0.00    -0.314 OA
HETATM   51  C25 UNL     1       3.940  13.944  19.654  1.00  0.00     0.213 A 
ENDBRANCH  10  46
TORSDOF 10
ENDMDL
MODEL 6
REMARK minimizedAffinity -8.8743906
REMARK CNNscore 0.25559029
REMARK CNNaffinity 7.2659812
REMARK  10 active torsions:
REMARK  status: ('A' for Active; 'I' for Inactive)
REMARK    1  A    between atoms: O1_2  and  C2_3 
REMARK    2  A    between atoms: C4_5  and  O2_6 
REMARK    3  A    between atoms: O2_6  and  C5_7 
REMARK    4  A    between atoms: C8_10  and  C9_11 
REMARK    5  A    between atoms: N1_12  and  C10_14 
REMARK    6  A    between atoms: C10_14  and  C11_15 
REMARK    7  A    between atoms: C21_27  and  C22_28 
REMARK    8  A    between atoms: C28_36  and  O5_37 
REMARK    9  A    between atoms: C32_41  and  O6_42 
REMARK   10  A    between atoms: C36_47  and  O8_48 
ROOT
HETATM    1  C5  UNL     1      -7.369   4.902  13.480  1.00  0.00     0.127 C 
HETATM    2  C6  UNL     1      -6.772   5.933  12.511  1.00  0.00     0.033 C 
HETATM    3  C7  UNL     1      -6.108   7.202  13.055  1.00  0.00     0.021 C 
HETATM    4  C8  UNL     1      -6.121   7.447  14.593  1.00  0.00     0.026 C 
HETATM    5  C16 UNL     1      -4.903   8.414  14.930  1.00  0.00     0.009 C 
HETATM    6  C17 UNL     1      -5.242   9.754  15.609  1.00  0.00     0.007 C 
HETATM    7  C18 UNL     1      -4.024  10.686  15.619  1.00  0.00     0.013 C 
HETATM    8  C19 UNL     1      -2.796  10.080  16.347  1.00  0.00    -0.005 C 
HETATM    9  C20 UNL     1      -3.044  10.113  17.875  1.00  0.00     0.019 C 
HETATM   10  C21 UNL     1      -1.469  10.816  15.976  1.00  0.00     0.028 C 
HETATM   11  C26 UNL     1      -1.115  10.268  14.581  1.00  0.00     0.013 C 
HETATM   12  C27 UNL     1      -1.721   8.860  14.504  1.00  0.00     0.040 C 
HETATM   13  C28 UNL     1      -2.488   8.640  15.826  1.00  0.00     0.070 C 
HETATM   14  C29 UNL     1      -3.748   7.730  15.713  1.00  0.00     0.026 C 
HETATM   15  C30 UNL     1      -3.449   6.344  15.118  1.00  0.00     0.011 C 
HETATM   16  C31 UNL     1      -4.661   5.406  15.079  1.00  0.00     0.039 C 
HETATM   17  C32 UNL     1      -6.017   6.093  15.333  1.00  0.00     0.073 C 
HETATM   18  C33 UNL     1      -7.189   5.172  14.971  1.00  0.00     0.071 C 
ENDROOT
BRANCH   1  19
HETATM   19  O2  UNL     1      -6.738   3.650  13.164  1.00  0.00    -0.356 OA
BRANCH  19  20
HETATM   20  C4  UNL     1      -5.777   3.723  12.102  1.00  0.00     0.263 C 
HETATM   21  C3  UNL     1      -4.405   3.413  12.717  1.00  0.00     0.095 C 
HETATM   22  C2  UNL     1      -3.360   2.996  11.675  1.00  0.00     0.156 C 
HETATM   23  C36 UNL     1      -3.795   3.490  10.284  1.00  0.00     0.175 C 
HETATM   24  C34 UNL     1      -5.173   2.888   9.932  1.00  0.00     0.151 C 
HETATM   25  O7  UNL     1      -6.078   2.823  11.051  1.00  0.00    -0.354 OA
HETATM   26  C35 UNL     1      -5.855   3.672   8.806  1.00  0.00     0.042 C 
BRANCH  22  27
HETATM   27  O1  UNL     1      -3.271   1.564  11.722  1.00  0.00    -0.388 OA
HETATM   28  C1  UNL     1      -1.989   1.068  11.354  1.00  0.00     0.202 C 
ENDBRANCH  22  27
BRANCH  23  29
HETATM   29  O8  UNL     1      -2.808   3.200   9.296  1.00  0.00    -0.390 OA
HETATM   30  H50 UNL     1      -3.021   3.690   8.482  1.00  0.00     0.210 HD
ENDBRANCH  23  29
ENDBRANCH  19  20
ENDBRANCH   1  19
BRANCH  17  31
HETATM   31  O6  UNL     1      -6.114   6.332  16.751  1.00  0.00    -0.389 OA
HETATM   32  H42 UNL     1      -6.132   5.463  17.200  1.00  0.00     0.210 HD
ENDBRANCH  17  31
BRANCH   4  33
HETATM   33  C9  UNL     1      -7.444   8.099  15.020  1.00  0.00     0.069 C 
HETATM   34  N1  UNL     1      -8.381   7.448  15.617  1.00  0.00    -0.397 N 
ATOM     35  H1  UNL     1      -8.296   6.459  15.855  1.00  0.00     0.159 HD
BRANCH  34  36
HETATM   36  C10 UNL     1      -9.580   8.239  15.929  1.00  0.00     0.158 C 
BRANCH  36  37
HETATM   37  C11 UNL     1     -10.387   8.502  14.690  1.00  0.00    -0.025 A 
HETATM   38  C12 UNL     1     -10.811   7.445  13.875  1.00  0.00     0.011 A 
HETATM   39  C13 UNL     1     -11.567   7.708  12.740  1.00  0.00     0.018 A 
HETATM   40  C14 UNL     1     -11.867   9.029  12.442  1.00  0.00     0.087 A 
HETATM   41  N2  UNL     1     -11.481  10.074  13.206  1.00  0.00    -0.375 N 
HETATM   42  C15 UNL     1     -10.763   9.785  14.314  1.00  0.00     0.096 A 
ATOM     43  H2  UNL     1     -11.720  11.034  12.959  1.00  0.00     0.164 HD
ENDBRANCH  36  37
ENDBRANCH  34  36
ENDBRANCH   4  33
BRANCH  13  44
HETATM   44  O5  UNL     1      -1.565   8.033  16.743  1.00  0.00    -0.389 OA
HETATM   45  H36 UNL     1      -1.259   7.181  16.386  1.00  0.00     0.210 HD
ENDBRANCH  13  44
BRANCH  10  46
HETATM   46  C22 UNL     1      -1.461  12.315  16.099  1.00  0.00    -0.045 A 
HETATM   47  C23 UNL     1      -1.361  13.082  17.181  1.00  0.00     0.087 A 
HETATM   48  C24 UNL     1      -1.503  14.472  16.744  1.00  0.00     0.283 A 
HETATM   49  O3  UNL     1      -1.482  15.440  17.489  1.00  0.00    -0.260 OA
HETATM   50  O4  UNL     1      -1.682  14.505  15.399  1.00  0.00    -0.314 OA
HETATM   51  C25 UNL     1      -1.649  13.167  14.892  1.00  0.00     0.213 A 
ENDBRANCH  10  46
TORSDOF 10
ENDMDL
MODEL 7
REMARK minimizedAffinity -9.92179966
REMARK CNNscore 0.240174547
REMARK CNNaffinity 6.70104599
REMARK  10 active torsions:
REMARK  status: ('A' for Active; 'I' for Inactive)
REMARK    1  A    between atoms: O1_2  and  C2_3 
REMARK    2  A    between atoms: C4_5  and  O2_6 
REMARK    3  A    between atoms: O2_6  and  C5_7 
REMARK    4  A    between atoms: C8_10  and  C9_11 
REMARK    5  A    between atoms: N1_12  and  C10_14 
REMARK    6  A    between atoms: C10_14  and  C11_15 
REMARK    7  A    between atoms: C21_27  and  C22_28 
REMARK    8  A    between atoms: C28_36  and  O5_37 
REMARK    9  A    between atoms: C32_41  and  O6_42 
REMARK   10  A    between atoms: C36_47  and  O8_48 
ROOT
HETATM    1  C5  UNL     1      -3.505   7.765  13.138  1.00  0.00     0.127 C 
HETATM    2  C6  UNL     1      -3.220   7.119  14.502  1.00  0.00     0.033 C 
HETATM    3  C7  UNL     1      -2.044   7.609  15.353  1.00  0.00     0.021 C 
HETATM    4  C8  UNL     1      -1.114   8.714  14.769  1.00  0.00     0.026 C 
HETATM    5  C16 UNL     1      -0.424   9.451  15.999  1.00  0.00     0.009 C 
HETATM    6  C17 UNL     1       1.115   9.430  16.051  1.00  0.00     0.007 C 
HETATM    7  C18 UNL     1       1.625   9.925  17.409  1.00  0.00     0.013 C 
HETATM    8  C19 UNL     1       1.155  11.364  17.751  1.00  0.00    -0.005 C 
HETATM    9  C20 UNL     1       1.955  12.376  16.894  1.00  0.00     0.019 C 
HETATM   10  C21 UNL     1       1.293  11.683  19.274  1.00  0.00     0.028 C 
HETATM   11  C26 UNL     1       0.092  10.966  19.916  1.00  0.00     0.013 C 
HETATM   12  C27 UNL     1      -1.000  10.902  18.839  1.00  0.00     0.040 C 
HETATM   13  C28 UNL     1      -0.387  11.512  17.559  1.00  0.00     0.070 C 
HETATM   14  C29 UNL     1      -0.915  10.908  16.224  1.00  0.00     0.026 C 
HETATM   15  C30 UNL     1      -2.445  10.981  16.083  1.00  0.00     0.011 C 
HETATM   16  C31 UNL     1      -2.974  10.467  14.738  1.00  0.00     0.039 C 
HETATM   17  C32 UNL     1      -1.947   9.683  13.899  1.00  0.00     0.073 C 
HETATM   18  C33 UNL     1      -2.622   8.943  12.736  1.00  0.00     0.071 C 
ENDROOT
BRANCH   1  19
HETATM   19  O2  UNL     1      -4.869   8.215  13.190  1.00  0.00    -0.356 OA
BRANCH  19  20
HETATM   20  C4  UNL     1      -5.709   7.458  14.072  1.00  0.00     0.263 C 
HETATM   21  C3  UNL     1      -6.401   8.462  15.005  1.00  0.00     0.095 C 
HETATM   22  C2  UNL     1      -7.653   7.891  15.680  1.00  0.00     0.156 C 
HETATM   23  C36 UNL     1      -7.593   6.353  15.659  1.00  0.00     0.175 C 
HETATM   24  C34 UNL     1      -7.500   5.861  14.198  1.00  0.00     0.151 C 
HETATM   25  O7  UNL     1      -6.660   6.683  13.364  1.00  0.00    -0.354 OA
HETATM   26  C35 UNL     1      -6.989   4.419  14.125  1.00  0.00     0.042 C 
BRANCH  22  27
HETATM   27  O1  UNL     1      -8.785   8.384  14.948  1.00  0.00    -0.388 OA
HETATM   28  C1  UNL     1      -9.959   8.507  15.742  1.00  0.00     0.202 C 
ENDBRANCH  22  27
BRANCH  23  29
HETATM   29  O8  UNL     1      -8.697   5.779  16.356  1.00  0.00    -0.390 OA
HETATM   30  H50 UNL     1      -8.527   4.830  16.491  1.00  0.00     0.210 HD
ENDBRANCH  23  29
ENDBRANCH  19  20
ENDBRANCH   1  19
BRANCH  17  31
HETATM   31  O6  UNL     1      -1.059  10.649  13.301  1.00  0.00    -0.389 OA
HETATM   32  H42 UNL     1      -1.586  11.200  12.688  1.00  0.00     0.210 HD
ENDBRANCH  17  31
BRANCH   4  33
HETATM   33  C9  UNL     1      -0.044   8.090  13.861  1.00  0.00     0.069 C 
HETATM   34  N1  UNL     1       0.604   8.770  12.980  1.00  0.00    -0.397 N 
ATOM     35  H1  UNL     1       0.455   9.769  12.839  1.00  0.00     0.159 HD
BRANCH  34  36
HETATM   36  C10 UNL     1       1.574   7.994  12.194  1.00  0.00     0.158 C 
BRANCH  36  37
HETATM   37  C11 UNL     1       1.259   8.069  10.728  1.00  0.00    -0.025 A 
HETATM   38  C12 UNL     1      -0.015   8.449  10.289  1.00  0.00     0.011 A 
HETATM   39  C13 UNL     1      -0.283   8.525   8.928  1.00  0.00     0.018 A 
HETATM   40  C14 UNL     1       0.732   8.201   8.040  1.00  0.00     0.087 A 
HETATM   41  N2  UNL     1       1.974   7.836   8.424  1.00  0.00    -0.375 N 
HETATM   42  C15 UNL     1       2.211   7.790   9.755  1.00  0.00     0.096 A 
ATOM     43  H2  UNL     1       2.698   7.607   7.744  1.00  0.00     0.164 HD
ENDBRANCH  36  37
ENDBRANCH  34  36
ENDBRANCH   4  33
BRANCH  13  44
HETATM   44  O5  UNL     1      -0.696  12.915  17.581  1.00  0.00    -0.389 OA
HETATM   45  H36 UNL     1      -1.661  13.038  17.585  1.00  0.00     0.210 HD
ENDBRANCH  13  44
BRANCH  10  46
HETATM   46  C22 UNL     1       2.626  11.403  19.912  1.00  0.00    -0.045 A 
HETATM   47  C23 UNL     1       3.751  12.114  19.888  1.00  0.00     0.087 A 
HETATM   48  C24 UNL     1       4.772  11.338  20.595  1.00  0.00     0.283 A 
HETATM   49  O3  UNL     1       5.932  11.688  20.741  1.00  0.00    -0.260 OA
HETATM   50  O4  UNL     1       4.229  10.173  21.032  1.00  0.00    -0.314 OA
HETATM   51  C25 UNL     1       2.848  10.134  20.660  1.00  0.00     0.213 A 
ENDBRANCH  10  46
TORSDOF 10
ENDMDL
MODEL 8
REMARK minimizedAffinity -7.8383317
REMARK CNNscore 0.218825608
REMARK CNNaffinity 5.31892443
REMARK  10 active torsions:
REMARK  status: ('A' for Active; 'I' for Inactive)
REMARK    1  A    between atoms: O1_2  and  C2_3 
REMARK    2  A    between atoms: C4_5  and  O2_6 
REMARK    3  A    between atoms: O2_6  and  C5_7 
REMARK    4  A    between atoms: C8_10  and  C9_11 
REMARK    5  A    between atoms: N1_12  and  C10_14 
REMARK    6  A    between atoms: C10_14  and  C11_15 
REMARK    7  A    between atoms: C21_27  and  C22_28 
REMARK    8  A    between atoms: C28_36  and  O5_37 
REMARK    9  A    between atoms: C32_41  and  O6_42 
REMARK   10  A    between atoms: C36_47  and  O8_48 
ROOT
HETATM    1  C5  UNL     1       0.196   9.842  15.685  1.00  0.00     0.127 C 
HETATM    2  C6  UNL     1       1.224   9.008  16.463  1.00  0.00     0.033 C 
HETATM    3  C7  UNL     1       2.265   9.703  17.347  1.00  0.00     0.021 C 
HETATM    4  C8  UNL     1       2.296  11.260  17.375  1.00  0.00     0.026 C 
HETATM    5  C16 UNL     1       2.970  11.696  18.749  1.00  0.00     0.009 C 
HETATM    6  C17 UNL     1       4.244  12.557  18.659  1.00  0.00     0.007 C 
HETATM    7  C18 UNL     1       4.929  12.665  20.026  1.00  0.00     0.013 C 
HETATM    8  C19 UNL     1       4.016  13.277  21.121  1.00  0.00    -0.005 C 
HETATM    9  C20 UNL     1       3.885  14.801  20.880  1.00  0.00     0.019 C 
HETATM   10  C21 UNL     1       4.543  12.979  22.562  1.00  0.00     0.028 C 
HETATM   11  C26 UNL     1       4.136  11.516  22.813  1.00  0.00     0.013 C 
HETATM   12  C27 UNL     1       2.885  11.263  21.959  1.00  0.00     0.040 C 
HETATM   13  C28 UNL     1       2.630  12.560  21.161  1.00  0.00     0.070 C 
HETATM   14  C29 UNL     1       1.988  12.354  19.757  1.00  0.00     0.026 C 
HETATM   15  C30 UNL     1       0.665  11.571  19.799  1.00  0.00     0.011 C 
HETATM   16  C31 UNL     1      -0.023  11.432  18.436  1.00  0.00     0.039 C 
HETATM   17  C32 UNL     1       0.858  11.808  17.228  1.00  0.00     0.073 C 
HETATM   18  C33 UNL     1       0.222  11.351  15.908  1.00  0.00     0.071 C 
ENDROOT
BRANCH   1  19
HETATM   19  O2  UNL     1      -1.095   9.346  16.078  1.00  0.00    -0.356 OA
BRANCH  19  20
HETATM   20  C4  UNL     1      -1.397   8.032  15.590  1.00  0.00     0.263 C 
HETATM   21  C3  UNL     1      -2.845   7.724  15.999  1.00  0.00     0.095 C 
HETATM   22  C2  UNL     1      -3.472   6.590  15.180  1.00  0.00     0.156 C 
HETATM   23  C36 UNL     1      -2.359   5.734  14.549  1.00  0.00     0.175 C 
HETATM   24  C34 UNL     1      -1.476   6.623  13.646  1.00  0.00     0.151 C 
HETATM   25  O7  UNL     1      -1.234   7.936  14.187  1.00  0.00    -0.354 OA
HETATM   26  C35 UNL     1      -0.123   5.962  13.361  1.00  0.00     0.042 C 
BRANCH  22  27
HETATM   27  O1  UNL     1      -4.296   7.204  14.178  1.00  0.00    -0.388 OA
HETATM   28  C1  UNL     1      -3.655   8.280  13.502  1.00  0.00     0.202 C 
ENDBRANCH  22  27
BRANCH  23  29
HETATM   29  O8  UNL     1      -2.897   4.614  13.849  1.00  0.00    -0.390 OA
HETATM   30  H50 UNL     1      -2.174   3.998  13.634  1.00  0.00     0.210 HD
ENDBRANCH  23  29
ENDBRANCH  19  20
ENDBRANCH   1  19
BRANCH  17  31
HETATM   31  O6  UNL     1       0.914  13.247  17.173  1.00  0.00    -0.389 OA
HETATM   32  H42 UNL     1       0.009  13.575  16.994  1.00  0.00     0.210 HD
ENDBRANCH  17  31
BRANCH   4  33
HETATM   33  C9  UNL     1       3.113  11.800  16.192  1.00  0.00     0.069 C 
HETATM   34  N1  UNL     1       3.060  13.030  15.815  1.00  0.00    -0.397 N 
ATOM     35  H1  UNL     1       2.481  13.725  16.285  1.00  0.00     0.159 HD
BRANCH  34  36
HETATM   36  C10 UNL     1       3.900  13.355  14.652  1.00  0.00     0.158 C 
BRANCH  36  37
HETATM   37  C11 UNL     1       3.098  14.046  13.587  1.00  0.00    -0.025 A 
HETATM   38  C12 UNL     1       3.637  14.261  12.313  1.00  0.00     0.011 A 
HETATM   39  C13 UNL     1       2.875  14.890  11.337  1.00  0.00     0.018 A 
HETATM   40  C14 UNL     1       1.593  15.304  11.670  1.00  0.00     0.087 A 
HETATM   41  N2  UNL     1       1.037  15.109  12.885  1.00  0.00    -0.375 N 
HETATM   42  C15 UNL     1       1.796  14.476  13.808  1.00  0.00     0.096 A 
ATOM     43  H2  UNL     1       0.091  15.424  13.096  1.00  0.00     0.164 HD
ENDBRANCH  36  37
ENDBRANCH  34  36
ENDBRANCH   4  33
BRANCH  13  44
HETATM   44  O5  UNL     1       1.745  13.366  21.956  1.00  0.00    -0.389 OA
HETATM   45  H36 UNL     1       0.909  12.890  22.102  1.00  0.00     0.210 HD
ENDBRANCH  13  44
BRANCH  10  46
HETATM   46  C22 UNL     1       5.984  13.303  22.843  1.00  0.00    -0.045 A 
HETATM   47  C23 UNL     1       7.031  12.494  22.984  1.00  0.00     0.087 A 
HETATM   48  C24 UNL     1       8.180  13.326  23.341  1.00  0.00     0.283 A 
HETATM   49  O3  UNL     1       9.303  12.900  23.566  1.00  0.00    -0.260 OA
HETATM   50  O4  UNL     1       7.793  14.625  23.402  1.00  0.00    -0.314 OA
HETATM   51  C25 UNL     1       6.403  14.714  23.076  1.00  0.00     0.213 A 
ENDBRANCH  10  46
TORSDOF 10
ENDMDL
MODEL 9
REMARK minimizedAffinity -8.1346302
REMARK CNNscore 0.195847839
REMARK CNNaffinity 7.05471039
REMARK  10 active torsions:
REMARK  status: ('A' for Active; 'I' for Inactive)
REMARK    1  A    between atoms: O1_2  and  C2_3 
REMARK    2  A    between atoms: C4_5  and  O2_6 
REMARK    3  A    between atoms: O2_6  and  C5_7 
REMARK    4  A    between atoms: C8_10  and  C9_11 
REMARK    5  A    between atoms: N1_12  and  C10_14 
REMARK    6  A    between atoms: C10_14  and  C11_15 
REMARK    7  A    between atoms: C21_27  and  C22_28 
REMARK    8  A    between atoms: C28_36  and  O5_37 
REMARK    9  A    between atoms: C32_41  and  O6_42 
REMARK   10  A    between atoms: C36_47  and  O8_48 
ROOT
HETATM    1  C5  UNL     1      -3.683   5.585  13.159  1.00  0.00     0.127 C 
HETATM    2  C6  UNL     1      -3.763   5.535  14.692  1.00  0.00     0.033 C 
HETATM    3  C7  UNL     1      -2.964   6.535  15.535  1.00  0.00     0.021 C 
HETATM    4  C8  UNL     1      -2.024   7.539  14.803  1.00  0.00     0.026 C 
HETATM    5  C16 UNL     1      -1.827   8.790  15.767  1.00  0.00     0.009 C 
HETATM    6  C17 UNL     1      -0.385   9.123  16.193  1.00  0.00     0.007 C 
HETATM    7  C18 UNL     1      -0.373  10.161  17.322  1.00  0.00     0.013 C 
HETATM    8  C19 UNL     1      -1.076  11.489  16.939  1.00  0.00    -0.005 C 
HETATM    9  C20 UNL     1      -0.165  12.285  15.972  1.00  0.00     0.019 C 
HETATM   10  C21 UNL     1      -1.447  12.343  18.194  1.00  0.00     0.028 C 
HETATM   11  C26 UNL     1      -2.703  11.654  18.757  1.00  0.00     0.013 C 
HETATM   12  C27 UNL     1      -3.398  10.982  17.564  1.00  0.00     0.040 C 
HETATM   13  C28 UNL     1      -2.492  11.223  16.337  1.00  0.00     0.070 C 
HETATM   14  C29 UNL     1      -2.517  10.090  15.268  1.00  0.00     0.026 C 
HETATM   15  C30 UNL     1      -3.928   9.776  14.744  1.00  0.00     0.011 C 
HETATM   16  C31 UNL     1      -3.961   8.723  13.630  1.00  0.00     0.039 C 
HETATM   17  C32 UNL     1      -2.649   7.937  13.447  1.00  0.00     0.073 C 
HETATM   18  C33 UNL     1      -2.851   6.709  12.548  1.00  0.00     0.071 C 
ENDROOT
BRANCH   1  19
HETATM   19  O2  UNL     1      -5.038   5.717  12.696  1.00  0.00    -0.356 OA
BRANCH  19  20
HETATM   20  C4  UNL     1      -6.013   5.827  13.742  1.00  0.00     0.263 C 
HETATM   21  C3  UNL     1      -6.895   7.038  13.408  1.00  0.00     0.095 C 
HETATM   22  C2  UNL     1      -8.239   7.023  14.145  1.00  0.00     0.156 C 
HETATM   23  C36 UNL     1      -8.139   6.112  15.381  1.00  0.00     0.175 C 
HETATM   24  C34 UNL     1      -7.755   4.684  14.937  1.00  0.00     0.151 C 
HETATM   25  O7  UNL     1      -6.791   4.650  13.867  1.00  0.00    -0.354 OA
HETATM   26  C35 UNL     1      -7.205   3.863  16.108  1.00  0.00     0.042 C 
BRANCH  22  27
HETATM   27  O1  UNL     1      -9.221   6.544  13.214  1.00  0.00    -0.388 OA
HETATM   28  C1  UNL     1     -10.506   7.124  13.403  1.00  0.00     0.202 C 
ENDBRANCH  22  27
BRANCH  23  29
HETATM   29  O8  UNL     1      -9.343   6.138  16.146  1.00  0.00    -0.390 OA
HETATM   30  H50 UNL     1      -9.179   5.715  17.007  1.00  0.00     0.210 HD
ENDBRANCH  23  29
ENDBRANCH  19  20
ENDBRANCH   1  19
BRANCH  17  31
HETATM   31  O6  UNL     1      -1.729   8.800  12.749  1.00  0.00    -0.389 OA
HETATM   32  H42 UNL     1      -2.098   8.974  11.859  1.00  0.00     0.210 HD
ENDBRANCH  17  31
BRANCH   4  33
HETATM   33  C9  UNL     1      -0.667   6.884  14.507  1.00  0.00     0.069 C 
HETATM   34  N1  UNL     1      -0.413   6.280  13.399  1.00  0.00    -0.397 N 
ATOM     35  H1  UNL     1      -1.095   6.210  12.643  1.00  0.00     0.159 HD
BRANCH  34  36
HETATM   36  C10 UNL     1       0.935   5.700  13.307  1.00  0.00     0.158 C 
BRANCH  36  37
HETATM   37  C11 UNL     1       1.683   6.263  12.132  1.00  0.00    -0.025 A 
HETATM   38  C12 UNL     1       2.456   7.423  12.267  1.00  0.00     0.011 A 
HETATM   39  C13 UNL     1       3.151   7.921  11.173  1.00  0.00     0.018 A 
HETATM   40  C14 UNL     1       3.039   7.250   9.963  1.00  0.00     0.087 A 
HETATM   41  N2  UNL     1       2.309   6.127   9.796  1.00  0.00    -0.375 N 
HETATM   42  C15 UNL     1       1.659   5.655  10.884  1.00  0.00     0.096 A 
ATOM     43  H2  UNL     1       2.250   5.658   8.893  1.00  0.00     0.164 HD
ENDBRANCH  36  37
ENDBRANCH  34  36
ENDBRANCH   4  33
BRANCH  13  44
HETATM   44  O5  UNL     1      -2.941  12.442  15.724  1.00  0.00    -0.389 OA
HETATM   45  H36 UNL     1      -3.868  12.346  15.445  1.00  0.00     0.210 HD
ENDBRANCH  13  44
BRANCH  10  46
HETATM   46  C22 UNL     1      -0.352  12.601  19.192  1.00  0.00    -0.045 A 
HETATM   47  C23 UNL     1       0.441  11.744  19.831  1.00  0.00     0.087 A 
HETATM   48  C24 UNL     1       1.265  12.522  20.759  1.00  0.00     0.283 A 
HETATM   49  O3  UNL     1       2.092  12.044  21.520  1.00  0.00    -0.260 OA
HETATM   50  O4  UNL     1       0.945  13.836  20.650  1.00  0.00    -0.314 OA
HETATM   51  C25 UNL     1      -0.069  13.989  19.653  1.00  0.00     0.213 A 
ENDBRANCH  10  46
TORSDOF 10
ENDMDL
