MODEL 1
REMARK minimizedAffinity -7.98330641
REMARK CNNscore 0.763228655
REMARK CNNaffinity 6.96649218
REMARK  14 active torsions:
REMARK  status: ('A' for Active; 'I' for Inactive)
REMARK    1  A    between atoms: C19_21  and  O3_22 
REMARK    2  A    between atoms: C19_21  and  C20_23 
REMARK    3  A    between atoms: C20_23  and  C21_25 
REMARK    4  A    between atoms: C21_25  and  O5_26 
REMARK    5  A    between atoms: O5_26  and  C22_27 
REMARK    6  A    between atoms: C22_27  and  C23_29 
REMARK    7  A    between atoms: C23_29  and  C24_30 
REMARK    8  A    between atoms: C24_30  and  C25_31 
REMARK       I    between atoms: C25_31  and  N1_33 
REMARK    9  A    between atoms: N1_33  and  C26_34 
REMARK   10  A    between atoms: C26_34  and  C27_35 
REMARK   11  A    between atoms: C26_34  and  C30_40 
REMARK   12  A    between atoms: C27_35  and  C28_36 
REMARK   13  A    between atoms: C28_36  and  C29_37 
REMARK       I    between atoms: C29_37  and  N2_38 
REMARK   14  A    between atoms: C30_40  and  O10_42 
ROOT
HETATM    1  C20 UNL     1      -3.073  50.524 -13.285  1.00  0.00     0.185 C 
HETATM    2  O4  UNL     1      -3.561  49.515 -12.762  1.00  0.00    -0.292 OA
ENDROOT
BRANCH   1   3
HETATM    3  C19 UNL     1      -2.893  51.854 -12.494  1.00  0.00     0.128 C 
HETATM    4  C14 UNL     1      -1.496  52.011 -11.807  1.00  0.00     0.005 C 
HETATM    5  C13 UNL     1      -0.381  52.603 -12.676  1.00  0.00     0.091 C 
HETATM    6  C15 UNL     1      -1.006  50.661 -11.215  1.00  0.00     0.019 C 
HETATM    7  C16 UNL     1      -1.837  53.067 -10.724  1.00  0.00     0.002 C 
HETATM    8  C12 UNL     1       0.815  52.979 -11.810  1.00  0.00     0.133 C 
HETATM    9  C11 UNL     1       0.540  53.903 -10.602  1.00  0.00     0.072 C 
HETATM   10  O2  UNL     1       1.940  52.611 -12.142  1.00  0.00    -0.297 OA
HETATM   11  C2  UNL     1       1.791  54.246  -9.712  1.00  0.00    -0.009 C 
HETATM   12  C10 UNL     1      -0.663  53.358  -9.777  1.00  0.00     0.003 C 
HETATM   13  C1  UNL     1       2.474  52.980  -9.150  1.00  0.00     0.021 C 
HETATM   14  C3  UNL     1       2.810  55.056 -10.572  1.00  0.00     0.022 C 
HETATM   15  C7  UNL     1       1.342  55.106  -8.516  1.00  0.00    -0.067 C 
HETATM   16  C4  UNL     1       3.892  55.745  -9.751  1.00  0.00     0.084 C 
HETATM   17  C5  UNL     1       3.269  56.641  -8.715  1.00  0.00     0.149 C 
HETATM   18  O1  UNL     1       3.811  57.670  -8.322  1.00  0.00    -0.293 OA
HETATM   19  C6  UNL     1       1.993  56.209  -8.101  1.00  0.00     0.053 C 
HETATM   20  C8  UNL     1       0.117  54.647  -7.762  1.00  0.00     0.035 C 
HETATM   21  C9  UNL     1      -1.055  54.369  -8.692  1.00  0.00     0.010 C 
HETATM   22  C17 UNL     1      -3.133  52.547 -10.114  1.00  0.00     0.009 C 
HETATM   23  C18 UNL     1      -3.884  51.901 -11.292  1.00  0.00     0.047 C 
BRANCH   3  24
HETATM   24  O3  UNL     1      -3.178  53.028 -13.259  1.00  0.00    -0.381 OA
HETATM   25  H25 UNL     1      -2.682  52.986 -14.097  1.00  0.00     0.211 HD
ENDBRANCH   3  24
ENDBRANCH   1   3
BRANCH   1  26
HETATM   26  C21 UNL     1      -2.472  50.437 -14.688  1.00  0.00     0.260 C 
BRANCH  26  27
HETATM   27  O5  UNL     1      -3.171  51.132 -15.717  1.00  0.00    -0.314 OA
BRANCH  27  28
HETATM   28  C22 UNL     1      -2.722  50.852 -16.976  1.00  0.00     0.259 C 
HETATM   29  O6  UNL     1      -2.707  51.646 -17.906  1.00  0.00    -0.265 OA
BRANCH  28  30
HETATM   30  C23 UNL     1      -2.126  49.468 -17.055  1.00  0.00     0.120 C 
BRANCH  30  31
HETATM   31  C24 UNL     1      -0.754  49.417 -17.711  1.00  0.00     0.112 C 
BRANCH  31  32
HETATM   32  C25 UNL     1      -0.871  49.334 -19.219  1.00  0.00     0.218 C 
HETATM   33  O7  UNL     1      -1.260  48.323 -19.791  1.00  0.00    -0.274 OA
HETATM   34  N1  UNL     1      -0.457  50.458 -19.883  1.00  0.00    -0.347 N 
HETATM   35  H32 UNL     1      -0.273  51.320 -19.376  1.00  0.00     0.163 HD
BRANCH  34  36
HETATM   36  C26 UNL     1      -0.590  50.616 -21.330  1.00  0.00     0.182 C 
BRANCH  36  37
HETATM   37  C27 UNL     1       0.296  51.727 -21.922  1.00  0.00     0.045 C 
BRANCH  37  38
HETATM   38  C28 UNL     1       1.309  52.392 -20.988  1.00  0.00     0.105 C 
BRANCH  38  39
HETATM   39  C29 UNL     1       1.130  53.881 -20.807  1.00  0.00     0.215 C 
HETATM   40  N2  UNL     1       0.410  54.225 -19.700  1.00  0.00    -0.370 N 
HETATM   41  H38 UNL     1       0.252  53.570 -18.947  1.00  0.00     0.159 HD
HETATM   42  H39 UNL     1       0.337  55.213 -19.491  1.00  0.00     0.159 HD
HETATM   43  O8  UNL     1       1.544  54.738 -21.574  1.00  0.00    -0.274 OA
ENDBRANCH  38  39
ENDBRANCH  37  38
ENDBRANCH  36  37
BRANCH  36  44
HETATM   44  C30 UNL     1      -2.065  50.779 -21.730  1.00  0.00     0.163 C 
HETATM   45  O9  UNL     1      -2.751  51.779 -21.594  1.00  0.00    -0.648 OA
BRANCH  44  46
HETATM   46  O10 UNL     1      -2.574  49.689 -22.351  1.00  0.00    -0.775 OA
HETATM   47  H40 UNL     1      -3.514  49.937 -22.494  1.00  0.00     0.167 HD
ENDBRANCH  44  46
ENDBRANCH  36  44
ENDBRANCH  34  36
ENDBRANCH  31  32
ENDBRANCH  30  31
ENDBRANCH  28  30
ENDBRANCH  27  28
ENDBRANCH  26  27
ENDBRANCH   1  26
TORSDOF 14
ENDMDL
MODEL 2
REMARK minimizedAffinity -8.94414711
REMARK CNNscore 0.571144104
REMARK CNNaffinity 7.55617857
REMARK  14 active torsions:
REMARK  status: ('A' for Active; 'I' for Inactive)
REMARK    1  A    between atoms: C19_21  and  O3_22 
REMARK    2  A    between atoms: C19_21  and  C20_23 
REMARK    3  A    between atoms: C20_23  and  C21_25 
REMARK    4  A    between atoms: C21_25  and  O5_26 
REMARK    5  A    between atoms: O5_26  and  C22_27 
REMARK    6  A    between atoms: C22_27  and  C23_29 
REMARK    7  A    between atoms: C23_29  and  C24_30 
REMARK    8  A    between atoms: C24_30  and  C25_31 
REMARK       I    between atoms: C25_31  and  N1_33 
REMARK    9  A    between atoms: N1_33  and  C26_34 
REMARK   10  A    between atoms: C26_34  and  C27_35 
REMARK   11  A    between atoms: C26_34  and  C30_40 
REMARK   12  A    between atoms: C27_35  and  C28_36 
REMARK   13  A    between atoms: C28_36  and  C29_37 
REMARK       I    between atoms: C29_37  and  N2_38 
REMARK   14  A    between atoms: C30_40  and  O10_42 
ROOT
HETATM    1  C20 UNL     1      -3.376  49.912 -20.286  1.00  0.00     0.185 C 
HETATM    2  O4  UNL     1      -4.236  50.019 -19.405  1.00  0.00    -0.292 OA
ENDROOT
BRANCH   1   3
HETATM    3  C19 UNL     1      -1.865  50.152 -19.991  1.00  0.00     0.128 C 
HETATM    4  C14 UNL     1      -1.508  50.219 -18.469  1.00  0.00     0.005 C 
HETATM    5  C13 UNL     1      -1.228  48.877 -17.784  1.00  0.00     0.091 C 
HETATM    6  C15 UNL     1      -2.603  50.973 -17.668  1.00  0.00     0.019 C 
HETATM    7  C16 UNL     1      -0.160  50.985 -18.535  1.00  0.00     0.002 C 
HETATM    8  C12 UNL     1      -0.605  49.109 -16.413  1.00  0.00     0.133 C 
HETATM    9  C11 UNL     1       0.655  50.001 -16.360  1.00  0.00     0.072 C 
HETATM   10  O2  UNL     1      -1.066  48.526 -15.434  1.00  0.00    -0.297 OA
HETATM   11  C2  UNL     1       1.254  50.244 -14.926  1.00  0.00    -0.009 C 
HETATM   12  C10 UNL     1       0.407  51.322 -17.148  1.00  0.00     0.003 C 
HETATM   13  C1  UNL     1       0.227  50.878 -13.963  1.00  0.00     0.021 C 
HETATM   14  C3  UNL     1       1.744  48.880 -14.350  1.00  0.00     0.022 C 
HETATM   15  C7  UNL     1       2.452  51.206 -15.033  1.00  0.00    -0.067 C 
HETATM   16  C4  UNL     1       2.651  49.018 -13.134  1.00  0.00     0.084 C 
HETATM   17  C5  UNL     1       3.832  49.890 -13.462  1.00  0.00     0.149 C 
HETATM   18  O1  UNL     1       4.930  49.739 -12.932  1.00  0.00    -0.293 OA
HETATM   19  C6  UNL     1       3.625  51.015 -14.402  1.00  0.00     0.053 C 
HETATM   20  C8  UNL     1       2.263  52.446 -15.874  1.00  0.00     0.035 C 
HETATM   21  C9  UNL     1       1.713  52.120 -17.255  1.00  0.00     0.010 C 
HETATM   22  C17 UNL     1      -0.453  52.140 -19.485  1.00  0.00     0.009 C 
HETATM   23  C18 UNL     1      -1.433  51.555 -20.517  1.00  0.00     0.047 C 
BRANCH   3  24
HETATM   24  O3  UNL     1      -0.992  49.225 -20.641  1.00  0.00    -0.381 OA
HETATM   25  H25 UNL     1      -1.300  48.319 -20.457  1.00  0.00     0.211 HD
ENDBRANCH   3  24
ENDBRANCH   1   3
BRANCH   1  26
HETATM   26  C21 UNL     1      -3.761  49.368 -21.661  1.00  0.00     0.260 C 
BRANCH  26  27
HETATM   27  O5  UNL     1      -5.039  49.757 -22.158  1.00  0.00    -0.314 OA
BRANCH  27  28
HETATM   28  C22 UNL     1      -4.995  50.359 -23.383  1.00  0.00     0.259 C 
HETATM   29  O6  UNL     1      -5.570  49.952 -24.382  1.00  0.00    -0.265 OA
BRANCH  28  30
HETATM   30  C23 UNL     1      -4.244  51.666 -23.330  1.00  0.00     0.120 C 
BRANCH  30  31
HETATM   31  C24 UNL     1      -3.902  52.244 -24.696  1.00  0.00     0.112 C 
BRANCH  31  32
HETATM   32  C25 UNL     1      -2.496  51.863 -25.114  1.00  0.00     0.218 C 
HETATM   33  O7  UNL     1      -2.110  50.700 -25.130  1.00  0.00    -0.274 OA
HETATM   34  N1  UNL     1      -1.687  52.925 -25.417  1.00  0.00    -0.347 N 
HETATM   35  H32 UNL     1      -2.076  53.858 -25.526  1.00  0.00     0.163 HD
BRANCH  34  36
HETATM   36  C26 UNL     1      -0.332  52.763 -25.942  1.00  0.00     0.182 C 
BRANCH  36  37
HETATM   37  C27 UNL     1       0.759  52.723 -24.857  1.00  0.00     0.045 C 
BRANCH  37  38
HETATM   38  C28 UNL     1       0.387  53.237 -23.465  1.00  0.00     0.105 C 
BRANCH  38  39
HETATM   39  C29 UNL     1       1.203  54.411 -22.977  1.00  0.00     0.215 C 
HETATM   40  N2  UNL     1       1.520  55.312 -23.951  1.00  0.00    -0.370 N 
HETATM   41  H38 UNL     1       1.034  55.328 -24.837  1.00  0.00     0.159 HD
HETATM   42  H39 UNL     1       1.993  56.157 -23.656  1.00  0.00     0.159 HD
HETATM   43  O8  UNL     1       1.596  54.566 -21.830  1.00  0.00    -0.274 OA
ENDBRANCH  38  39
ENDBRANCH  37  38
ENDBRANCH  36  37
BRANCH  36  44
HETATM   44  C30 UNL     1      -0.034  53.813 -27.023  1.00  0.00     0.163 C 
HETATM   45  O9  UNL     1      -0.080  53.649 -28.232  1.00  0.00    -0.648 OA
BRANCH  44  46
HETATM   46  O10 UNL     1       0.231  55.040 -26.517  1.00  0.00    -0.775 OA
HETATM   47  H40 UNL     1       0.439  55.568 -27.319  1.00  0.00     0.167 HD
ENDBRANCH  44  46
ENDBRANCH  36  44
ENDBRANCH  34  36
ENDBRANCH  31  32
ENDBRANCH  30  31
ENDBRANCH  28  30
ENDBRANCH  27  28
ENDBRANCH  26  27
ENDBRANCH   1  26
TORSDOF 14
ENDMDL
MODEL 3
REMARK minimizedAffinity -9.85037804
REMARK CNNscore 0.520034492
REMARK CNNaffinity 7.03639269
REMARK  14 active torsions:
REMARK  status: ('A' for Active; 'I' for Inactive)
REMARK    1  A    between atoms: C19_21  and  O3_22 
REMARK    2  A    between atoms: C19_21  and  C20_23 
REMARK    3  A    between atoms: C20_23  and  C21_25 
REMARK    4  A    between atoms: C21_25  and  O5_26 
REMARK    5  A    between atoms: O5_26  and  C22_27 
REMARK    6  A    between atoms: C22_27  and  C23_29 
REMARK    7  A    between atoms: C23_29  and  C24_30 
REMARK    8  A    between atoms: C24_30  and  C25_31 
REMARK       I    between atoms: C25_31  and  N1_33 
REMARK    9  A    between atoms: N1_33  and  C26_34 
REMARK   10  A    between atoms: C26_34  and  C27_35 
REMARK   11  A    between atoms: C26_34  and  C30_40 
REMARK   12  A    between atoms: C27_35  and  C28_36 
REMARK   13  A    between atoms: C28_36  and  C29_37 
REMARK       I    between atoms: C29_37  and  N2_38 
REMARK   14  A    between atoms: C30_40  and  O10_42 
ROOT
HETATM    1  C20 UNL     1      -7.297  48.351 -23.191  1.00  0.00     0.185 C 
HETATM    2  O4  UNL     1      -7.751  47.354 -22.618  1.00  0.00    -0.292 OA
ENDROOT
BRANCH   1   3
HETATM    3  C19 UNL     1      -6.695  49.550 -22.400  1.00  0.00     0.128 C 
HETATM    4  C14 UNL     1      -5.141  49.493 -22.228  1.00  0.00     0.005 C 
HETATM    5  C13 UNL     1      -4.314  50.086 -23.374  1.00  0.00     0.091 C 
HETATM    6  C15 UNL     1      -4.658  48.042 -21.960  1.00  0.00     0.019 C 
HETATM    7  C16 UNL     1      -4.963  50.434 -21.007  1.00  0.00     0.002 C 
HETATM    8  C12 UNL     1      -2.860  50.242 -22.947  1.00  0.00     0.133 C 
HETATM    9  C11 UNL     1      -2.596  51.029 -21.644  1.00  0.00     0.072 C 
HETATM   10  O2  UNL     1      -1.967  49.818 -23.677  1.00  0.00    -0.297 OA
HETATM   11  C2  UNL     1      -1.087  51.144 -21.215  1.00  0.00    -0.009 C 
HETATM   12  C10 UNL     1      -3.513  50.497 -20.503  1.00  0.00     0.003 C 
HETATM   13  C1  UNL     1      -0.423  49.762 -21.034  1.00  0.00     0.021 C 
HETATM   14  C3  UNL     1      -0.318  51.959 -22.301  1.00  0.00     0.022 C 
HETATM   15  C7  UNL     1      -0.997  51.887 -19.869  1.00  0.00    -0.067 C 
HETATM   16  C4  UNL     1       1.054  52.441 -21.849  1.00  0.00     0.084 C 
HETATM   17  C5  UNL     1       0.932  53.253 -20.589  1.00  0.00     0.149 C 
HETATM   18  O1  UNL     1       1.700  54.173 -20.321  1.00  0.00    -0.293 OA
HETATM   19  C6  UNL     1      -0.110  52.866 -19.611  1.00  0.00     0.053 C 
HETATM   20  C8  UNL     1      -1.947  51.450 -18.780  1.00  0.00     0.035 C 
HETATM   21  C9  UNL     1      -3.388  51.397 -19.268  1.00  0.00     0.010 C 
HETATM   22  C17 UNL     1      -6.036  49.961 -20.034  1.00  0.00     0.009 C 
HETATM   23  C18 UNL     1      -7.214  49.538 -20.930  1.00  0.00     0.047 C 
BRANCH   3  24
HETATM   24  O3  UNL     1      -7.067  50.831 -22.916  1.00  0.00    -0.381 OA
HETATM   25  H25 UNL     1      -6.889  50.849 -23.874  1.00  0.00     0.211 HD
ENDBRANCH   3  24
ENDBRANCH   1   3
BRANCH   1  26
HETATM   26  C21 UNL     1      -7.160  48.355 -24.714  1.00  0.00     0.260 C 
BRANCH  26  27
HETATM   27  O5  UNL     1      -6.143  47.517 -25.257  1.00  0.00    -0.314 OA
BRANCH  27  28
HETATM   28  C22 UNL     1      -5.710  47.906 -26.493  1.00  0.00     0.259 C 
HETATM   29  O6  UNL     1      -6.418  47.992 -27.486  1.00  0.00    -0.265 OA
BRANCH  28  30
HETATM   30  C23 UNL     1      -4.265  48.339 -26.461  1.00  0.00     0.120 C 
BRANCH  30  31
HETATM   31  C24 UNL     1      -3.876  49.294 -27.581  1.00  0.00     0.112 C 
BRANCH  31  32
HETATM   32  C25 UNL     1      -3.037  50.441 -27.055  1.00  0.00     0.218 C 
HETATM   33  O7  UNL     1      -3.440  51.201 -26.182  1.00  0.00    -0.274 OA
HETATM   34  N1  UNL     1      -1.823  50.585 -27.671  1.00  0.00    -0.347 N 
HETATM   35  H32 UNL     1      -1.467  49.860 -28.289  1.00  0.00     0.163 HD
BRANCH  34  36
HETATM   36  C26 UNL     1      -0.826  51.562 -27.237  1.00  0.00     0.182 C 
BRANCH  36  37
HETATM   37  C27 UNL     1      -0.008  51.117 -26.010  1.00  0.00     0.045 C 
BRANCH  37  38
HETATM   38  C28 UNL     1       1.490  51.427 -26.012  1.00  0.00     0.105 C 
BRANCH  38  39
HETATM   39  C29 UNL     1       2.066  51.793 -27.359  1.00  0.00     0.215 C 
HETATM   40  N2  UNL     1       3.422  51.944 -27.362  1.00  0.00    -0.370 N 
HETATM   41  H38 UNL     1       3.997  51.584 -26.613  1.00  0.00     0.159 HD
HETATM   42  H39 UNL     1       3.862  52.105 -28.259  1.00  0.00     0.159 HD
HETATM   43  O8  UNL     1       1.414  51.982 -28.375  1.00  0.00    -0.274 OA
ENDBRANCH  38  39
ENDBRANCH  37  38
ENDBRANCH  36  37
BRANCH  36  44
HETATM   44  C30 UNL     1      -1.465  52.944 -27.035  1.00  0.00     0.163 C 
HETATM   45  O9  UNL     1      -1.998  53.632 -27.891  1.00  0.00    -0.648 OA
BRANCH  44  46
HETATM   46  O10 UNL     1      -1.464  53.351 -25.744  1.00  0.00    -0.775 OA
HETATM   47  H40 UNL     1      -1.857  54.249 -25.796  1.00  0.00     0.167 HD
ENDBRANCH  44  46
ENDBRANCH  36  44
ENDBRANCH  34  36
ENDBRANCH  31  32
ENDBRANCH  30  31
ENDBRANCH  28  30
ENDBRANCH  27  28
ENDBRANCH  26  27
ENDBRANCH   1  26
TORSDOF 14
ENDMDL
MODEL 4
REMARK minimizedAffinity -8.28203392
REMARK CNNscore 0.385435879
REMARK CNNaffinity 6.07095098
REMARK  14 active torsions:
REMARK  status: ('A' for Active; 'I' for Inactive)
REMARK    1  A    between atoms: C19_21  and  O3_22 
REMARK    2  A    between atoms: C19_21  and  C20_23 
REMARK    3  A    between atoms: C20_23  and  C21_25 
REMARK    4  A    between atoms: C21_25  and  O5_26 
REMARK    5  A    between atoms: O5_26  and  C22_27 
REMARK    6  A    between atoms: C22_27  and  C23_29 
REMARK    7  A    between atoms: C23_29  and  C24_30 
REMARK    8  A    between atoms: C24_30  and  C25_31 
REMARK       I    between atoms: C25_31  and  N1_33 
REMARK    9  A    between atoms: N1_33  and  C26_34 
REMARK   10  A    between atoms: C26_34  and  C27_35 
REMARK   11  A    between atoms: C26_34  and  C30_40 
REMARK   12  A    between atoms: C27_35  and  C28_36 
REMARK   13  A    between atoms: C28_36  and  C29_37 
REMARK       I    between atoms: C29_37  and  N2_38 
REMARK   14  A    between atoms: C30_40  and  O10_42 
ROOT
HETATM    1  C20 UNL     1      -6.471  48.419 -20.474  1.00  0.00     0.185 C 
HETATM    2  O4  UNL     1      -6.275  49.300 -19.628  1.00  0.00    -0.292 OA
ENDROOT
BRANCH   1   3
HETATM    3  C19 UNL     1      -5.389  48.037 -21.527  1.00  0.00     0.128 C 
HETATM    4  C14 UNL     1      -4.670  49.261 -22.185  1.00  0.00     0.005 C 
HETATM    5  C13 UNL     1      -3.459  49.817 -21.429  1.00  0.00     0.091 C 
HETATM    6  C15 UNL     1      -5.667  50.420 -22.456  1.00  0.00     0.019 C 
HETATM    7  C16 UNL     1      -4.131  48.602 -23.482  1.00  0.00     0.002 C 
HETATM    8  C12 UNL     1      -2.685  50.785 -22.316  1.00  0.00     0.133 C 
HETATM    9  C11 UNL     1      -2.248  50.265 -23.703  1.00  0.00     0.072 C 
HETATM   10  O2  UNL     1      -2.374  51.890 -21.875  1.00  0.00    -0.297 OA
HETATM   11  C2  UNL     1      -1.479  51.299 -24.604  1.00  0.00    -0.009 C 
HETATM   12  C10 UNL     1      -3.456  49.604 -24.430  1.00  0.00     0.003 C 
HETATM   13  C1  UNL     1      -2.304  52.581 -24.857  1.00  0.00     0.021 C 
HETATM   14  C3  UNL     1      -0.133  51.669 -23.907  1.00  0.00     0.022 C 
HETATM   15  C7  UNL     1      -1.180  50.658 -25.972  1.00  0.00    -0.067 C 
HETATM   16  C4  UNL     1       0.856  52.380 -24.821  1.00  0.00     0.084 C 
HETATM   17  C5  UNL     1       1.123  51.548 -26.046  1.00  0.00     0.149 C 
HETATM   18  O1  UNL     1       2.201  51.570 -26.634  1.00  0.00    -0.293 OA
HETATM   19  C6  UNL     1       0.010  50.740 -26.594  1.00  0.00     0.053 C 
HETATM   20  C8  UNL     1      -2.315  49.926 -26.649  1.00  0.00     0.035 C 
HETATM   21  C9  UNL     1      -2.982  48.922 -25.720  1.00  0.00     0.010 C 
HETATM   22  C17 UNL     1      -5.329  47.819 -24.007  1.00  0.00     0.009 C 
HETATM   23  C18 UNL     1      -6.053  47.322 -22.743  1.00  0.00     0.047 C 
BRANCH   3  24
HETATM   24  O3  UNL     1      -4.407  47.117 -21.044  1.00  0.00    -0.381 OA
HETATM   25  H25 UNL     1      -4.050  47.450 -20.201  1.00  0.00     0.211 HD
ENDBRANCH   3  24
ENDBRANCH   1   3
BRANCH   1  26
HETATM   26  C21 UNL     1      -7.733  47.560 -20.397  1.00  0.00     0.260 C 
BRANCH  26  27
HETATM   27  O5  UNL     1      -8.961  48.213 -20.704  1.00  0.00    -0.314 OA
BRANCH  27  28
HETATM   28  C22 UNL     1     -10.070  47.497 -20.354  1.00  0.00     0.259 C 
HETATM   29  O6  UNL     1     -10.285  46.338 -20.681  1.00  0.00    -0.265 OA
BRANCH  28  30
HETATM   30  C23 UNL     1     -10.952  48.271 -19.407  1.00  0.00     0.120 C 
BRANCH  30  31
HETATM   31  C24 UNL     1     -12.217  47.534 -18.990  1.00  0.00     0.112 C 
BRANCH  31  32
HETATM   32  C25 UNL     1     -13.408  47.982 -19.814  1.00  0.00     0.218 C 
HETATM   33  O7  UNL     1     -13.562  49.147 -20.160  1.00  0.00    -0.274 OA
HETATM   34  N1  UNL     1     -14.313  46.993 -20.087  1.00  0.00    -0.347 N 
HETATM   35  H32 UNL     1     -14.086  46.018 -19.904  1.00  0.00     0.163 HD
BRANCH  34  36
HETATM   36  C26 UNL     1     -15.472  47.198 -20.956  1.00  0.00     0.182 C 
BRANCH  36  37
HETATM   37  C27 UNL     1     -16.720  46.403 -20.531  1.00  0.00     0.045 C 
BRANCH  37  38
HETATM   38  C28 UNL     1     -17.620  47.024 -19.461  1.00  0.00     0.105 C 
BRANCH  38  39
HETATM   39  C29 UNL     1     -19.089  46.695 -19.591  1.00  0.00     0.215 C 
HETATM   40  N2  UNL     1     -19.921  47.671 -19.129  1.00  0.00    -0.370 N 
HETATM   41  H38 UNL     1     -19.596  48.614 -18.971  1.00  0.00     0.159 HD
HETATM   42  H39 UNL     1     -20.914  47.532 -19.273  1.00  0.00     0.159 HD
HETATM   43  O8  UNL     1     -19.538  45.647 -20.032  1.00  0.00    -0.274 OA
ENDBRANCH  38  39
ENDBRANCH  37  38
ENDBRANCH  36  37
BRANCH  36  44
HETATM   44  C30 UNL     1     -15.104  46.953 -22.427  1.00  0.00     0.163 C 
HETATM   45  O9  UNL     1     -14.479  47.706 -23.157  1.00  0.00    -0.648 OA
BRANCH  44  46
HETATM   46  O10 UNL     1     -15.480  45.733 -22.876  1.00  0.00    -0.775 OA
HETATM   47  H40 UNL     1     -15.217  45.757 -23.822  1.00  0.00     0.167 HD
ENDBRANCH  44  46
ENDBRANCH  36  44
ENDBRANCH  34  36
ENDBRANCH  31  32
ENDBRANCH  30  31
ENDBRANCH  28  30
ENDBRANCH  27  28
ENDBRANCH  26  27
ENDBRANCH   1  26
TORSDOF 14
ENDMDL
MODEL 5
REMARK minimizedAffinity -8.21037197
REMARK CNNscore 0.382448703
REMARK CNNaffinity 6.46525574
REMARK  14 active torsions:
REMARK  status: ('A' for Active; 'I' for Inactive)
REMARK    1  A    between atoms: C19_21  and  O3_22 
REMARK    2  A    between atoms: C19_21  and  C20_23 
REMARK    3  A    between atoms: C20_23  and  C21_25 
REMARK    4  A    between atoms: C21_25  and  O5_26 
REMARK    5  A    between atoms: O5_26  and  C22_27 
REMARK    6  A    between atoms: C22_27  and  C23_29 
REMARK    7  A    between atoms: C23_29  and  C24_30 
REMARK    8  A    between atoms: C24_30  and  C25_31 
REMARK       I    between atoms: C25_31  and  N1_33 
REMARK    9  A    between atoms: N1_33  and  C26_34 
REMARK   10  A    between atoms: C26_34  and  C27_35 
REMARK   11  A    between atoms: C26_34  and  C30_40 
REMARK   12  A    between atoms: C27_35  and  C28_36 
REMARK   13  A    between atoms: C28_36  and  C29_37 
REMARK       I    between atoms: C29_37  and  N2_38 
REMARK   14  A    between atoms: C30_40  and  O10_42 
ROOT
HETATM    1  C20 UNL     1       5.262  66.147 -34.969  1.00  0.00     0.185 C 
HETATM    2  O4  UNL     1       4.832  66.493 -33.862  1.00  0.00    -0.292 OA
ENDROOT
BRANCH   1   3
HETATM    3  C19 UNL     1       4.327  66.010 -36.208  1.00  0.00     0.128 C 
HETATM    4  C14 UNL     1       4.195  67.314 -37.062  1.00  0.00     0.005 C 
HETATM    5  C13 UNL     1       5.266  67.526 -38.137  1.00  0.00     0.091 C 
HETATM    6  C15 UNL     1       4.136  68.575 -36.158  1.00  0.00     0.019 C 
HETATM    7  C16 UNL     1       2.861  67.026 -37.800  1.00  0.00     0.002 C 
HETATM    8  C12 UNL     1       4.849  68.650 -39.078  1.00  0.00     0.133 C 
HETATM    9  C11 UNL     1       3.457  68.529 -39.737  1.00  0.00     0.072 C 
HETATM   10  O2  UNL     1       5.648  69.548 -39.337  1.00  0.00    -0.297 OA
HETATM   11  C2  UNL     1       3.046  69.720 -40.677  1.00  0.00    -0.009 C 
HETATM   12  C10 UNL     1       2.382  68.208 -38.657  1.00  0.00     0.003 C 
HETATM   13  C1  UNL     1       3.068  71.079 -39.944  1.00  0.00     0.021 C 
HETATM   14  C3  UNL     1       4.026  69.762 -41.891  1.00  0.00     0.022 C 
HETATM   15  C7  UNL     1       1.614  69.490 -41.193  1.00  0.00    -0.067 C 
HETATM   16  C4  UNL     1       3.540  70.632 -43.042  1.00  0.00     0.084 C 
HETATM   17  C5  UNL     1       2.179  70.181 -43.497  1.00  0.00     0.149 C 
HETATM   18  O1  UNL     1       1.803  70.291 -44.661  1.00  0.00    -0.293 OA
HETATM   19  C6  UNL     1       1.243  69.660 -42.476  1.00  0.00     0.053 C 
HETATM   20  C8  UNL     1       0.576  69.081 -40.175  1.00  0.00     0.035 C 
HETATM   21  C9  UNL     1       1.038  67.902 -39.330  1.00  0.00     0.010 C 
HETATM   22  C17 UNL     1       1.941  66.529 -36.693  1.00  0.00     0.009 C 
HETATM   23  C18 UNL     1       2.863  65.739 -35.747  1.00  0.00     0.047 C 
BRANCH   3  24
HETATM   24  O3  UNL     1       4.657  64.914 -37.065  1.00  0.00    -0.381 OA
HETATM   25  H25 UNL     1       5.607  64.955 -37.279  1.00  0.00     0.211 HD
ENDBRANCH   3  24
ENDBRANCH   1   3
BRANCH   1  26
HETATM   26  C21 UNL     1       6.769  66.007 -35.188  1.00  0.00     0.260 C 
BRANCH  26  27
HETATM   27  O5  UNL     1       7.192  64.892 -35.967  1.00  0.00    -0.314 OA
BRANCH  27  28
HETATM   28  C22 UNL     1       8.473  64.996 -36.431  1.00  0.00     0.259 C 
HETATM   29  O6  UNL     1       8.931  65.976 -37.000  1.00  0.00    -0.265 OA
BRANCH  28  30
HETATM   30  C23 UNL     1       9.299  63.794 -36.047  1.00  0.00     0.120 C 
BRANCH  30  31
HETATM   31  C24 UNL     1       9.258  63.459 -34.562  1.00  0.00     0.112 C 
BRANCH  31  32
HETATM   32  C25 UNL     1       8.290  62.327 -34.284  1.00  0.00     0.218 C 
HETATM   33  O7  UNL     1       8.325  61.677 -33.246  1.00  0.00    -0.274 OA
HETATM   34  N1  UNL     1       7.418  62.063 -35.305  1.00  0.00    -0.347 N 
HETATM   35  H32 UNL     1       7.327  62.706 -36.088  1.00  0.00     0.163 HD
BRANCH  34  36
HETATM   36  C26 UNL     1       6.339  61.082 -35.190  1.00  0.00     0.182 C 
BRANCH  36  37
HETATM   37  C27 UNL     1       5.333  61.389 -34.067  1.00  0.00     0.045 C 
BRANCH  37  38
HETATM   38  C28 UNL     1       4.919  62.848 -33.871  1.00  0.00     0.105 C 
BRANCH  38  39
HETATM   39  C29 UNL     1       4.269  63.156 -32.542  1.00  0.00     0.215 C 
HETATM   40  N2  UNL     1       3.335  62.241 -32.154  1.00  0.00    -0.370 N 
HETATM   41  H38 UNL     1       3.283  61.325 -32.576  1.00  0.00     0.159 HD
HETATM   42  H39 UNL     1       2.934  62.360 -31.231  1.00  0.00     0.159 HD
HETATM   43  O8  UNL     1       4.502  64.141 -31.857  1.00  0.00    -0.274 OA
ENDBRANCH  38  39
ENDBRANCH  37  38
ENDBRANCH  36  37
BRANCH  36  44
HETATM   44  C30 UNL     1       6.904  59.657 -35.088  1.00  0.00     0.163 C 
HETATM   45  O9  UNL     1       7.154  58.904 -36.015  1.00  0.00    -0.648 OA
BRANCH  44  46
HETATM   46  O10 UNL     1       7.193  59.287 -33.819  1.00  0.00    -0.775 OA
HETATM   47  H40 UNL     1       7.492  58.357 -33.924  1.00  0.00     0.167 HD
ENDBRANCH  44  46
ENDBRANCH  36  44
ENDBRANCH  34  36
ENDBRANCH  31  32
ENDBRANCH  30  31
ENDBRANCH  28  30
ENDBRANCH  27  28
ENDBRANCH  26  27
ENDBRANCH   1  26
TORSDOF 14
ENDMDL
MODEL 6
REMARK minimizedAffinity -8.99649429
REMARK CNNscore 0.354797661
REMARK CNNaffinity 6.11185217
REMARK  14 active torsions:
REMARK  status: ('A' for Active; 'I' for Inactive)
REMARK    1  A    between atoms: C19_21  and  O3_22 
REMARK    2  A    between atoms: C19_21  and  C20_23 
REMARK    3  A    between atoms: C20_23  and  C21_25 
REMARK    4  A    between atoms: C21_25  and  O5_26 
REMARK    5  A    between atoms: O5_26  and  C22_27 
REMARK    6  A    between atoms: C22_27  and  C23_29 
REMARK    7  A    between atoms: C23_29  and  C24_30 
REMARK    8  A    between atoms: C24_30  and  C25_31 
REMARK       I    between atoms: C25_31  and  N1_33 
REMARK    9  A    between atoms: N1_33  and  C26_34 
REMARK   10  A    between atoms: C26_34  and  C27_35 
REMARK   11  A    between atoms: C26_34  and  C30_40 
REMARK   12  A    between atoms: C27_35  and  C28_36 
REMARK   13  A    between atoms: C28_36  and  C29_37 
REMARK       I    between atoms: C29_37  and  N2_38 
REMARK   14  A    between atoms: C30_40  and  O10_42 
ROOT
HETATM    1  C20 UNL     1      -7.382  48.344 -23.255  1.00  0.00     0.185 C 
HETATM    2  O4  UNL     1      -7.448  47.203 -22.785  1.00  0.00    -0.292 OA
ENDROOT
BRANCH   1   3
HETATM    3  C19 UNL     1      -6.784  49.533 -22.446  1.00  0.00     0.128 C 
HETATM    4  C14 UNL     1      -5.225  49.506 -22.318  1.00  0.00     0.005 C 
HETATM    5  C13 UNL     1      -4.444  50.150 -23.468  1.00  0.00     0.091 C 
HETATM    6  C15 UNL     1      -4.703  48.059 -22.106  1.00  0.00     0.019 C 
HETATM    7  C16 UNL     1      -5.033  50.415 -21.075  1.00  0.00     0.002 C 
HETATM    8  C12 UNL     1      -2.982  50.326 -23.076  1.00  0.00     0.133 C 
HETATM    9  C11 UNL     1      -2.698  51.081 -21.758  1.00  0.00     0.072 C 
HETATM   10  O2  UNL     1      -2.100  49.943 -23.843  1.00  0.00    -0.297 OA
HETATM   11  C2  UNL     1      -1.181  51.218 -21.367  1.00  0.00    -0.009 C 
HETATM   12  C10 UNL     1      -3.572  50.495 -20.609  1.00  0.00     0.003 C 
HETATM   13  C1  UNL     1      -0.483  49.846 -21.245  1.00  0.00     0.021 C 
HETATM   14  C3  UNL     1      -0.461  52.081 -22.449  1.00  0.00     0.022 C 
HETATM   15  C7  UNL     1      -1.070  51.922 -20.003  1.00  0.00    -0.067 C 
HETATM   16  C4  UNL     1       0.913  52.580 -22.020  1.00  0.00     0.084 C 
HETATM   17  C5  UNL     1       0.808  53.352 -20.734  1.00  0.00     0.149 C 
HETATM   18  O1  UNL     1       1.564  54.281 -20.460  1.00  0.00    -0.293 OA
HETATM   19  C6  UNL     1      -0.198  52.913 -19.740  1.00  0.00     0.053 C 
HETATM   20  C8  UNL     1      -1.980  51.433 -18.902  1.00  0.00     0.035 C 
HETATM   21  C9  UNL     1      -3.433  51.362 -19.351  1.00  0.00     0.010 C 
HETATM   22  C17 UNL     1      -6.069  49.890 -20.087  1.00  0.00     0.009 C 
HETATM   23  C18 UNL     1      -7.261  49.466 -20.964  1.00  0.00     0.047 C 
BRANCH   3  24
HETATM   24  O3  UNL     1      -7.198  50.820 -22.913  1.00  0.00    -0.381 OA
HETATM   25  H25 UNL     1      -7.047  50.870 -23.874  1.00  0.00     0.211 HD
ENDBRANCH   3  24
ENDBRANCH   1   3
BRANCH   1  26
HETATM   26  C21 UNL     1      -7.735  48.581 -24.724  1.00  0.00     0.260 C 
BRANCH  26  27
HETATM   27  O5  UNL     1      -8.958  49.270 -24.974  1.00  0.00    -0.314 OA
BRANCH  27  28
HETATM   28  C22 UNL     1      -9.742  48.675 -25.922  1.00  0.00     0.259 C 
HETATM   29  O6  UNL     1     -10.957  48.786 -25.992  1.00  0.00    -0.265 OA
BRANCH  28  30
HETATM   30  C23 UNL     1      -8.911  47.954 -26.954  1.00  0.00     0.120 C 
BRANCH  30  31
HETATM   31  C24 UNL     1      -8.845  48.658 -28.302  1.00  0.00     0.112 C 
BRANCH  31  32
HETATM   32  C25 UNL     1      -7.819  48.008 -29.208  1.00  0.00     0.218 C 
HETATM   33  O7  UNL     1      -7.257  46.959 -28.914  1.00  0.00    -0.274 OA
HETATM   34  N1  UNL     1      -7.538  48.715 -30.346  1.00  0.00    -0.347 N 
HETATM   35  H32 UNL     1      -8.119  49.503 -30.622  1.00  0.00     0.163 HD
BRANCH  34  36
HETATM   36  C26 UNL     1      -6.658  48.206 -31.397  1.00  0.00     0.182 C 
BRANCH  36  37
HETATM   37  C27 UNL     1      -6.882  46.721 -31.736  1.00  0.00     0.045 C 
BRANCH  37  38
HETATM   38  C28 UNL     1      -5.699  45.770 -31.553  1.00  0.00     0.105 C 
BRANCH  38  39
HETATM   39  C29 UNL     1      -6.026  44.304 -31.713  1.00  0.00     0.215 C 
HETATM   40  N2  UNL     1      -5.836  43.825 -32.976  1.00  0.00    -0.370 N 
HETATM   41  H38 UNL     1      -5.283  44.328 -33.655  1.00  0.00     0.159 HD
HETATM   42  H39 UNL     1      -5.961  42.830 -33.112  1.00  0.00     0.159 HD
HETATM   43  O8  UNL     1      -6.458  43.579 -30.828  1.00  0.00    -0.274 OA
ENDBRANCH  38  39
ENDBRANCH  37  38
ENDBRANCH  36  37
BRANCH  36  44
HETATM   44  C30 UNL     1      -5.187  48.510 -31.074  1.00  0.00     0.163 C 
HETATM   45  O9  UNL     1      -4.687  48.593 -29.963  1.00  0.00    -0.648 OA
BRANCH  44  46
HETATM   46  O10 UNL     1      -4.409  48.618 -32.176  1.00  0.00    -0.775 OA
HETATM   47  H40 UNL     1      -3.531  48.853 -31.803  1.00  0.00     0.167 HD
ENDBRANCH  44  46
ENDBRANCH  36  44
ENDBRANCH  34  36
ENDBRANCH  31  32
ENDBRANCH  30  31
ENDBRANCH  28  30
ENDBRANCH  27  28
ENDBRANCH  26  27
ENDBRANCH   1  26
TORSDOF 14
ENDMDL
MODEL 7
REMARK minimizedAffinity -7.63346291
REMARK CNNscore 0.345763385
REMARK CNNaffinity 5.85563087
REMARK  14 active torsions:
REMARK  status: ('A' for Active; 'I' for Inactive)
REMARK    1  A    between atoms: C19_21  and  O3_22 
REMARK    2  A    between atoms: C19_21  and  C20_23 
REMARK    3  A    between atoms: C20_23  and  C21_25 
REMARK    4  A    between atoms: C21_25  and  O5_26 
REMARK    5  A    between atoms: O5_26  and  C22_27 
REMARK    6  A    between atoms: C22_27  and  C23_29 
REMARK    7  A    between atoms: C23_29  and  C24_30 
REMARK    8  A    between atoms: C24_30  and  C25_31 
REMARK       I    between atoms: C25_31  and  N1_33 
REMARK    9  A    between atoms: N1_33  and  C26_34 
REMARK   10  A    between atoms: C26_34  and  C27_35 
REMARK   11  A    between atoms: C26_34  and  C30_40 
REMARK   12  A    between atoms: C27_35  and  C28_36 
REMARK   13  A    between atoms: C28_36  and  C29_37 
REMARK       I    between atoms: C29_37  and  N2_38 
REMARK   14  A    between atoms: C30_40  and  O10_42 
ROOT
HETATM    1  C20 UNL     1      -4.813  48.422 -18.945  1.00  0.00     0.185 C 
HETATM    2  O4  UNL     1      -4.280  49.030 -18.010  1.00  0.00    -0.292 OA
ENDROOT
BRANCH   1   3
HETATM    3  C19 UNL     1      -4.029  48.053 -20.239  1.00  0.00     0.128 C 
HETATM    4  C14 UNL     1      -3.612  49.283 -21.112  1.00  0.00     0.005 C 
HETATM    5  C13 UNL     1      -2.289  49.959 -20.735  1.00  0.00     0.091 C 
HETATM    6  C15 UNL     1      -4.733  50.357 -21.141  1.00  0.00     0.019 C 
HETATM    7  C16 UNL     1      -3.392  48.589 -22.482  1.00  0.00     0.002 C 
HETATM    8  C12 UNL     1      -1.861  50.925 -21.833  1.00  0.00     0.133 C 
HETATM    9  C11 UNL     1      -1.774  50.357 -23.267  1.00  0.00     0.072 C 
HETATM   10  O2  UNL     1      -1.530  52.070 -21.535  1.00  0.00    -0.297 OA
HETATM   11  C2  UNL     1      -1.360  51.388 -24.381  1.00  0.00    -0.009 C 
HETATM   12  C10 UNL     1      -3.078  49.578 -23.613  1.00  0.00     0.003 C 
HETATM   13  C1  UNL     1      -2.320  52.596 -24.445  1.00  0.00     0.021 C 
HETATM   14  C3  UNL     1       0.090  51.883 -24.091  1.00  0.00     0.022 C 
HETATM   15  C7  UNL     1      -1.392  50.692 -25.754  1.00  0.00    -0.067 C 
HETATM   16  C4  UNL     1       0.737  52.605 -25.265  1.00  0.00     0.084 C 
HETATM   17  C5  UNL     1       0.730  51.726 -26.486  1.00  0.00     0.149 C 
HETATM   18  O1  UNL     1       1.604  51.786 -27.346  1.00  0.00    -0.293 OA
HETATM   19  C6  UNL     1      -0.423  50.818 -26.680  1.00  0.00     0.053 C 
HETATM   20  C8  UNL     1      -2.606  49.851 -26.070  1.00  0.00     0.035 C 
HETATM   21  C9  UNL     1      -2.917  48.858 -24.958  1.00  0.00     0.010 C 
HETATM   22  C17 UNL     1      -4.622  47.701 -22.632  1.00  0.00     0.009 C 
HETATM   23  C18 UNL     1      -4.938  47.230 -21.201  1.00  0.00     0.047 C 
BRANCH   3  24
HETATM   24  O3  UNL     1      -2.884  47.227 -20.009  1.00  0.00    -0.381 OA
HETATM   25  H25 UNL     1      -2.340  47.630 -19.308  1.00  0.00     0.211 HD
ENDBRANCH   3  24
ENDBRANCH   1   3
BRANCH   1  26
HETATM   26  C21 UNL     1      -6.227  47.864 -18.779  1.00  0.00     0.260 C 
BRANCH  26  27
HETATM   27  O5  UNL     1      -7.274  48.823 -18.661  1.00  0.00    -0.314 OA
BRANCH  27  28
HETATM   28  C22 UNL     1      -8.395  48.506 -19.374  1.00  0.00     0.259 C 
HETATM   29  O6  UNL     1      -8.410  48.222 -20.563  1.00  0.00    -0.265 OA
BRANCH  28  30
HETATM   30  C23 UNL     1      -9.612  48.431 -18.486  1.00  0.00     0.120 C 
BRANCH  30  31
HETATM   31  C24 UNL     1     -10.933  48.391 -19.241  1.00  0.00     0.112 C 
BRANCH  31  32
HETATM   32  C25 UNL     1     -11.669  47.090 -18.989  1.00  0.00     0.218 C 
HETATM   33  O7  UNL     1     -11.099  46.005 -18.996  1.00  0.00    -0.274 OA
HETATM   34  N1  UNL     1     -13.018  47.227 -18.810  1.00  0.00    -0.347 N 
HETATM   35  H32 UNL     1     -13.432  48.146 -18.675  1.00  0.00     0.163 HD
BRANCH  34  36
HETATM   36  C26 UNL     1     -13.887  46.107 -18.450  1.00  0.00     0.182 C 
BRANCH  36  37
HETATM   37  C27 UNL     1     -15.246  46.112 -19.174  1.00  0.00     0.045 C 
BRANCH  37  38
HETATM   38  C28 UNL     1     -15.561  47.307 -20.074  1.00  0.00     0.105 C 
BRANCH  38  39
HETATM   39  C29 UNL     1     -15.301  47.087 -21.545  1.00  0.00     0.215 C 
HETATM   40  N2  UNL     1     -16.038  46.079 -22.096  1.00  0.00    -0.370 N 
HETATM   41  H38 UNL     1     -16.857  45.710 -21.636  1.00  0.00     0.159 HD
HETATM   42  H39 UNL     1     -15.960  45.951 -23.097  1.00  0.00     0.159 HD
HETATM   43  O8  UNL     1     -14.488  47.705 -22.216  1.00  0.00    -0.274 OA
ENDBRANCH  38  39
ENDBRANCH  37  38
ENDBRANCH  36  37
BRANCH  36  44
HETATM   44  C30 UNL     1     -14.043  46.004 -16.925  1.00  0.00     0.163 C 
HETATM   45  O9  UNL     1     -14.357  45.009 -16.291  1.00  0.00    -0.648 OA
BRANCH  44  46
HETATM   46  O10 UNL     1     -13.720  47.147 -16.277  1.00  0.00    -0.775 OA
HETATM   47  H40 UNL     1     -13.915  46.929 -15.339  1.00  0.00     0.167 HD
ENDBRANCH  44  46
ENDBRANCH  36  44
ENDBRANCH  34  36
ENDBRANCH  31  32
ENDBRANCH  30  31
ENDBRANCH  28  30
ENDBRANCH  27  28
ENDBRANCH  26  27
ENDBRANCH   1  26
TORSDOF 14
ENDMDL
MODEL 8
REMARK minimizedAffinity -8.01708794
REMARK CNNscore 0.33179298
REMARK CNNaffinity 5.99616241
REMARK  14 active torsions:
REMARK  status: ('A' for Active; 'I' for Inactive)
REMARK    1  A    between atoms: C19_21  and  O3_22 
REMARK    2  A    between atoms: C19_21  and  C20_23 
REMARK    3  A    between atoms: C20_23  and  C21_25 
REMARK    4  A    between atoms: C21_25  and  O5_26 
REMARK    5  A    between atoms: O5_26  and  C22_27 
REMARK    6  A    between atoms: C22_27  and  C23_29 
REMARK    7  A    between atoms: C23_29  and  C24_30 
REMARK    8  A    between atoms: C24_30  and  C25_31 
REMARK       I    between atoms: C25_31  and  N1_33 
REMARK    9  A    between atoms: N1_33  and  C26_34 
REMARK   10  A    between atoms: C26_34  and  C27_35 
REMARK   11  A    between atoms: C26_34  and  C30_40 
REMARK   12  A    between atoms: C27_35  and  C28_36 
REMARK   13  A    between atoms: C28_36  and  C29_37 
REMARK       I    between atoms: C29_37  and  N2_38 
REMARK   14  A    between atoms: C30_40  and  O10_42 
ROOT
HETATM    1  C20 UNL     1      -4.451  48.568 -18.922  1.00  0.00     0.185 C 
HETATM    2  O4  UNL     1      -3.878  49.233 -18.050  1.00  0.00    -0.292 OA
ENDROOT
BRANCH   1   3
HETATM    3  C19 UNL     1      -3.743  48.177 -20.253  1.00  0.00     0.128 C 
HETATM    4  C14 UNL     1      -3.335  49.394 -21.148  1.00  0.00     0.005 C 
HETATM    5  C13 UNL     1      -1.976  50.032 -20.838  1.00  0.00     0.091 C 
HETATM    6  C15 UNL     1      -4.425  50.500 -21.122  1.00  0.00     0.019 C 
HETATM    7  C16 UNL     1      -3.205  48.694 -22.526  1.00  0.00     0.002 C 
HETATM    8  C12 UNL     1      -1.577  50.985 -21.958  1.00  0.00     0.133 C 
HETATM    9  C11 UNL     1      -1.578  50.415 -23.394  1.00  0.00     0.072 C 
HETATM   10  O2  UNL     1      -1.199  52.121 -21.679  1.00  0.00    -0.297 OA
HETATM   11  C2  UNL     1      -1.191  51.433 -24.529  1.00  0.00    -0.009 C 
HETATM   12  C10 UNL     1      -2.920  49.674 -23.673  1.00  0.00     0.003 C 
HETATM   13  C1  UNL     1      -2.118  52.669 -24.547  1.00  0.00     0.021 C 
HETATM   14  C3  UNL     1       0.286  51.887 -24.313  1.00  0.00     0.022 C 
HETATM   15  C7  UNL     1      -1.312  50.738 -25.898  1.00  0.00    -0.067 C 
HETATM   16  C4  UNL     1       0.893  52.590 -25.519  1.00  0.00     0.084 C 
HETATM   17  C5  UNL     1       0.799  51.711 -26.736  1.00  0.00     0.149 C 
HETATM   18  O1  UNL     1       1.631  51.746 -27.640  1.00  0.00    -0.293 OA
HETATM   19  C6  UNL     1      -0.387  50.836 -26.871  1.00  0.00     0.053 C 
HETATM   20  C8  UNL     1      -2.563  49.933 -26.150  1.00  0.00     0.035 C 
HETATM   21  C9  UNL     1      -2.846  48.949 -25.023  1.00  0.00     0.010 C 
HETATM   22  C17 UNL     1      -4.465  47.842 -22.612  1.00  0.00     0.009 C 
HETATM   23  C18 UNL     1      -4.722  47.380 -21.167  1.00  0.00     0.047 C 
BRANCH   3  24
HETATM   24  O3  UNL     1      -2.612  47.319 -20.079  1.00  0.00    -0.381 OA
HETATM   25  H25 UNL     1      -2.023  47.706 -19.407  1.00  0.00     0.211 HD
ENDBRANCH   3  24
ENDBRANCH   1   3
BRANCH   1  26
HETATM   26  C21 UNL     1      -5.826  47.965 -18.636  1.00  0.00     0.260 C 
BRANCH  26  27
HETATM   27  O5  UNL     1      -6.921  48.876 -18.606  1.00  0.00    -0.314 OA
BRANCH  27  28
HETATM   28  C22 UNL     1      -7.734  48.799 -19.701  1.00  0.00     0.259 C 
HETATM   29  O6  UNL     1      -7.506  49.328 -20.779  1.00  0.00    -0.265 OA
BRANCH  28  30
HETATM   30  C23 UNL     1      -8.900  47.873 -19.458  1.00  0.00     0.120 C 
BRANCH  30  31
HETATM   31  C24 UNL     1      -9.208  47.632 -17.987  1.00  0.00     0.112 C 
BRANCH  31  32
HETATM   32  C25 UNL     1     -10.701  47.672 -17.727  1.00  0.00     0.218 C 
HETATM   33  O7  UNL     1     -11.168  47.669 -16.594  1.00  0.00    -0.274 OA
HETATM   34  N1  UNL     1     -11.473  47.656 -18.857  1.00  0.00    -0.347 N 
HETATM   35  H32 UNL     1     -11.055  47.797 -19.773  1.00  0.00     0.163 HD
BRANCH  34  36
HETATM   36  C26 UNL     1     -12.929  47.796 -18.822  1.00  0.00     0.182 C 
BRANCH  36  37
HETATM   37  C27 UNL     1     -13.681  46.463 -18.662  1.00  0.00     0.045 C 
BRANCH  37  38
HETATM   38  C28 UNL     1     -14.749  46.382 -17.570  1.00  0.00     0.105 C 
BRANCH  38  39
HETATM   39  C29 UNL     1     -14.289  45.771 -16.268  1.00  0.00     0.215 C 
HETATM   40  N2  UNL     1     -14.242  44.407 -16.280  1.00  0.00    -0.370 N 
HETATM   41  H38 UNL     1     -14.252  43.884 -17.144  1.00  0.00     0.159 HD
HETATM   42  H39 UNL     1     -13.858  43.956 -15.458  1.00  0.00     0.159 HD
HETATM   43  O8  UNL     1     -14.006  46.397 -15.258  1.00  0.00    -0.274 OA
ENDBRANCH  38  39
ENDBRANCH  37  38
ENDBRANCH  36  37
BRANCH  36  44
HETATM   44  C30 UNL     1     -13.430  48.603 -20.030  1.00  0.00     0.163 C 
HETATM   45  O9  UNL     1     -13.831  49.755 -20.021  1.00  0.00    -0.648 OA
BRANCH  44  46
HETATM   46  O10 UNL     1     -13.326  47.931 -21.200  1.00  0.00    -0.775 OA
HETATM   47  H40 UNL     1     -13.722  48.556 -21.847  1.00  0.00     0.167 HD
ENDBRANCH  44  46
ENDBRANCH  36  44
ENDBRANCH  34  36
ENDBRANCH  31  32
ENDBRANCH  30  31
ENDBRANCH  28  30
ENDBRANCH  27  28
ENDBRANCH  26  27
ENDBRANCH   1  26
TORSDOF 14
ENDMDL
MODEL 9
REMARK minimizedAffinity -7.91048241
REMARK CNNscore 0.322425634
REMARK CNNaffinity 6.22837305
REMARK  14 active torsions:
REMARK  status: ('A' for Active; 'I' for Inactive)
REMARK    1  A    between atoms: C19_21  and  O3_22 
REMARK    2  A    between atoms: C19_21  and  C20_23 
REMARK    3  A    between atoms: C20_23  and  C21_25 
REMARK    4  A    between atoms: C21_25  and  O5_26 
REMARK    5  A    between atoms: O5_26  and  C22_27 
REMARK    6  A    between atoms: C22_27  and  C23_29 
REMARK    7  A    between atoms: C23_29  and  C24_30 
REMARK    8  A    between atoms: C24_30  and  C25_31 
REMARK       I    between atoms: C25_31  and  N1_33 
REMARK    9  A    between atoms: N1_33  and  C26_34 
REMARK   10  A    between atoms: C26_34  and  C27_35 
REMARK   11  A    between atoms: C26_34  and  C30_40 
REMARK   12  A    between atoms: C27_35  and  C28_36 
REMARK   13  A    between atoms: C28_36  and  C29_37 
REMARK       I    between atoms: C29_37  and  N2_38 
REMARK   14  A    between atoms: C30_40  and  O10_42 
ROOT
HETATM    1  C20 UNL     1       8.008  64.050 -34.581  1.00  0.00     0.185 C 
HETATM    2  O4  UNL     1       8.270  64.346 -33.409  1.00  0.00    -0.292 OA
ENDROOT
BRANCH   1   3
HETATM    3  C19 UNL     1       6.539  63.950 -35.093  1.00  0.00     0.128 C 
HETATM    4  C14 UNL     1       6.017  65.241 -35.806  1.00  0.00     0.005 C 
HETATM    5  C13 UNL     1       6.327  65.356 -37.303  1.00  0.00     0.091 C 
HETATM    6  C15 UNL     1       6.524  66.522 -35.090  1.00  0.00     0.019 C 
HETATM    7  C16 UNL     1       4.486  65.030 -35.674  1.00  0.00     0.002 C 
HETATM    8  C12 UNL     1       5.512  66.485 -37.922  1.00  0.00     0.133 C 
HETATM    9  C11 UNL     1       3.983  66.446 -37.700  1.00  0.00     0.072 C 
HETATM   10  O2  UNL     1       6.075  67.320 -38.626  1.00  0.00    -0.297 OA
HETATM   11  C2  UNL     1       3.177  67.642 -38.326  1.00  0.00    -0.009 C 
HETATM   12  C10 UNL     1       3.668  66.223 -36.191  1.00  0.00     0.003 C 
HETATM   13  C1  UNL     1       3.660  69.012 -37.802  1.00  0.00     0.021 C 
HETATM   14  C3  UNL     1       3.326  67.590 -39.878  1.00  0.00     0.022 C 
HETATM   15  C7  UNL     1       1.688  67.499 -37.957  1.00  0.00    -0.067 C 
HETATM   16  C4  UNL     1       2.325  68.466 -40.620  1.00  0.00     0.084 C 
HETATM   17  C5  UNL     1       0.921  68.099 -40.227  1.00  0.00     0.149 C 
HETATM   18  O1  UNL     1      -0.029  68.210 -40.998  1.00  0.00    -0.293 OA
HETATM   19  C6  UNL     1       0.680  67.666 -38.832  1.00  0.00     0.053 C 
HETATM   20  C8  UNL     1       1.366  67.185 -36.515  1.00  0.00     0.035 C 
HETATM   21  C9  UNL     1       2.164  65.995 -35.999  1.00  0.00     0.010 C 
HETATM   22  C17 UNL     1       4.307  64.621 -34.217  1.00  0.00     0.009 C 
HETATM   23  C18 UNL     1       5.562  63.791 -33.890  1.00  0.00     0.047 C 
BRANCH   3  24
HETATM   24  O3  UNL     1       6.292  62.816 -35.928  1.00  0.00    -0.381 OA
HETATM   25  H25 UNL     1       6.967  62.787 -36.630  1.00  0.00     0.211 HD
ENDBRANCH   3  24
ENDBRANCH   1   3
BRANCH   1  26
HETATM   26  C21 UNL     1       9.135  63.938 -35.607  1.00  0.00     0.260 C 
BRANCH  26  27
HETATM   27  O5  UNL     1       9.750  62.658 -35.731  1.00  0.00    -0.314 OA
BRANCH  27  28
HETATM   28  C22 UNL     1      10.951  62.684 -36.382  1.00  0.00     0.259 C 
HETATM   29  O6  UNL     1      11.241  61.981 -37.339  1.00  0.00    -0.265 OA
BRANCH  28  30
HETATM   30  C23 UNL     1      11.844  63.779 -35.852  1.00  0.00     0.120 C 
BRANCH  30  31
HETATM   31  C24 UNL     1      13.133  63.967 -36.640  1.00  0.00     0.112 C 
BRANCH  31  32
HETATM   32  C25 UNL     1      14.287  63.239 -35.982  1.00  0.00     0.218 C 
HETATM   33  O7  UNL     1      14.225  62.054 -35.677  1.00  0.00    -0.274 OA
HETATM   34  N1  UNL     1      15.373  64.026 -35.710  1.00  0.00    -0.347 N 
HETATM   35  H32 UNL     1      15.443  64.964 -36.098  1.00  0.00     0.163 HD
BRANCH  34  36
HETATM   36  C26 UNL     1      16.625  63.491 -35.176  1.00  0.00     0.182 C 
BRANCH  36  37
HETATM   37  C27 UNL     1      17.707  64.558 -34.933  1.00  0.00     0.045 C 
BRANCH  37  38
HETATM   38  C28 UNL     1      18.457  64.512 -33.600  1.00  0.00     0.105 C 
BRANCH  38  39
HETATM   39  C29 UNL     1      17.952  63.482 -32.617  1.00  0.00     0.215 C 
HETATM   40  N2  UNL     1      18.861  62.512 -32.310  1.00  0.00    -0.370 N 
HETATM   41  H38 UNL     1      19.845  62.626 -32.508  1.00  0.00     0.159 HD
HETATM   42  H39 UNL     1      18.597  61.849 -31.592  1.00  0.00     0.159 HD
HETATM   43  O8  UNL     1      16.827  63.458 -32.140  1.00  0.00    -0.274 OA
ENDBRANCH  38  39
ENDBRANCH  37  38
ENDBRANCH  36  37
BRANCH  36  44
HETATM   44  C30 UNL     1      17.139  62.332 -36.043  1.00  0.00     0.163 C 
HETATM   45  O9  UNL     1      17.528  62.403 -37.198  1.00  0.00    -0.648 OA
BRANCH  44  46
HETATM   46  O10 UNL     1      17.207  61.156 -35.377  1.00  0.00    -0.775 OA
HETATM   47  H40 UNL     1      17.504  60.528 -36.072  1.00  0.00     0.167 HD
ENDBRANCH  44  46
ENDBRANCH  36  44
ENDBRANCH  34  36
ENDBRANCH  31  32
ENDBRANCH  30  31
ENDBRANCH  28  30
ENDBRANCH  27  28
ENDBRANCH  26  27
ENDBRANCH   1  26
TORSDOF 14
ENDMDL
