MODEL 1
REMARK minimizedAffinity -9.15042305
REMARK  5 active torsions:
REMARK  status: ('A' for Active; 'I' for Inactive)
REMARK    1  A    between atoms: C2_2  and  C4_4 
REMARK    2  A    between atoms: C7_7  and  C8_8 
REMARK    3  A    between atoms: C8_8  and  O2_10 
REMARK    4  A    between atoms: C22_25  and  C24_27 
REMARK    5  A    between atoms: C24_27  and  O4_28 
ROOT
HETATM    1  C4  UNL     1      -7.241   6.603  14.463  1.00  0.00     0.019 C 
HETATM    2  C5  UNL     1      -7.301   5.346  15.333  1.00  0.00     0.011 C 
HETATM    3  C6  UNL     1      -7.045   4.189  14.373  1.00  0.00     0.021 C 
HETATM    4  C7  UNL     1      -6.303   4.761  13.141  1.00  0.00     0.050 C 
HETATM    5  C9  UNL     1      -4.930   4.090  12.939  1.00  0.00     0.022 C 
HETATM    6  C10 UNL     1      -3.913   4.445  14.024  1.00  0.00     0.011 C 
HETATM    7  C11 UNL     1      -3.629   5.971  14.184  1.00  0.00    -0.032 C 
HETATM    8  C12 UNL     1      -3.739   6.264  15.707  1.00  0.00     0.016 C 
HETATM    9  C13 UNL     1      -4.694   6.799  13.381  1.00  0.00     0.000 C 
HETATM   10  C14 UNL     1      -4.491   8.310  13.551  1.00  0.00     0.006 C 
HETATM   11  C15 UNL     1      -3.087   8.754  13.118  1.00  0.00     0.006 C 
HETATM   12  C16 UNL     1      -1.954   7.959  13.812  1.00  0.00     0.003 C 
HETATM   13  C17 UNL     1      -0.496   8.546  13.549  1.00  0.00    -0.035 C 
HETATM   14  C18 UNL     1      -0.154   8.626  12.043  1.00  0.00     0.016 C 
HETATM   15  C19 UNL     1      -0.461  10.018  14.090  1.00  0.00     0.017 C 
HETATM   16  C20 UNL     1       0.875  10.491  14.650  1.00  0.00     0.080 C 
HETATM   17  C21 UNL     1       2.059   9.727  14.118  1.00  0.00     0.137 C 
HETATM   18  O3  UNL     1       3.058  10.329  13.719  1.00  0.00    -0.297 OA
HETATM   19  C22 UNL     1       2.038   8.201  14.255  1.00  0.00     0.042 C 
HETATM   20  C23 UNL     1       2.819   7.565  13.085  1.00  0.00     0.026 C 
HETATM   21  C25 UNL     1       0.548   7.706  14.369  1.00  0.00     0.012 C 
HETATM   22  C26 UNL     1       0.402   6.191  14.134  1.00  0.00     0.007 C 
HETATM   23  C27 UNL     1      -1.009   5.690  14.453  1.00  0.00     0.011 C 
HETATM   24  C28 UNL     1      -2.139   6.394  13.642  1.00  0.00    -0.032 C 
HETATM   25  C29 UNL     1      -1.987   5.956  12.153  1.00  0.00     0.016 C 
HETATM   26  C30 UNL     1      -6.179   6.309  13.370  1.00  0.00     0.017 C 
ENDROOT
BRANCH   4  27
HETATM   27  C8  UNL     1      -7.176   4.475  11.910  1.00  0.00     0.149 C 
HETATM   28  O1  UNL     1      -8.276   4.942  11.658  1.00  0.00    -0.649 OA
BRANCH  27  29
HETATM   29  O2  UNL     1      -6.635   3.572  11.069  1.00  0.00    -0.776 OA
HETATM   30  H11 UNL     1      -7.309   3.479  10.365  1.00  0.00     0.167 HD
ENDBRANCH  27  29
ENDBRANCH   4  27
BRANCH   1  31
HETATM   31  C2  UNL     1      -7.249   7.947  15.159  1.00  0.00    -0.088 C 
HETATM   32  C1  UNL     1      -6.198   8.500  15.781  1.00  0.00     0.014 C 
HETATM   33  C3  UNL     1      -8.593   8.632  15.201  1.00  0.00     0.043 C 
ENDBRANCH   1  31
BRANCH  19  34
HETATM   34  C24 UNL     1       2.788   7.903  15.582  1.00  0.00     0.181 C 
BRANCH  34  35
HETATM   35  O4  UNL     1       3.212   6.547  15.677  1.00  0.00    -0.400 OA
HETATM   36  H37 UNL     1       3.744   6.340  14.880  1.00  0.00     0.209 HD
ENDBRANCH  34  35
ENDBRANCH  19  34
TORSDOF 5
ENDMDL
MODEL 2
REMARK minimizedAffinity -8.52063274
REMARK  5 active torsions:
REMARK  status: ('A' for Active; 'I' for Inactive)
REMARK    1  A    between atoms: C2_2  and  C4_4 
REMARK    2  A    between atoms: C7_7  and  C8_8 
REMARK    3  A    between atoms: C8_8  and  O2_10 
REMARK    4  A    between atoms: C22_25  and  C24_27 
REMARK    5  A    between atoms: C24_27  and  O4_28 
ROOT
HETATM    1  C4  UNL     1      -6.194   5.114  13.547  1.00  0.00     0.019 C 
HETATM    2  C5  UNL     1      -7.045   6.200  12.886  1.00  0.00     0.011 C 
HETATM    3  C6  UNL     1      -7.523   7.081  14.035  1.00  0.00     0.021 C 
HETATM    4  C7  UNL     1      -6.545   6.877  15.218  1.00  0.00     0.050 C 
HETATM    5  C9  UNL     1      -5.871   8.199  15.636  1.00  0.00     0.022 C 
HETATM    6  C10 UNL     1      -4.889   8.737  14.595  1.00  0.00     0.011 C 
HETATM    7  C11 UNL     1      -3.731   7.762  14.218  1.00  0.00    -0.032 C 
HETATM    8  C12 UNL     1      -3.689   7.736  12.664  1.00  0.00     0.016 C 
HETATM    9  C13 UNL     1      -4.032   6.331  14.789  1.00  0.00     0.000 C 
HETATM   10  C14 UNL     1      -2.947   5.319  14.398  1.00  0.00     0.006 C 
HETATM   11  C15 UNL     1      -1.554   5.759  14.868  1.00  0.00     0.006 C 
HETATM   12  C16 UNL     1      -1.175   7.187  14.405  1.00  0.00     0.003 C 
HETATM   13  C17 UNL     1       0.342   7.579  14.689  1.00  0.00    -0.035 C 
HETATM   14  C18 UNL     1       0.712   7.462  16.186  1.00  0.00     0.016 C 
HETATM   15  C19 UNL     1       1.259   6.560  13.926  1.00  0.00     0.017 C 
HETATM   16  C20 UNL     1       2.583   7.111  13.410  1.00  0.00     0.080 C 
HETATM   17  C21 UNL     1       3.062   8.331  14.151  1.00  0.00     0.137 C 
HETATM   18  O3  UNL     1       4.232   8.407  14.529  1.00  0.00    -0.297 OA
HETATM   19  C22 UNL     1       2.101   9.519  14.258  1.00  0.00     0.042 C 
HETATM   20  C23 UNL     1       2.363  10.282  15.574  1.00  0.00     0.026 C 
HETATM   21  C25 UNL     1       0.619   9.010  14.102  1.00  0.00     0.012 C 
HETATM   22  C26 UNL     1      -0.422  10.048  14.562  1.00  0.00     0.007 C 
HETATM   23  C27 UNL     1      -1.851   9.628  14.213  1.00  0.00     0.011 C 
HETATM   24  C28 UNL     1      -2.279   8.251  14.806  1.00  0.00    -0.032 C 
HETATM   25  C29 UNL     1      -2.378   8.421  16.353  1.00  0.00     0.016 C 
HETATM   26  C30 UNL     1      -5.502   5.799  14.756  1.00  0.00     0.017 C 
ENDROOT
BRANCH   4  27
HETATM   27  C8  UNL     1      -7.366   6.348  16.402  1.00  0.00     0.149 C 
HETATM   28  O1  UNL     1      -7.548   6.894  17.480  1.00  0.00    -0.649 OA
BRANCH  27  29
HETATM   29  O2  UNL     1      -7.890   5.125  16.187  1.00  0.00    -0.776 OA
HETATM   30  H11 UNL     1      -8.351   4.920  17.026  1.00  0.00     0.167 HD
ENDBRANCH  27  29
ENDBRANCH   4  27
BRANCH   1  31
HETATM   31  C2  UNL     1      -5.396   4.195  12.648  1.00  0.00    -0.088 C 
HETATM   32  C1  UNL     1      -5.919   3.333  11.766  1.00  0.00     0.014 C 
HETATM   33  C3  UNL     1      -3.903   4.231  12.869  1.00  0.00     0.043 C 
ENDBRANCH   1  31
BRANCH  19  34
HETATM   34  C24 UNL     1       2.462  10.441  13.061  1.00  0.00     0.181 C 
BRANCH  34  35
HETATM   35  O4  UNL     1       2.903  11.729  13.477  1.00  0.00    -0.400 OA
HETATM   36  H37 UNL     1       3.646  11.606  14.105  1.00  0.00     0.209 HD
ENDBRANCH  34  35
ENDBRANCH  19  34
TORSDOF 5
ENDMDL
MODEL 3
REMARK minimizedAffinity -8.30914211
REMARK  5 active torsions:
REMARK  status: ('A' for Active; 'I' for Inactive)
REMARK    1  A    between atoms: C2_2  and  C4_4 
REMARK    2  A    between atoms: C7_7  and  C8_8 
REMARK    3  A    between atoms: C8_8  and  O2_10 
REMARK    4  A    between atoms: C22_25  and  C24_27 
REMARK    5  A    between atoms: C24_27  and  O4_28 
ROOT
HETATM    1  C4  UNL     1       5.925   9.022  13.051  1.00  0.00     0.019 C 
HETATM    2  C5  UNL     1       5.992   9.822  11.748  1.00  0.00     0.011 C 
HETATM    3  C6  UNL     1       6.035   8.774  10.642  1.00  0.00     0.021 C 
HETATM    4  C7  UNL     1       5.441   7.464  11.217  1.00  0.00     0.050 C 
HETATM    5  C9  UNL     1       4.209   6.997  10.417  1.00  0.00     0.022 C 
HETATM    6  C10 UNL     1       2.994   7.910  10.581  1.00  0.00     0.011 C 
HETATM    7  C11 UNL     1       2.508   8.099  12.052  1.00  0.00    -0.032 C 
HETATM    8  C12 UNL     1       2.333   9.632  12.245  1.00  0.00     0.016 C 
HETATM    9  C13 UNL     1       3.584   7.534  13.045  1.00  0.00     0.000 C 
HETATM   10  C14 UNL     1       3.178   7.746  14.509  1.00  0.00     0.006 C 
HETATM   11  C15 UNL     1       1.820   7.105  14.828  1.00  0.00     0.006 C 
HETATM   12  C16 UNL     1       0.692   7.553  13.867  1.00  0.00     0.003 C 
HETATM   13  C17 UNL     1      -0.763   7.077  14.310  1.00  0.00    -0.035 C 
HETATM   14  C18 UNL     1      -0.862   5.541  14.460  1.00  0.00     0.016 C 
HETATM   15  C19 UNL     1      -1.061   7.680  15.727  1.00  0.00     0.017 C 
HETATM   16  C20 UNL     1      -2.517   8.029  16.010  1.00  0.00     0.080 C 
HETATM   17  C21 UNL     1      -3.499   7.264  15.162  1.00  0.00     0.137 C 
HETATM   18  O3  UNL     1      -4.484   6.733  15.679  1.00  0.00    -0.297 OA
HETATM   19  C22 UNL     1      -3.319   7.322  13.642  1.00  0.00     0.042 C 
HETATM   20  C23 UNL     1      -3.818   6.005  13.010  1.00  0.00     0.026 C 
HETATM   21  C25 UNL     1      -1.820   7.662  13.305  1.00  0.00     0.012 C 
HETATM   22  C26 UNL     1      -1.457   7.376  11.835  1.00  0.00     0.007 C 
HETATM   23  C27 UNL     1      -0.069   7.903  11.469  1.00  0.00     0.011 C 
HETATM   24  C28 UNL     1       1.087   7.335  12.348  1.00  0.00    -0.032 C 
HETATM   25  C29 UNL     1       1.233   5.821  12.004  1.00  0.00     0.016 C 
HETATM   26  C30 UNL     1       5.098   7.750  12.721  1.00  0.00     0.017 C 
ENDROOT
BRANCH   4  27
HETATM   27  C8  UNL     1       6.531   6.387  11.116  1.00  0.00     0.149 C 
HETATM   28  O1  UNL     1       7.718   6.509  11.375  1.00  0.00    -0.649 OA
BRANCH  27  29
HETATM   29  O2  UNL     1       6.077   5.208  10.647  1.00  0.00    -0.776 OA
HETATM   30  H11 UNL     1       6.878   4.648  10.616  1.00  0.00     0.167 HD
ENDBRANCH  27  29
ENDBRANCH   4  27
BRANCH   1  31
HETATM   31  C2  UNL     1       5.659   9.778  14.334  1.00  0.00    -0.088 C 
HETATM   32  C1  UNL     1       4.947  10.910  14.429  1.00  0.00     0.014 C 
HETATM   33  C3  UNL     1       6.349   9.219  15.554  1.00  0.00     0.043 C 
ENDBRANCH   1  31
BRANCH  19  34
HETATM   34  C24 UNL     1      -4.235   8.484  13.170  1.00  0.00     0.181 C 
BRANCH  34  35
HETATM   35  O4  UNL     1      -5.168   8.885  14.167  1.00  0.00    -0.400 OA
HETATM   36  H37 UNL     1      -4.666   9.097  14.983  1.00  0.00     0.209 HD
ENDBRANCH  34  35
ENDBRANCH  19  34
TORSDOF 5
ENDMDL
MODEL 4
REMARK minimizedAffinity -8.23531246
REMARK  5 active torsions:
REMARK  status: ('A' for Active; 'I' for Inactive)
REMARK    1  A    between atoms: C2_2  and  C4_4 
REMARK    2  A    between atoms: C7_7  and  C8_8 
REMARK    3  A    between atoms: C8_8  and  O2_10 
REMARK    4  A    between atoms: C22_25  and  C24_27 
REMARK    5  A    between atoms: C24_27  and  O4_28 
ROOT
HETATM    1  C4  UNL     1      -0.394   8.170  12.146  1.00  0.00     0.019 C 
HETATM    2  C5  UNL     1      -0.500   6.665  11.894  1.00  0.00     0.011 C 
HETATM    3  C6  UNL     1       0.027   6.464  10.477  1.00  0.00     0.021 C 
HETATM    4  C7  UNL     1       0.926   7.678  10.137  1.00  0.00     0.050 C 
HETATM    5  C9  UNL     1       2.367   7.244   9.800  1.00  0.00     0.022 C 
HETATM    6  C10 UNL     1       3.135   6.699  11.003  1.00  0.00     0.011 C 
HETATM    7  C11 UNL     1       3.250   7.682  12.210  1.00  0.00    -0.032 C 
HETATM    8  C12 UNL     1       2.842   6.859  13.465  1.00  0.00     0.016 C 
HETATM    9  C13 UNL     1       2.279   8.897  12.002  1.00  0.00     0.000 C 
HETATM   10  C14 UNL     1       2.315   9.867  13.190  1.00  0.00     0.006 C 
HETATM   11  C15 UNL     1       3.729  10.400  13.455  1.00  0.00     0.006 C 
HETATM   12  C16 UNL     1       4.784   9.279  13.622  1.00  0.00     0.003 C 
HETATM   13  C17 UNL     1       6.208   9.797  14.115  1.00  0.00    -0.035 C 
HETATM   14  C18 UNL     1       6.808  10.864  13.171  1.00  0.00     0.016 C 
HETATM   15  C19 UNL     1       6.015  10.496  15.506  1.00  0.00     0.017 C 
HETATM   16  C20 UNL     1       7.181  10.375  16.480  1.00  0.00     0.080 C 
HETATM   17  C21 UNL     1       8.505  10.111  15.810  1.00  0.00     0.137 C 
HETATM   18  O3  UNL     1       9.501  10.761  16.130  1.00  0.00    -0.297 OA
HETATM   19  C22 UNL     1       8.593   8.910  14.864  1.00  0.00     0.042 C 
HETATM   20  C23 UNL     1       9.626   9.200  13.754  1.00  0.00     0.026 C 
HETATM   21  C25 UNL     1       7.157   8.562  14.322  1.00  0.00     0.012 C 
HETATM   22  C26 UNL     1       7.189   7.630  13.096  1.00  0.00     0.007 C 
HETATM   23  C27 UNL     1       5.794   7.134  12.711  1.00  0.00     0.011 C 
HETATM   24  C28 UNL     1       4.771   8.269  12.400  1.00  0.00    -0.032 C 
HETATM   25  C29 UNL     1       5.227   8.959  11.079  1.00  0.00     0.016 C 
HETATM   26  C30 UNL     1       0.870   8.639  11.377  1.00  0.00     0.017 C 
ENDROOT
BRANCH   4  27
HETATM   27  C8  UNL     1       0.319   8.364   8.905  1.00  0.00     0.149 C 
HETATM   28  O1  UNL     1      -0.612   9.156   8.882  1.00  0.00    -0.649 OA
BRANCH  27  29
HETATM   29  O2  UNL     1       0.888   7.985   7.745  1.00  0.00    -0.776 OA
HETATM   30  H11 UNL     1       0.383   8.477   7.067  1.00  0.00     0.167 HD
ENDBRANCH  27  29
ENDBRANCH   4  27
BRANCH   1  31
HETATM   31  C2  UNL     1      -0.645   8.671  13.552  1.00  0.00    -0.088 C 
HETATM   32  C1  UNL     1      -0.389   7.984  14.674  1.00  0.00     0.014 C 
HETATM   33  C3  UNL     1      -1.321  10.019  13.633  1.00  0.00     0.043 C 
ENDBRANCH   1  31
BRANCH  19  34
HETATM   34  C24 UNL     1       9.115   7.740  15.743  1.00  0.00     0.181 C 
BRANCH  34  35
HETATM   35  O4  UNL     1       8.774   7.894  17.116  1.00  0.00    -0.400 OA
HETATM   36  H37 UNL     1       7.803   8.016  17.175  1.00  0.00     0.209 HD
ENDBRANCH  34  35
ENDBRANCH  19  34
TORSDOF 5
ENDMDL
MODEL 5
REMARK minimizedAffinity -8.15063858
REMARK  5 active torsions:
REMARK  status: ('A' for Active; 'I' for Inactive)
REMARK    1  A    between atoms: C2_2  and  C4_4 
REMARK    2  A    between atoms: C7_7  and  C8_8 
REMARK    3  A    between atoms: C8_8  and  O2_10 
REMARK    4  A    between atoms: C22_25  and  C24_27 
REMARK    5  A    between atoms: C24_27  and  O4_28 
ROOT
HETATM    1  C4  UNL     1      -7.211   4.652  12.475  1.00  0.00     0.019 C 
HETATM    2  C5  UNL     1      -7.090   3.394  13.337  1.00  0.00     0.011 C 
HETATM    3  C6  UNL     1      -5.811   2.712  12.863  1.00  0.00     0.021 C 
HETATM    4  C7  UNL     1      -4.932   3.789  12.182  1.00  0.00     0.050 C 
HETATM    5  C9  UNL     1      -3.563   3.932  12.878  1.00  0.00     0.022 C 
HETATM    6  C10 UNL     1      -3.653   4.537  14.279  1.00  0.00     0.011 C 
HETATM    7  C11 UNL     1      -4.321   5.945  14.345  1.00  0.00    -0.032 C 
HETATM    8  C12 UNL     1      -5.371   5.862  15.489  1.00  0.00     0.016 C 
HETATM    9  C13 UNL     1      -5.015   6.272  12.976  1.00  0.00     0.000 C 
HETATM   10  C14 UNL     1      -5.735   7.626  13.007  1.00  0.00     0.006 C 
HETATM   11  C15 UNL     1      -4.783   8.774  13.369  1.00  0.00     0.006 C 
HETATM   12  C16 UNL     1      -4.000   8.530  14.682  1.00  0.00     0.003 C 
HETATM   13  C17 UNL     1      -3.178   9.796  15.191  1.00  0.00    -0.035 C 
HETATM   14  C18 UNL     1      -2.169  10.308  14.137  1.00  0.00     0.016 C 
HETATM   15  C19 UNL     1      -4.192  10.967  15.439  1.00  0.00     0.017 C 
HETATM   16  C20 UNL     1      -3.841  11.925  16.571  1.00  0.00     0.080 C 
HETATM   17  C21 UNL     1      -2.372  11.956  16.905  1.00  0.00     0.137 C 
HETATM   18  O3  UNL     1      -1.791  13.033  17.045  1.00  0.00    -0.297 OA
HETATM   19  C22 UNL     1      -1.690  10.622  17.227  1.00  0.00     0.042 C 
HETATM   20  C23 UNL     1      -0.209  10.680  16.796  1.00  0.00     0.026 C 
HETATM   21  C25 UNL     1      -2.500   9.446  16.565  1.00  0.00     0.012 C 
HETATM   22  C26 UNL     1      -1.705   8.128  16.512  1.00  0.00     0.007 C 
HETATM   23  C27 UNL     1      -2.570   6.949  16.062  1.00  0.00     0.011 C 
HETATM   24  C28 UNL     1      -3.241   7.139  14.668  1.00  0.00    -0.032 C 
HETATM   25  C29 UNL     1      -2.108   7.114  13.598  1.00  0.00     0.016 C 
HETATM   26  C30 UNL     1      -5.756   5.125  12.213  1.00  0.00     0.017 C 
ENDROOT
BRANCH   4  27
HETATM   27  C8  UNL     1      -4.702   3.341  10.732  1.00  0.00     0.149 C 
HETATM   28  O1  UNL     1      -5.551   3.127   9.880  1.00  0.00    -0.649 OA
BRANCH  27  29
HETATM   29  O2  UNL     1      -3.404   3.139  10.433  1.00  0.00    -0.776 OA
HETATM   30  H11 UNL     1      -3.425   2.837   9.503  1.00  0.00     0.167 HD
ENDBRANCH  27  29
ENDBRANCH   4  27
BRANCH   1  31
HETATM   31  C2  UNL     1      -8.273   5.664  12.845  1.00  0.00    -0.088 C 
HETATM   32  C1  UNL     1      -8.585   6.034  14.095  1.00  0.00     0.014 C 
HETATM   33  C3  UNL     1      -9.073   6.198  11.681  1.00  0.00     0.043 C 
ENDBRANCH   1  31
BRANCH  19  34
HETATM   34  C24 UNL     1      -1.760  10.495  18.774  1.00  0.00     0.181 C 
BRANCH  34  35
HETATM   35  O4  UNL     1      -2.902   9.767  19.212  1.00  0.00    -0.400 OA
HETATM   36  H37 UNL     1      -2.901   8.900  18.754  1.00  0.00     0.209 HD
ENDBRANCH  34  35
ENDBRANCH  19  34
TORSDOF 5
ENDMDL
MODEL 6
REMARK minimizedAffinity -8.1191864
REMARK  5 active torsions:
REMARK  status: ('A' for Active; 'I' for Inactive)
REMARK    1  A    between atoms: C2_2  and  C4_4 
REMARK    2  A    between atoms: C7_7  and  C8_8 
REMARK    3  A    between atoms: C8_8  and  O2_10 
REMARK    4  A    between atoms: C22_25  and  C24_27 
REMARK    5  A    between atoms: C24_27  and  O4_28 
ROOT
HETATM    1  C4  UNL     1       4.471   7.059  11.307  1.00  0.00     0.019 C 
HETATM    2  C5  UNL     1       4.330   7.760   9.954  1.00  0.00     0.011 C 
HETATM    3  C6  UNL     1       3.416   6.856   9.134  1.00  0.00     0.021 C 
HETATM    4  C7  UNL     1       2.603   5.990  10.127  1.00  0.00     0.050 C 
HETATM    5  C9  UNL     1       1.086   6.208   9.965  1.00  0.00     0.022 C 
HETATM    6  C10 UNL     1       0.619   7.594  10.409  1.00  0.00     0.011 C 
HETATM    7  C11 UNL     1       0.952   7.957  11.890  1.00  0.00    -0.032 C 
HETATM    8  C12 UNL     1       1.592   9.373  11.845  1.00  0.00     0.016 C 
HETATM    9  C13 UNL     1       1.962   6.910  12.481  1.00  0.00     0.000 C 
HETATM   10  C14 UNL     1       2.364   7.253  13.921  1.00  0.00     0.006 C 
HETATM   11  C15 UNL     1       1.147   7.350  14.851  1.00  0.00     0.006 C 
HETATM   12  C16 UNL     1       0.057   8.320  14.332  1.00  0.00     0.003 C 
HETATM   13  C17 UNL     1      -1.108   8.606  15.380  1.00  0.00    -0.035 C 
HETATM   14  C18 UNL     1      -1.818   7.312  15.842  1.00  0.00     0.016 C 
HETATM   15  C19 UNL     1      -0.463   9.238  16.663  1.00  0.00     0.017 C 
HETATM   16  C20 UNL     1      -1.324  10.247  17.414  1.00  0.00     0.080 C 
HETATM   17  C21 UNL     1      -2.801  10.085  17.168  1.00  0.00     0.137 C 
HETATM   18  O3  UNL     1      -3.591  10.091  18.113  1.00  0.00    -0.297 OA
HETATM   19  C22 UNL     1      -3.282  10.090  15.714  1.00  0.00     0.042 C 
HETATM   20  C23 UNL     1      -4.539   9.203  15.581  1.00  0.00     0.026 C 
HETATM   21  C25 UNL     1      -2.099   9.660  14.768  1.00  0.00     0.012 C 
HETATM   22  C26 UNL     1      -2.571   9.275  13.355  1.00  0.00     0.007 C 
HETATM   23  C27 UNL     1      -1.402   9.064  12.391  1.00  0.00     0.011 C 
HETATM   24  C28 UNL     1      -0.380   7.978  12.848  1.00  0.00    -0.032 C 
HETATM   25  C29 UNL     1      -1.099   6.598  12.764  1.00  0.00     0.016 C 
HETATM   26  C30 UNL     1       3.107   6.365  11.566  1.00  0.00     0.017 C 
ENDROOT
BRANCH   4  27
HETATM   27  C8  UNL     1       2.924   4.521   9.819  1.00  0.00     0.149 C 
HETATM   28  O1  UNL     1       3.694   4.093   8.972  1.00  0.00    -0.649 OA
BRANCH  27  29
HETATM   29  O2  UNL     1       2.222   3.650  10.570  1.00  0.00    -0.776 OA
HETATM   30  H11 UNL     1       2.512   2.775  10.242  1.00  0.00     0.167 HD
ENDBRANCH  27  29
ENDBRANCH   4  27
BRANCH   1  31
HETATM   31  C2  UNL     1       5.153   7.813  12.428  1.00  0.00    -0.088 C 
HETATM   32  C1  UNL     1       5.803   7.248  13.455  1.00  0.00     0.014 C 
HETATM   33  C3  UNL     1       4.979   9.312  12.382  1.00  0.00     0.043 C 
ENDBRANCH   1  31
BRANCH  19  34
HETATM   34  C24 UNL     1      -3.673  11.564  15.421  1.00  0.00     0.181 C 
BRANCH  34  35
HETATM   35  O4  UNL     1      -4.954  11.904  15.941  1.00  0.00    -0.400 OA
HETATM   36  H37 UNL     1      -4.958  11.687  16.898  1.00  0.00     0.209 HD
ENDBRANCH  34  35
ENDBRANCH  19  34
TORSDOF 5
ENDMDL
MODEL 7
REMARK minimizedAffinity -8.00274658
REMARK  5 active torsions:
REMARK  status: ('A' for Active; 'I' for Inactive)
REMARK    1  A    between atoms: C2_2  and  C4_4 
REMARK    2  A    between atoms: C7_7  and  C8_8 
REMARK    3  A    between atoms: C8_8  and  O2_10 
REMARK    4  A    between atoms: C22_25  and  C24_27 
REMARK    5  A    between atoms: C24_27  and  O4_28 
ROOT
HETATM    1  C4  UNL     1       4.116   7.374   9.899  1.00  0.00     0.019 C 
HETATM    2  C5  UNL     1       4.976   6.365  10.662  1.00  0.00     0.011 C 
HETATM    3  C6  UNL     1       5.713   7.189  11.712  1.00  0.00     0.021 C 
HETATM    4  C7  UNL     1       4.903   8.488  11.938  1.00  0.00     0.050 C 
HETATM    5  C9  UNL     1       4.450   8.630  13.405  1.00  0.00     0.022 C 
HETATM    6  C10 UNL     1       3.391   7.607  13.816  1.00  0.00     0.011 C 
HETATM    7  C11 UNL     1       2.089   7.627  12.957  1.00  0.00    -0.032 C 
HETATM    8  C12 UNL     1       1.816   6.146  12.569  1.00  0.00     0.016 C 
HETATM    9  C13 UNL     1       2.310   8.505  11.675  1.00  0.00     0.000 C 
HETATM   10  C14 UNL     1       1.073   8.513  10.767  1.00  0.00     0.006 C 
HETATM   11  C15 UNL     1      -0.177   9.012  11.502  1.00  0.00     0.006 C 
HETATM   12  C16 UNL     1      -0.459   8.247  12.819  1.00  0.00     0.003 C 
HETATM   13  C17 UNL     1      -1.865   8.595  13.483  1.00  0.00    -0.035 C 
HETATM   14  C18 UNL     1      -2.021  10.104  13.779  1.00  0.00     0.016 C 
HETATM   15  C19 UNL     1      -2.992   8.228  12.455  1.00  0.00     0.017 C 
HETATM   16  C20 UNL     1      -4.308   7.743  13.052  1.00  0.00     0.080 C 
HETATM   17  C21 UNL     1      -4.533   8.200  14.469  1.00  0.00     0.137 C 
HETATM   18  O3  UNL     1      -5.619   8.678  14.801  1.00  0.00    -0.297 OA
HETATM   19  C22 UNL     1      -3.441   7.888  15.497  1.00  0.00     0.042 C 
HETATM   20  C23 UNL     1      -3.420   8.987  16.581  1.00  0.00     0.026 C 
HETATM   21  C25 UNL     1      -2.064   7.698  14.757  1.00  0.00     0.012 C 
HETATM   22  C26 UNL     1      -0.858   7.755  15.713  1.00  0.00     0.007 C 
HETATM   23  C27 UNL     1       0.448   7.363  15.020  1.00  0.00     0.011 C 
HETATM   24  C28 UNL     1       0.804   8.234  13.777  1.00  0.00    -0.032 C 
HETATM   25  C29 UNL     1       1.148   9.664  14.293  1.00  0.00     0.016 C 
HETATM   26  C30 UNL     1       3.690   8.440  10.944  1.00  0.00     0.017 C 
ENDROOT
BRANCH   4  27
HETATM   27  C8  UNL     1       5.826   9.666  11.593  1.00  0.00     0.149 C 
HETATM   28  O1  UNL     1       5.510  10.837  11.448  1.00  0.00    -0.649 OA
BRANCH  27  29
HETATM   29  O2  UNL     1       7.110   9.303  11.403  1.00  0.00    -0.776 OA
HETATM   30  H11 UNL     1       7.555  10.142  11.168  1.00  0.00     0.167 HD
ENDBRANCH  27  29
ENDBRANCH   4  27
BRANCH   1  31
HETATM   31  C2  UNL     1       3.096   6.837   8.917  1.00  0.00    -0.088 C 
HETATM   32  C1  UNL     1       2.552   7.535   7.911  1.00  0.00     0.014 C 
HETATM   33  C3  UNL     1       2.628   5.430   9.197  1.00  0.00     0.043 C 
ENDBRANCH   1  31
BRANCH  19  34
HETATM   34  C24 UNL     1      -3.870   6.546  16.150  1.00  0.00     0.181 C 
BRANCH  34  35
HETATM   35  O4  UNL     1      -5.282   6.364  16.149  1.00  0.00    -0.400 OA
HETATM   36  H37 UNL     1      -5.598   6.461  15.226  1.00  0.00     0.209 HD
ENDBRANCH  34  35
ENDBRANCH  19  34
TORSDOF 5
ENDMDL
MODEL 8
REMARK minimizedAffinity -7.93127489
REMARK  5 active torsions:
REMARK  status: ('A' for Active; 'I' for Inactive)
REMARK    1  A    between atoms: C2_2  and  C4_4 
REMARK    2  A    between atoms: C7_7  and  C8_8 
REMARK    3  A    between atoms: C8_8  and  O2_10 
REMARK    4  A    between atoms: C22_25  and  C24_27 
REMARK    5  A    between atoms: C24_27  and  O4_28 
ROOT
HETATM    1  C4  UNL     1      -1.285   5.374  11.847  1.00  0.00     0.019 C 
HETATM    2  C5  UNL     1      -0.254   4.313  12.236  1.00  0.00     0.011 C 
HETATM    3  C6  UNL     1       1.062   4.805  11.642  1.00  0.00     0.021 C 
HETATM    4  C7  UNL     1       0.935   6.332  11.426  1.00  0.00     0.050 C 
HETATM    5  C9  UNL     1       2.006   7.111  12.215  1.00  0.00     0.022 C 
HETATM    6  C10 UNL     1       1.804   7.060  13.729  1.00  0.00     0.011 C 
HETATM    7  C11 UNL     1       0.425   7.595  14.227  1.00  0.00    -0.032 C 
HETATM    8  C12 UNL     1      -0.121   6.515  15.204  1.00  0.00     0.016 C 
HETATM    9  C13 UNL     1      -0.546   7.782  13.008  1.00  0.00     0.000 C 
HETATM   10  C14 UNL     1      -1.936   8.257  13.451  1.00  0.00     0.006 C 
HETATM   11  C15 UNL     1      -1.870   9.570  14.242  1.00  0.00     0.006 C 
HETATM   12  C16 UNL     1      -0.893   9.514  15.441  1.00  0.00     0.003 C 
HETATM   13  C17 UNL     1      -0.973  10.783  16.402  1.00  0.00    -0.035 C 
HETATM   14  C18 UNL     1      -0.713  12.110  15.652  1.00  0.00     0.016 C 
HETATM   15  C19 UNL     1      -2.434  10.873  16.967  1.00  0.00     0.017 C 
HETATM   16  C20 UNL     1      -2.571  11.435  18.377  1.00  0.00     0.080 C 
HETATM   17  C21 UNL     1      -1.417  12.308  18.795  1.00  0.00     0.137 C 
HETATM   18  O3  UNL     1      -1.626  13.398  19.330  1.00  0.00    -0.297 OA
HETATM   19  C22 UNL     1      -0.007  11.718  18.689  1.00  0.00     0.042 C 
HETATM   20  C23 UNL     1       1.006  12.847  18.400  1.00  0.00     0.026 C 
HETATM   21  C25 UNL     1       0.001  10.567  17.616  1.00  0.00     0.012 C 
HETATM   22  C26 UNL     1       1.421  10.173  17.170  1.00  0.00     0.007 C 
HETATM   23  C27 UNL     1       1.425   8.920  16.292  1.00  0.00     0.011 C 
HETATM   24  C28 UNL     1       0.553   9.034  15.005  1.00  0.00    -0.032 C 
HETATM   25  C29 UNL     1       1.242  10.070  14.065  1.00  0.00     0.016 C 
HETATM   26  C30 UNL     1      -0.523   6.726  11.855  1.00  0.00     0.017 C 
ENDROOT
BRANCH   4  27
HETATM   27  C8  UNL     1       1.137   6.599   9.928  1.00  0.00     0.149 C 
HETATM   28  O1  UNL     1       1.863   5.988   9.158  1.00  0.00    -0.649 OA
BRANCH  27  29
HETATM   29  O2  UNL     1       0.442   7.660   9.474  1.00  0.00    -0.776 OA
HETATM   30  H11 UNL     1       0.693   7.715   8.530  1.00  0.00     0.167 HD
ENDBRANCH  27  29
ENDBRANCH   4  27
BRANCH   1  31
HETATM   31  C2  UNL     1      -2.662   5.285  12.469  1.00  0.00    -0.088 C 
HETATM   32  C1  UNL     1      -3.319   6.306  13.037  1.00  0.00     0.014 C 
HETATM   33  C3  UNL     1      -3.253   3.897  12.504  1.00  0.00     0.043 C 
ENDBRANCH   1  31
BRANCH  19  34
HETATM   34  C24 UNL     1       0.290  11.123  20.093  1.00  0.00     0.181 C 
BRANCH  34  35
HETATM   35  O4  UNL     1       1.366  11.785  20.751  1.00  0.00    -0.400 OA
HETATM   36  H37 UNL     1       1.161  12.743  20.775  1.00  0.00     0.209 HD
ENDBRANCH  34  35
ENDBRANCH  19  34
TORSDOF 5
ENDMDL
MODEL 9
REMARK minimizedAffinity -7.89263725
REMARK  5 active torsions:
REMARK  status: ('A' for Active; 'I' for Inactive)
REMARK    1  A    between atoms: C2_2  and  C4_4 
REMARK    2  A    between atoms: C7_7  and  C8_8 
REMARK    3  A    between atoms: C8_8  and  O2_10 
REMARK    4  A    between atoms: C22_25  and  C24_27 
REMARK    5  A    between atoms: C24_27  and  O4_28 
ROOT
HETATM    1  C4  UNL     1       1.324   8.024  11.912  1.00  0.00     0.019 C 
HETATM    2  C5  UNL     1       2.197   6.983  12.616  1.00  0.00     0.011 C 
HETATM    3  C6  UNL     1       2.525   7.595  13.974  1.00  0.00     0.021 C 
HETATM    4  C7  UNL     1       1.441   8.657  14.280  1.00  0.00     0.050 C 
HETATM    5  C9  UNL     1       0.681   8.338  15.583  1.00  0.00     0.022 C 
HETATM    6  C10 UNL     1      -0.212   7.101  15.479  1.00  0.00     0.011 C 
HETATM    7  C11 UNL     1      -1.289   7.161  14.352  1.00  0.00    -0.032 C 
HETATM    8  C12 UNL     1      -1.175   5.814  13.584  1.00  0.00     0.016 C 
HETATM    9  C13 UNL     1      -0.994   8.371  13.396  1.00  0.00     0.000 C 
HETATM   10  C14 UNL     1      -1.997   8.442  12.237  1.00  0.00     0.006 C 
HETATM   11  C15 UNL     1      -3.445   8.543  12.734  1.00  0.00     0.006 C 
HETATM   12  C16 UNL     1      -3.828   7.423  13.732  1.00  0.00     0.003 C 
HETATM   13  C17 UNL     1      -5.380   7.376  14.090  1.00  0.00    -0.035 C 
HETATM   14  C18 UNL     1      -5.893   8.714  14.671  1.00  0.00     0.016 C 
HETATM   15  C19 UNL     1      -6.177   7.138  12.760  1.00  0.00     0.017 C 
HETATM   16  C20 UNL     1      -7.462   6.329  12.889  1.00  0.00     0.080 C 
HETATM   17  C21 UNL     1      -8.058   6.354  14.272  1.00  0.00     0.137 C 
HETATM   18  O3  UNL     1      -9.262   6.566  14.425  1.00  0.00    -0.297 OA
HETATM   19  C22 UNL     1      -7.157   5.941  15.440  1.00  0.00     0.042 C 
HETATM   20  C23 UNL     1      -7.578   6.704  16.714  1.00  0.00     0.026 C 
HETATM   21  C25 UNL     1      -5.649   6.154  15.040  1.00  0.00     0.012 C 
HETATM   22  C26 UNL     1      -4.699   6.128  16.251  1.00  0.00     0.007 C 
HETATM   23  C27 UNL     1      -3.227   6.126  15.832  1.00  0.00     0.011 C 
HETATM   24  C28 UNL     1      -2.810   7.337  14.944  1.00  0.00    -0.032 C 
HETATM   25  C29 UNL     1      -2.872   8.613  15.838  1.00  0.00     0.016 C 
HETATM   26  C30 UNL     1       0.490   8.701  13.033  1.00  0.00     0.017 C 
ENDROOT
BRANCH   4  27
HETATM   27  C8  UNL     1       2.159  10.004  14.448  1.00  0.00     0.149 C 
HETATM   28  O1  UNL     1       2.524  10.524  15.492  1.00  0.00    -0.649 OA
BRANCH  27  29
HETATM   29  O2  UNL     1       2.348  10.659  13.286  1.00  0.00    -0.776 OA
HETATM   30  H11 UNL     1       2.782  11.493  13.558  1.00  0.00     0.167 HD
ENDBRANCH  27  29
ENDBRANCH   4  27
BRANCH   1  31
HETATM   31  C2  UNL     1       0.654   7.626  10.615  1.00  0.00    -0.088 C 
HETATM   32  C1  UNL     1       0.243   8.479   9.666  1.00  0.00     0.014 C 
HETATM   33  C3  UNL     1       0.371   6.151  10.474  1.00  0.00     0.043 C 
ENDBRANCH   1  31
BRANCH  19  34
HETATM   34  C24 UNL     1      -7.430   4.427  15.647  1.00  0.00     0.181 C 
BRANCH  34  35
HETATM   35  O4  UNL     1      -7.840   3.776  14.449  1.00  0.00    -0.400 OA
HETATM   36  H37 UNL     1      -7.163   3.955  13.762  1.00  0.00     0.209 HD
ENDBRANCH  34  35
ENDBRANCH  19  34
TORSDOF 5
ENDMDL
