MODEL 1
REMARK minimizedAffinity -10.544467
REMARK CNNscore 0.640210629
REMARK CNNaffinity 7.7851615
REMARK  7 active torsions:
REMARK  status: ('A' for Active; 'I' for Inactive)
REMARK    1  A    between atoms: C22_25  and  O4_26 
REMARK    2  A    between atoms: C23_27  and  O5_28 
REMARK    3  A    between atoms: C27_33  and  O7_34 
REMARK    4  A    between atoms: C28_35  and  C29_36 
REMARK    5  A    between atoms: C29_36  and  O8_37 
REMARK    6  A    between atoms: C30_38  and  C31_39 
REMARK    7  A    between atoms: C33_41  and  C34_42 
ROOT
HETATM    1  C1  UNL     1       2.107  51.766 -26.348  1.00  0.00     0.046 C 
HETATM    2  C2  UNL     1       0.650  51.550 -26.051  1.00  0.00    -0.056 C 
HETATM    3  C3  UNL     1       0.247  50.900 -24.941  1.00  0.00    -0.004 C 
HETATM    4  C4  UNL     1      -1.212  50.666 -24.656  1.00  0.00     0.150 C 
HETATM    5  C5  UNL     1      -1.556  50.360 -23.206  1.00  0.00     0.270 C 
HETATM    6  O1  UNL     1      -2.288  49.427 -22.890  1.00  0.00    -0.264 OA
HETATM    7  O2  UNL     1      -0.997  51.227 -22.323  1.00  0.00    -0.315 OA
HETATM    8  C6  UNL     1      -1.313  51.094 -20.916  1.00  0.00     0.139 C 
HETATM    9  C7  UNL     1      -2.789  51.366 -20.617  1.00  0.00     0.065 C 
HETATM   10  C8  UNL     1      -3.311  50.608 -19.391  1.00  0.00     0.131 C 
HETATM   11  C9  UNL     1      -4.069  49.289 -19.688  1.00  0.00     0.059 C 
HETATM   12  C10 UNL     1      -5.363  49.477 -20.445  1.00  0.00    -0.022 C 
HETATM   13  C11 UNL     1      -6.004  48.544 -21.180  1.00  0.00    -0.087 C 
HETATM   14  C12 UNL     1      -5.566  47.107 -21.286  1.00  0.00     0.043 C 
HETATM   15  C13 UNL     1      -7.254  48.907 -21.974  1.00  0.00     0.041 C 
HETATM   16  C14 UNL     1      -7.084  48.884 -23.519  1.00  0.00     0.008 C 
HETATM   17  C15 UNL     1      -8.386  49.325 -24.196  1.00  0.00     0.014 C 
HETATM   18  C16 UNL     1      -5.869  49.682 -23.933  1.00  0.00    -0.022 C 
HETATM   19  C17 UNL     1      -5.813  50.920 -24.445  1.00  0.00    -0.003 C 
HETATM   20  C18 UNL     1      -4.532  51.579 -24.499  1.00  0.00     0.008 C 
HETATM   21  C19 UNL     1      -3.543  51.292 -25.359  1.00  0.00    -0.019 C 
HETATM   22  C20 UNL     1      -3.617  50.488 -26.627  1.00  0.00     0.206 C 
HETATM   23  O3  UNL     1      -2.397  50.787 -27.357  1.00  0.00    -0.375 OA
HETATM   24  C21 UNL     1      -1.832  51.966 -26.723  1.00  0.00     0.194 C 
HETATM   25  C22 UNL     1      -0.328  52.161 -27.030  1.00  0.00     0.179 C 
HETATM   26  C23 UNL     1      -2.127  51.776 -25.241  1.00  0.00     0.128 C 
HETATM   27  O6  UNL     1      -2.295  50.417 -18.403  1.00  0.00    -0.349 OA
HETATM   28  C24 UNL     1      -1.061  49.807 -18.795  1.00  0.00     0.170 C 
HETATM   29  C25 UNL     1      -0.831  49.783 -20.310  1.00  0.00     0.101 C 
HETATM   30  C26 UNL     1      -0.977  48.387 -18.215  1.00  0.00     0.100 C 
HETATM   31  C27 UNL     1      -0.972  48.416 -16.687  1.00  0.00     0.132 C 
HETATM   32  C28 UNL     1       0.145  49.338 -16.167  1.00  0.00     0.071 C 
HETATM   33  C30 UNL     1       0.044  50.714 -16.849  1.00  0.00     0.162 C 
HETATM   34  O9  UNL     1       0.023  50.587 -18.274  1.00  0.00    -0.345 OA
ENDROOT
BRANCH  31  35
HETATM   35  O7  UNL     1      -2.256  48.813 -16.196  1.00  0.00    -0.395 OA
HETATM   36  H36 UNL     1      -2.583  49.537 -16.768  1.00  0.00     0.210 HD
ENDBRANCH  31  35
BRANCH  33  37
HETATM   37  C31 UNL     1       1.215  51.635 -16.528  1.00  0.00    -0.058 C 
HETATM   38  C32 UNL     1       1.300  52.918 -17.317  1.00  0.00     0.046 C 
HETATM   39  C33 UNL     1       2.114  51.306 -15.575  1.00  0.00    -0.018 C 
BRANCH  39  40
HETATM   40  C34 UNL     1       3.332  52.096 -15.160  1.00  0.00     0.000 C 
HETATM   41  C35 UNL     1       4.194  51.272 -14.203  1.00  0.00     0.013 C 
HETATM   42  C36 UNL     1       4.143  52.498 -16.392  1.00  0.00     0.013 C 
ENDBRANCH  39  40
ENDBRANCH  33  37
BRANCH  32  43
HETATM   43  C29 UNL     1       0.119  49.454 -14.639  1.00  0.00     0.174 C 
BRANCH  43  44
HETATM   44  O8  UNL     1      -1.027  50.194 -14.227  1.00  0.00    -0.400 OA
HETATM   45  H40 UNL     1      -0.842  50.506 -13.322  1.00  0.00     0.209 HD
ENDBRANCH  43  44
ENDBRANCH  32  43
BRANCH  26  46
HETATM   46  O5  UNL     1      -2.035  53.009 -24.536  1.00  0.00    -0.381 OA
HETATM   47  H30 UNL     1      -2.725  53.606 -24.872  1.00  0.00     0.211 HD
ENDBRANCH  26  46
BRANCH  25  48
HETATM   48  O4  UNL     1      -0.041  51.679 -28.341  1.00  0.00    -0.389 OA
HETATM   49  H29 UNL     1      -0.678  50.952 -28.495  1.00  0.00     0.210 HD
ENDBRANCH  25  48
TORSDOF 7
ENDMDL
MODEL 2
REMARK minimizedAffinity -7.82094097
REMARK CNNscore 0.627983868
REMARK CNNaffinity 6.9996624
REMARK  7 active torsions:
REMARK  status: ('A' for Active; 'I' for Inactive)
REMARK    1  A    between atoms: C22_25  and  O4_26 
REMARK    2  A    between atoms: C23_27  and  O5_28 
REMARK    3  A    between atoms: C27_33  and  O7_34 
REMARK    4  A    between atoms: C28_35  and  C29_36 
REMARK    5  A    between atoms: C29_36  and  O8_37 
REMARK    6  A    between atoms: C30_38  and  C31_39 
REMARK    7  A    between atoms: C33_41  and  C34_42 
ROOT
HETATM    1  C1  UNL     1      -4.028  53.727 -10.763  1.00  0.00     0.046 C 
HETATM    2  C2  UNL     1      -2.546  53.659 -10.525  1.00  0.00    -0.056 C 
HETATM    3  C3  UNL     1      -1.943  54.446  -9.611  1.00  0.00    -0.004 C 
HETATM    4  C4  UNL     1      -0.456  54.392  -9.388  1.00  0.00     0.150 C 
HETATM    5  C5  UNL     1       0.029  54.953  -8.060  1.00  0.00     0.270 C 
HETATM    6  O1  UNL     1       0.972  55.735  -7.985  1.00  0.00    -0.264 OA
HETATM    7  O2  UNL     1      -0.663  54.484  -6.990  1.00  0.00    -0.315 OA
HETATM    8  C6  UNL     1      -0.247  54.877  -5.660  1.00  0.00     0.139 C 
HETATM    9  C7  UNL     1       1.142  54.347  -5.298  1.00  0.00     0.065 C 
HETATM   10  C8  UNL     1       1.890  55.236  -4.299  1.00  0.00     0.131 C 
HETATM   11  C9  UNL     1       2.913  56.225  -4.913  1.00  0.00     0.059 C 
HETATM   12  C10 UNL     1       4.085  55.560  -5.595  1.00  0.00    -0.022 C 
HETATM   13  C11 UNL     1       4.881  56.107  -6.537  1.00  0.00    -0.087 C 
HETATM   14  C12 UNL     1       4.778  57.536  -7.001  1.00  0.00     0.043 C 
HETATM   15  C13 UNL     1       5.969  55.277  -7.212  1.00  0.00     0.041 C 
HETATM   16  C14 UNL     1       5.723  54.963  -8.714  1.00  0.00     0.008 C 
HETATM   17  C15 UNL     1       6.849  54.076  -9.255  1.00  0.00     0.014 C 
HETATM   18  C16 UNL     1       4.336  54.398  -8.920  1.00  0.00    -0.022 C 
HETATM   19  C17 UNL     1       3.969  53.122  -9.106  1.00  0.00    -0.003 C 
HETATM   20  C18 UNL     1       2.571  52.790  -8.998  1.00  0.00     0.008 C 
HETATM   21  C19 UNL     1       1.628  53.083  -9.905  1.00  0.00    -0.019 C 
HETATM   22  C20 UNL     1       1.813  53.513 -11.334  1.00  0.00     0.206 C 
HETATM   23  O3  UNL     1       0.517  53.341 -11.970  1.00  0.00    -0.375 OA
HETATM   24  C21 UNL     1      -0.266  52.519 -11.064  1.00  0.00     0.194 C 
HETATM   25  C22 UNL     1      -1.789  52.615 -11.316  1.00  0.00     0.179 C 
HETATM   26  C23 UNL     1       0.147  52.989  -9.675  1.00  0.00     0.128 C 
HETATM   27  O6  UNL     1       1.002  55.895  -3.393  1.00  0.00    -0.349 OA
HETATM   28  C24 UNL     1      -0.080  56.665  -3.929  1.00  0.00     0.170 C 
HETATM   29  C25 UNL     1      -0.382  56.372  -5.403  1.00  0.00     0.101 C 
HETATM   30  C26 UNL     1       0.196  58.161  -3.723  1.00  0.00     0.100 C 
HETATM   31  C27 UNL     1       0.270  58.507  -2.236  1.00  0.00     0.132 C 
HETATM   32  C28 UNL     1      -0.997  58.030  -1.506  1.00  0.00     0.071 C 
HETATM   33  C30 UNL     1      -1.252  56.546  -1.822  1.00  0.00     0.162 C 
HETATM   34  O9  UNL     1      -1.282  56.312  -3.234  1.00  0.00    -0.345 OA
ENDROOT
BRANCH  31  35
HETATM   35  O7  UNL     1       1.454  57.951  -1.657  1.00  0.00    -0.395 OA
HETATM   36  H36 UNL     1       1.574  57.053  -2.029  1.00  0.00     0.210 HD
ENDBRANCH  31  35
BRANCH  33  37
HETATM   37  C31 UNL     1      -2.583  56.033  -1.285  1.00  0.00    -0.058 C 
HETATM   38  C32 UNL     1      -2.522  55.142  -0.068  1.00  0.00     0.046 C 
HETATM   39  C33 UNL     1      -3.748  56.376  -1.876  1.00  0.00    -0.018 C 
BRANCH  39  40
HETATM   40  C34 UNL     1      -5.136  55.936  -1.480  1.00  0.00     0.000 C 
HETATM   41  C35 UNL     1      -6.169  56.511  -2.448  1.00  0.00     0.013 C 
HETATM   42  C36 UNL     1      -5.218  54.409  -1.463  1.00  0.00     0.013 C 
ENDBRANCH  39  40
ENDBRANCH  33  37
BRANCH  32  43
HETATM   43  C29 UNL     1      -0.914  58.287   0.002  1.00  0.00     0.174 C 
BRANCH  43  44
HETATM   44  O8  UNL     1      -0.180  59.484   0.252  1.00  0.00    -0.400 OA
HETATM   45  H40 UNL     1       0.113  59.439   1.181  1.00  0.00     0.209 HD
ENDBRANCH  43  44
ENDBRANCH  32  43
BRANCH  26  46
HETATM   46  O5  UNL     1      -0.186  52.023  -8.684  1.00  0.00    -0.381 OA
HETATM   47  H30 UNL     1       0.329  51.218  -8.858  1.00  0.00     0.211 HD
ENDBRANCH  26  46
BRANCH  25  48
HETATM   48  O4  UNL     1      -2.031  52.818 -12.708  1.00  0.00    -0.389 OA
HETATM   49  H29 UNL     1      -1.254  53.314 -13.036  1.00  0.00     0.210 HD
ENDBRANCH  25  48
TORSDOF 7
ENDMDL
MODEL 3
REMARK minimizedAffinity -7.8350935
REMARK CNNscore 0.602663636
REMARK CNNaffinity 6.80583811
REMARK  7 active torsions:
REMARK  status: ('A' for Active; 'I' for Inactive)
REMARK    1  A    between atoms: C22_25  and  O4_26 
REMARK    2  A    between atoms: C23_27  and  O5_28 
REMARK    3  A    between atoms: C27_33  and  O7_34 
REMARK    4  A    between atoms: C28_35  and  C29_36 
REMARK    5  A    between atoms: C29_36  and  O8_37 
REMARK    6  A    between atoms: C30_38  and  C31_39 
REMARK    7  A    between atoms: C33_41  and  C34_42 
ROOT
HETATM    1  C1  UNL     1      -3.688  54.089 -10.600  1.00  0.00     0.046 C 
HETATM    2  C2  UNL     1      -2.299  53.532 -10.462  1.00  0.00    -0.056 C 
HETATM    3  C3  UNL     1      -1.309  54.245  -9.890  1.00  0.00    -0.004 C 
HETATM    4  C4  UNL     1       0.087  53.694  -9.771  1.00  0.00     0.150 C 
HETATM    5  C5  UNL     1       0.969  54.360  -8.727  1.00  0.00     0.270 C 
HETATM    6  O1  UNL     1       2.117  54.717  -8.972  1.00  0.00    -0.264 OA
HETATM    7  O2  UNL     1       0.368  54.490  -7.516  1.00  0.00    -0.315 OA
HETATM    8  C6  UNL     1       1.131  55.036  -6.412  1.00  0.00     0.139 C 
HETATM    9  C7  UNL     1       2.300  54.136  -6.004  1.00  0.00     0.065 C 
HETATM   10  C8  UNL     1       3.476  54.907  -5.394  1.00  0.00     0.131 C 
HETATM   11  C9  UNL     1       4.641  55.235  -6.361  1.00  0.00     0.059 C 
HETATM   12  C10 UNL     1       5.371  54.020  -6.884  1.00  0.00    -0.022 C 
HETATM   13  C11 UNL     1       6.118  53.954  -8.006  1.00  0.00    -0.087 C 
HETATM   14  C12 UNL     1       6.420  55.137  -8.887  1.00  0.00     0.043 C 
HETATM   15  C13 UNL     1       6.716  52.628  -8.463  1.00  0.00     0.041 C 
HETATM   16  C14 UNL     1       6.106  52.043  -9.767  1.00  0.00     0.008 C 
HETATM   17  C15 UNL     1       6.746  50.687 -10.083  1.00  0.00     0.014 C 
HETATM   18  C16 UNL     1       4.597  52.011  -9.682  1.00  0.00    -0.022 C 
HETATM   19  C17 UNL     1       3.792  50.969  -9.429  1.00  0.00    -0.003 C 
HETATM   20  C18 UNL     1       2.410  51.232  -9.120  1.00  0.00     0.008 C 
HETATM   21  C19 UNL     1       1.471  51.607 -10.001  1.00  0.00    -0.019 C 
HETATM   22  C20 UNL     1       1.524  51.539 -11.502  1.00  0.00     0.206 C 
HETATM   23  O3  UNL     1       0.153  51.707 -11.955  1.00  0.00    -0.375 OA
HETATM   24  C21 UNL     1      -0.680  51.516 -10.781  1.00  0.00     0.194 C 
HETATM   25  C22 UNL     1      -2.100  52.110 -10.938  1.00  0.00     0.179 C 
HETATM   26  C23 UNL     1       0.115  52.146  -9.645  1.00  0.00     0.128 C 
HETATM   27  O6  UNL     1       3.046  56.068  -4.678  1.00  0.00    -0.349 OA
HETATM   28  C24 UNL     1       2.209  57.018  -5.349  1.00  0.00     0.170 C 
HETATM   29  C25 UNL     1       1.559  56.481  -6.629  1.00  0.00     0.101 C 
HETATM   30  C26 UNL     1       3.007  58.295  -5.645  1.00  0.00     0.100 C 
HETATM   31  C27 UNL     1       3.467  58.970  -4.353  1.00  0.00     0.132 C 
HETATM   32  C28 UNL     1       2.271  59.219  -3.419  1.00  0.00     0.071 C 
HETATM   33  C30 UNL     1       1.475  57.915  -3.231  1.00  0.00     0.162 C 
HETATM   34  O9  UNL     1       1.108  57.345  -4.491  1.00  0.00    -0.345 OA
ENDROOT
BRANCH  31  35
HETATM   35  O7  UNL     1       4.479  58.182  -3.717  1.00  0.00    -0.395 OA
HETATM   36  H36 UNL     1       4.217  57.242  -3.795  1.00  0.00     0.210 HD
ENDBRANCH  31  35
BRANCH  33  37
HETATM   37  C31 UNL     1       0.172  58.107  -2.463  1.00  0.00    -0.058 C 
HETATM   38  C32 UNL     1      -0.141  57.082  -1.401  1.00  0.00     0.046 C 
HETATM   39  C33 UNL     1      -0.641  59.151  -2.729  1.00  0.00    -0.018 C 
BRANCH  39  40
HETATM   40  C34 UNL     1      -1.966  59.464  -2.076  1.00  0.00     0.000 C 
HETATM   41  C35 UNL     1      -1.882  60.790  -1.321  1.00  0.00     0.013 C 
HETATM   42  C36 UNL     1      -3.071  59.524  -3.131  1.00  0.00     0.013 C 
ENDBRANCH  39  40
ENDBRANCH  33  37
BRANCH  32  43
HETATM   43  C29 UNL     1       2.713  59.817  -2.078  1.00  0.00     0.174 C 
BRANCH  43  44
HETATM   44  O8  UNL     1       2.357  61.196  -2.020  1.00  0.00    -0.400 OA
HETATM   45  H40 UNL     1       2.915  61.595  -1.327  1.00  0.00     0.209 HD
ENDBRANCH  43  44
ENDBRANCH  32  43
BRANCH  26  46
HETATM   46  O5  UNL     1      -0.336  51.678  -8.379  1.00  0.00    -0.381 OA
HETATM   47  H30 UNL     1      -0.165  50.723  -8.327  1.00  0.00     0.211 HD
ENDBRANCH  26  46
BRANCH  25  48
HETATM   48  O4  UNL     1      -2.512  52.011 -12.301  1.00  0.00    -0.389 OA
HETATM   49  H29 UNL     1      -1.687  52.070 -12.824  1.00  0.00     0.210 HD
ENDBRANCH  25  48
TORSDOF 7
ENDMDL
MODEL 4
REMARK minimizedAffinity -10.9279757
REMARK CNNscore 0.535516262
REMARK CNNaffinity 7.5702033
REMARK  7 active torsions:
REMARK  status: ('A' for Active; 'I' for Inactive)
REMARK    1  A    between atoms: C22_25  and  O4_26 
REMARK    2  A    between atoms: C23_27  and  O5_28 
REMARK    3  A    between atoms: C27_33  and  O7_34 
REMARK    4  A    between atoms: C28_35  and  C29_36 
REMARK    5  A    between atoms: C29_36  and  O8_37 
REMARK    6  A    between atoms: C30_38  and  C31_39 
REMARK    7  A    between atoms: C33_41  and  C34_42 
ROOT
HETATM    1  C1  UNL     1       1.807  52.471 -16.002  1.00  0.00     0.046 C 
HETATM    2  C2  UNL     1       0.680  51.482 -16.101  1.00  0.00    -0.056 C 
HETATM    3  C3  UNL     1      -0.230  51.548 -17.093  1.00  0.00    -0.004 C 
HETATM    4  C4  UNL     1      -1.370  50.569 -17.179  1.00  0.00     0.150 C 
HETATM    5  C5  UNL     1      -2.029  50.448 -18.544  1.00  0.00     0.270 C 
HETATM    6  O1  UNL     1      -3.247  50.474 -18.687  1.00  0.00    -0.264 OA
HETATM    7  O2  UNL     1      -1.142  50.287 -19.560  1.00  0.00    -0.315 OA
HETATM    8  C6  UNL     1      -1.646  50.077 -20.902  1.00  0.00     0.139 C 
HETATM    9  C7  UNL     1      -2.413  48.761 -21.043  1.00  0.00     0.065 C 
HETATM   10  C8  UNL     1      -3.496  48.801 -22.126  1.00  0.00     0.131 C 
HETATM   11  C9  UNL     1      -4.937  49.077 -21.627  1.00  0.00     0.059 C 
HETATM   12  C10 UNL     1      -5.502  47.994 -20.737  1.00  0.00    -0.022 C 
HETATM   13  C11 UNL     1      -6.513  48.129 -19.853  1.00  0.00    -0.087 C 
HETATM   14  C12 UNL     1      -7.315  49.391 -19.677  1.00  0.00     0.043 C 
HETATM   15  C13 UNL     1      -6.910  46.968 -18.948  1.00  0.00     0.041 C 
HETATM   16  C14 UNL     1      -6.598  47.171 -17.439  1.00  0.00     0.008 C 
HETATM   17  C15 UNL     1      -6.986  45.916 -16.650  1.00  0.00     0.014 C 
HETATM   18  C16 UNL     1      -5.164  47.606 -17.245  1.00  0.00    -0.022 C 
HETATM   19  C17 UNL     1      -4.111  46.874 -16.853  1.00  0.00    -0.003 C 
HETATM   20  C18 UNL     1      -2.793  47.435 -17.011  1.00  0.00     0.008 C 
HETATM   21  C19 UNL     1      -2.263  48.408 -16.256  1.00  0.00    -0.019 C 
HETATM   22  C20 UNL     1      -2.740  48.915 -14.923  1.00  0.00     0.206 C 
HETATM   23  O3  UNL     1      -1.637  49.686 -14.375  1.00  0.00    -0.375 OA
HETATM   24  C21 UNL     1      -0.473  49.338 -15.171  1.00  0.00     0.194 C 
HETATM   25  C22 UNL     1       0.669  50.377 -15.067  1.00  0.00     0.179 C 
HETATM   26  C23 UNL     1      -1.017  49.178 -16.585  1.00  0.00     0.128 C 
HETATM   27  O6  UNL     1      -3.143  49.664 -23.210  1.00  0.00    -0.349 OA
HETATM   28  C24 UNL     1      -2.773  51.017 -22.919  1.00  0.00     0.170 C 
HETATM   29  C25 UNL     1      -2.428  51.265 -21.446  1.00  0.00     0.101 C 
HETATM   30  C26 UNL     1      -3.885  51.970 -23.379  1.00  0.00     0.100 C 
HETATM   31  C27 UNL     1      -4.079  51.898 -24.894  1.00  0.00     0.132 C 
HETATM   32  C28 UNL     1      -2.747  52.142 -25.622  1.00  0.00     0.071 C 
HETATM   33  C30 UNL     1      -1.664  51.208 -25.055  1.00  0.00     0.162 C 
HETATM   34  O9  UNL     1      -1.569  51.327 -23.632  1.00  0.00    -0.345 OA
ENDROOT
BRANCH  31  35
HETATM   35  O7  UNL     1      -4.658  50.641 -25.258  1.00  0.00    -0.395 OA
HETATM   36  H36 UNL     1      -4.230  49.947 -24.715  1.00  0.00     0.210 HD
ENDBRANCH  31  35
BRANCH  33  37
HETATM   37  C31 UNL     1      -0.269  51.502 -25.594  1.00  0.00    -0.058 C 
HETATM   38  C32 UNL     1       0.507  52.593 -24.899  1.00  0.00     0.046 C 
HETATM   39  C33 UNL     1       0.232  50.804 -26.636  1.00  0.00    -0.018 C 
BRANCH  39  40
HETATM   40  C34 UNL     1       1.578  50.990 -27.295  1.00  0.00     0.000 C 
HETATM   41  C35 UNL     1       1.526  52.156 -28.281  1.00  0.00     0.013 C 
HETATM   42  C36 UNL     1       2.651  51.240 -26.235  1.00  0.00     0.013 C 
ENDBRANCH  39  40
ENDBRANCH  33  37
BRANCH  32  43
HETATM   43  C29 UNL     1      -2.895  51.991 -27.140  1.00  0.00     0.174 C 
BRANCH  43  44
HETATM   44  O8  UNL     1      -2.353  53.134 -27.798  1.00  0.00    -0.400 OA
HETATM   45  H40 UNL     1      -2.739  53.146 -28.693  1.00  0.00     0.209 HD
ENDBRANCH  43  44
ENDBRANCH  32  43
BRANCH  26  46
HETATM   46  O5  UNL     1      -0.120  48.432 -17.400  1.00  0.00    -0.381 OA
HETATM   47  H30 UNL     1      -0.053  47.533 -17.036  1.00  0.00     0.211 HD
ENDBRANCH  26  46
BRANCH  25  48
HETATM   48  O4  UNL     1       0.671  50.956 -13.763  1.00  0.00    -0.389 OA
HETATM   49  H29 UNL     1      -0.263  50.940 -13.472  1.00  0.00     0.210 HD
ENDBRANCH  25  48
TORSDOF 7
ENDMDL
MODEL 5
REMARK minimizedAffinity -8.45350075
REMARK CNNscore 0.486416191
REMARK CNNaffinity 6.22993708
REMARK  7 active torsions:
REMARK  status: ('A' for Active; 'I' for Inactive)
REMARK    1  A    between atoms: C22_25  and  O4_26 
REMARK    2  A    between atoms: C23_27  and  O5_28 
REMARK    3  A    between atoms: C27_33  and  O7_34 
REMARK    4  A    between atoms: C28_35  and  C29_36 
REMARK    5  A    between atoms: C29_36  and  O8_37 
REMARK    6  A    between atoms: C30_38  and  C31_39 
REMARK    7  A    between atoms: C33_41  and  C34_42 
ROOT
HETATM    1  C1  UNL     1     -17.547  47.206 -19.776  1.00  0.00     0.046 C 
HETATM    2  C2  UNL     1     -17.956  46.143 -20.757  1.00  0.00    -0.056 C 
HETATM    3  C3  UNL     1     -17.553  46.179 -22.042  1.00  0.00    -0.004 C 
HETATM    4  C4  UNL     1     -17.981  45.125 -23.028  1.00  0.00     0.150 C 
HETATM    5  C5  UNL     1     -17.117  45.004 -24.274  1.00  0.00     0.270 C 
HETATM    6  O1  UNL     1     -17.600  44.948 -25.401  1.00  0.00    -0.264 OA
HETATM    7  O2  UNL     1     -15.788  44.940 -24.006  1.00  0.00    -0.315 OA
HETATM    8  C6  UNL     1     -14.862  44.740 -25.102  1.00  0.00     0.139 C 
HETATM    9  C7  UNL     1     -15.036  43.378 -25.778  1.00  0.00     0.065 C 
HETATM   10  C8  UNL     1     -14.637  43.378 -27.257  1.00  0.00     0.131 C 
HETATM   11  C9  UNL     1     -15.802  43.535 -28.268  1.00  0.00     0.059 C 
HETATM   12  C10 UNL     1     -16.782  42.385 -28.265  1.00  0.00    -0.022 C 
HETATM   13  C11 UNL     1     -18.058  42.418 -28.704  1.00  0.00    -0.087 C 
HETATM   14  C12 UNL     1     -18.690  43.613 -29.367  1.00  0.00     0.043 C 
HETATM   15  C13 UNL     1     -18.964  41.202 -28.544  1.00  0.00     0.041 C 
HETATM   16  C14 UNL     1     -20.129  41.375 -27.531  1.00  0.00     0.008 C 
HETATM   17  C15 UNL     1     -20.924  40.070 -27.417  1.00  0.00     0.014 C 
HETATM   18  C16 UNL     1     -19.614  41.904 -26.212  1.00  0.00    -0.022 C 
HETATM   19  C17 UNL     1     -19.384  41.236 -25.072  1.00  0.00    -0.003 C 
HETATM   20  C18 UNL     1     -18.629  41.893 -24.035  1.00  0.00     0.008 C 
HETATM   21  C19 UNL     1     -19.084  42.876 -23.244  1.00  0.00    -0.019 C 
HETATM   22  C20 UNL     1     -20.507  43.302 -23.014  1.00  0.00     0.206 C 
HETATM   23  O3  UNL     1     -20.484  44.131 -21.820  1.00  0.00    -0.375 OA
HETATM   24  C21 UNL     1     -19.195  43.893 -21.195  1.00  0.00     0.194 C 
HETATM   25  C22 UNL     1     -18.786  45.006 -20.201  1.00  0.00     0.179 C 
HETATM   26  C23 UNL     1     -18.230  43.743 -22.364  1.00  0.00     0.128 C 
HETATM   27  O6  UNL     1     -13.579  44.300 -27.531  1.00  0.00    -0.349 OA
HETATM   28  C24 UNL     1     -13.735  45.665 -27.126  1.00  0.00     0.170 C 
HETATM   29  C25 UNL     1     -14.856  45.888 -26.103  1.00  0.00     0.101 C 
HETATM   30  C26 UNL     1     -13.950  46.552 -28.360  1.00  0.00     0.100 C 
HETATM   31  C27 UNL     1     -12.730  46.517 -29.282  1.00  0.00     0.132 C 
HETATM   32  C28 UNL     1     -11.454  46.880 -28.503  1.00  0.00     0.071 C 
HETATM   33  C30 UNL     1     -11.348  46.006 -27.241  1.00  0.00     0.162 C 
HETATM   34  O9  UNL     1     -12.540  46.084 -26.454  1.00  0.00    -0.345 OA
ENDROOT
BRANCH  31  35
HETATM   35  O7  UNL     1     -12.620  45.236 -29.908  1.00  0.00    -0.395 OA
HETATM   36  H36 UNL     1     -12.833  44.556 -29.236  1.00  0.00     0.210 HD
ENDBRANCH  31  35
BRANCH  33  37
HETATM   37  C31 UNL     1     -10.208  46.416 -26.315  1.00  0.00    -0.058 C 
HETATM   38  C32 UNL     1     -10.314  47.779 -25.676  1.00  0.00     0.046 C 
HETATM   39  C33 UNL     1      -9.169  45.584 -26.086  1.00  0.00    -0.018 C 
BRANCH  39  40
HETATM   40  C34 UNL     1      -7.962  45.852 -25.219  1.00  0.00     0.000 C 
HETATM   41  C35 UNL     1      -7.289  47.157 -25.642  1.00  0.00     0.013 C 
HETATM   42  C36 UNL     1      -8.376  45.920 -23.749  1.00  0.00     0.013 C 
ENDBRANCH  39  40
ENDBRANCH  33  37
BRANCH  32  43
HETATM   43  C29 UNL     1     -10.203  46.770 -29.381  1.00  0.00     0.174 C 
BRANCH  43  44
HETATM   44  O8  UNL     1     -10.178  47.836 -30.328  1.00  0.00    -0.400 OA
HETATM   45  H40 UNL     1      -9.571  47.558 -31.039  1.00  0.00     0.209 HD
ENDBRANCH  43  44
ENDBRANCH  32  43
BRANCH  26  46
HETATM   46  O5  UNL     1     -17.031  43.090 -21.961  1.00  0.00    -0.381 OA
HETATM   47  H30 UNL     1     -17.255  42.187 -21.681  1.00  0.00     0.211 HD
ENDBRANCH  26  46
BRANCH  25  48
HETATM   48  O4  UNL     1     -19.951  45.540 -19.574  1.00  0.00    -0.389 OA
HETATM   49  H29 UNL     1     -20.666  45.448 -20.236  1.00  0.00     0.210 HD
ENDBRANCH  25  48
TORSDOF 7
ENDMDL
MODEL 6
REMARK minimizedAffinity -8.51895046
REMARK CNNscore 0.399737418
REMARK CNNaffinity 6.1247468
REMARK  7 active torsions:
REMARK  status: ('A' for Active; 'I' for Inactive)
REMARK    1  A    between atoms: C22_25  and  O4_26 
REMARK    2  A    between atoms: C23_27  and  O5_28 
REMARK    3  A    between atoms: C27_33  and  O7_34 
REMARK    4  A    between atoms: C28_35  and  C29_36 
REMARK    5  A    between atoms: C29_36  and  O8_37 
REMARK    6  A    between atoms: C30_38  and  C31_39 
REMARK    7  A    between atoms: C33_41  and  C34_42 
ROOT
HETATM    1  C1  UNL     1      -6.514  43.259 -17.188  1.00  0.00     0.046 C 
HETATM    2  C2  UNL     1      -5.840  44.504 -17.690  1.00  0.00    -0.056 C 
HETATM    3  C3  UNL     1      -5.923  44.878 -18.982  1.00  0.00    -0.004 C 
HETATM    4  C4  UNL     1      -5.229  46.114 -19.487  1.00  0.00     0.150 C 
HETATM    5  C5  UNL     1      -5.761  46.676 -20.796  1.00  0.00     0.270 C 
HETATM    6  O1  UNL     1      -5.019  46.996 -21.720  1.00  0.00    -0.264 OA
HETATM    7  O2  UNL     1      -7.112  46.806 -20.820  1.00  0.00    -0.315 OA
HETATM    8  C6  UNL     1      -7.738  47.406 -21.979  1.00  0.00     0.139 C 
HETATM    9  C7  UNL     1      -7.354  48.877 -22.160  1.00  0.00     0.065 C 
HETATM   10  C8  UNL     1      -7.383  49.338 -23.620  1.00  0.00     0.131 C 
HETATM   11  C9  UNL     1      -6.016  49.349 -24.351  1.00  0.00     0.059 C 
HETATM   12  C10 UNL     1      -5.022  50.337 -23.788  1.00  0.00    -0.022 C 
HETATM   13  C11 UNL     1      -3.680  50.292 -23.926  1.00  0.00    -0.087 C 
HETATM   14  C12 UNL     1      -2.953  49.272 -24.762  1.00  0.00     0.043 C 
HETATM   15  C13 UNL     1      -2.793  51.307 -23.214  1.00  0.00     0.041 C 
HETATM   16  C14 UNL     1      -1.914  50.729 -22.070  1.00  0.00     0.008 C 
HETATM   17  C15 UNL     1      -1.120  51.854 -21.399  1.00  0.00     0.014 C 
HETATM   18  C16 UNL     1      -2.752  49.907 -21.117  1.00  0.00    -0.022 C 
HETATM   19  C17 UNL     1      -3.224  50.247 -19.909  1.00  0.00    -0.003 C 
HETATM   20  C18 UNL     1      -4.232  49.409 -19.309  1.00  0.00     0.008 C 
HETATM   21  C19 UNL     1      -4.020  48.199 -18.770  1.00  0.00    -0.019 C 
HETATM   22  C20 UNL     1      -2.712  47.574 -18.374  1.00  0.00     0.206 C 
HETATM   23  O3  UNL     1      -3.054  46.449 -17.519  1.00  0.00    -0.375 OA
HETATM   24  C21 UNL     1      -4.446  46.638 -17.150  1.00  0.00     0.194 C 
HETATM   25  C22 UNL     1      -5.126  45.341 -16.651  1.00  0.00     0.179 C 
HETATM   26  C23 UNL     1      -5.094  47.216 -18.401  1.00  0.00     0.128 C 
HETATM   27  O6  UNL     1      -8.379  48.652 -24.383  1.00  0.00    -0.349 OA
HETATM   28  C24 UNL     1      -8.379  47.219 -24.383  1.00  0.00     0.170 C 
HETATM   29  C25 UNL     1      -7.547  46.597 -23.255  1.00  0.00     0.101 C 
HETATM   30  C26 UNL     1      -7.907  46.700 -25.748  1.00  0.00     0.100 C 
HETATM   31  C27 UNL     1      -8.867  47.126 -26.860  1.00  0.00     0.132 C 
HETATM   32  C28 UNL     1     -10.305  46.699 -26.526  1.00  0.00     0.071 C 
HETATM   33  C30 UNL     1     -10.679  47.186 -25.114  1.00  0.00     0.162 C 
HETATM   34  O9  UNL     1      -9.716  46.760 -24.146  1.00  0.00    -0.345 OA
ENDROOT
BRANCH  31  35
HETATM   35  O7  UNL     1      -8.772  48.537 -27.080  1.00  0.00    -0.395 OA
HETATM   36  H36 UNL     1      -8.701  48.971 -26.206  1.00  0.00     0.210 HD
ENDBRANCH  31  35
BRANCH  33  37
HETATM   37  C31 UNL     1     -12.024  46.657 -24.628  1.00  0.00    -0.058 C 
HETATM   38  C32 UNL     1     -12.027  45.945 -23.298  1.00  0.00     0.046 C 
HETATM   39  C33 UNL     1     -13.144  46.835 -25.361  1.00  0.00    -0.018 C 
BRANCH  39  40
HETATM   40  C34 UNL     1     -14.536  46.354 -25.028  1.00  0.00     0.000 C 
HETATM   41  C35 UNL     1     -15.302  47.440 -24.273  1.00  0.00     0.013 C 
HETATM   42  C36 UNL     1     -15.280  45.974 -26.309  1.00  0.00     0.013 C 
ENDBRANCH  39  40
ENDBRANCH  33  37
BRANCH  32  43
HETATM   43  C29 UNL     1     -11.303  47.188 -27.582  1.00  0.00     0.174 C 
BRANCH  43  44
HETATM   44  O8  UNL     1     -11.438  48.605 -27.504  1.00  0.00    -0.400 OA
HETATM   45  H40 UNL     1     -12.277  48.826 -27.947  1.00  0.00     0.209 HD
ENDBRANCH  43  44
ENDBRANCH  32  43
BRANCH  26  46
HETATM   46  O5  UNL     1      -6.328  47.855 -18.093  1.00  0.00    -0.381 OA
HETATM   47  H30 UNL     1      -6.143  48.613 -17.513  1.00  0.00     0.211 HD
ENDBRANCH  26  46
BRANCH  25  48
HETATM   48  O4  UNL     1      -4.167  44.528 -15.974  1.00  0.00    -0.389 OA
HETATM   49  H29 UNL     1      -3.311  44.726 -16.405  1.00  0.00     0.210 HD
ENDBRANCH  25  48
TORSDOF 7
ENDMDL
MODEL 7
REMARK minimizedAffinity -7.81985188
REMARK CNNscore 0.376036435
REMARK CNNaffinity 6.494802
REMARK  7 active torsions:
REMARK  status: ('A' for Active; 'I' for Inactive)
REMARK    1  A    between atoms: C22_25  and  O4_26 
REMARK    2  A    between atoms: C23_27  and  O5_28 
REMARK    3  A    between atoms: C27_33  and  O7_34 
REMARK    4  A    between atoms: C28_35  and  C29_36 
REMARK    5  A    between atoms: C29_36  and  O8_37 
REMARK    6  A    between atoms: C30_38  and  C31_39 
REMARK    7  A    between atoms: C33_41  and  C34_42 
ROOT
HETATM    1  C1  UNL     1      -6.503  40.729 -20.194  1.00  0.00     0.046 C 
HETATM    2  C2  UNL     1      -6.124  42.170 -19.996  1.00  0.00    -0.056 C 
HETATM    3  C3  UNL     1      -6.251  43.073 -20.988  1.00  0.00    -0.004 C 
HETATM    4  C4  UNL     1      -5.851  44.511 -20.794  1.00  0.00     0.150 C 
HETATM    5  C5  UNL     1      -6.457  45.499 -21.779  1.00  0.00     0.270 C 
HETATM    6  O1  UNL     1      -5.782  46.346 -22.356  1.00  0.00    -0.264 OA
HETATM    7  O2  UNL     1      -7.800  45.360 -21.927  1.00  0.00    -0.315 OA
HETATM    8  C6  UNL     1      -8.511  46.294 -22.775  1.00  0.00     0.139 C 
HETATM    9  C7  UNL     1      -8.477  47.724 -22.232  1.00  0.00     0.065 C 
HETATM   10  C8  UNL     1      -8.566  48.792 -23.328  1.00  0.00     0.131 C 
HETATM   11  C9  UNL     1      -7.217  49.403 -23.784  1.00  0.00     0.059 C 
HETATM   12  C10 UNL     1      -6.502  50.192 -22.712  1.00  0.00    -0.022 C 
HETATM   13  C11 UNL     1      -5.183  50.476 -22.672  1.00  0.00    -0.087 C 
HETATM   14  C12 UNL     1      -4.210  50.120 -23.765  1.00  0.00     0.043 C 
HETATM   15  C13 UNL     1      -4.582  51.199 -21.470  1.00  0.00     0.041 C 
HETATM   16  C14 UNL     1      -3.630  50.341 -20.592  1.00  0.00     0.008 C 
HETATM   17  C15 UNL     1      -3.145  51.159 -19.391  1.00  0.00     0.014 C 
HETATM   18  C16 UNL     1      -4.283  49.027 -20.225  1.00  0.00    -0.022 C 
HETATM   19  C17 UNL     1      -4.860  48.672 -19.068  1.00  0.00    -0.003 C 
HETATM   20  C18 UNL     1      -5.661  47.475 -19.044  1.00  0.00     0.008 C 
HETATM   21  C19 UNL     1      -5.189  46.220 -19.072  1.00  0.00    -0.019 C 
HETATM   22  C20 UNL     1      -3.784  45.749 -18.819  1.00  0.00     0.206 C 
HETATM   23  O3  UNL     1      -3.880  44.314 -18.605  1.00  0.00    -0.375 OA
HETATM   24  C21 UNL     1      -5.288  44.038 -18.384  1.00  0.00     0.194 C 
HETATM   25  C22 UNL     1      -5.660  42.553 -18.608  1.00  0.00     0.179 C 
HETATM   26  C23 UNL     1      -6.013  44.990 -19.326  1.00  0.00     0.128 C 
HETATM   27  O6  UNL     1      -9.348  48.357 -24.443  1.00  0.00    -0.349 OA
HETATM   28  C24 UNL     1      -9.011  47.117 -25.076  1.00  0.00     0.170 C 
HETATM   29  C25 UNL     1      -8.094  46.218 -24.238  1.00  0.00     0.101 C 
HETATM   30  C26 UNL     1      -8.387  47.389 -26.452  1.00  0.00     0.100 C 
HETATM   31  C27 UNL     1      -9.383  48.085 -27.380  1.00  0.00     0.132 C 
HETATM   32  C28 UNL     1     -10.692  47.281 -27.469  1.00  0.00     0.071 C 
HETATM   33  C30 UNL     1     -11.215  46.979 -26.053  1.00  0.00     0.162 C 
HETATM   34  O9  UNL     1     -10.210  46.351 -25.251  1.00  0.00    -0.345 OA
ENDROOT
BRANCH  31  35
HETATM   35  O7  UNL     1      -9.615  49.426 -26.939  1.00  0.00    -0.395 OA
HETATM   36  H36 UNL     1      -9.677  49.412 -25.962  1.00  0.00     0.210 HD
ENDBRANCH  31  35
BRANCH  33  37
HETATM   37  C31 UNL     1     -12.412  46.036 -26.039  1.00  0.00    -0.058 C 
HETATM   38  C32 UNL     1     -13.643  46.519 -25.313  1.00  0.00     0.046 C 
HETATM   39  C33 UNL     1     -12.357  44.837 -26.658  1.00  0.00    -0.018 C 
BRANCH  39  40
HETATM   40  C34 UNL     1     -13.443  43.790 -26.715  1.00  0.00     0.000 C 
HETATM   41  C35 UNL     1     -13.543  43.210 -28.125  1.00  0.00     0.013 C 
HETATM   42  C36 UNL     1     -13.155  42.679 -25.704  1.00  0.00     0.013 C 
ENDBRANCH  39  40
ENDBRANCH  33  37
BRANCH  32  43
HETATM   43  C29 UNL     1     -11.741  47.999 -28.325  1.00  0.00     0.174 C 
BRANCH  43  44
HETATM   44  O8  UNL     1     -12.431  48.967 -27.538  1.00  0.00    -0.400 OA
HETATM   45  H40 UNL     1     -13.264  49.160 -28.007  1.00  0.00     0.209 HD
ENDBRANCH  43  44
ENDBRANCH  32  43
BRANCH  26  46
HETATM   46  O5  UNL     1      -7.372  45.162 -18.939  1.00  0.00    -0.381 OA
HETATM   47  H30 UNL     1      -7.389  45.586 -18.064  1.00  0.00     0.211 HD
ENDBRANCH  26  46
BRANCH  25  48
HETATM   48  O4  UNL     1      -4.560  41.723 -18.236  1.00  0.00    -0.389 OA
HETATM   49  H29 UNL     1      -3.761  42.259 -18.414  1.00  0.00     0.210 HD
ENDBRANCH  25  48
TORSDOF 7
ENDMDL
MODEL 8
REMARK minimizedAffinity -8.50832081
REMARK CNNscore 0.366914421
REMARK CNNaffinity 6.30661345
REMARK  7 active torsions:
REMARK  status: ('A' for Active; 'I' for Inactive)
REMARK    1  A    between atoms: C22_25  and  O4_26 
REMARK    2  A    between atoms: C23_27  and  O5_28 
REMARK    3  A    between atoms: C27_33  and  O7_34 
REMARK    4  A    between atoms: C28_35  and  C29_36 
REMARK    5  A    between atoms: C29_36  and  O8_37 
REMARK    6  A    between atoms: C30_38  and  C31_39 
REMARK    7  A    between atoms: C33_41  and  C34_42 
ROOT
HETATM    1  C1  UNL     1       0.730  52.951 -22.677  1.00  0.00     0.046 C 
HETATM    2  C2  UNL     1      -0.346  51.911 -22.543  1.00  0.00    -0.056 C 
HETATM    3  C3  UNL     1      -0.375  51.060 -21.499  1.00  0.00    -0.004 C 
HETATM    4  C4  UNL     1      -1.442  50.005 -21.377  1.00  0.00     0.150 C 
HETATM    5  C5  UNL     1      -1.648  49.439 -19.981  1.00  0.00     0.270 C 
HETATM    6  O1  UNL     1      -1.722  48.232 -19.768  1.00  0.00    -0.264 OA
HETATM    7  O2  UNL     1      -1.765  50.394 -19.022  1.00  0.00    -0.315 OA
HETATM    8  C6  UNL     1      -2.046  49.988 -17.661  1.00  0.00     0.139 C 
HETATM    9  C7  UNL     1      -3.422  49.333 -17.515  1.00  0.00     0.065 C 
HETATM   10  C8  UNL     1      -3.493  48.316 -16.371  1.00  0.00     0.131 C 
HETATM   11  C9  UNL     1      -3.319  46.831 -16.779  1.00  0.00     0.059 C 
HETATM   12  C10 UNL     1      -4.420  46.300 -17.666  1.00  0.00    -0.022 C 
HETATM   13  C11 UNL     1      -4.343  45.231 -18.487  1.00  0.00    -0.087 C 
HETATM   14  C12 UNL     1      -3.144  44.325 -18.581  1.00  0.00     0.043 C 
HETATM   15  C13 UNL     1      -5.509  44.872 -19.402  1.00  0.00     0.041 C 
HETATM   16  C14 UNL     1      -5.245  45.077 -20.920  1.00  0.00     0.008 C 
HETATM   17  C15 UNL     1      -6.507  44.741 -21.721  1.00  0.00     0.014 C 
HETATM   18  C16 UNL     1      -4.694  46.460 -21.182  1.00  0.00    -0.022 C 
HETATM   19  C17 UNL     1      -5.332  47.541 -21.654  1.00  0.00    -0.003 C 
HETATM   20  C18 UNL     1      -4.674  48.820 -21.555  1.00  0.00     0.008 C 
HETATM   21  C19 UNL     1      -3.644  49.227 -22.311  1.00  0.00    -0.019 C 
HETATM   22  C20 UNL     1      -3.143  48.635 -23.599  1.00  0.00     0.206 C 
HETATM   23  O3  UNL     1      -2.275  49.642 -24.187  1.00  0.00    -0.375 OA
HETATM   24  C21 UNL     1      -2.550  50.873 -23.468  1.00  0.00     0.194 C 
HETATM   25  C22 UNL     1      -1.423  51.924 -23.606  1.00  0.00     0.179 C 
HETATM   26  C23 UNL     1      -2.786  50.428 -22.031  1.00  0.00     0.128 C 
HETATM   27  O6  UNL     1      -2.632  48.665 -15.284  1.00  0.00    -0.349 OA
HETATM   28  C24 UNL     1      -1.248  48.913 -15.557  1.00  0.00     0.170 C 
HETATM   29  C25 UNL     1      -0.937  49.150 -17.039  1.00  0.00     0.101 C 
HETATM   30  C26 UNL     1      -0.396  47.760 -15.006  1.00  0.00     0.100 C 
HETATM   31  C27 UNL     1      -0.521  47.661 -13.485  1.00  0.00     0.132 C 
HETATM   32  C28 UNL     1      -0.191  49.011 -12.827  1.00  0.00     0.071 C 
HETATM   33  C30 UNL     1      -1.023  50.128 -13.482  1.00  0.00     0.162 C 
HETATM   34  O9  UNL     1      -0.862  50.130 -14.904  1.00  0.00    -0.345 OA
ENDROOT
BRANCH  31  35
HETATM   35  O7  UNL     1      -1.828  47.203 -13.126  1.00  0.00    -0.395 OA
HETATM   36  H36 UNL     1      -2.472  47.650 -13.712  1.00  0.00     0.210 HD
ENDBRANCH  31  35
BRANCH  33  37
HETATM   37  C31 UNL     1      -0.634  51.526 -13.015  1.00  0.00    -0.058 C 
HETATM   38  C32 UNL     1       0.378  52.262 -13.858  1.00  0.00     0.046 C 
HETATM   39  C33 UNL     1      -1.186  52.063 -11.906  1.00  0.00    -0.018 C 
BRANCH  39  40
HETATM   40  C34 UNL     1      -0.890  53.417 -11.306  1.00  0.00     0.000 C 
HETATM   41  C35 UNL     1      -2.112  53.936 -10.548  1.00  0.00     0.013 C 
HETATM   42  C36 UNL     1       0.315  53.325 -10.369  1.00  0.00     0.013 C 
ENDBRANCH  39  40
ENDBRANCH  33  37
BRANCH  32  43
HETATM   43  C29 UNL     1      -0.390  48.966 -11.308  1.00  0.00     0.174 C 
BRANCH  43  44
HETATM   44  O8  UNL     1       0.837  49.264 -10.647  1.00  0.00    -0.400 OA
HETATM   45  H40 UNL     1       0.750  48.923  -9.738  1.00  0.00     0.209 HD
ENDBRANCH  43  44
ENDBRANCH  32  43
BRANCH  26  46
HETATM   46  O5  UNL     1      -3.480  51.426 -21.290  1.00  0.00    -0.381 OA
HETATM   47  H30 UNL     1      -4.362  51.540 -21.683  1.00  0.00     0.211 HD
ENDBRANCH  26  46
BRANCH  25  48
HETATM   48  O4  UNL     1      -0.813  51.805 -24.891  1.00  0.00    -0.389 OA
HETATM   49  H29 UNL     1      -0.895  50.859 -25.129  1.00  0.00     0.210 HD
ENDBRANCH  25  48
TORSDOF 7
ENDMDL
MODEL 9
REMARK minimizedAffinity -7.40006351
REMARK CNNscore 0.300712109
REMARK CNNaffinity 6.42211103
REMARK  7 active torsions:
REMARK  status: ('A' for Active; 'I' for Inactive)
REMARK    1  A    between atoms: C22_25  and  O4_26 
REMARK    2  A    between atoms: C23_27  and  O5_28 
REMARK    3  A    between atoms: C27_33  and  O7_34 
REMARK    4  A    between atoms: C28_35  and  C29_36 
REMARK    5  A    between atoms: C29_36  and  O8_37 
REMARK    6  A    between atoms: C30_38  and  C31_39 
REMARK    7  A    between atoms: C33_41  and  C34_42 
ROOT
HETATM    1  C1  UNL     1      -3.221  51.797  -1.725  1.00  0.00     0.046 C 
HETATM    2  C2  UNL     1      -2.283  52.920  -2.070  1.00  0.00    -0.056 C 
HETATM    3  C3  UNL     1      -1.540  52.895  -3.194  1.00  0.00    -0.004 C 
HETATM    4  C4  UNL     1      -0.586  54.011  -3.527  1.00  0.00     0.150 C 
HETATM    5  C5  UNL     1      -0.174  54.106  -4.988  1.00  0.00     0.270 C 
HETATM    6  O1  UNL     1       0.998  54.236  -5.330  1.00  0.00    -0.264 OA
HETATM    7  O2  UNL     1      -1.221  54.059  -5.850  1.00  0.00    -0.315 OA
HETATM    8  C6  UNL     1      -0.970  54.222  -7.267  1.00  0.00     0.139 C 
HETATM    9  C7  UNL     1      -0.439  55.615  -7.613  1.00  0.00     0.065 C 
HETATM   10  C8  UNL     1       0.456  55.633  -8.857  1.00  0.00     0.131 C 
HETATM   11  C9  UNL     1       1.982  55.600  -8.589  1.00  0.00     0.059 C 
HETATM   12  C10 UNL     1       2.511  56.821  -7.873  1.00  0.00    -0.022 C 
HETATM   13  C11 UNL     1       3.655  56.901  -7.162  1.00  0.00    -0.087 C 
HETATM   14  C12 UNL     1       4.655  55.781  -7.046  1.00  0.00     0.043 C 
HETATM   15  C13 UNL     1       4.011  58.178  -6.407  1.00  0.00     0.041 C 
HETATM   16  C14 UNL     1       3.973  58.061  -4.858  1.00  0.00     0.008 C 
HETATM   17  C15 UNL     1       4.287  59.419  -4.222  1.00  0.00     0.014 C 
HETATM   18  C16 UNL     1       2.667  57.451  -4.402  1.00  0.00    -0.022 C 
HETATM   19  C17 UNL     1       1.590  58.061  -3.886  1.00  0.00    -0.003 C 
HETATM   20  C18 UNL     1       0.362  57.314  -3.788  1.00  0.00     0.008 C 
HETATM   21  C19 UNL     1       0.108  56.344  -2.898  1.00  0.00    -0.019 C 
HETATM   22  C20 UNL     1       0.857  56.021  -1.635  1.00  0.00     0.206 C 
HETATM   23  O3  UNL     1      -0.020  55.155  -0.865  1.00  0.00    -0.375 OA
HETATM   24  C21 UNL     1      -1.332  55.271  -1.477  1.00  0.00     0.194 C 
HETATM   25  C22 UNL     1      -2.276  54.099  -1.122  1.00  0.00     0.179 C 
HETATM   26  C23 UNL     1      -1.045  55.385  -2.968  1.00  0.00     0.128 C 
HETATM   27  O6  UNL     1       0.071  54.642  -9.813  1.00  0.00    -0.349 OA
HETATM   28  C24 UNL     1      -0.044  53.280  -9.382  1.00  0.00     0.170 C 
HETATM   29  C25 UNL     1      -0.114  53.111  -7.860  1.00  0.00     0.101 C 
HETATM   30  C26 UNL     1       1.112  52.454  -9.963  1.00  0.00     0.100 C 
HETATM   31  C27 UNL     1       1.055  52.425 -11.490  1.00  0.00     0.132 C 
HETATM   32  C28 UNL     1      -0.322  51.939 -11.971  1.00  0.00     0.071 C 
HETATM   33  C30 UNL     1      -1.431  52.760 -11.289  1.00  0.00     0.162 C 
HETATM   34  O9  UNL     1      -1.285  52.749  -9.865  1.00  0.00    -0.345 OA
ENDROOT
BRANCH  31  35
HETATM   35  O7  UNL     1       1.376  53.714 -12.021  1.00  0.00    -0.395 OA
HETATM   36  H36 UNL     1       0.940  54.386 -11.458  1.00  0.00     0.210 HD
ENDBRANCH  31  35
BRANCH  33  37
HETATM   37  C31 UNL     1      -2.834  52.234 -11.570  1.00  0.00    -0.058 C 
HETATM   38  C32 UNL     1      -3.812  53.209 -12.175  1.00  0.00     0.046 C 
HETATM   39  C33 UNL     1      -3.161  50.953 -11.291  1.00  0.00    -0.018 C 
BRANCH  39  40
HETATM   40  C34 UNL     1      -4.504  50.292 -11.489  1.00  0.00     0.000 C 
HETATM   41  C35 UNL     1      -4.318  48.844 -11.941  1.00  0.00     0.013 C 
HETATM   42  C36 UNL     1      -5.311  50.343 -10.191  1.00  0.00     0.013 C 
ENDBRANCH  39  40
ENDBRANCH  33  37
BRANCH  32  43
HETATM   43  C29 UNL     1      -0.438  51.981 -13.499  1.00  0.00     0.174 C 
BRANCH  43  44
HETATM   44  O8  UNL     1       0.760  52.510 -14.062  1.00  0.00    -0.400 OA
HETATM   45  H40 UNL     1       0.533  52.808 -14.963  1.00  0.00     0.209 HD
ENDBRANCH  43  44
ENDBRANCH  32  43
BRANCH  26  46
HETATM   46  O5  UNL     1      -2.159  55.931  -3.667  1.00  0.00    -0.381 OA
HETATM   47  H30 UNL     1      -2.302  56.839  -3.351  1.00  0.00     0.211 HD
ENDBRANCH  26  46
BRANCH  25  48
HETATM   48  O4  UNL     1      -1.989  53.636   0.197  1.00  0.00    -0.389 OA
HETATM   49  H29 UNL     1      -1.034  53.804   0.328  1.00  0.00     0.210 HD
ENDBRANCH  25  48
TORSDOF 7
ENDMDL
