MODEL 1
REMARK minimizedAffinity -7.52672482
REMARK CNNscore 0.7222808
REMARK CNNaffinity 7.02813578
REMARK  8 active torsions:
REMARK  status: ('A' for Active; 'I' for Inactive)
REMARK    1  A    between atoms: C2_2  and  C3_3 
REMARK    2  A    between atoms: C2_2  and  C27_30 
REMARK    3  A    between atoms: C3_3  and  C4_4 
REMARK    4  A    between atoms: C4_4  and  C5_5 
REMARK    5  A    between atoms: C5_5  and  C7_7 
REMARK    6  A    between atoms: C26_28  and  O3_29 
REMARK    7  A    between atoms: C27_30  and  C29_32 
REMARK    8  A    between atoms: C29_32  and  O5_34 
ROOT
HETATM    1  C7  UNL     1       4.755  54.736  -8.601  1.00  0.00    -0.002 C 
HETATM    2  C8  UNL     1       4.283  56.192  -8.327  1.00  0.00     0.006 C 
HETATM    3  C9  UNL     1       2.792  56.246  -8.689  1.00  0.00     0.010 C 
HETATM    4  C10 UNL     1       2.398  54.780  -8.868  1.00  0.00     0.027 C 
HETATM    5  C11 UNL     1       1.102  54.399  -9.548  1.00  0.00    -0.036 C 
HETATM    6  C12 UNL     1       0.948  53.182 -10.127  1.00  0.00     0.002 C 
HETATM    7  C13 UNL     1       2.139  52.238 -10.151  1.00  0.00     0.157 C 
HETATM    8  O1  UNL     1       2.050  51.125 -10.667  1.00  0.00    -0.293 OA
HETATM    9  C14 UNL     1       3.451  52.654  -9.501  1.00  0.00     0.093 C 
HETATM   10  C15 UNL     1       3.651  54.168  -9.545  1.00  0.00    -0.026 C 
HETATM   11  C16 UNL     1       3.828  54.624 -11.013  1.00  0.00     0.016 C 
HETATM   12  C17 UNL     1      -0.370  52.717 -10.784  1.00  0.00    -0.008 C 
HETATM   13  C18 UNL     1      -0.152  52.813 -12.317  1.00  0.00     0.021 C 
HETATM   14  C19 UNL     1      -0.739  51.243 -10.411  1.00  0.00     0.022 C 
HETATM   15  C20 UNL     1      -2.233  50.924 -10.334  1.00  0.00     0.080 C 
HETATM   16  C21 UNL     1      -3.049  51.802 -11.245  1.00  0.00     0.131 C 
HETATM   17  O2  UNL     1      -3.868  51.329 -12.032  1.00  0.00    -0.298 OA
HETATM   18  C22 UNL     1      -2.876  53.305 -11.085  1.00  0.00     0.056 C 
HETATM   19  C23 UNL     1      -4.120  53.863 -10.393  1.00  0.00     0.018 C 
HETATM   20  C24 UNL     1      -1.570  53.617 -10.312  1.00  0.00     0.012 C 
HETATM   21  C25 UNL     1      -1.211  55.107 -10.378  1.00  0.00     0.042 C 
HETATM   22  C26 UNL     1      -0.002  55.423  -9.498  1.00  0.00     0.148 C 
ENDROOT
BRANCH   1  23
HETATM   23  C5  UNL     1       6.275  54.638  -8.909  1.00  0.00    -0.014 C 
HETATM   24  C6  UNL     1       6.893  53.234  -8.843  1.00  0.00     0.010 C 
BRANCH  23  25
HETATM   25  C4  UNL     1       7.166  55.595  -8.080  1.00  0.00     0.009 C 
BRANCH  25  26
HETATM   26  C3  UNL     1       7.342  55.242  -6.593  1.00  0.00     0.034 C 
BRANCH  26  27
HETATM   27  C2  UNL     1       7.535  56.383  -5.603  1.00  0.00    -0.075 C 
HETATM   28  C1  UNL     1       6.718  57.453  -5.550  1.00  0.00     0.015 C 
BRANCH  27  29
HETATM   29  C27 UNL     1       8.738  56.299  -4.659  1.00  0.00     0.107 C 
HETATM   30  C28 UNL     1       9.067  54.850  -4.295  1.00  0.00     0.026 C 
BRANCH  29  31
HETATM   31  C29 UNL     1       9.966  57.029  -5.206  1.00  0.00     0.147 C 
HETATM   32  O4  UNL     1      10.162  58.233  -5.267  1.00  0.00    -0.650 OA
BRANCH  31  33
HETATM   33  O5  UNL     1      10.936  56.181  -5.610  1.00  0.00    -0.776 OA
HETATM   34  H42 UNL     1      11.660  56.779  -5.895  1.00  0.00     0.167 HD
ENDBRANCH  31  33
ENDBRANCH  29  31
ENDBRANCH  27  29
ENDBRANCH  26  27
ENDBRANCH  25  26
ENDBRANCH  23  25
ENDBRANCH   1  23
BRANCH  22  35
HETATM   35  O3  UNL     1      -0.428  55.544  -8.144  1.00  0.00    -0.391 OA
HETATM   36  H37 UNL     1      -0.549  54.650  -7.784  1.00  0.00     0.210 HD
ENDBRANCH  22  35
TORSDOF 8
ENDMDL
MODEL 2
REMARK minimizedAffinity -10.0744801
REMARK CNNscore 0.570535898
REMARK CNNaffinity 7.11107874
REMARK  8 active torsions:
REMARK  status: ('A' for Active; 'I' for Inactive)
REMARK    1  A    between atoms: C2_2  and  C3_3 
REMARK    2  A    between atoms: C2_2  and  C27_30 
REMARK    3  A    between atoms: C3_3  and  C4_4 
REMARK    4  A    between atoms: C4_4  and  C5_5 
REMARK    5  A    between atoms: C5_5  and  C7_7 
REMARK    6  A    between atoms: C26_28  and  O3_29 
REMARK    7  A    between atoms: C27_30  and  C29_32 
REMARK    8  A    between atoms: C29_32  and  O5_34 
ROOT
HETATM    1  C7  UNL     1      -0.066  50.413 -18.537  1.00  0.00    -0.002 C 
HETATM    2  C8  UNL     1      -0.983  49.230 -18.113  1.00  0.00     0.006 C 
HETATM    3  C9  UNL     1      -1.763  48.809 -19.367  1.00  0.00     0.010 C 
HETATM    4  C10 UNL     1      -1.063  49.548 -20.508  1.00  0.00     0.027 C 
HETATM    5  C11 UNL     1      -1.711  49.674 -21.869  1.00  0.00    -0.036 C 
HETATM    6  C12 UNL     1      -1.367  50.675 -22.717  1.00  0.00     0.002 C 
HETATM    7  C13 UNL     1      -0.372  51.718 -22.237  1.00  0.00     0.157 C 
HETATM    8  O1  UNL     1      -0.031  52.646 -22.968  1.00  0.00    -0.293 OA
HETATM    9  C14 UNL     1       0.239  51.602 -20.847  1.00  0.00     0.093 C 
HETATM   10  C15 UNL     1      -0.709  50.914 -19.867  1.00  0.00    -0.026 C 
HETATM   11  C16 UNL     1      -1.949  51.809 -19.630  1.00  0.00     0.016 C 
HETATM   12  C17 UNL     1      -1.952  50.819 -24.139  1.00  0.00    -0.008 C 
HETATM   13  C18 UNL     1      -2.989  51.971 -24.070  1.00  0.00     0.021 C 
HETATM   14  C19 UNL     1      -0.862  51.174 -25.203  1.00  0.00     0.022 C 
HETATM   15  C20 UNL     1      -1.100  50.633 -26.614  1.00  0.00     0.080 C 
HETATM   16  C21 UNL     1      -2.566  50.464 -26.919  1.00  0.00     0.131 C 
HETATM   17  O2  UNL     1      -3.068  50.926 -27.942  1.00  0.00    -0.298 OA
HETATM   18  C22 UNL     1      -3.376  49.622 -25.944  1.00  0.00     0.056 C 
HETATM   19  C23 UNL     1      -3.681  48.279 -26.606  1.00  0.00     0.018 C 
HETATM   20  C24 UNL     1      -2.616  49.471 -24.603  1.00  0.00     0.012 C 
HETATM   21  C25 UNL     1      -3.509  48.881 -23.505  1.00  0.00     0.042 C 
HETATM   22  C26 UNL     1      -2.711  48.606 -22.231  1.00  0.00     0.148 C 
ENDROOT
BRANCH   1  23
HETATM   23  C5  UNL     1       0.295  51.355 -17.354  1.00  0.00    -0.014 C 
HETATM   24  C6  UNL     1       1.122  52.599 -17.704  1.00  0.00     0.010 C 
BRANCH  23  25
HETATM   25  C4  UNL     1       0.967  50.652 -16.150  1.00  0.00     0.009 C 
BRANCH  25  26
HETATM   26  C3  UNL     1       1.455  51.569 -15.014  1.00  0.00     0.034 C 
BRANCH  26  27
HETATM   27  C2  UNL     1       2.925  51.509 -14.625  1.00  0.00    -0.075 C 
HETATM   28  C1  UNL     1       3.917  51.904 -15.447  1.00  0.00     0.015 C 
BRANCH  27  29
HETATM   29  C27 UNL     1       3.265  50.941 -13.244  1.00  0.00     0.107 C 
HETATM   30  C28 UNL     1       2.019  50.825 -12.362  1.00  0.00     0.026 C 
BRANCH  29  31
HETATM   31  C29 UNL     1       4.016  49.610 -13.324  1.00  0.00     0.147 C 
HETATM   32  O4  UNL     1       3.652  48.570 -13.849  1.00  0.00    -0.650 OA
BRANCH  31  33
HETATM   33  O5  UNL     1       5.246  49.675 -12.770  1.00  0.00    -0.776 OA
HETATM   34  H42 UNL     1       5.615  48.780 -12.926  1.00  0.00     0.167 HD
ENDBRANCH  31  33
ENDBRANCH  29  31
ENDBRANCH  27  29
ENDBRANCH  26  27
ENDBRANCH  25  26
ENDBRANCH  23  25
ENDBRANCH   1  23
BRANCH  22  35
HETATM   35  O3  UNL     1      -2.008  47.376 -22.375  1.00  0.00    -0.391 OA
HETATM   36  H37 UNL     1      -1.221  47.540 -22.921  1.00  0.00     0.210 HD
ENDBRANCH  22  35
TORSDOF 8
ENDMDL
MODEL 3
REMARK minimizedAffinity -7.96777487
REMARK CNNscore 0.558053255
REMARK CNNaffinity 6.08791351
REMARK  8 active torsions:
REMARK  status: ('A' for Active; 'I' for Inactive)
REMARK    1  A    between atoms: C2_2  and  C3_3 
REMARK    2  A    between atoms: C2_2  and  C27_30 
REMARK    3  A    between atoms: C3_3  and  C4_4 
REMARK    4  A    between atoms: C4_4  and  C5_5 
REMARK    5  A    between atoms: C5_5  and  C7_7 
REMARK    6  A    between atoms: C26_28  and  O3_29 
REMARK    7  A    between atoms: C27_30  and  C29_32 
REMARK    8  A    between atoms: C29_32  and  O5_34 
ROOT
HETATM    1  C7  UNL     1     -13.452  46.409 -27.046  1.00  0.00    -0.002 C 
HETATM    2  C8  UNL     1     -13.055  46.795 -25.593  1.00  0.00     0.006 C 
HETATM    3  C9  UNL     1     -11.550  47.097 -25.615  1.00  0.00     0.010 C 
HETATM    4  C10 UNL     1     -11.204  47.164 -27.102  1.00  0.00     0.027 C 
HETATM    5  C11 UNL     1      -9.767  47.116 -27.572  1.00  0.00    -0.036 C 
HETATM    6  C12 UNL     1      -9.455  46.709 -28.828  1.00  0.00     0.002 C 
HETATM    7  C13 UNL     1     -10.578  46.223 -29.728  1.00  0.00     0.157 C 
HETATM    8  O1  UNL     1     -10.346  45.841 -30.874  1.00  0.00    -0.293 OA
HETATM    9  C14 UNL     1     -12.016  46.236 -29.226  1.00  0.00     0.093 C 
HETATM   10  C15 UNL     1     -12.089  46.047 -27.712  1.00  0.00    -0.026 C 
HETATM   11  C16 UNL     1     -11.603  44.625 -27.344  1.00  0.00     0.016 C 
HETATM   12  C17 UNL     1      -8.013  46.693 -29.380  1.00  0.00    -0.008 C 
HETATM   13  C18 UNL     1      -7.559  45.209 -29.374  1.00  0.00     0.021 C 
HETATM   14  C19 UNL     1      -7.924  47.250 -30.839  1.00  0.00     0.022 C 
HETATM   15  C20 UNL     1      -6.623  47.967 -31.205  1.00  0.00     0.080 C 
HETATM   16  C21 UNL     1      -5.448  47.452 -30.416  1.00  0.00     0.131 C 
HETATM   17  O2  UNL     1      -4.404  47.107 -30.967  1.00  0.00    -0.298 OA
HETATM   18  C22 UNL     1      -5.584  47.459 -28.901  1.00  0.00     0.056 C 
HETATM   19  C23 UNL     1      -4.717  48.588 -28.345  1.00  0.00     0.018 C 
HETATM   20  C24 UNL     1      -7.073  47.590 -28.494  1.00  0.00     0.012 C 
HETATM   21  C25 UNL     1      -7.282  47.315 -27.000  1.00  0.00     0.042 C 
HETATM   22  C26 UNL     1      -8.728  47.585 -26.586  1.00  0.00     0.148 C 
ENDROOT
BRANCH   1  23
HETATM   23  C5  UNL     1     -14.704  45.490 -27.110  1.00  0.00    -0.014 C 
HETATM   24  C6  UNL     1     -15.172  45.075 -28.511  1.00  0.00     0.010 C 
BRANCH  23  25
HETATM   25  C4  UNL     1     -15.932  46.015 -26.328  1.00  0.00     0.009 C 
BRANCH  25  26
HETATM   26  C3  UNL     1     -16.348  45.203 -25.089  1.00  0.00     0.034 C 
BRANCH  26  27
HETATM   27  C2  UNL     1     -16.811  45.964 -23.854  1.00  0.00    -0.075 C 
HETATM   28  C1  UNL     1     -15.984  46.721 -23.107  1.00  0.00     0.015 C 
BRANCH  27  29
HETATM   29  C27 UNL     1     -18.281  45.819 -23.450  1.00  0.00     0.107 C 
HETATM   30  C28 UNL     1     -18.531  46.351 -22.037  1.00  0.00     0.026 C 
BRANCH  29  31
HETATM   31  C29 UNL     1     -19.234  46.458 -24.462  1.00  0.00     0.147 C 
HETATM   32  O4  UNL     1     -20.262  45.990 -24.928  1.00  0.00    -0.650 OA
BRANCH  31  33
HETATM   33  O5  UNL     1     -18.863  47.710 -24.807  1.00  0.00    -0.776 OA
HETATM   34  H42 UNL     1     -19.573  47.999 -25.418  1.00  0.00     0.167 HD
ENDBRANCH  31  33
ENDBRANCH  29  31
ENDBRANCH  27  29
ENDBRANCH  26  27
ENDBRANCH  25  26
ENDBRANCH  23  25
ENDBRANCH   1  23
BRANCH  22  35
HETATM   35  O3  UNL     1      -8.906  48.985 -26.394  1.00  0.00    -0.391 OA
HETATM   36  H37 UNL     1      -9.001  49.400 -27.267  1.00  0.00     0.210 HD
ENDBRANCH  22  35
TORSDOF 8
ENDMDL
MODEL 4
REMARK minimizedAffinity -8.64430523
REMARK CNNscore 0.378850818
REMARK CNNaffinity 6.4944787
REMARK  8 active torsions:
REMARK  status: ('A' for Active; 'I' for Inactive)
REMARK    1  A    between atoms: C2_2  and  C3_3 
REMARK    2  A    between atoms: C2_2  and  C27_30 
REMARK    3  A    between atoms: C3_3  and  C4_4 
REMARK    4  A    between atoms: C4_4  and  C5_5 
REMARK    5  A    between atoms: C5_5  and  C7_7 
REMARK    6  A    between atoms: C26_28  and  O3_29 
REMARK    7  A    between atoms: C27_30  and  C29_32 
REMARK    8  A    between atoms: C29_32  and  O5_34 
ROOT
HETATM    1  C7  UNL     1      -0.528  51.427 -15.883  1.00  0.00    -0.002 C 
HETATM    2  C8  UNL     1       0.923  51.985 -15.863  1.00  0.00     0.006 C 
HETATM    3  C9  UNL     1       1.287  52.311 -17.319  1.00  0.00     0.010 C 
HETATM    4  C10 UNL     1      -0.042  52.214 -18.067  1.00  0.00     0.027 C 
HETATM    5  C11 UNL     1      -0.083  52.139 -19.578  1.00  0.00    -0.036 C 
HETATM    6  C12 UNL     1      -1.147  51.596 -20.221  1.00  0.00     0.002 C 
HETATM    7  C13 UNL     1      -2.262  50.989 -19.388  1.00  0.00     0.157 C 
HETATM    8  O1  UNL     1      -3.246  50.483 -19.926  1.00  0.00    -0.293 OA
HETATM    9  C14 UNL     1      -2.186  51.033 -17.868  1.00  0.00     0.093 C 
HETATM   10  C15 UNL     1      -0.741  51.017 -17.372  1.00  0.00    -0.026 C 
HETATM   11  C16 UNL     1      -0.091  49.656 -17.716  1.00  0.00     0.016 C 
HETATM   12  C17 UNL     1      -1.269  51.544 -21.760  1.00  0.00    -0.008 C 
HETATM   13  C18 UNL     1      -0.965  50.080 -22.174  1.00  0.00     0.021 C 
HETATM   14  C19 UNL     1      -2.699  51.932 -22.261  1.00  0.00     0.022 C 
HETATM   15  C20 UNL     1      -2.769  52.626 -23.622  1.00  0.00     0.080 C 
HETATM   16  C21 UNL     1      -1.629  52.227 -24.523  1.00  0.00     0.131 C 
HETATM   17  O2  UNL     1      -1.823  51.842 -25.675  1.00  0.00    -0.298 OA
HETATM   18  C22 UNL     1      -0.223  52.406 -23.970  1.00  0.00     0.056 C 
HETATM   19  C23 UNL     1       0.418  53.608 -24.662  1.00  0.00     0.018 C 
HETATM   20  C24 UNL     1      -0.266  52.555 -22.428  1.00  0.00     0.012 C 
HETATM   21  C25 UNL     1       1.132  52.449 -21.806  1.00  0.00     0.042 C 
HETATM   22  C26 UNL     1       1.092  52.738 -20.306  1.00  0.00     0.148 C 
ENDROOT
BRANCH   1  23
HETATM   23  C5  UNL     1      -0.832  50.483 -14.686  1.00  0.00    -0.014 C 
HETATM   24  C6  UNL     1      -2.215  49.817 -14.678  1.00  0.00     0.010 C 
BRANCH  23  25
HETATM   25  C4  UNL     1      -0.593  51.111 -13.291  1.00  0.00     0.009 C 
BRANCH  25  26
HETATM   26  C3  UNL     1       0.414  50.383 -12.382  1.00  0.00     0.034 C 
BRANCH  26  27
HETATM   27  C2  UNL     1       1.892  50.712 -12.540  1.00  0.00    -0.075 C 
HETATM   28  C1  UNL     1       2.405  51.926 -12.263  1.00  0.00     0.015 C 
BRANCH  27  29
HETATM   29  C27 UNL     1       2.806  49.604 -13.069  1.00  0.00     0.107 C 
HETATM   30  C28 UNL     1       2.030  48.590 -13.913  1.00  0.00     0.026 C 
BRANCH  29  31
HETATM   31  C29 UNL     1       4.015  50.152 -13.829  1.00  0.00     0.147 C 
HETATM   32  O4  UNL     1       4.031  50.995 -14.712  1.00  0.00    -0.650 OA
BRANCH  31  33
HETATM   33  O5  UNL     1       5.183  49.636 -13.389  1.00  0.00    -0.776 OA
HETATM   34  H42 UNL     1       5.857  50.097 -13.931  1.00  0.00     0.167 HD
ENDBRANCH  31  33
ENDBRANCH  29  31
ENDBRANCH  27  29
ENDBRANCH  26  27
ENDBRANCH  25  26
ENDBRANCH  23  25
ENDBRANCH   1  23
BRANCH  22  35
HETATM   35  O3  UNL     1       1.064  54.147 -20.101  1.00  0.00    -0.391 OA
HETATM   36  H37 UNL     1       0.157  54.457 -20.260  1.00  0.00     0.210 HD
ENDBRANCH  22  35
TORSDOF 8
ENDMDL
MODEL 5
REMARK minimizedAffinity -7.3705759
REMARK CNNscore 0.356008142
REMARK CNNaffinity 5.56188393
REMARK  8 active torsions:
REMARK  status: ('A' for Active; 'I' for Inactive)
REMARK    1  A    between atoms: C2_2  and  C3_3 
REMARK    2  A    between atoms: C2_2  and  C27_30 
REMARK    3  A    between atoms: C3_3  and  C4_4 
REMARK    4  A    between atoms: C4_4  and  C5_5 
REMARK    5  A    between atoms: C5_5  and  C7_7 
REMARK    6  A    between atoms: C26_28  and  O3_29 
REMARK    7  A    between atoms: C27_30  and  C29_32 
REMARK    8  A    between atoms: C29_32  and  O5_34 
ROOT
HETATM    1  C7  UNL     1     -13.518  46.586 -27.629  1.00  0.00    -0.002 C 
HETATM    2  C8  UNL     1     -14.244  45.811 -28.766  1.00  0.00     0.006 C 
HETATM    3  C9  UNL     1     -15.509  45.203 -28.144  1.00  0.00     0.010 C 
HETATM    4  C10 UNL     1     -15.619  45.884 -26.780  1.00  0.00     0.027 C 
HETATM    5  C11 UNL     1     -16.536  45.339 -25.707  1.00  0.00    -0.036 C 
HETATM    6  C12 UNL     1     -16.316  45.610 -24.396  1.00  0.00     0.002 C 
HETATM    7  C13 UNL     1     -15.078  46.406 -24.021  1.00  0.00     0.157 C 
HETATM    8  O1  UNL     1     -14.834  46.674 -22.846  1.00  0.00    -0.293 OA
HETATM    9  C14 UNL     1     -14.140  46.911 -25.109  1.00  0.00     0.093 C 
HETATM   10  C15 UNL     1     -14.140  45.991 -26.329  1.00  0.00    -0.026 C 
HETATM   11  C16 UNL     1     -13.526  44.623 -25.945  1.00  0.00     0.016 C 
HETATM   12  C17 UNL     1     -17.250  45.128 -23.264  1.00  0.00    -0.008 C 
HETATM   13  C18 UNL     1     -16.527  43.939 -22.577  1.00  0.00     0.021 C 
HETATM   14  C19 UNL     1     -17.527  46.242 -22.201  1.00  0.00     0.022 C 
HETATM   15  C20 UNL     1     -18.898  46.199 -21.525  1.00  0.00     0.080 C 
HETATM   16  C21 UNL     1     -19.456  44.801 -21.460  1.00  0.00     0.131 C 
HETATM   17  O2  UNL     1     -19.880  44.325 -20.408  1.00  0.00    -0.298 OA
HETATM   18  C22 UNL     1     -19.550  44.039 -22.773  1.00  0.00     0.056 C 
HETATM   19  C23 UNL     1     -21.018  43.980 -23.192  1.00  0.00     0.018 C 
HETATM   20  C24 UNL     1     -18.646  44.700 -23.845  1.00  0.00     0.012 C 
HETATM   21  C25 UNL     1     -18.488  43.810 -25.084  1.00  0.00     0.042 C 
HETATM   22  C26 UNL     1     -17.714  44.531 -26.187  1.00  0.00     0.148 C 
ENDROOT
BRANCH   1  23
HETATM   23  C5  UNL     1     -11.987  46.713 -27.864  1.00  0.00    -0.014 C 
HETATM   24  C6  UNL     1     -11.306  47.948 -27.257  1.00  0.00     0.010 C 
BRANCH  23  25
HETATM   25  C4  UNL     1     -11.547  46.600 -29.344  1.00  0.00     0.009 C 
BRANCH  25  26
HETATM   26  C3  UNL     1     -10.076  46.220 -29.589  1.00  0.00     0.034 C 
BRANCH  26  27
HETATM   27  C2  UNL     1      -9.420  46.691 -30.879  1.00  0.00    -0.075 C 
HETATM   28  C1  UNL     1      -9.831  46.292 -32.098  1.00  0.00     0.015 C 
BRANCH  27  29
HETATM   29  C27 UNL     1      -8.221  47.635 -30.754  1.00  0.00     0.107 C 
HETATM   30  C28 UNL     1      -8.147  48.609 -31.932  1.00  0.00     0.026 C 
BRANCH  29  31
HETATM   31  C29 UNL     1      -8.193  48.376 -29.416  1.00  0.00     0.147 C 
HETATM   32  O4  UNL     1      -7.642  48.039 -28.380  1.00  0.00    -0.650 OA
BRANCH  31  33
HETATM   33  O5  UNL     1      -8.835  49.563 -29.466  1.00  0.00    -0.776 OA
HETATM   34  H42 UNL     1      -8.705  49.932 -28.567  1.00  0.00     0.167 HD
ENDBRANCH  31  33
ENDBRANCH  29  31
ENDBRANCH  27  29
ENDBRANCH  26  27
ENDBRANCH  25  26
ENDBRANCH  23  25
ENDBRANCH   1  23
BRANCH  22  35
HETATM   35  O3  UNL     1     -18.595  45.408 -26.881  1.00  0.00    -0.391 OA
HETATM   36  H37 UNL     1     -18.714  46.206 -26.340  1.00  0.00     0.210 HD
ENDBRANCH  22  35
TORSDOF 8
ENDMDL
MODEL 6
REMARK minimizedAffinity -8.20466805
REMARK CNNscore 0.33029744
REMARK CNNaffinity 6.64300966
REMARK  8 active torsions:
REMARK  status: ('A' for Active; 'I' for Inactive)
REMARK    1  A    between atoms: C2_2  and  C3_3 
REMARK    2  A    between atoms: C2_2  and  C27_30 
REMARK    3  A    between atoms: C3_3  and  C4_4 
REMARK    4  A    between atoms: C4_4  and  C5_5 
REMARK    5  A    between atoms: C5_5  and  C7_7 
REMARK    6  A    between atoms: C26_28  and  O3_29 
REMARK    7  A    between atoms: C27_30  and  C29_32 
REMARK    8  A    between atoms: C29_32  and  O5_34 
ROOT
HETATM    1  C7  UNL     1      -3.109  50.509 -23.797  1.00  0.00    -0.002 C 
HETATM    2  C8  UNL     1      -3.329  49.020 -24.186  1.00  0.00     0.006 C 
HETATM    3  C9  UNL     1      -3.252  48.210 -22.884  1.00  0.00     0.010 C 
HETATM    4  C10 UNL     1      -3.290  49.269 -21.783  1.00  0.00     0.027 C 
HETATM    5  C11 UNL     1      -2.907  48.928 -20.360  1.00  0.00    -0.036 C 
HETATM    6  C12 UNL     1      -2.484  49.889 -19.500  1.00  0.00     0.002 C 
HETATM    7  C13 UNL     1      -2.325  51.306 -20.024  1.00  0.00     0.157 C 
HETATM    8  O1  UNL     1      -1.941  52.211 -19.284  1.00  0.00    -0.293 OA
HETATM    9  C14 UNL     1      -2.672  51.625 -21.472  1.00  0.00     0.093 C 
HETATM   10  C15 UNL     1      -2.449  50.423 -22.387  1.00  0.00    -0.026 C 
HETATM   11  C16 UNL     1      -0.938  50.097 -22.454  1.00  0.00     0.016 C 
HETATM   12  C17 UNL     1      -2.135  49.609 -18.022  1.00  0.00    -0.008 C 
HETATM   13  C18 UNL     1      -0.586  49.613 -17.930  1.00  0.00     0.021 C 
HETATM   14  C19 UNL     1      -2.709  50.696 -17.055  1.00  0.00     0.022 C 
HETATM   15  C20 UNL     1      -3.097  50.213 -15.656  1.00  0.00     0.080 C 
HETATM   16  C21 UNL     1      -2.278  49.027 -15.217  1.00  0.00     0.131 C 
HETATM   17  O2  UNL     1      -1.709  49.006 -14.127  1.00  0.00    -0.298 OA
HETATM   18  C22 UNL     1      -2.261  47.823 -16.147  1.00  0.00     0.056 C 
HETATM   19  C23 UNL     1      -3.120  46.722 -15.527  1.00  0.00     0.018 C 
HETATM   20  C24 UNL     1      -2.739  48.231 -17.563  1.00  0.00     0.012 C 
HETATM   21  C25 UNL     1      -2.467  47.130 -18.595  1.00  0.00     0.042 C 
HETATM   22  C26 UNL     1      -3.069  47.485 -19.955  1.00  0.00     0.148 C 
ENDROOT
BRANCH   1  23
HETATM   23  C5  UNL     1      -2.529  51.362 -24.960  1.00  0.00    -0.014 C 
HETATM   24  C6  UNL     1      -3.492  52.361 -25.616  1.00  0.00     0.010 C 
BRANCH  23  25
HETATM   25  C4  UNL     1      -1.846  50.544 -26.083  1.00  0.00     0.009 C 
BRANCH  25  26
HETATM   26  C3  UNL     1      -0.326  50.345 -25.951  1.00  0.00     0.034 C 
BRANCH  26  27
HETATM   27  C2  UNL     1       0.571  51.569 -26.081  1.00  0.00    -0.075 C 
HETATM   28  C1  UNL     1       1.850  51.499 -26.494  1.00  0.00     0.015 C 
BRANCH  27  29
HETATM   29  C27 UNL     1      -0.027  52.923 -25.686  1.00  0.00     0.107 C 
HETATM   30  C28 UNL     1       0.657  53.499 -24.444  1.00  0.00     0.026 C 
BRANCH  29  31
HETATM   31  C29 UNL     1      -0.022  53.926 -26.841  1.00  0.00     0.147 C 
HETATM   32  O4  UNL     1      -0.248  53.716 -28.023  1.00  0.00    -0.650 OA
BRANCH  31  33
HETATM   33  O5  UNL     1       0.222  55.190 -26.430  1.00  0.00    -0.776 OA
HETATM   34  H42 UNL     1       0.158  55.716 -27.255  1.00  0.00     0.167 HD
ENDBRANCH  31  33
ENDBRANCH  29  31
ENDBRANCH  27  29
ENDBRANCH  26  27
ENDBRANCH  25  26
ENDBRANCH  23  25
ENDBRANCH   1  23
BRANCH  22  35
HETATM   35  O3  UNL     1      -4.460  47.186 -19.943  1.00  0.00    -0.391 OA
HETATM   36  H37 UNL     1      -4.919  47.900 -19.470  1.00  0.00     0.210 HD
ENDBRANCH  22  35
TORSDOF 8
ENDMDL
MODEL 7
REMARK minimizedAffinity -7.28945684
REMARK CNNscore 0.328382641
REMARK CNNaffinity 6.66440344
REMARK  8 active torsions:
REMARK  status: ('A' for Active; 'I' for Inactive)
REMARK    1  A    between atoms: C2_2  and  C3_3 
REMARK    2  A    between atoms: C2_2  and  C27_30 
REMARK    3  A    between atoms: C3_3  and  C4_4 
REMARK    4  A    between atoms: C4_4  and  C5_5 
REMARK    5  A    between atoms: C5_5  and  C7_7 
REMARK    6  A    between atoms: C26_28  and  O3_29 
REMARK    7  A    between atoms: C27_30  and  C29_32 
REMARK    8  A    between atoms: C29_32  and  O5_34 
ROOT
HETATM    1  C7  UNL     1       0.984  49.906 -13.614  1.00  0.00    -0.002 C 
HETATM    2  C8  UNL     1       2.370  50.418 -14.101  1.00  0.00     0.006 C 
HETATM    3  C9  UNL     1       2.725  51.625 -13.221  1.00  0.00     0.010 C 
HETATM    4  C10 UNL     1       1.696  51.580 -12.091  1.00  0.00     0.027 C 
HETATM    5  C11 UNL     1       1.479  52.772 -11.186  1.00  0.00    -0.036 C 
HETATM    6  C12 UNL     1       0.309  52.940 -10.520  1.00  0.00     0.002 C 
HETATM    7  C13 UNL     1      -0.812  51.946 -10.769  1.00  0.00     0.157 C 
HETATM    8  O1  UNL     1      -1.892  52.058 -10.191  1.00  0.00    -0.293 OA
HETATM    9  C14 UNL     1      -0.594  50.775 -11.717  1.00  0.00     0.093 C 
HETATM   10  C15 UNL     1       0.408  51.117 -12.819  1.00  0.00    -0.026 C 
HETATM   11  C16 UNL     1      -0.189  52.207 -13.740  1.00  0.00     0.016 C 
HETATM   12  C17 UNL     1       0.053  54.105  -9.539  1.00  0.00    -0.008 C 
HETATM   13  C18 UNL     1      -0.858  55.114 -10.287  1.00  0.00     0.021 C 
HETATM   14  C19 UNL     1      -0.665  53.640  -8.230  1.00  0.00     0.022 C 
HETATM   15  C20 UNL     1      -0.321  54.421  -6.961  1.00  0.00     0.080 C 
HETATM   16  C21 UNL     1       0.070  55.845  -7.259  1.00  0.00     0.131 C 
HETATM   17  O2  UNL     1      -0.447  56.792  -6.667  1.00  0.00    -0.298 OA
HETATM   18  C22 UNL     1       1.193  56.052  -8.264  1.00  0.00     0.056 C 
HETATM   19  C23 UNL     1       2.447  56.482  -7.503  1.00  0.00     0.018 C 
HETATM   20  C24 UNL     1       1.410  54.766  -9.100  1.00  0.00     0.012 C 
HETATM   21  C25 UNL     1       2.325  55.019 -10.305  1.00  0.00     0.042 C 
HETATM   22  C26 UNL     1       2.644  53.717 -11.039  1.00  0.00     0.148 C 
ENDROOT
BRANCH   1  23
HETATM   23  C5  UNL     1       0.191  49.156 -14.721  1.00  0.00    -0.014 C 
HETATM   24  C6  UNL     1       0.085  47.633 -14.568  1.00  0.00     0.010 C 
BRANCH  23  25
HETATM   25  C4  UNL     1       0.651  49.464 -16.167  1.00  0.00     0.009 C 
BRANCH  25  26
HETATM   26  C3  UNL     1      -0.299  50.329 -17.013  1.00  0.00     0.034 C 
BRANCH  26  27
HETATM   27  C2  UNL     1       0.258  51.598 -17.644  1.00  0.00    -0.075 C 
HETATM   28  C1  UNL     1       1.315  52.264 -17.140  1.00  0.00     0.015 C 
BRANCH  27  29
HETATM   29  C27 UNL     1      -0.455  52.136 -18.889  1.00  0.00     0.107 C 
HETATM   30  C28 UNL     1       0.309  53.305 -19.513  1.00  0.00     0.026 C 
BRANCH  29  31
HETATM   31  C29 UNL     1      -0.741  51.042 -19.920  1.00  0.00     0.147 C 
HETATM   32  O4  UNL     1       0.055  50.459 -20.640  1.00  0.00    -0.650 OA
BRANCH  31  33
HETATM   33  O5  UNL     1      -2.044  50.691 -19.956  1.00  0.00    -0.776 OA
HETATM   34  H42 UNL     1      -2.069  49.970 -20.621  1.00  0.00     0.167 HD
ENDBRANCH  31  33
ENDBRANCH  29  31
ENDBRANCH  27  29
ENDBRANCH  26  27
ENDBRANCH  25  26
ENDBRANCH  23  25
ENDBRANCH   1  23
BRANCH  22  35
HETATM   35  O3  UNL     1       3.681  53.030 -10.345  1.00  0.00    -0.391 OA
HETATM   36  H37 UNL     1       3.287  52.587  -9.575  1.00  0.00     0.210 HD
ENDBRANCH  22  35
TORSDOF 8
ENDMDL
MODEL 8
REMARK minimizedAffinity -7.9911809
REMARK CNNscore 0.301248789
REMARK CNNaffinity 6.21565628
REMARK  8 active torsions:
REMARK  status: ('A' for Active; 'I' for Inactive)
REMARK    1  A    between atoms: C2_2  and  C3_3 
REMARK    2  A    between atoms: C2_2  and  C27_30 
REMARK    3  A    between atoms: C3_3  and  C4_4 
REMARK    4  A    between atoms: C4_4  and  C5_5 
REMARK    5  A    between atoms: C5_5  and  C7_7 
REMARK    6  A    between atoms: C26_28  and  O3_29 
REMARK    7  A    between atoms: C27_30  and  C29_32 
REMARK    8  A    between atoms: C29_32  and  O5_34 
ROOT
HETATM    1  C7  UNL     1       0.598  51.600 -14.963  1.00  0.00    -0.002 C 
HETATM    2  C8  UNL     1       1.942  52.168 -15.502  1.00  0.00     0.006 C 
HETATM    3  C9  UNL     1       1.792  52.277 -17.026  1.00  0.00     0.010 C 
HETATM    4  C10 UNL     1       0.300  52.057 -17.271  1.00  0.00     0.027 C 
HETATM    5  C11 UNL     1      -0.227  51.756 -18.657  1.00  0.00    -0.036 C 
HETATM    6  C12 UNL     1      -1.409  51.114 -18.831  1.00  0.00     0.002 C 
HETATM    7  C13 UNL     1      -2.155  50.628 -17.601  1.00  0.00     0.157 C 
HETATM    8  O1  UNL     1      -3.229  50.038 -17.707  1.00  0.00    -0.293 OA
HETATM    9  C14 UNL     1      -1.590  50.899 -16.213  1.00  0.00     0.093 C 
HETATM   10  C15 UNL     1      -0.064  50.971 -16.226  1.00  0.00    -0.026 C 
HETATM   11  C16 UNL     1       0.517  49.580 -16.574  1.00  0.00     0.016 C 
HETATM   12  C17 UNL     1      -2.023  50.832 -20.221  1.00  0.00    -0.008 C 
HETATM   13  C18 UNL     1      -1.786  49.325 -20.505  1.00  0.00     0.021 C 
HETATM   14  C19 UNL     1      -3.558  51.127 -20.268  1.00  0.00     0.022 C 
HETATM   15  C20 UNL     1      -4.107  51.610 -21.612  1.00  0.00     0.080 C 
HETATM   16  C21 UNL     1      -3.302  51.091 -22.775  1.00  0.00     0.131 C 
HETATM   17  O2  UNL     1      -3.838  50.536 -23.733  1.00  0.00    -0.298 OA
HETATM   18  C22 UNL     1      -1.805  51.364 -22.748  1.00  0.00     0.056 C 
HETATM   19  C23 UNL     1      -1.496  52.454 -23.772  1.00  0.00     0.018 C 
HETATM   20  C24 UNL     1      -1.353  51.741 -21.315  1.00  0.00     0.012 C 
HETATM   21  C25 UNL     1       0.175  51.742 -21.183  1.00  0.00     0.042 C 
HETATM   22  C26 UNL     1       0.610  52.251 -19.809  1.00  0.00     0.148 C 
ENDROOT
BRANCH   1  23
HETATM   23  C5  UNL     1       0.756  50.844 -13.614  1.00  0.00    -0.014 C 
HETATM   24  C6  UNL     1       1.718  49.647 -13.615  1.00  0.00     0.010 C 
BRANCH  23  25
HETATM   25  C4  UNL     1      -0.575  50.391 -12.966  1.00  0.00     0.009 C 
BRANCH  25  26
HETATM   26  C3  UNL     1      -1.032  51.184 -11.729  1.00  0.00     0.034 C 
BRANCH  26  27
HETATM   27  C2  UNL     1      -2.187  52.163 -11.892  1.00  0.00    -0.075 C 
HETATM   28  C1  UNL     1      -2.940  52.229 -13.007  1.00  0.00     0.015 C 
BRANCH  27  29
HETATM   29  C27 UNL     1      -2.463  53.124 -10.732  1.00  0.00     0.107 C 
HETATM   30  C28 UNL     1      -3.833  53.792 -10.868  1.00  0.00     0.026 C 
BRANCH  29  31
HETATM   31  C29 UNL     1      -2.302  52.457  -9.365  1.00  0.00     0.147 C 
HETATM   32  O4  UNL     1      -2.868  51.460  -8.941  1.00  0.00    -0.650 OA
BRANCH  31  33
HETATM   33  O5  UNL     1      -1.372  53.064  -8.597  1.00  0.00    -0.776 OA
HETATM   34  H42 UNL     1      -1.352  52.516  -7.784  1.00  0.00     0.167 HD
ENDBRANCH  31  33
ENDBRANCH  29  31
ENDBRANCH  27  29
ENDBRANCH  26  27
ENDBRANCH  25  26
ENDBRANCH  23  25
ENDBRANCH   1  23
BRANCH  22  35
HETATM   35  O3  UNL     1       0.569  53.674 -19.802  1.00  0.00    -0.391 OA
HETATM   36  H37 UNL     1      -0.357  53.949 -19.693  1.00  0.00     0.210 HD
ENDBRANCH  22  35
TORSDOF 8
ENDMDL
MODEL 9
REMARK minimizedAffinity -9.64326286
REMARK CNNscore 0.285259962
REMARK CNNaffinity 6.52066946
REMARK  8 active torsions:
REMARK  status: ('A' for Active; 'I' for Inactive)
REMARK    1  A    between atoms: C2_2  and  C3_3 
REMARK    2  A    between atoms: C2_2  and  C27_30 
REMARK    3  A    between atoms: C3_3  and  C4_4 
REMARK    4  A    between atoms: C4_4  and  C5_5 
REMARK    5  A    between atoms: C5_5  and  C7_7 
REMARK    6  A    between atoms: C26_28  and  O3_29 
REMARK    7  A    between atoms: C27_30  and  C29_32 
REMARK    8  A    between atoms: C29_32  and  O5_34 
ROOT
HETATM    1  C7  UNL     1      -0.869  51.153 -21.880  1.00  0.00    -0.002 C 
HETATM    2  C8  UNL     1      -1.094  51.713 -20.447  1.00  0.00     0.006 C 
HETATM    3  C9  UNL     1      -2.499  51.267 -20.017  1.00  0.00     0.010 C 
HETATM    4  C10 UNL     1      -2.903  50.238 -21.073  1.00  0.00     0.027 C 
HETATM    5  C11 UNL     1      -4.341  49.791 -21.216  1.00  0.00    -0.036 C 
HETATM    6  C12 UNL     1      -4.800  49.276 -22.384  1.00  0.00     0.002 C 
HETATM    7  C13 UNL     1      -3.858  49.235 -23.575  1.00  0.00     0.157 C 
HETATM    8  O1  UNL     1      -4.229  48.781 -24.656  1.00  0.00    -0.293 OA
HETATM    9  C14 UNL     1      -2.425  49.731 -23.428  1.00  0.00     0.093 C 
HETATM   10  C15 UNL     1      -2.312  50.833 -22.377  1.00  0.00    -0.026 C 
HETATM   11  C16 UNL     1      -3.068  52.092 -22.863  1.00  0.00     0.016 C 
HETATM   12  C17 UNL     1      -6.241  48.751 -22.570  1.00  0.00    -0.008 C 
HETATM   13  C18 UNL     1      -7.000  49.835 -23.380  1.00  0.00     0.021 C 
HETATM   14  C19 UNL     1      -6.289  47.398 -23.353  1.00  0.00     0.022 C 
HETATM   15  C20 UNL     1      -7.425  46.445 -22.978  1.00  0.00     0.080 C 
HETATM   16  C21 UNL     1      -8.637  47.179 -22.468  1.00  0.00     0.131 C 
HETATM   17  O2  UNL     1      -9.760  46.960 -22.921  1.00  0.00    -0.298 OA
HETATM   18  C22 UNL     1      -8.421  48.139 -21.308  1.00  0.00     0.056 C 
HETATM   19  C23 UNL     1      -8.995  47.504 -20.043  1.00  0.00     0.018 C 
HETATM   20  C24 UNL     1      -6.918  48.490 -21.175  1.00  0.00     0.012 C 
HETATM   21  C25 UNL     1      -6.691  49.665 -20.215  1.00  0.00     0.042 C 
HETATM   22  C26 UNL     1      -5.200  49.908 -19.983  1.00  0.00     0.148 C 
ENDROOT
BRANCH   1  23
HETATM   23  C5  UNL     1       0.153  51.986 -22.704  1.00  0.00    -0.014 C 
HETATM   24  C6  UNL     1       0.852  53.133 -21.960  1.00  0.00     0.010 C 
BRANCH  23  25
HETATM   25  C4  UNL     1      -0.393  52.542 -24.041  1.00  0.00     0.009 C 
BRANCH  25  26
HETATM   26  C3  UNL     1       0.656  53.052 -25.045  1.00  0.00     0.034 C 
BRANCH  26  27
HETATM   27  C2  UNL     1       0.968  52.186 -26.257  1.00  0.00    -0.075 C 
HETATM   28  C1  UNL     1       2.096  51.458 -26.368  1.00  0.00     0.015 C 
BRANCH  27  29
HETATM   29  C27 UNL     1      -0.050  52.185 -27.402  1.00  0.00     0.107 C 
HETATM   30  C28 UNL     1      -1.103  51.090 -27.217  1.00  0.00     0.026 C 
BRANCH  29  31
HETATM   31  C29 UNL     1      -0.700  53.554 -27.610  1.00  0.00     0.147 C 
HETATM   32  O4  UNL     1      -0.178  54.655 -27.537  1.00  0.00    -0.650 OA
BRANCH  31  33
HETATM   33  O5  UNL     1      -2.000  53.463 -27.964  1.00  0.00    -0.776 OA
HETATM   34  H42 UNL     1      -2.268  54.397 -28.097  1.00  0.00     0.167 HD
ENDBRANCH  31  33
ENDBRANCH  29  31
ENDBRANCH  27  29
ENDBRANCH  26  27
ENDBRANCH  25  26
ENDBRANCH  23  25
ENDBRANCH   1  23
BRANCH  22  35
HETATM   35  O3  UNL     1      -4.717  48.977 -19.021  1.00  0.00    -0.391 OA
HETATM   36  H37 UNL     1      -4.584  48.124 -19.467  1.00  0.00     0.210 HD
ENDBRANCH  22  35
TORSDOF 8
ENDMDL
