MODEL 1
REMARK minimizedAffinity -9.72663021
REMARK  9 active torsions:
REMARK  status: ('A' for Active; 'I' for Inactive)
REMARK    1  A    between atoms: C2_2  and  C3_3 
REMARK    2  A    between atoms: C2_2  and  C9_12 
REMARK    3  A    between atoms: C3_3  and  C4_4 
REMARK    4  A    between atoms: C4_4  and  C5_5 
REMARK    5  A    between atoms: C5_5  and  O1_6 
REMARK    6  A    between atoms: C5_5  and  C6_7 
REMARK    7  A    between atoms: C6_7  and  O2_9 
REMARK    8  A    between atoms: C6_7  and  C8_10 
REMARK    9  A    between atoms: C8_10  and  O3_11 
ROOT
HETATM    1  C9  UNL     1      -0.109  50.936 -21.326  1.00  0.00    -0.002 C 
HETATM    2  C10 UNL     1       0.016  51.000 -19.779  1.00  0.00     0.007 C 
HETATM    3  C11 UNL     1      -1.227  50.302 -19.196  1.00  0.00     0.015 C 
HETATM    4  C12 UNL     1      -1.813  49.486 -20.364  1.00  0.00    -0.005 C 
HETATM    5  C13 UNL     1      -0.983  48.165 -20.459  1.00  0.00     0.021 C 
HETATM    6  C14 UNL     1      -3.264  49.019 -20.340  1.00  0.00    -0.000 C 
HETATM    7  C15 UNL     1      -3.971  48.854 -21.491  1.00  0.00    -0.060 C 
HETATM    8  C16 UNL     1      -3.329  49.182 -22.852  1.00  0.00     0.036 C 
HETATM    9  C17 UNL     1      -1.895  49.756 -22.852  1.00  0.00     0.015 C 
HETATM   10  C18 UNL     1      -1.591  50.507 -21.551  1.00  0.00    -0.028 C 
HETATM   11  C19 UNL     1      -2.527  51.748 -21.466  1.00  0.00     0.016 C 
HETATM   12  C20 UNL     1      -5.436  48.338 -21.528  1.00  0.00    -0.014 C 
HETATM   13  C21 UNL     1      -5.380  46.865 -21.995  1.00  0.00     0.020 C 
HETATM   14  C22 UNL     1      -6.281  49.169 -22.537  1.00  0.00     0.021 C 
HETATM   15  C23 UNL     1      -7.793  49.161 -22.328  1.00  0.00     0.080 C 
HETATM   16  C24 UNL     1      -8.259  48.067 -21.404  1.00  0.00     0.135 C 
HETATM   17  O4  UNL     1      -9.195  47.336 -21.730  1.00  0.00    -0.297 OA
HETATM   18  C25 UNL     1      -7.584  47.979 -20.031  1.00  0.00     0.018 C 
HETATM   19  C26 UNL     1      -7.705  46.534 -19.503  1.00  0.00     0.023 C 
HETATM   20  C27 UNL     1      -8.394  48.887 -19.083  1.00  0.00     0.023 C 
HETATM   21  C28 UNL     1      -6.107  48.501 -20.124  1.00  0.00     0.020 C 
HETATM   22  C29 UNL     1      -5.209  47.952 -19.016  1.00  0.00     0.090 C 
HETATM   23  C30 UNL     1      -3.858  48.618 -19.025  1.00  0.00     0.157 C 
HETATM   24  O5  UNL     1      -3.239  48.760 -17.972  1.00  0.00    -0.293 OA
ENDROOT
BRANCH   1  25
HETATM   25  C2  UNL     1       0.556  52.147 -22.052  1.00  0.00    -0.014 C 
HETATM   26  C1  UNL     1       0.776  53.416 -21.217  1.00  0.00     0.010 C 
BRANCH  25  27
HETATM   27  C3  UNL     1      -0.170  52.478 -23.375  1.00  0.00     0.007 C 
BRANCH  27  28
HETATM   28  C4  UNL     1       0.688  53.076 -24.502  1.00  0.00     0.035 C 
BRANCH  28  29
HETATM   29  C5  UNL     1       0.258  52.844 -25.964  1.00  0.00     0.154 C 
BRANCH  29  30
HETATM   30  O1  UNL     1       0.449  54.045 -26.724  1.00  0.00    -0.392 OA
HETATM   31  H10 UNL     1       1.411  54.086 -26.901  1.00  0.00     0.210 HD
ENDBRANCH  29  30
BRANCH  29  32
HETATM   32  C6  UNL     1       0.905  51.655 -26.733  1.00  0.00     0.101 C 
HETATM   33  C7  UNL     1       0.857  51.837 -28.249  1.00  0.00     0.051 C 
BRANCH  32  34
HETATM   34  O2  UNL     1       0.187  50.451 -26.392  1.00  0.00    -0.385 OA
HETATM   35  H14 UNL     1       0.776  49.936 -25.802  1.00  0.00     0.210 HD
ENDBRANCH  32  34
BRANCH  32  36
HETATM   36  C8  UNL     1       2.376  51.464 -26.284  1.00  0.00     0.204 C 
BRANCH  36  37
HETATM   37  O3  UNL     1       3.250  51.505 -27.414  1.00  0.00    -0.398 OA
HETATM   38  H17 UNL     1       2.936  50.820 -28.041  1.00  0.00     0.209 HD
ENDBRANCH  36  37
ENDBRANCH  32  36
ENDBRANCH  29  32
ENDBRANCH  28  29
ENDBRANCH  27  28
ENDBRANCH  25  27
ENDBRANCH   1  25
TORSDOF 9
ENDMDL
MODEL 2
REMARK minimizedAffinity -9.44238091
REMARK  9 active torsions:
REMARK  status: ('A' for Active; 'I' for Inactive)
REMARK    1  A    between atoms: C2_2  and  C3_3 
REMARK    2  A    between atoms: C2_2  and  C9_12 
REMARK    3  A    between atoms: C3_3  and  C4_4 
REMARK    4  A    between atoms: C4_4  and  C5_5 
REMARK    5  A    between atoms: C5_5  and  O1_6 
REMARK    6  A    between atoms: C5_5  and  C6_7 
REMARK    7  A    between atoms: C6_7  and  O2_9 
REMARK    8  A    between atoms: C6_7  and  C8_10 
REMARK    9  A    between atoms: C8_10  and  O3_11 
ROOT
HETATM    1  C9  UNL     1      -0.059  51.089 -21.584  1.00  0.00    -0.002 C 
HETATM    2  C10 UNL     1       0.089  51.244 -20.046  1.00  0.00     0.007 C 
HETATM    3  C11 UNL     1      -1.133  50.562 -19.402  1.00  0.00     0.015 C 
HETATM    4  C12 UNL     1      -1.723  49.670 -20.512  1.00  0.00    -0.005 C 
HETATM    5  C13 UNL     1      -0.874  48.359 -20.544  1.00  0.00     0.021 C 
HETATM    6  C14 UNL     1      -3.166  49.183 -20.436  1.00  0.00    -0.000 C 
HETATM    7  C15 UNL     1      -3.888  48.941 -21.564  1.00  0.00    -0.060 C 
HETATM    8  C16 UNL     1      -3.274  49.200 -22.952  1.00  0.00     0.036 C 
HETATM    9  C17 UNL     1      -1.850  49.795 -23.010  1.00  0.00     0.015 C 
HETATM   10  C18 UNL     1      -1.537  50.625 -21.758  1.00  0.00    -0.028 C 
HETATM   11  C19 UNL     1      -2.493  51.854 -21.730  1.00  0.00     0.016 C 
HETATM   12  C20 UNL     1      -5.345  48.401 -21.546  1.00  0.00    -0.014 C 
HETATM   13  C21 UNL     1      -5.272  46.904 -21.929  1.00  0.00     0.020 C 
HETATM   14  C22 UNL     1      -6.220  49.159 -22.588  1.00  0.00     0.021 C 
HETATM   15  C23 UNL     1      -7.728  49.139 -22.353  1.00  0.00     0.080 C 
HETATM   16  C24 UNL     1      -8.161  48.094 -21.360  1.00  0.00     0.135 C 
HETATM   17  O4  UNL     1      -9.089  47.331 -21.627  1.00  0.00    -0.297 OA
HETATM   18  C25 UNL     1      -7.463  48.096 -19.995  1.00  0.00     0.018 C 
HETATM   19  C26 UNL     1      -7.551  46.682 -19.383  1.00  0.00     0.023 C 
HETATM   20  C27 UNL     1      -8.272  49.044 -19.088  1.00  0.00     0.023 C 
HETATM   21  C28 UNL     1      -5.996  48.634 -20.144  1.00  0.00     0.020 C 
HETATM   22  C29 UNL     1      -5.072  48.165 -19.020  1.00  0.00     0.090 C 
HETATM   23  C30 UNL     1      -3.732  48.850 -19.091  1.00  0.00     0.157 C 
HETATM   24  O5  UNL     1      -3.099  49.062 -18.058  1.00  0.00    -0.293 OA
ENDROOT
BRANCH   1  25
HETATM   25  C2  UNL     1       0.574  52.266 -22.389  1.00  0.00    -0.014 C 
HETATM   26  C1  UNL     1       0.886  53.549 -21.607  1.00  0.00     0.010 C 
BRANCH  25  27
HETATM   27  C3  UNL     1      -0.245  52.583 -23.661  1.00  0.00     0.007 C 
BRANCH  27  28
HETATM   28  C4  UNL     1       0.553  52.826 -24.953  1.00  0.00     0.035 C 
BRANCH  28  29
HETATM   29  C5  UNL     1      -0.196  53.322 -26.204  1.00  0.00     0.154 C 
BRANCH  29  30
HETATM   30  O1  UNL     1       0.192  54.670 -26.503  1.00  0.00    -0.392 OA
HETATM   31  H10 UNL     1       1.071  54.595 -26.927  1.00  0.00     0.210 HD
ENDBRANCH  29  30
BRANCH  29  32
HETATM   32  C6  UNL     1      -0.089  52.470 -27.502  1.00  0.00     0.101 C 
HETATM   33  C7  UNL     1       1.256  51.756 -27.630  1.00  0.00     0.051 C 
BRANCH  32  34
HETATM   34  O2  UNL     1      -0.251  53.347 -28.635  1.00  0.00    -0.385 OA
HETATM   35  H14 UNL     1      -1.141  53.162 -29.003  1.00  0.00     0.210 HD
ENDBRANCH  32  34
BRANCH  32  36
HETATM   36  C8  UNL     1      -1.232  51.425 -27.554  1.00  0.00     0.204 C 
BRANCH  36  37
HETATM   37  O3  UNL     1      -2.462  52.052 -27.927  1.00  0.00    -0.398 OA
HETATM   38  H17 UNL     1      -2.618  52.776 -27.285  1.00  0.00     0.209 HD
ENDBRANCH  36  37
ENDBRANCH  32  36
ENDBRANCH  29  32
ENDBRANCH  28  29
ENDBRANCH  27  28
ENDBRANCH  25  27
ENDBRANCH   1  25
TORSDOF 9
ENDMDL
MODEL 3
REMARK minimizedAffinity -9.265172
REMARK  9 active torsions:
REMARK  status: ('A' for Active; 'I' for Inactive)
REMARK    1  A    between atoms: C2_2  and  C3_3 
REMARK    2  A    between atoms: C2_2  and  C9_12 
REMARK    3  A    between atoms: C3_3  and  C4_4 
REMARK    4  A    between atoms: C4_4  and  C5_5 
REMARK    5  A    between atoms: C5_5  and  O1_6 
REMARK    6  A    between atoms: C5_5  and  C6_7 
REMARK    7  A    between atoms: C6_7  and  O2_9 
REMARK    8  A    between atoms: C6_7  and  C8_10 
REMARK    9  A    between atoms: C8_10  and  O3_11 
ROOT
HETATM    1  C9  UNL     1      -6.571  47.755 -22.291  1.00  0.00    -0.002 C 
HETATM    2  C10 UNL     1      -5.517  46.793 -21.678  1.00  0.00     0.007 C 
HETATM    3  C11 UNL     1      -4.134  47.430 -21.909  1.00  0.00     0.015 C 
HETATM    4  C12 UNL     1      -4.425  48.906 -22.246  1.00  0.00    -0.005 C 
HETATM    5  C13 UNL     1      -4.659  49.646 -20.890  1.00  0.00     0.021 C 
HETATM    6  C14 UNL     1      -3.389  49.761 -22.969  1.00  0.00    -0.000 C 
HETATM    7  C15 UNL     1      -3.765  50.784 -23.783  1.00  0.00    -0.060 C 
HETATM    8  C16 UNL     1      -5.257  51.075 -24.030  1.00  0.00     0.036 C 
HETATM    9  C17 UNL     1      -6.292  50.133 -23.377  1.00  0.00     0.015 C 
HETATM   10  C18 UNL     1      -5.711  48.732 -23.149  1.00  0.00    -0.028 C 
HETATM   11  C19 UNL     1      -5.398  48.096 -24.535  1.00  0.00     0.016 C 
HETATM   12  C20 UNL     1      -2.753  51.715 -24.507  1.00  0.00    -0.014 C 
HETATM   13  C21 UNL     1      -2.746  53.056 -23.736  1.00  0.00     0.020 C 
HETATM   14  C22 UNL     1      -3.200  51.966 -25.977  1.00  0.00     0.021 C 
HETATM   15  C23 UNL     1      -2.111  52.397 -26.956  1.00  0.00     0.080 C 
HETATM   16  C24 UNL     1      -0.851  52.860 -26.275  1.00  0.00     0.135 C 
HETATM   17  O4  UNL     1      -0.323  53.923 -26.602  1.00  0.00    -0.297 OA
HETATM   18  C25 UNL     1      -0.224  51.911 -25.247  1.00  0.00     0.018 C 
HETATM   19  C26 UNL     1       0.623  52.735 -24.253  1.00  0.00     0.023 C 
HETATM   20  C27 UNL     1       0.740  50.992 -26.025  1.00  0.00     0.023 C 
HETATM   21  C28 UNL     1      -1.341  51.045 -24.565  1.00  0.00     0.020 C 
HETATM   22  C29 UNL     1      -0.927  50.509 -23.195  1.00  0.00     0.090 C 
HETATM   23  C30 UNL     1      -1.942  49.533 -22.660  1.00  0.00     0.157 C 
HETATM   24  O5  UNL     1      -1.580  48.613 -21.928  1.00  0.00    -0.293 OA
ENDROOT
BRANCH   1  25
HETATM   25  C2  UNL     1      -7.838  47.022 -22.831  1.00  0.00    -0.014 C 
HETATM   26  C1  UNL     1      -7.602  45.729 -23.623  1.00  0.00     0.010 C 
BRANCH  25  27
HETATM   27  C3  UNL     1      -8.755  47.988 -23.615  1.00  0.00     0.007 C 
BRANCH  27  28
HETATM   28  C4  UNL     1      -8.691  47.907 -25.149  1.00  0.00     0.035 C 
BRANCH  28  29
HETATM   29  C5  UNL     1      -9.838  48.525 -25.972  1.00  0.00     0.154 C 
BRANCH  29  30
HETATM   30  O1  UNL     1      -9.644  49.941 -26.093  1.00  0.00    -0.392 OA
HETATM   31  H10 UNL     1      -8.952  50.047 -26.777  1.00  0.00     0.210 HD
ENDBRANCH  29  30
BRANCH  29  32
HETATM   32  C6  UNL     1     -10.120  47.936 -27.385  1.00  0.00     0.101 C 
HETATM   33  C7  UNL     1      -9.482  46.563 -27.590  1.00  0.00     0.051 C 
BRANCH  32  34
HETATM   34  O2  UNL     1      -9.584  48.843 -28.369  1.00  0.00    -0.385 OA
HETATM   35  H14 UNL     1     -10.353  49.288 -28.783  1.00  0.00     0.210 HD
ENDBRANCH  32  34
BRANCH  32  36
HETATM   36  C8  UNL     1     -11.648  47.834 -27.628  1.00  0.00     0.204 C 
BRANCH  36  37
HETATM   37  O3  UNL     1     -12.314  48.980 -27.092  1.00  0.00    -0.398 OA
HETATM   38  H17 UNL     1     -12.068  49.034 -26.144  1.00  0.00     0.209 HD
ENDBRANCH  36  37
ENDBRANCH  32  36
ENDBRANCH  29  32
ENDBRANCH  28  29
ENDBRANCH  27  28
ENDBRANCH  25  27
ENDBRANCH   1  25
TORSDOF 9
ENDMDL
MODEL 4
REMARK minimizedAffinity -9.09253693
REMARK  9 active torsions:
REMARK  status: ('A' for Active; 'I' for Inactive)
REMARK    1  A    between atoms: C2_2  and  C3_3 
REMARK    2  A    between atoms: C2_2  and  C9_12 
REMARK    3  A    between atoms: C3_3  and  C4_4 
REMARK    4  A    between atoms: C4_4  and  C5_5 
REMARK    5  A    between atoms: C5_5  and  O1_6 
REMARK    6  A    between atoms: C5_5  and  C6_7 
REMARK    7  A    between atoms: C6_7  and  O2_9 
REMARK    8  A    between atoms: C6_7  and  C8_10 
REMARK    9  A    between atoms: C8_10  and  O3_11 
ROOT
HETATM    1  C9  UNL     1      -1.577  49.760 -18.223  1.00  0.00    -0.002 C 
HETATM    2  C10 UNL     1      -0.155  50.285 -17.884  1.00  0.00     0.007 C 
HETATM    3  C11 UNL     1       0.386  50.977 -19.148  1.00  0.00     0.015 C 
HETATM    4  C12 UNL     1      -0.853  51.224 -20.031  1.00  0.00    -0.005 C 
HETATM    5  C13 UNL     1      -1.547  52.516 -19.490  1.00  0.00     0.021 C 
HETATM    6  C14 UNL     1      -0.708  51.472 -21.528  1.00  0.00    -0.000 C 
HETATM    7  C15 UNL     1      -1.688  51.109 -22.400  1.00  0.00    -0.060 C 
HETATM    8  C16 UNL     1      -2.954  50.394 -21.895  1.00  0.00     0.036 C 
HETATM    9  C17 UNL     1      -3.037  50.053 -20.391  1.00  0.00     0.015 C 
HETATM   10  C18 UNL     1      -1.643  49.878 -19.777  1.00  0.00    -0.028 C 
HETATM   11  C19 UNL     1      -0.964  48.643 -20.438  1.00  0.00     0.016 C 
HETATM   12  C20 UNL     1      -1.614  51.379 -23.929  1.00  0.00    -0.014 C 
HETATM   13  C21 UNL     1      -2.553  52.572 -24.220  1.00  0.00     0.020 C 
HETATM   14  C22 UNL     1      -2.099  50.132 -24.726  1.00  0.00     0.021 C 
HETATM   15  C23 UNL     1      -1.617  50.017 -26.169  1.00  0.00     0.080 C 
HETATM   16  C24 UNL     1      -1.047  51.301 -26.709  1.00  0.00     0.135 C 
HETATM   17  O4  UNL     1      -1.413  51.732 -27.803  1.00  0.00    -0.297 OA
HETATM   18  C25 UNL     1       0.059  51.974 -25.887  1.00  0.00     0.018 C 
HETATM   19  C26 UNL     1       0.079  53.483 -26.211  1.00  0.00     0.023 C 
HETATM   20  C27 UNL     1       1.395  51.378 -26.374  1.00  0.00     0.023 C 
HETATM   21  C28 UNL     1      -0.136  51.654 -24.363  1.00  0.00     0.020 C 
HETATM   22  C29 UNL     1       0.525  52.683 -23.447  1.00  0.00     0.090 C 
HETATM   23  C30 UNL     1       0.482  52.244 -22.007  1.00  0.00     0.157 C 
HETATM   24  O5  UNL     1       1.380  52.580 -21.238  1.00  0.00    -0.293 OA
ENDROOT
BRANCH   1  25
HETATM   25  C2  UNL     1      -1.964  48.467 -17.442  1.00  0.00    -0.014 C 
HETATM   26  C1  UNL     1      -3.416  47.986 -17.578  1.00  0.00     0.010 C 
BRANCH  25  27
HETATM   27  C3  UNL     1      -1.554  48.564 -15.955  1.00  0.00     0.007 C 
BRANCH  27  28
HETATM   28  C4  UNL     1      -2.496  49.352 -15.029  1.00  0.00     0.035 C 
BRANCH  28  29
HETATM   29  C5  UNL     1      -2.313  50.877 -14.911  1.00  0.00     0.154 C 
BRANCH  29  30
HETATM   30  O1  UNL     1      -3.593  51.524 -14.923  1.00  0.00    -0.392 OA
HETATM   31  H10 UNL     1      -3.957  51.389 -14.025  1.00  0.00     0.210 HD
ENDBRANCH  29  30
BRANCH  29  32
HETATM   32  C6  UNL     1      -1.489  51.420 -13.707  1.00  0.00     0.101 C 
HETATM   33  C7  UNL     1      -1.383  50.414 -12.562  1.00  0.00     0.051 C 
BRANCH  32  34
HETATM   34  O2  UNL     1      -2.138  52.610 -13.213  1.00  0.00    -0.385 OA
HETATM   35  H14 UNL     1      -1.578  53.365 -13.490  1.00  0.00     0.210 HD
ENDBRANCH  32  34
BRANCH  32  36
HETATM   36  C8  UNL     1      -0.066  51.824 -14.170  1.00  0.00     0.204 C 
BRANCH  36  37
HETATM   37  O3  UNL     1       0.373  52.989 -13.469  1.00  0.00    -0.398 OA
HETATM   38  H17 UNL     1      -0.303  53.683 -13.620  1.00  0.00     0.209 HD
ENDBRANCH  36  37
ENDBRANCH  32  36
ENDBRANCH  29  32
ENDBRANCH  28  29
ENDBRANCH  27  28
ENDBRANCH  25  27
ENDBRANCH   1  25
TORSDOF 9
ENDMDL
MODEL 5
REMARK minimizedAffinity -9.03307343
REMARK  9 active torsions:
REMARK  status: ('A' for Active; 'I' for Inactive)
REMARK    1  A    between atoms: C2_2  and  C3_3 
REMARK    2  A    between atoms: C2_2  and  C9_12 
REMARK    3  A    between atoms: C3_3  and  C4_4 
REMARK    4  A    between atoms: C4_4  and  C5_5 
REMARK    5  A    between atoms: C5_5  and  O1_6 
REMARK    6  A    between atoms: C5_5  and  C6_7 
REMARK    7  A    between atoms: C6_7  and  O2_9 
REMARK    8  A    between atoms: C6_7  and  C8_10 
REMARK    9  A    between atoms: C8_10  and  O3_11 
ROOT
HETATM    1  C9  UNL     1      -3.520  49.371 -22.859  1.00  0.00    -0.002 C 
HETATM    2  C10 UNL     1      -3.733  47.839 -22.720  1.00  0.00     0.007 C 
HETATM    3  C11 UNL     1      -3.364  47.460 -21.273  1.00  0.00     0.015 C 
HETATM    4  C12 UNL     1      -3.367  48.792 -20.498  1.00  0.00    -0.005 C 
HETATM    5  C13 UNL     1      -4.855  49.114 -20.148  1.00  0.00     0.021 C 
HETATM    6  C14 UNL     1      -2.630  48.924 -19.169  1.00  0.00    -0.000 C 
HETATM    7  C15 UNL     1      -2.104  50.113 -18.770  1.00  0.00    -0.060 C 
HETATM    8  C16 UNL     1      -2.203  51.352 -19.678  1.00  0.00     0.036 C 
HETATM    9  C17 UNL     1      -2.857  51.177 -21.067  1.00  0.00     0.015 C 
HETATM   10  C18 UNL     1      -2.708  49.740 -21.579  1.00  0.00    -0.028 C 
HETATM   11  C19 UNL     1      -1.195  49.448 -21.801  1.00  0.00     0.016 C 
HETATM   12  C20 UNL     1      -1.385  50.315 -17.407  1.00  0.00    -0.014 C 
HETATM   13  C21 UNL     1      -2.374  51.065 -16.484  1.00  0.00     0.020 C 
HETATM   14  C22 UNL     1      -0.099  51.173 -17.592  1.00  0.00     0.021 C 
HETATM   15  C23 UNL     1       0.973  51.034 -16.514  1.00  0.00     0.080 C 
HETATM   16  C24 UNL     1       0.471  50.368 -15.260  1.00  0.00     0.135 C 
HETATM   17  O4  UNL     1       0.692  50.873 -14.159  1.00  0.00    -0.297 OA
HETATM   18  C25 UNL     1      -0.226  49.012 -15.421  1.00  0.00     0.018 C 
HETATM   19  C26 UNL     1      -1.174  48.790 -14.224  1.00  0.00     0.023 C 
HETATM   20  C27 UNL     1       0.877  47.938 -15.343  1.00  0.00     0.023 C 
HETATM   21  C28 UNL     1      -0.937  48.937 -16.818  1.00  0.00     0.020 C 
HETATM   22  C29 UNL     1      -2.080  47.924 -16.852  1.00  0.00     0.090 C 
HETATM   23  C30 UNL     1      -2.610  47.742 -18.250  1.00  0.00     0.157 C 
HETATM   24  O5  UNL     1      -3.077  46.657 -18.591  1.00  0.00    -0.293 OA
ENDROOT
BRANCH   1  25
HETATM   25  C2  UNL     1      -3.105  49.811 -24.297  1.00  0.00    -0.014 C 
HETATM   26  C1  UNL     1      -3.039  48.709 -25.364  1.00  0.00     0.010 C 
BRANCH  25  27
HETATM   27  C3  UNL     1      -1.799  50.637 -24.279  1.00  0.00     0.007 C 
BRANCH  27  28
HETATM   28  C4  UNL     1      -1.111  50.870 -25.634  1.00  0.00     0.035 C 
BRANCH  28  29
HETATM   29  C5  UNL     1      -1.232  52.256 -26.298  1.00  0.00     0.154 C 
BRANCH  29  30
HETATM   30  O1  UNL     1      -1.593  53.236 -25.316  1.00  0.00    -0.392 OA
HETATM   31  H10 UNL     1      -0.767  53.424 -24.825  1.00  0.00     0.210 HD
ENDBRANCH  29  30
BRANCH  29  32
HETATM   32  C6  UNL     1      -0.013  52.783 -27.109  1.00  0.00     0.101 C 
HETATM   33  C7  UNL     1       0.663  51.691 -27.937  1.00  0.00     0.051 C 
BRANCH  32  34
HETATM   34  O2  UNL     1       0.952  53.318 -26.180  1.00  0.00    -0.385 OA
HETATM   35  H14 UNL     1       0.911  54.294 -26.270  1.00  0.00     0.210 HD
ENDBRANCH  32  34
BRANCH  32  36
HETATM   36  C8  UNL     1      -0.452  53.940 -28.043  1.00  0.00     0.204 C 
BRANCH  36  37
HETATM   37  O3  UNL     1      -1.867  53.910 -28.241  1.00  0.00    -0.398 OA
HETATM   38  H17 UNL     1      -2.087  53.019 -28.586  1.00  0.00     0.209 HD
ENDBRANCH  36  37
ENDBRANCH  32  36
ENDBRANCH  29  32
ENDBRANCH  28  29
ENDBRANCH  27  28
ENDBRANCH  25  27
ENDBRANCH   1  25
TORSDOF 9
ENDMDL
MODEL 6
REMARK minimizedAffinity -9.00189018
REMARK  9 active torsions:
REMARK  status: ('A' for Active; 'I' for Inactive)
REMARK    1  A    between atoms: C2_2  and  C3_3 
REMARK    2  A    between atoms: C2_2  and  C9_12 
REMARK    3  A    between atoms: C3_3  and  C4_4 
REMARK    4  A    between atoms: C4_4  and  C5_5 
REMARK    5  A    between atoms: C5_5  and  O1_6 
REMARK    6  A    between atoms: C5_5  and  C6_7 
REMARK    7  A    between atoms: C6_7  and  O2_9 
REMARK    8  A    between atoms: C6_7  and  C8_10 
REMARK    9  A    between atoms: C8_10  and  O3_11 
ROOT
HETATM    1  C9  UNL     1      -3.611  50.702 -24.784  1.00  0.00    -0.002 C 
HETATM    2  C10 UNL     1      -4.843  51.578 -24.424  1.00  0.00     0.007 C 
HETATM    3  C11 UNL     1      -5.365  51.087 -23.061  1.00  0.00     0.015 C 
HETATM    4  C12 UNL     1      -4.209  50.261 -22.464  1.00  0.00    -0.005 C 
HETATM    5  C13 UNL     1      -3.201  51.275 -21.834  1.00  0.00     0.021 C 
HETATM    6  C14 UNL     1      -4.466  49.246 -21.355  1.00  0.00    -0.000 C 
HETATM    7  C15 UNL     1      -3.691  48.136 -21.222  1.00  0.00    -0.060 C 
HETATM    8  C16 UNL     1      -2.555  47.855 -22.224  1.00  0.00     0.036 C 
HETATM    9  C17 UNL     1      -2.377  48.836 -23.404  1.00  0.00     0.015 C 
HETATM   10  C18 UNL     1      -3.698  49.524 -23.767  1.00  0.00    -0.028 C 
HETATM   11  C19 UNL     1      -4.693  48.442 -24.282  1.00  0.00     0.016 C 
HETATM   12  C20 UNL     1      -3.878  47.094 -20.085  1.00  0.00    -0.014 C 
HETATM   13  C21 UNL     1      -2.747  47.340 -19.060  1.00  0.00     0.020 C 
HETATM   14  C22 UNL     1      -3.761  45.647 -20.648  1.00  0.00     0.021 C 
HETATM   15  C23 UNL     1      -4.416  44.541 -19.825  1.00  0.00     0.080 C 
HETATM   16  C24 UNL     1      -4.759  44.968 -18.423  1.00  0.00     0.135 C 
HETATM   17  O4  UNL     1      -4.436  44.268 -17.463  1.00  0.00    -0.297 OA
HETATM   18  C25 UNL     1      -5.597  46.243 -18.267  1.00  0.00     0.018 C 
HETATM   19  C26 UNL     1      -5.335  46.850 -16.872  1.00  0.00     0.023 C 
HETATM   20  C27 UNL     1      -7.076  45.806 -18.311  1.00  0.00     0.023 C 
HETATM   21  C28 UNL     1      -5.303  47.226 -19.454  1.00  0.00     0.020 C 
HETATM   22  C29 UNL     1      -5.625  48.682 -19.117  1.00  0.00     0.090 C 
HETATM   23  C30 UNL     1      -5.513  49.563 -20.333  1.00  0.00     0.157 C 
HETATM   24  O5  UNL     1      -6.227  50.560 -20.434  1.00  0.00    -0.293 OA
ENDROOT
BRANCH   1  25
HETATM   25  C2  UNL     1      -3.420  50.501 -26.319  1.00  0.00    -0.014 C 
HETATM   26  C1  UNL     1      -3.777  49.119 -26.884  1.00  0.00     0.010 C 
BRANCH  25  27
HETATM   27  C3  UNL     1      -2.007  50.933 -26.772  1.00  0.00     0.007 C 
BRANCH  27  28
HETATM   28  C4  UNL     1      -1.814  52.423 -27.102  1.00  0.00     0.035 C 
BRANCH  28  29
HETATM   29  C5  UNL     1      -0.400  52.927 -27.450  1.00  0.00     0.154 C 
BRANCH  29  30
HETATM   30  O1  UNL     1      -0.297  54.327 -27.159  1.00  0.00    -0.392 OA
HETATM   31  H10 UNL     1      -0.193  54.379 -26.187  1.00  0.00     0.210 HD
ENDBRANCH  29  30
BRANCH  29  32
HETATM   32  C6  UNL     1       0.813  52.191 -26.811  1.00  0.00     0.101 C 
HETATM   33  C7  UNL     1       0.420  50.872 -26.147  1.00  0.00     0.051 C 
BRANCH  32  34
HETATM   34  O2  UNL     1       1.391  53.054 -25.811  1.00  0.00    -0.385 OA
HETATM   35  H14 UNL     1       2.234  53.385 -26.185  1.00  0.00     0.210 HD
ENDBRANCH  32  34
BRANCH  32  36
HETATM   36  C8  UNL     1       1.902  51.924 -27.881  1.00  0.00     0.204 C 
BRANCH  36  37
HETATM   37  O3  UNL     1       3.201  51.942 -27.285  1.00  0.00    -0.398 OA
HETATM   38  H17 UNL     1       3.294  52.809 -26.835  1.00  0.00     0.209 HD
ENDBRANCH  36  37
ENDBRANCH  32  36
ENDBRANCH  29  32
ENDBRANCH  28  29
ENDBRANCH  27  28
ENDBRANCH  25  27
ENDBRANCH   1  25
TORSDOF 9
ENDMDL
MODEL 7
REMARK minimizedAffinity -8.95676041
REMARK  9 active torsions:
REMARK  status: ('A' for Active; 'I' for Inactive)
REMARK    1  A    between atoms: C2_2  and  C3_3 
REMARK    2  A    between atoms: C2_2  and  C9_12 
REMARK    3  A    between atoms: C3_3  and  C4_4 
REMARK    4  A    between atoms: C4_4  and  C5_5 
REMARK    5  A    between atoms: C5_5  and  O1_6 
REMARK    6  A    between atoms: C5_5  and  C6_7 
REMARK    7  A    between atoms: C6_7  and  O2_9 
REMARK    8  A    between atoms: C6_7  and  C8_10 
REMARK    9  A    between atoms: C8_10  and  O3_11 
ROOT
HETATM    1  C9  UNL     1      -1.299  51.415 -22.951  1.00  0.00    -0.002 C 
HETATM    2  C10 UNL     1      -1.380  50.608 -24.276  1.00  0.00     0.007 C 
HETATM    3  C11 UNL     1      -2.582  49.653 -24.152  1.00  0.00     0.015 C 
HETATM    4  C12 UNL     1      -3.416  50.210 -22.981  1.00  0.00    -0.005 C 
HETATM    5  C13 UNL     1      -4.272  51.386 -23.549  1.00  0.00     0.021 C 
HETATM    6  C14 UNL     1      -4.423  49.327 -22.251  1.00  0.00    -0.000 C 
HETATM    7  C15 UNL     1      -4.715  49.528 -20.938  1.00  0.00    -0.060 C 
HETATM    8  C16 UNL     1      -3.994  50.631 -20.141  1.00  0.00     0.036 C 
HETATM    9  C17 UNL     1      -2.899  51.445 -20.865  1.00  0.00     0.015 C 
HETATM   10  C18 UNL     1      -2.254  50.635 -21.996  1.00  0.00    -0.028 C 
HETATM   11  C19 UNL     1      -1.512  49.418 -21.371  1.00  0.00     0.016 C 
HETATM   12  C20 UNL     1      -5.765  48.691 -20.158  1.00  0.00    -0.014 C 
HETATM   13  C21 UNL     1      -7.024  49.576 -20.009  1.00  0.00     0.020 C 
HETATM   14  C22 UNL     1      -5.225  48.318 -18.746  1.00  0.00     0.021 C 
HETATM   15  C23 UNL     1      -5.862  47.107 -18.071  1.00  0.00     0.080 C 
HETATM   16  C24 UNL     1      -7.155  46.680 -18.714  1.00  0.00     0.135 C 
HETATM   17  O4  UNL     1      -8.154  46.473 -18.024  1.00  0.00    -0.297 OA
HETATM   18  C25 UNL     1      -7.133  46.430 -20.227  1.00  0.00     0.018 C 
HETATM   19  C26 UNL     1      -8.559  46.616 -20.788  1.00  0.00     0.023 C 
HETATM   20  C27 UNL     1      -6.748  44.950 -20.423  1.00  0.00     0.023 C 
HETATM   21  C28 UNL     1      -6.057  47.349 -20.906  1.00  0.00     0.020 C 
HETATM   22  C29 UNL     1      -6.331  47.592 -22.390  1.00  0.00     0.090 C 
HETATM   23  C30 UNL     1      -5.185  48.314 -23.048  1.00  0.00     0.157 C 
HETATM   24  O5  UNL     1      -4.937  48.113 -24.235  1.00  0.00    -0.293 OA
ENDROOT
BRANCH   1  25
HETATM   25  C2  UNL     1       0.155  51.827 -22.565  1.00  0.00    -0.014 C 
HETATM   26  C1  UNL     1       0.443  52.024 -21.070  1.00  0.00     0.010 C 
BRANCH  25  27
HETATM   27  C3  UNL     1       0.629  53.051 -23.382  1.00  0.00     0.007 C 
BRANCH  27  28
HETATM   28  C4  UNL     1       0.696  52.877 -24.908  1.00  0.00     0.035 C 
BRANCH  28  29
HETATM   29  C5  UNL     1      -0.234  53.731 -25.792  1.00  0.00     0.154 C 
BRANCH  29  30
HETATM   30  O1  UNL     1       0.262  55.074 -25.866  1.00  0.00    -0.392 OA
HETATM   31  H10 UNL     1       1.008  55.038 -26.498  1.00  0.00     0.210 HD
ENDBRANCH  29  30
BRANCH  29  32
HETATM   32  C6  UNL     1      -0.531  53.227 -27.235  1.00  0.00     0.101 C 
HETATM   33  C7  UNL     1       0.615  52.404 -27.821  1.00  0.00     0.051 C 
BRANCH  32  34
HETATM   34  O2  UNL     1      -0.750  54.375 -28.079  1.00  0.00    -0.385 OA
HETATM   35  H14 UNL     1      -1.713  54.403 -28.264  1.00  0.00     0.210 HD
ENDBRANCH  32  34
BRANCH  32  36
HETATM   36  C8  UNL     1      -1.831  52.382 -27.249  1.00  0.00     0.204 C 
BRANCH  36  37
HETATM   37  O3  UNL     1      -2.814  52.967 -26.392  1.00  0.00    -0.398 OA
HETATM   38  H17 UNL     1      -2.404  53.046 -25.504  1.00  0.00     0.209 HD
ENDBRANCH  36  37
ENDBRANCH  32  36
ENDBRANCH  29  32
ENDBRANCH  28  29
ENDBRANCH  27  28
ENDBRANCH  25  27
ENDBRANCH   1  25
TORSDOF 9
ENDMDL
MODEL 8
REMARK minimizedAffinity -8.82772064
REMARK  9 active torsions:
REMARK  status: ('A' for Active; 'I' for Inactive)
REMARK    1  A    between atoms: C2_2  and  C3_3 
REMARK    2  A    between atoms: C2_2  and  C9_12 
REMARK    3  A    between atoms: C3_3  and  C4_4 
REMARK    4  A    between atoms: C4_4  and  C5_5 
REMARK    5  A    between atoms: C5_5  and  O1_6 
REMARK    6  A    between atoms: C5_5  and  C6_7 
REMARK    7  A    between atoms: C6_7  and  O2_9 
REMARK    8  A    between atoms: C6_7  and  C8_10 
REMARK    9  A    between atoms: C8_10  and  O3_11 
ROOT
HETATM    1  C9  UNL     1      -1.663  51.675 -22.196  1.00  0.00    -0.002 C 
HETATM    2  C10 UNL     1      -2.574  52.390 -23.231  1.00  0.00     0.007 C 
HETATM    3  C11 UNL     1      -3.909  51.623 -23.266  1.00  0.00     0.015 C 
HETATM    4  C12 UNL     1      -3.916  50.774 -21.980  1.00  0.00    -0.005 C 
HETATM    5  C13 UNL     1      -4.363  51.713 -20.815  1.00  0.00     0.021 C 
HETATM    6  C14 UNL     1      -4.825  49.556 -21.853  1.00  0.00    -0.000 C 
HETATM    7  C15 UNL     1      -4.475  48.492 -21.083  1.00  0.00    -0.060 C 
HETATM    8  C16 UNL     1      -3.119  48.473 -20.351  1.00  0.00     0.036 C 
HETATM    9  C17 UNL     1      -2.163  49.665 -20.577  1.00  0.00     0.015 C 
HETATM   10  C18 UNL     1      -2.400  50.324 -21.940  1.00  0.00    -0.028 C 
HETATM   11  C19 UNL     1      -2.042  49.298 -23.054  1.00  0.00     0.016 C 
HETATM   12  C20 UNL     1      -5.382  47.247 -20.880  1.00  0.00    -0.014 C 
HETATM   13  C21 UNL     1      -6.003  47.368 -19.469  1.00  0.00     0.020 C 
HETATM   14  C22 UNL     1      -4.540  45.939 -20.965  1.00  0.00     0.021 C 
HETATM   15  C23 UNL     1      -5.300  44.661 -21.309  1.00  0.00     0.080 C 
HETATM   16  C24 UNL     1      -6.792  44.799 -21.159  1.00  0.00     0.135 C 
HETATM   17  O4  UNL     1      -7.433  43.953 -20.534  1.00  0.00    -0.297 OA
HETATM   18  C25 UNL     1      -7.462  45.967 -21.891  1.00  0.00     0.018 C 
HETATM   19  C26 UNL     1      -8.782  46.319 -21.172  1.00  0.00     0.023 C 
HETATM   20  C27 UNL     1      -7.825  45.455 -23.299  1.00  0.00     0.023 C 
HETATM   21  C28 UNL     1      -6.462  47.170 -22.010  1.00  0.00     0.020 C 
HETATM   22  C29 UNL     1      -7.165  48.515 -22.193  1.00  0.00     0.090 C 
HETATM   23  C30 UNL     1      -6.178  49.613 -22.493  1.00  0.00     0.157 C 
HETATM   24  O5  UNL     1      -6.516  50.564 -23.195  1.00  0.00    -0.293 OA
ENDROOT
BRANCH   1  25
HETATM   25  C2  UNL     1      -0.144  51.775 -22.534  1.00  0.00    -0.014 C 
HETATM   26  C1  UNL     1       0.789  52.216 -21.397  1.00  0.00     0.010 C 
BRANCH  25  27
HETATM   27  C3  UNL     1       0.096  52.624 -23.803  1.00  0.00     0.007 C 
BRANCH  27  28
HETATM   28  C4  UNL     1       0.418  51.856 -25.096  1.00  0.00     0.035 C 
BRANCH  28  29
HETATM   29  C5  UNL     1       0.665  52.656 -26.389  1.00  0.00     0.154 C 
BRANCH  29  30
HETATM   30  O1  UNL     1       1.896  52.235 -26.994  1.00  0.00    -0.392 OA
HETATM   31  H10 UNL     1       1.689  51.385 -27.432  1.00  0.00     0.210 HD
ENDBRANCH  29  30
BRANCH  29  32
HETATM   32  C6  UNL     1      -0.452  52.652 -27.473  1.00  0.00     0.101 C 
HETATM   33  C7  UNL     1      -1.778  52.100 -26.950  1.00  0.00     0.051 C 
BRANCH  32  34
HETATM   34  O2  UNL     1      -0.014  51.828 -28.573  1.00  0.00    -0.385 OA
HETATM   35  H14 UNL     1       0.210  52.441 -29.304  1.00  0.00     0.210 HD
ENDBRANCH  32  34
BRANCH  32  36
HETATM   36  C8  UNL     1      -0.672  54.085 -28.021  1.00  0.00     0.204 C 
BRANCH  36  37
HETATM   37  O3  UNL     1      -1.985  54.211 -28.571  1.00  0.00    -0.398 OA
HETATM   38  H17 UNL     1      -2.077  53.510 -29.250  1.00  0.00     0.209 HD
ENDBRANCH  36  37
ENDBRANCH  32  36
ENDBRANCH  29  32
ENDBRANCH  28  29
ENDBRANCH  27  28
ENDBRANCH  25  27
ENDBRANCH   1  25
TORSDOF 9
ENDMDL
MODEL 9
REMARK minimizedAffinity -8.81189251
REMARK  9 active torsions:
REMARK  status: ('A' for Active; 'I' for Inactive)
REMARK    1  A    between atoms: C2_2  and  C3_3 
REMARK    2  A    between atoms: C2_2  and  C9_12 
REMARK    3  A    between atoms: C3_3  and  C4_4 
REMARK    4  A    between atoms: C4_4  and  C5_5 
REMARK    5  A    between atoms: C5_5  and  O1_6 
REMARK    6  A    between atoms: C5_5  and  C6_7 
REMARK    7  A    between atoms: C6_7  and  O2_9 
REMARK    8  A    between atoms: C6_7  and  C8_10 
REMARK    9  A    between atoms: C8_10  and  O3_11 
ROOT
HETATM    1  C9  UNL     1      -1.153  51.443 -22.232  1.00  0.00    -0.002 C 
HETATM    2  C10 UNL     1      -1.480  50.715 -23.565  1.00  0.00     0.007 C 
HETATM    3  C11 UNL     1      -2.451  49.568 -23.228  1.00  0.00     0.015 C 
HETATM    4  C12 UNL     1      -3.000  49.907 -21.828  1.00  0.00    -0.005 C 
HETATM    5  C13 UNL     1      -4.139  50.957 -22.026  1.00  0.00     0.021 C 
HETATM    6  C14 UNL     1      -3.629  48.827 -20.954  1.00  0.00    -0.000 C 
HETATM    7  C15 UNL     1      -3.573  48.898 -19.597  1.00  0.00    -0.060 C 
HETATM    8  C16 UNL     1      -2.826  50.055 -18.908  1.00  0.00     0.036 C 
HETATM    9  C17 UNL     1      -2.102  51.081 -19.807  1.00  0.00     0.015 C 
HETATM   10  C18 UNL     1      -1.685  50.459 -21.145  1.00  0.00    -0.028 C 
HETATM   11  C19 UNL     1      -0.632  49.347 -20.866  1.00  0.00     0.016 C 
HETATM   12  C20 UNL     1      -4.236  47.852 -18.659  1.00  0.00    -0.014 C 
HETATM   13  C21 UNL     1      -5.518  48.506 -18.093  1.00  0.00     0.020 C 
HETATM   14  C22 UNL     1      -3.279  47.490 -17.485  1.00  0.00     0.021 C 
HETATM   15  C23 UNL     1      -3.525  46.151 -16.794  1.00  0.00     0.080 C 
HETATM   16  C24 UNL     1      -4.870  45.555 -17.115  1.00  0.00     0.135 C 
HETATM   17  O4  UNL     1      -5.598  45.144 -16.212  1.00  0.00    -0.297 OA
HETATM   18  C25 UNL     1      -5.230  45.404 -18.598  1.00  0.00     0.018 C 
HETATM   19  C26 UNL     1      -6.767  45.384 -18.742  1.00  0.00     0.023 C 
HETATM   20  C27 UNL     1      -4.707  44.023 -19.040  1.00  0.00     0.023 C 
HETATM   21  C28 UNL     1      -4.527  46.528 -19.438  1.00  0.00     0.020 C 
HETATM   22  C29 UNL     1      -5.233  46.811 -20.764  1.00  0.00     0.090 C 
HETATM   23  C30 UNL     1      -4.428  47.752 -21.622  1.00  0.00     0.157 C 
HETATM   24  O5  UNL     1      -4.492  47.667 -22.848  1.00  0.00    -0.293 OA
ENDROOT
BRANCH   1  25
HETATM   25  C2  UNL     1       0.276  52.067 -22.202  1.00  0.00    -0.014 C 
HETATM   26  C1  UNL     1       0.539  53.139 -21.136  1.00  0.00     0.010 C 
BRANCH  25  27
HETATM   27  C3  UNL     1       0.703  52.566 -23.601  1.00  0.00     0.007 C 
BRANCH  27  28
HETATM   28  C4  UNL     1      -0.407  52.685 -24.659  1.00  0.00     0.035 C 
BRANCH  28  29
HETATM   29  C5  UNL     1      -0.006  52.869 -26.135  1.00  0.00     0.154 C 
BRANCH  29  30
HETATM   30  O1  UNL     1       0.704  54.105 -26.296  1.00  0.00    -0.392 OA
HETATM   31  H10 UNL     1       1.606  53.928 -25.961  1.00  0.00     0.210 HD
ENDBRANCH  29  30
BRANCH  29  32
HETATM   32  C6  UNL     1       0.808  51.731 -26.816  1.00  0.00     0.101 C 
HETATM   33  C7  UNL     1       0.831  51.851 -28.339  1.00  0.00     0.051 C 
BRANCH  32  34
HETATM   34  O2  UNL     1       0.205  50.469 -26.464  1.00  0.00    -0.385 OA
HETATM   35  H14 UNL     1       0.810  50.044 -25.821  1.00  0.00     0.210 HD
ENDBRANCH  32  34
BRANCH  32  36
HETATM   36  C8  UNL     1       2.262  51.718 -26.280  1.00  0.00     0.204 C 
BRANCH  36  37
HETATM   37  O3  UNL     1       3.185  51.494 -27.348  1.00  0.00    -0.398 OA
HETATM   38  H17 UNL     1       2.917  50.657 -27.783  1.00  0.00     0.209 HD
ENDBRANCH  36  37
ENDBRANCH  32  36
ENDBRANCH  29  32
ENDBRANCH  28  29
ENDBRANCH  27  28
ENDBRANCH  25  27
ENDBRANCH   1  25
TORSDOF 9
ENDMDL
