MODEL 1
REMARK minimizedAffinity -9.25121021
REMARK CNNscore 0.690715432
REMARK CNNaffinity 6.68993378
REMARK  13 active torsions:
REMARK  status: ('A' for Active; 'I' for Inactive)
REMARK    1  A    between atoms: C5_6  and  C6_7 
REMARK    2  A    between atoms: C5_6  and  C27_31 
REMARK    3  A    between atoms: C18_19  and  O2_20 
REMARK    4  A    between atoms: C23_25  and  O3_26 
REMARK    5  A    between atoms: C28_33  and  C29_34 
REMARK    6  A    between atoms: C29_34  and  O6_36 
REMARK    7  A    between atoms: C29_34  and  C31_37 
REMARK    8  A    between atoms: C31_37  and  C33_39 
REMARK    9  A    between atoms: C31_37  and  C34_41 
REMARK   10  A    between atoms: C33_39  and  O7_40 
REMARK   11  A    between atoms: C34_41  and  C35_42 
REMARK   12  A    between atoms: C35_42  and  C36_43 
REMARK   13  A    between atoms: C39_48  and  N2_49 
ROOT
HETATM    1  C1  UNL     1       3.457  64.576 -30.952  1.00  0.00     0.010 C 
HETATM    2  C2  UNL     1       3.893  64.441 -32.410  1.00  0.00    -0.014 C 
HETATM    3  C3  UNL     1       4.054  62.971 -32.803  1.00  0.00     0.030 C 
HETATM    4  C4  UNL     1       5.058  62.774 -33.930  1.00  0.00     0.169 C 
HETATM    5  O1  UNL     1       5.126  63.926 -34.767  1.00  0.00    -0.377 OA
HETATM    6  C5  UNL     1       5.722  65.077 -34.136  1.00  0.00     0.094 C 
HETATM    7  C41 UNL     1       5.183  65.223 -32.684  1.00  0.00     0.045 C 
ENDROOT
BRANCH   6   8
HETATM    8  C6  UNL     1       5.390  66.330 -35.026  1.00  0.00     0.035 C 
HETATM    9  C7  UNL     1       6.689  67.110 -35.539  1.00  0.00     0.016 C 
HETATM   10  C8  UNL     1       6.353  67.570 -36.964  1.00  0.00     0.026 C 
HETATM   11  C9  UNL     1       6.926  68.832 -37.579  1.00  0.00     0.013 C 
HETATM   12  C18 UNL     1       4.833  67.645 -36.917  1.00  0.00     0.094 C 
HETATM   13  C10 UNL     1       6.369  68.933 -39.028  1.00  0.00     0.043 C 
HETATM   14  C11 UNL     1       4.911  68.522 -39.189  1.00  0.00    -0.006 C 
HETATM   15  C12 UNL     1       4.165  68.003 -38.201  1.00  0.00    -0.030 C 
HETATM   16  C26 UNL     1       4.276  68.707 -40.517  1.00  0.00     0.161 C 
HETATM   17  C13 UNL     1       2.655  67.818 -38.190  1.00  0.00     0.027 C 
HETATM   18  C14 UNL     1       2.257  66.468 -37.527  1.00  0.00     0.011 C 
HETATM   19  C19 UNL     1       1.953  68.190 -39.560  1.00  0.00    -0.026 C 
HETATM   20  C15 UNL     1       2.966  66.204 -36.168  1.00  0.00     0.014 C 
HETATM   21  C16 UNL     1       4.497  66.244 -36.330  1.00  0.00    -0.002 C 
HETATM   22  C17 UNL     1       4.919  65.082 -37.274  1.00  0.00     0.019 C 
HETATM   23  C20 UNL     1       0.690  67.319 -39.781  1.00  0.00     0.016 C 
HETATM   24  C21 UNL     1       1.508  69.686 -39.496  1.00  0.00     0.013 C 
HETATM   25  C25 UNL     1       2.926  68.022 -40.765  1.00  0.00     0.071 C 
HETATM   26  C22 UNL     1       0.912  70.212 -40.801  1.00  0.00     0.032 C 
HETATM   27  C23 UNL     1       1.830  69.978 -41.996  1.00  0.00     0.119 C 
HETATM   28  C24 UNL     1       2.319  68.531 -42.087  1.00  0.00     0.045 C 
HETATM   29  O4  UNL     1       4.883  69.326 -41.389  1.00  0.00    -0.292 OA
BRANCH  27  30
HETATM   30  O3  UNL     1       1.133  70.324 -43.192  1.00  0.00    -0.396 OA
HETATM   31  H34 UNL     1       0.402  69.694 -43.311  1.00  0.00     0.210 HD
ENDBRANCH  27  30
BRANCH  12  32
HETATM   32  O2  UNL     1       4.426  68.674 -35.995  1.00  0.00    -0.384 OA
HETATM   33  H25 UNL     1       4.577  69.537 -36.416  1.00  0.00     0.211 HD
ENDBRANCH  12  32
ENDBRANCH   6   8
BRANCH   6  34
HETATM   34  C27 UNL     1       7.248  64.846 -34.168  1.00  0.00     0.189 A 
HETATM   35  O5  UNL     1       7.920  65.011 -32.898  1.00  0.00    -0.369 OA
HETATM   36  C28 UNL     1       8.012  63.712 -33.470  1.00  0.00     0.189 A 
BRANCH  36  37
HETATM   37  C29 UNL     1       9.401  63.255 -33.893  1.00  0.00     0.092 C 
HETATM   38  C30 UNL     1       9.837  61.950 -33.196  1.00  0.00     0.049 C 
BRANCH  37  39
HETATM   39  O6  UNL     1      10.301  64.281 -33.422  1.00  0.00    -0.387 OA
HETATM   40  H43 UNL     1      10.345  64.209 -32.453  1.00  0.00     0.210 HD
ENDBRANCH  37  39
BRANCH  37  41
HETATM   41  C31 UNL     1       9.546  63.172 -35.490  1.00  0.00     0.011 C 
HETATM   42  C32 UNL     1       8.272  63.761 -36.150  1.00  0.00     0.020 C 
BRANCH  41  43
HETATM   43  C33 UNL     1       9.647  61.692 -35.977  1.00  0.00     0.176 C 
BRANCH  43  44
HETATM   44  O7  UNL     1       8.451  60.944 -35.786  1.00  0.00    -0.400 OA
HETATM   45  H49 UNL     1       7.969  61.352 -35.035  1.00  0.00     0.209 HD
ENDBRANCH  43  44
ENDBRANCH  41  43
BRANCH  41  46
HETATM   46  C34 UNL     1      10.823  63.952 -35.954  1.00  0.00     0.019 C 
BRANCH  46  47
HETATM   47  C35 UNL     1      12.207  63.483 -35.460  1.00  0.00     0.039 C 
BRANCH  47  48
HETATM   48  C36 UNL     1      13.397  64.029 -36.208  1.00  0.00    -0.054 A 
HETATM   49  C37 UNL     1      14.608  63.339 -36.251  1.00  0.00     0.024 A 
HETATM   50  C38 UNL     1      15.657  63.891 -36.965  1.00  0.00     0.090 A 
HETATM   51  N1  UNL     1      15.581  65.059 -37.636  1.00  0.00    -0.357 N 
HETATM   52  C39 UNL     1      14.412  65.714 -37.608  1.00  0.00     0.077 A 
ATOM     53  H1  UNL     1      16.383  65.429 -38.146  1.00  0.00     0.166 HD
HETATM   54  C40 UNL     1      13.303  65.232 -36.918  1.00  0.00     0.049 A 
BRANCH  52  55
HETATM   55  N2  UNL     1      14.325  66.915 -38.322  1.00  0.00    -0.289 NA
HETATM   56  H56 UNL     1      14.048  67.664 -37.699  1.00  0.00     0.125 HD
HETATM   57  H57 UNL     1      13.619  66.824 -39.045  1.00  0.00     0.125 HD
ENDBRANCH  52  55
ENDBRANCH  47  48
ENDBRANCH  46  47
ENDBRANCH  41  46
ENDBRANCH  37  41
ENDBRANCH  36  37
ENDBRANCH   6  34
TORSDOF 13
ENDMDL
MODEL 2
REMARK minimizedAffinity -9.68656635
REMARK CNNscore 0.631411493
REMARK CNNaffinity 8.01826859
REMARK  13 active torsions:
REMARK  status: ('A' for Active; 'I' for Inactive)
REMARK    1  A    between atoms: C5_6  and  C6_7 
REMARK    2  A    between atoms: C5_6  and  C27_31 
REMARK    3  A    between atoms: C18_19  and  O2_20 
REMARK    4  A    between atoms: C23_25  and  O3_26 
REMARK    5  A    between atoms: C28_33  and  C29_34 
REMARK    6  A    between atoms: C29_34  and  O6_36 
REMARK    7  A    between atoms: C29_34  and  C31_37 
REMARK    8  A    between atoms: C31_37  and  C33_39 
REMARK    9  A    between atoms: C31_37  and  C34_41 
REMARK   10  A    between atoms: C33_39  and  O7_40 
REMARK   11  A    between atoms: C34_41  and  C35_42 
REMARK   12  A    between atoms: C35_42  and  C36_43 
REMARK   13  A    between atoms: C39_48  and  N2_49 
ROOT
HETATM    1  C1  UNL     1      -4.145  50.649  -9.908  1.00  0.00     0.010 C 
HETATM    2  C2  UNL     1      -3.121  51.494 -10.663  1.00  0.00    -0.014 C 
HETATM    3  C3  UNL     1      -3.709  52.040 -11.966  1.00  0.00     0.030 C 
HETATM    4  C4  UNL     1      -2.645  52.299 -13.023  1.00  0.00     0.169 C 
HETATM    5  O1  UNL     1      -1.387  52.602 -12.426  1.00  0.00    -0.377 OA
HETATM    6  C5  UNL     1      -0.769  51.484 -11.758  1.00  0.00     0.094 C 
HETATM    7  C41 UNL     1      -1.834  50.705 -10.934  1.00  0.00     0.045 C 
ENDROOT
BRANCH   6   8
HETATM    8  C6  UNL     1       0.387  52.050 -10.856  1.00  0.00     0.035 C 
HETATM    9  C7  UNL     1       1.699  52.453 -11.678  1.00  0.00     0.016 C 
HETATM   10  C8  UNL     1       2.238  53.716 -10.995  1.00  0.00     0.026 C 
HETATM   11  C9  UNL     1       3.712  54.068 -10.957  1.00  0.00     0.013 C 
HETATM   12  C18 UNL     1       1.691  53.564  -9.582  1.00  0.00     0.094 C 
HETATM   13  C10 UNL     1       3.845  55.423 -10.203  1.00  0.00     0.043 C 
HETATM   14  C11 UNL     1       2.925  55.585  -9.001  1.00  0.00    -0.006 C 
HETATM   15  C12 UNL     1       1.981  54.694  -8.653  1.00  0.00    -0.030 C 
HETATM   16  C26 UNL     1       3.079  56.798  -8.161  1.00  0.00     0.161 C 
HETATM   17  C13 UNL     1       1.212  54.635  -7.342  1.00  0.00     0.027 C 
HETATM   18  C14 UNL     1      -0.281  54.268  -7.580  1.00  0.00     0.011 C 
HETATM   19  C19 UNL     1       1.516  55.844  -6.365  1.00  0.00    -0.026 C 
HETATM   20  C15 UNL     1      -0.483  53.046  -8.522  1.00  0.00     0.014 C 
HETATM   21  C16 UNL     1       0.192  53.285  -9.885  1.00  0.00    -0.002 C 
HETATM   22  C17 UNL     1      -0.513  54.488 -10.575  1.00  0.00     0.019 C 
HETATM   23  C20 UNL     1       0.271  56.178  -5.505  1.00  0.00     0.016 C 
HETATM   24  C21 UNL     1       2.673  55.422  -5.403  1.00  0.00     0.013 C 
HETATM   25  C25 UNL     1       1.971  57.111  -7.147  1.00  0.00     0.071 C 
HETATM   26  C22 UNL     1       3.146  56.538  -4.474  1.00  0.00     0.032 C 
HETATM   27  C23 UNL     1       3.518  57.808  -5.233  1.00  0.00     0.119 C 
HETATM   28  C24 UNL     1       2.428  58.248  -6.212  1.00  0.00     0.045 C 
HETATM   29  O4  UNL     1       4.036  57.544  -8.359  1.00  0.00    -0.292 OA
BRANCH  27  30
HETATM   30  O3  UNL     1       3.768  58.853  -4.295  1.00  0.00    -0.396 OA
HETATM   31  H34 UNL     1       2.933  59.066  -3.846  1.00  0.00     0.210 HD
ENDBRANCH  27  30
BRANCH  12  32
HETATM   32  O2  UNL     1       2.288  52.414  -8.953  1.00  0.00    -0.384 OA
HETATM   33  H25 UNL     1       3.201  52.640  -8.707  1.00  0.00     0.211 HD
ENDBRANCH  12  32
ENDBRANCH   6   8
BRANCH   6  34
HETATM   34  C27 UNL     1      -0.141  50.611 -12.865  1.00  0.00     0.189 A 
HETATM   35  O5  UNL     1      -0.760  49.318 -13.053  1.00  0.00    -0.369 OA
HETATM   36  C28 UNL     1      -0.812  50.185 -14.179  1.00  0.00     0.189 A 
BRANCH  36  37
HETATM   37  C29 UNL     1      -0.034  49.743 -15.410  1.00  0.00     0.092 C 
HETATM   38  C30 UNL     1       0.533  48.314 -15.276  1.00  0.00     0.049 C 
BRANCH  37  39
HETATM   39  O6  UNL     1       1.107  50.623 -15.479  1.00  0.00    -0.387 OA
HETATM   40  H43 UNL     1       1.709  50.378 -14.755  1.00  0.00     0.210 HD
ENDBRANCH  37  39
BRANCH  37  41
HETATM   41  C31 UNL     1      -0.884  49.937 -16.759  1.00  0.00     0.011 C 
HETATM   42  C32 UNL     1      -2.090  50.869 -16.474  1.00  0.00     0.020 C 
BRANCH  41  43
HETATM   43  C33 UNL     1      -1.484  48.583 -17.255  1.00  0.00     0.176 C 
BRANCH  43  44
HETATM   44  O7  UNL     1      -1.113  48.248 -18.588  1.00  0.00    -0.400 OA
HETATM   45  H49 UNL     1      -0.922  49.088 -19.058  1.00  0.00     0.209 HD
ENDBRANCH  43  44
ENDBRANCH  41  43
BRANCH  41  46
HETATM   46  C34 UNL     1       0.027  50.537 -17.885  1.00  0.00     0.019 C 
BRANCH  46  47
HETATM   47  C35 UNL     1      -0.216  51.987 -18.350  1.00  0.00     0.039 C 
BRANCH  47  48
HETATM   48  C36 UNL     1       0.135  52.290 -19.785  1.00  0.00    -0.054 A 
HETATM   49  C37 UNL     1      -0.320  51.487 -20.830  1.00  0.00     0.024 A 
HETATM   50  C38 UNL     1       0.030  51.829 -22.125  1.00  0.00     0.090 A 
HETATM   51  N1  UNL     1       0.782  52.903 -22.445  1.00  0.00    -0.357 N 
HETATM   52  C39 UNL     1       1.206  53.683 -21.442  1.00  0.00     0.077 A 
ATOM     53  H1  UNL     1       1.019  53.113 -23.415  1.00  0.00     0.166 HD
HETATM   54  C40 UNL     1       0.899  53.418 -20.109  1.00  0.00     0.049 A 
BRANCH  52  55
HETATM   55  N2  UNL     1       1.967  54.810 -21.774  1.00  0.00    -0.289 NA
HETATM   56  H56 UNL     1       2.858  54.774 -21.293  1.00  0.00     0.125 HD
HETATM   57  H57 UNL     1       1.476  55.645 -21.474  1.00  0.00     0.125 HD
ENDBRANCH  52  55
ENDBRANCH  47  48
ENDBRANCH  46  47
ENDBRANCH  41  46
ENDBRANCH  37  41
ENDBRANCH  36  37
ENDBRANCH   6  34
TORSDOF 13
ENDMDL
MODEL 3
REMARK minimizedAffinity -10.5475864
REMARK CNNscore 0.610269547
REMARK CNNaffinity 6.6079011
REMARK  13 active torsions:
REMARK  status: ('A' for Active; 'I' for Inactive)
REMARK    1  A    between atoms: C5_6  and  C6_7 
REMARK    2  A    between atoms: C5_6  and  C27_31 
REMARK    3  A    between atoms: C18_19  and  O2_20 
REMARK    4  A    between atoms: C23_25  and  O3_26 
REMARK    5  A    between atoms: C28_33  and  C29_34 
REMARK    6  A    between atoms: C29_34  and  O6_36 
REMARK    7  A    between atoms: C29_34  and  C31_37 
REMARK    8  A    between atoms: C31_37  and  C33_39 
REMARK    9  A    between atoms: C31_37  and  C34_41 
REMARK   10  A    between atoms: C33_39  and  O7_40 
REMARK   11  A    between atoms: C34_41  and  C35_42 
REMARK   12  A    between atoms: C35_42  and  C36_43 
REMARK   13  A    between atoms: C39_48  and  N2_49 
ROOT
HETATM    1  C1  UNL     1       3.612  64.650 -30.846  1.00  0.00     0.010 C 
HETATM    2  C2  UNL     1       3.811  64.522 -32.356  1.00  0.00    -0.014 C 
HETATM    3  C3  UNL     1       3.980  63.059 -32.769  1.00  0.00     0.030 C 
HETATM    4  C4  UNL     1       4.797  62.902 -34.044  1.00  0.00     0.169 C 
HETATM    5  O1  UNL     1       4.669  64.047 -34.882  1.00  0.00    -0.377 OA
HETATM    6  C5  UNL     1       5.301  65.233 -34.357  1.00  0.00     0.094 C 
HETATM    7  C41 UNL     1       4.998  65.365 -32.837  1.00  0.00     0.045 C 
ENDROOT
BRANCH   6   8
HETATM    8  C6  UNL     1       4.766  66.459 -35.183  1.00  0.00     0.035 C 
HETATM    9  C7  UNL     1       5.894  67.542 -35.519  1.00  0.00     0.016 C 
HETATM   10  C8  UNL     1       5.570  68.045 -36.932  1.00  0.00     0.026 C 
HETATM   11  C9  UNL     1       5.893  69.449 -37.402  1.00  0.00     0.013 C 
HETATM   12  C18 UNL     1       4.071  67.787 -37.019  1.00  0.00     0.094 C 
HETATM   13  C10 UNL     1       5.434  69.557 -38.886  1.00  0.00     0.043 C 
HETATM   14  C11 UNL     1       4.120  68.859 -39.207  1.00  0.00    -0.006 C 
HETATM   15  C12 UNL     1       3.436  68.106 -38.329  1.00  0.00    -0.030 C 
HETATM   16  C26 UNL     1       3.558  69.020 -40.571  1.00  0.00     0.161 C 
HETATM   17  C13 UNL     1       2.008  67.601 -38.468  1.00  0.00     0.027 C 
HETATM   18  C14 UNL     1       1.872  66.143 -37.942  1.00  0.00     0.011 C 
HETATM   19  C19 UNL     1       1.344  67.934 -39.867  1.00  0.00    -0.026 C 
HETATM   20  C15 UNL     1       2.520  65.918 -36.546  1.00  0.00     0.014 C 
HETATM   21  C16 UNL     1       4.012  66.301 -36.565  1.00  0.00    -0.002 C 
HETATM   22  C17 UNL     1       4.749  65.344 -37.547  1.00  0.00     0.019 C 
HETATM   23  C20 UNL     1       0.324  66.836 -40.263  1.00  0.00     0.016 C 
HETATM   24  C21 UNL     1       0.575  69.288 -39.738  1.00  0.00     0.013 C 
HETATM   25  C25 UNL     1       2.414  68.087 -40.987  1.00  0.00     0.071 C 
HETATM   26  C22 UNL     1      -0.026  69.788 -41.051  1.00  0.00     0.032 C 
HETATM   27  C23 UNL     1       1.006  69.863 -42.172  1.00  0.00     0.119 C 
HETATM   28  C24 UNL     1       1.808  68.569 -42.320  1.00  0.00     0.045 C 
HETATM   29  O4  UNL     1       4.075  69.830 -41.338  1.00  0.00    -0.292 OA
BRANCH  27  30
HETATM   30  O3  UNL     1       0.339  70.156 -43.398  1.00  0.00    -0.396 OA
HETATM   31  H34 UNL     1      -0.223  69.398 -43.627  1.00  0.00     0.210 HD
ENDBRANCH  27  30
BRANCH  12  32
HETATM   32  O2  UNL     1       3.381  68.619 -36.067  1.00  0.00    -0.384 OA
HETATM   33  H25 UNL     1       3.368  69.528 -36.411  1.00  0.00     0.211 HD
ENDBRANCH  12  32
ENDBRANCH   6   8
BRANCH   6  34
HETATM   34  C27 UNL     1       6.811  65.078 -34.637  1.00  0.00     0.189 A 
HETATM   35  O5  UNL     1       7.612  64.705 -33.492  1.00  0.00    -0.369 OA
HETATM   36  C28 UNL     1       7.621  63.775 -34.568  1.00  0.00     0.189 A 
BRANCH  36  37
HETATM   37  C29 UNL     1       8.950  63.578 -35.281  1.00  0.00     0.092 C 
HETATM   38  C30 UNL     1       9.434  64.852 -36.004  1.00  0.00     0.049 C 
BRANCH  37  39
HETATM   39  O6  UNL     1       8.690  62.605 -36.316  1.00  0.00    -0.387 OA
HETATM   40  H43 UNL     1       8.151  63.042 -36.998  1.00  0.00     0.210 HD
ENDBRANCH  37  39
BRANCH  37  41
HETATM   41  C31 UNL     1      10.071  62.967 -34.306  1.00  0.00     0.011 C 
HETATM   42  C32 UNL     1       9.718  61.491 -33.984  1.00  0.00     0.020 C 
BRANCH  41  43
HETATM   43  C33 UNL     1      10.107  63.717 -32.938  1.00  0.00     0.176 C 
BRANCH  43  44
HETATM   44  O7  UNL     1      10.435  62.879 -31.835  1.00  0.00    -0.400 OA
HETATM   45  H49 UNL     1      10.163  61.967 -32.071  1.00  0.00     0.209 HD
ENDBRANCH  43  44
ENDBRANCH  41  43
BRANCH  41  46
HETATM   46  C34 UNL     1      11.482  63.065 -34.983  1.00  0.00     0.019 C 
BRANCH  46  47
HETATM   47  C35 UNL     1      11.574  63.074 -36.522  1.00  0.00     0.039 C 
BRANCH  47  48
HETATM   48  C36 UNL     1      12.588  62.138 -37.129  1.00  0.00    -0.054 A 
HETATM   49  C37 UNL     1      13.887  62.050 -36.630  1.00  0.00     0.024 A 
HETATM   50  C38 UNL     1      14.765  61.162 -37.227  1.00  0.00     0.090 A 
HETATM   51  N1  UNL     1      14.440  60.361 -38.264  1.00  0.00    -0.357 N 
HETATM   52  C39 UNL     1      13.187  60.434 -38.733  1.00  0.00     0.077 A 
ATOM     53  H1  UNL     1      15.123  59.724 -38.675  1.00  0.00     0.166 HD
HETATM   54  C40 UNL     1      12.236  61.296 -38.192  1.00  0.00     0.049 A 
BRANCH  52  55
HETATM   55  N2  UNL     1      12.842  59.588 -39.793  1.00  0.00    -0.289 NA
HETATM   56  H56 UNL     1      12.502  60.139 -40.573  1.00  0.00     0.125 HD
HETATM   57  H57 UNL     1      12.099  58.964 -39.496  1.00  0.00     0.125 HD
ENDBRANCH  52  55
ENDBRANCH  47  48
ENDBRANCH  46  47
ENDBRANCH  41  46
ENDBRANCH  37  41
ENDBRANCH  36  37
ENDBRANCH   6  34
TORSDOF 13
ENDMDL
MODEL 4
REMARK minimizedAffinity -9.35178471
REMARK CNNscore 0.60403657
REMARK CNNaffinity 7.76682281
REMARK  13 active torsions:
REMARK  status: ('A' for Active; 'I' for Inactive)
REMARK    1  A    between atoms: C5_6  and  C6_7 
REMARK    2  A    between atoms: C5_6  and  C27_31 
REMARK    3  A    between atoms: C18_19  and  O2_20 
REMARK    4  A    between atoms: C23_25  and  O3_26 
REMARK    5  A    between atoms: C28_33  and  C29_34 
REMARK    6  A    between atoms: C29_34  and  O6_36 
REMARK    7  A    between atoms: C29_34  and  C31_37 
REMARK    8  A    between atoms: C31_37  and  C33_39 
REMARK    9  A    between atoms: C31_37  and  C34_41 
REMARK   10  A    between atoms: C33_39  and  O7_40 
REMARK   11  A    between atoms: C34_41  and  C35_42 
REMARK   12  A    between atoms: C35_42  and  C36_43 
REMARK   13  A    between atoms: C39_48  and  N2_49 
ROOT
HETATM    1  C1  UNL     1       4.485  49.768 -13.889  1.00  0.00     0.010 C 
HETATM    2  C2  UNL     1       3.293  50.042 -12.973  1.00  0.00    -0.014 C 
HETATM    3  C3  UNL     1       2.594  48.742 -12.573  1.00  0.00     0.030 C 
HETATM    4  C4  UNL     1       1.120  48.947 -12.251  1.00  0.00     0.169 C 
HETATM    5  O1  UNL     1       0.876  50.266 -11.770  1.00  0.00    -0.377 OA
HETATM    6  C5  UNL     1       1.030  51.294 -12.770  1.00  0.00     0.094 C 
HETATM    7  C41 UNL     1       2.303  51.018 -13.621  1.00  0.00     0.045 C 
ENDROOT
BRANCH   6   8
HETATM    8  C6  UNL     1       1.098  52.675 -12.022  1.00  0.00     0.035 C 
HETATM    9  C7  UNL     1      -0.337  53.246 -11.606  1.00  0.00     0.016 C 
HETATM   10  C8  UNL     1      -0.131  53.913 -10.240  1.00  0.00     0.026 C 
HETATM   11  C9  UNL     1      -0.945  55.102  -9.771  1.00  0.00     0.013 C 
HETATM   12  C18 UNL     1       1.350  54.267 -10.286  1.00  0.00     0.094 C 
HETATM   13  C10 UNL     1      -0.456  55.463  -8.339  1.00  0.00     0.043 C 
HETATM   14  C11 UNL     1       1.048  55.353  -8.125  1.00  0.00    -0.006 C 
HETATM   15  C12 UNL     1       1.905  54.881  -9.045  1.00  0.00    -0.030 C 
HETATM   16  C26 UNL     1       1.602  55.796  -6.822  1.00  0.00     0.161 C 
HETATM   17  C13 UNL     1       3.422  54.984  -9.027  1.00  0.00     0.027 C 
HETATM   18  C14 UNL     1       4.083  53.670  -9.533  1.00  0.00     0.011 C 
HETATM   19  C19 UNL     1       4.005  55.627  -7.702  1.00  0.00    -0.026 C 
HETATM   20  C15 UNL     1       3.472  53.133 -10.859  1.00  0.00     0.014 C 
HETATM   21  C16 UNL     1       1.956  52.900 -10.712  1.00  0.00    -0.002 C 
HETATM   22  C17 UNL     1       1.734  51.788  -9.647  1.00  0.00     0.019 C 
HETATM   23  C20 UNL     1       5.403  55.039  -7.379  1.00  0.00     0.016 C 
HETATM   24  C21 UNL     1       4.164  57.165  -7.929  1.00  0.00     0.013 C 
HETATM   25  C25 UNL     1       3.050  55.410  -6.492  1.00  0.00     0.071 C 
HETATM   26  C22 UNL     1       4.617  57.931  -6.687  1.00  0.00     0.032 C 
HETATM   27  C23 UNL     1       3.727  57.658  -5.479  1.00  0.00     0.119 C 
HETATM   28  C24 UNL     1       3.515  56.164  -5.231  1.00  0.00     0.045 C 
HETATM   29  O4  UNL     1       0.868  56.381  -6.027  1.00  0.00    -0.292 OA
BRANCH  27  30
HETATM   30  O3  UNL     1       4.315  58.256  -4.325  1.00  0.00    -0.396 OA
HETATM   31  H34 UNL     1       5.148  57.792  -4.132  1.00  0.00     0.210 HD
ENDBRANCH  27  30
BRANCH  12  32
HETATM   32  O2  UNL     1       1.581  55.249 -11.313  1.00  0.00    -0.384 OA
HETATM   33  H25 UNL     1       1.260  56.109 -10.991  1.00  0.00     0.211 HD
ENDBRANCH  12  32
ENDBRANCH   6   8
BRANCH   6  34
HETATM   34  C27 UNL     1      -0.256  51.263 -13.623  1.00  0.00     0.189 A 
HETATM   35  O5  UNL     1      -0.255  52.149 -14.767  1.00  0.00    -0.369 OA
HETATM   36  C28 UNL     1      -0.377  50.765 -15.070  1.00  0.00     0.189 A 
BRANCH  36  37
HETATM   37  C29 UNL     1      -1.692  50.323 -15.695  1.00  0.00     0.092 C 
HETATM   38  C30 UNL     1      -2.863  51.268 -15.353  1.00  0.00     0.049 C 
BRANCH  37  39
HETATM   39  O6  UNL     1      -2.005  49.057 -15.076  1.00  0.00    -0.387 OA
HETATM   40  H43 UNL     1      -2.263  49.238 -14.156  1.00  0.00     0.210 HD
ENDBRANCH  37  39
BRANCH  37  41
HETATM   41  C31 UNL     1      -1.552  50.073 -17.276  1.00  0.00     0.011 C 
HETATM   42  C32 UNL     1      -2.880  50.466 -17.974  1.00  0.00     0.020 C 
BRANCH  41  43
HETATM   43  C33 UNL     1      -1.318  48.563 -17.596  1.00  0.00     0.176 C 
BRANCH  43  44
HETATM   44  O7  UNL     1      -1.263  48.276 -18.989  1.00  0.00    -0.400 OA
HETATM   45  H49 UNL     1      -1.784  48.968 -19.450  1.00  0.00     0.209 HD
ENDBRANCH  43  44
ENDBRANCH  41  43
BRANCH  41  46
HETATM   46  C34 UNL     1      -0.356  50.909 -17.847  1.00  0.00     0.019 C 
BRANCH  46  47
HETATM   47  C35 UNL     1      -0.642  52.282 -18.489  1.00  0.00     0.039 C 
BRANCH  47  48
HETATM   48  C36 UNL     1      -0.108  52.485 -19.884  1.00  0.00    -0.054 A 
HETATM   49  C37 UNL     1      -0.451  51.624 -20.926  1.00  0.00     0.024 A 
HETATM   50  C38 UNL     1       0.064  51.874 -22.186  1.00  0.00     0.090 A 
HETATM   51  N1  UNL     1       0.877  52.912 -22.476  1.00  0.00    -0.357 N 
HETATM   52  C39 UNL     1       1.194  53.748 -21.478  1.00  0.00     0.077 A 
ATOM     53  H1  UNL     1       1.237  53.054 -23.420  1.00  0.00     0.166 HD
HETATM   54  C40 UNL     1       0.718  53.576 -20.181  1.00  0.00     0.049 A 
BRANCH  52  55
HETATM   55  N2  UNL     1       2.018  54.837 -21.783  1.00  0.00    -0.289 NA
HETATM   56  H56 UNL     1       2.842  54.817 -21.193  1.00  0.00     0.125 HD
HETATM   57  H57 UNL     1       1.516  55.699 -21.599  1.00  0.00     0.125 HD
ENDBRANCH  52  55
ENDBRANCH  47  48
ENDBRANCH  46  47
ENDBRANCH  41  46
ENDBRANCH  37  41
ENDBRANCH  36  37
ENDBRANCH   6  34
TORSDOF 13
ENDMDL
MODEL 5
REMARK minimizedAffinity -10.2785025
REMARK CNNscore 0.432736665
REMARK CNNaffinity 7.95852423
REMARK  13 active torsions:
REMARK  status: ('A' for Active; 'I' for Inactive)
REMARK    1  A    between atoms: C5_6  and  C6_7 
REMARK    2  A    between atoms: C5_6  and  C27_31 
REMARK    3  A    between atoms: C18_19  and  O2_20 
REMARK    4  A    between atoms: C23_25  and  O3_26 
REMARK    5  A    between atoms: C28_33  and  C29_34 
REMARK    6  A    between atoms: C29_34  and  O6_36 
REMARK    7  A    between atoms: C29_34  and  C31_37 
REMARK    8  A    between atoms: C31_37  and  C33_39 
REMARK    9  A    between atoms: C31_37  and  C34_41 
REMARK   10  A    between atoms: C33_39  and  O7_40 
REMARK   11  A    between atoms: C34_41  and  C35_42 
REMARK   12  A    between atoms: C35_42  and  C36_43 
REMARK   13  A    between atoms: C39_48  and  N2_49 
ROOT
HETATM    1  C1  UNL     1      -3.452  48.460 -27.730  1.00  0.00     0.010 C 
HETATM    2  C2  UNL     1      -3.671  49.392 -26.538  1.00  0.00    -0.014 C 
HETATM    3  C3  UNL     1      -2.643  50.524 -26.527  1.00  0.00     0.030 C 
HETATM    4  C4  UNL     1      -2.376  51.058 -25.126  1.00  0.00     0.169 C 
HETATM    5  O1  UNL     1      -3.514  50.889 -24.285  1.00  0.00    -0.377 OA
HETATM    6  C5  UNL     1      -3.799  49.516 -23.950  1.00  0.00     0.094 C 
HETATM    7  C41 UNL     1      -3.647  48.620 -25.213  1.00  0.00     0.045 C 
ENDROOT
BRANCH   6   8
HETATM    8  C6  UNL     1      -5.252  49.465 -23.352  1.00  0.00     0.035 C 
HETATM    9  C7  UNL     1      -6.359  48.992 -24.405  1.00  0.00     0.016 C 
HETATM   10  C8  UNL     1      -7.345  48.133 -23.603  1.00  0.00     0.026 C 
HETATM   11  C9  UNL     1      -8.817  48.028 -23.949  1.00  0.00     0.013 C 
HETATM   12  C18 UNL     1      -7.168  48.686 -22.195  1.00  0.00     0.094 C 
HETATM   13  C10 UNL     1      -9.465  47.051 -22.925  1.00  0.00     0.043 C 
HETATM   14  C11 UNL     1      -8.958  47.187 -21.495  1.00  0.00    -0.006 C 
HETATM   15  C12 UNL     1      -7.953  48.000 -21.130  1.00  0.00    -0.030 C 
HETATM   16  C26 UNL     1      -9.613  46.374 -20.441  1.00  0.00     0.161 C 
HETATM   17  C13 UNL     1      -7.563  48.401 -19.715  1.00  0.00     0.027 C 
HETATM   18  C14 UNL     1      -6.017  48.448 -19.548  1.00  0.00     0.011 C 
HETATM   19  C19 UNL     1      -8.393  47.660 -18.587  1.00  0.00    -0.026 C 
HETATM   20  C15 UNL     1      -5.289  49.227 -20.680  1.00  0.00     0.014 C 
HETATM   21  C16 UNL     1      -5.620  48.628 -22.060  1.00  0.00    -0.002 C 
HETATM   22  C17 UNL     1      -5.068  47.174 -22.107  1.00  0.00     0.019 C 
HETATM   23  C20 UNL     1      -7.535  47.472 -17.310  1.00  0.00     0.016 C 
HETATM   24  C21 UNL     1      -9.625  48.548 -18.219  1.00  0.00     0.013 C 
HETATM   25  C25 UNL     1      -8.918  46.278 -19.077  1.00  0.00     0.071 C 
HETATM   26  C22 UNL     1     -10.579  47.900 -17.216  1.00  0.00     0.032 C 
HETATM   27  C23 UNL     1     -11.032  46.512 -17.657  1.00  0.00     0.119 C 
HETATM   28  C24 UNL     1      -9.862  45.612 -18.057  1.00  0.00     0.045 C 
HETATM   29  O4  UNL     1     -10.634  45.748 -20.718  1.00  0.00    -0.292 OA
BRANCH  27  30
HETATM   30  O3  UNL     1     -11.763  45.903 -16.594  1.00  0.00    -0.396 OA
HETATM   31  H34 UNL     1     -11.151  45.743 -15.856  1.00  0.00     0.210 HD
ENDBRANCH  27  30
BRANCH  12  32
HETATM   32  O2  UNL     1      -7.614  50.055 -22.153  1.00  0.00    -0.384 OA
HETATM   33  H25 UNL     1      -8.586  50.059 -22.164  1.00  0.00     0.211 HD
ENDBRANCH  12  32
ENDBRANCH   6   8
BRANCH   6  34
HETATM   34  C27 UNL     1      -2.801  49.126 -22.839  1.00  0.00     0.189 A 
HETATM   35  O5  UNL     1      -1.498  49.747 -22.938  1.00  0.00    -0.369 OA
HETATM   36  C28 UNL     1      -2.230  50.057 -21.759  1.00  0.00     0.189 A 
BRANCH  36  37
HETATM   37  C29 UNL     1      -1.644  49.557 -20.448  1.00  0.00     0.092 C 
HETATM   38  C30 UNL     1      -0.355  48.733 -20.647  1.00  0.00     0.049 C 
BRANCH  37  39
HETATM   39  O6  UNL     1      -2.625  48.642 -19.914  1.00  0.00    -0.387 OA
HETATM   40  H43 UNL     1      -2.610  47.842 -20.466  1.00  0.00     0.210 HD
ENDBRANCH  37  39
BRANCH  37  41
HETATM   41  C31 UNL     1      -1.452  50.744 -19.383  1.00  0.00     0.011 C 
HETATM   42  C32 UNL     1      -0.617  50.225 -18.185  1.00  0.00     0.020 C 
BRANCH  41  43
HETATM   43  C33 UNL     1      -2.820  51.211 -18.795  1.00  0.00     0.176 C 
BRANCH  43  44
HETATM   44  O7  UNL     1      -2.814  51.356 -17.380  1.00  0.00    -0.400 OA
HETATM   45  H49 UNL     1      -2.124  50.754 -17.027  1.00  0.00     0.209 HD
ENDBRANCH  43  44
ENDBRANCH  41  43
BRANCH  41  46
HETATM   46  C34 UNL     1      -0.744  51.965 -20.065  1.00  0.00     0.019 C 
BRANCH  46  47
HETATM   47  C35 UNL     1       0.450  51.708 -21.006  1.00  0.00     0.039 C 
BRANCH  47  48
HETATM   48  C36 UNL     1       0.773  52.809 -21.984  1.00  0.00    -0.054 A 
HETATM   49  C37 UNL     1       1.379  53.995 -21.569  1.00  0.00     0.024 A 
HETATM   50  C38 UNL     1       1.659  54.961 -22.520  1.00  0.00     0.090 A 
HETATM   51  N1  UNL     1       1.389  54.825 -23.835  1.00  0.00    -0.357 N 
HETATM   52  C39 UNL     1       0.821  53.679 -24.236  1.00  0.00     0.077 A 
ATOM     53  H1  UNL     1       1.610  55.567 -24.500  1.00  0.00     0.166 HD
HETATM   54  C40 UNL     1       0.508  52.652 -23.349  1.00  0.00     0.049 A 
BRANCH  52  55
HETATM   55  N2  UNL     1       0.562  53.528 -25.603  1.00  0.00    -0.289 NA
HETATM   56  H56 UNL     1      -0.424  53.340 -25.745  1.00  0.00     0.125 HD
HETATM   57  H57 UNL     1       1.091  52.739 -25.959  1.00  0.00     0.125 HD
ENDBRANCH  52  55
ENDBRANCH  47  48
ENDBRANCH  46  47
ENDBRANCH  41  46
ENDBRANCH  37  41
ENDBRANCH  36  37
ENDBRANCH   6  34
TORSDOF 13
ENDMDL
MODEL 6
REMARK minimizedAffinity -9.91767216
REMARK CNNscore 0.335235476
REMARK CNNaffinity 7.24850845
REMARK  13 active torsions:
REMARK  status: ('A' for Active; 'I' for Inactive)
REMARK    1  A    between atoms: C5_6  and  C6_7 
REMARK    2  A    between atoms: C5_6  and  C27_31 
REMARK    3  A    between atoms: C18_19  and  O2_20 
REMARK    4  A    between atoms: C23_25  and  O3_26 
REMARK    5  A    between atoms: C28_33  and  C29_34 
REMARK    6  A    between atoms: C29_34  and  O6_36 
REMARK    7  A    between atoms: C29_34  and  C31_37 
REMARK    8  A    between atoms: C31_37  and  C33_39 
REMARK    9  A    between atoms: C31_37  and  C34_41 
REMARK   10  A    between atoms: C33_39  and  O7_40 
REMARK   11  A    between atoms: C34_41  and  C35_42 
REMARK   12  A    between atoms: C35_42  and  C36_43 
REMARK   13  A    between atoms: C39_48  and  N2_49 
ROOT
HETATM    1  C1  UNL     1      -2.975  49.313 -25.962  1.00  0.00     0.010 C 
HETATM    2  C2  UNL     1      -4.202  49.448 -25.060  1.00  0.00    -0.014 C 
HETATM    3  C3  UNL     1      -4.207  50.793 -24.332  1.00  0.00     0.030 C 
HETATM    4  C4  UNL     1      -4.959  50.739 -23.010  1.00  0.00     0.169 C 
HETATM    5  O1  UNL     1      -5.980  49.746 -23.038  1.00  0.00    -0.377 OA
HETATM    6  C5  UNL     1      -5.484  48.392 -23.067  1.00  0.00     0.094 C 
HETATM    7  C41 UNL     1      -4.292  48.287 -24.062  1.00  0.00     0.045 C 
ENDROOT
BRANCH   6   8
HETATM    8  C6  UNL     1      -6.681  47.456 -23.467  1.00  0.00     0.035 C 
HETATM    9  C7  UNL     1      -7.677  47.142 -22.255  1.00  0.00     0.016 C 
HETATM   10  C8  UNL     1      -9.080  47.112 -22.876  1.00  0.00     0.026 C 
HETATM   11  C9  UNL     1     -10.203  46.249 -22.336  1.00  0.00     0.013 C 
HETATM   12  C18 UNL     1      -8.774  46.744 -24.322  1.00  0.00     0.094 C 
HETATM   13  C10 UNL     1     -11.458  46.519 -23.215  1.00  0.00     0.043 C 
HETATM   14  C11 UNL     1     -11.180  46.681 -24.704  1.00  0.00    -0.006 C 
HETATM   15  C12 UNL     1      -9.948  46.703 -25.239  1.00  0.00    -0.030 C 
HETATM   16  C26 UNL     1     -12.339  46.821 -25.619  1.00  0.00     0.161 C 
HETATM   17  C13 UNL     1      -9.585  46.589 -26.711  1.00  0.00     0.027 C 
HETATM   18  C14 UNL     1      -8.421  47.553 -27.081  1.00  0.00     0.011 C 
HETATM   19  C19 UNL     1     -10.837  46.557 -27.681  1.00  0.00    -0.026 C 
HETATM   20  C15 UNL     1      -7.219  47.490 -26.095  1.00  0.00     0.014 C 
HETATM   21  C16 UNL     1      -7.673  47.791 -24.654  1.00  0.00    -0.002 C 
HETATM   22  C17 UNL     1      -8.202  49.254 -24.604  1.00  0.00     0.019 C 
HETATM   23  C20 UNL     1     -10.487  47.200 -29.047  1.00  0.00     0.016 C 
HETATM   24  C21 UNL     1     -11.228  45.065 -27.931  1.00  0.00     0.013 C 
HETATM   25  C25 UNL     1     -12.064  47.284 -27.055  1.00  0.00     0.071 C 
HETATM   26  C22 UNL     1     -12.495  44.888 -28.766  1.00  0.00     0.032 C 
HETATM   27  C23 UNL     1     -13.679  45.664 -28.198  1.00  0.00     0.119 C 
HETATM   28  C24 UNL     1     -13.339  47.126 -27.907  1.00  0.00     0.045 C 
HETATM   29  O4  UNL     1     -13.473  46.642 -25.180  1.00  0.00    -0.292 OA
BRANCH  27  30
HETATM   30  O3  UNL     1     -14.763  45.600 -29.123  1.00  0.00    -0.396 OA
HETATM   31  H34 UNL     1     -14.508  46.086 -29.925  1.00  0.00     0.210 HD
ENDBRANCH  27  30
BRANCH  12  32
HETATM   32  O2  UNL     1      -8.222  45.416 -24.377  1.00  0.00    -0.384 OA
HETATM   33  H25 UNL     1      -8.944  44.779 -24.239  1.00  0.00     0.211 HD
ENDBRANCH  12  32
ENDBRANCH   6   8
BRANCH   6  34
HETATM   34  C27 UNL     1      -5.063  48.055 -21.621  1.00  0.00     0.189 A 
HETATM   35  O5  UNL     1      -4.227  46.883 -21.482  1.00  0.00    -0.369 OA
HETATM   36  C28 UNL     1      -3.637  48.104 -21.052  1.00  0.00     0.189 A 
BRANCH  36  37
HETATM   37  C29 UNL     1      -3.333  48.222 -19.566  1.00  0.00     0.092 C 
HETATM   38  C30 UNL     1      -2.767  46.917 -18.968  1.00  0.00     0.049 C 
BRANCH  37  39
HETATM   39  O6  UNL     1      -4.610  48.434 -18.929  1.00  0.00    -0.387 OA
HETATM   40  H43 UNL     1      -5.102  47.596 -18.974  1.00  0.00     0.210 HD
ENDBRANCH  37  39
BRANCH  37  41
HETATM   41  C31 UNL     1      -2.407  49.493 -19.241  1.00  0.00     0.011 C 
HETATM   42  C32 UNL     1      -1.106  49.014 -18.547  1.00  0.00     0.020 C 
BRANCH  41  43
HETATM   43  C33 UNL     1      -3.105  50.467 -18.240  1.00  0.00     0.176 C 
BRANCH  43  44
HETATM   44  O7  UNL     1      -2.906  51.842 -18.548  1.00  0.00    -0.400 OA
HETATM   45  H49 UNL     1      -2.062  51.911 -19.043  1.00  0.00     0.209 HD
ENDBRANCH  43  44
ENDBRANCH  41  43
BRANCH  41  46
HETATM   46  C34 UNL     1      -2.077  50.268 -20.564  1.00  0.00     0.019 C 
BRANCH  46  47
HETATM   47  C35 UNL     1      -0.605  50.415 -20.997  1.00  0.00     0.039 C 
BRANCH  47  48
HETATM   48  C36 UNL     1       0.077  51.700 -20.601  1.00  0.00    -0.054 A 
HETATM   49  C37 UNL     1       0.299  52.023 -19.263  1.00  0.00     0.024 A 
HETATM   50  C38 UNL     1       0.941  53.214 -18.969  1.00  0.00     0.090 A 
HETATM   51  N1  UNL     1       1.378  54.086 -19.902  1.00  0.00    -0.357 N 
HETATM   52  C39 UNL     1       1.179  53.768 -21.188  1.00  0.00     0.077 A 
ATOM     53  H1  UNL     1       1.843  54.954 -19.637  1.00  0.00     0.166 HD
HETATM   54  C40 UNL     1       0.545  52.589 -21.576  1.00  0.00     0.049 A 
BRANCH  52  55
HETATM   55  N2  UNL     1       1.652  54.660 -22.157  1.00  0.00    -0.289 NA
HETATM   56  H56 UNL     1       0.887  54.949 -22.757  1.00  0.00     0.125 HD
HETATM   57  H57 UNL     1       2.348  54.195 -22.729  1.00  0.00     0.125 HD
ENDBRANCH  52  55
ENDBRANCH  47  48
ENDBRANCH  46  47
ENDBRANCH  41  46
ENDBRANCH  37  41
ENDBRANCH  36  37
ENDBRANCH   6  34
TORSDOF 13
ENDMDL
MODEL 7
REMARK minimizedAffinity -10.0605278
REMARK CNNscore 0.313833863
REMARK CNNaffinity 7.40374804
REMARK  13 active torsions:
REMARK  status: ('A' for Active; 'I' for Inactive)
REMARK    1  A    between atoms: C5_6  and  C6_7 
REMARK    2  A    between atoms: C5_6  and  C27_31 
REMARK    3  A    between atoms: C18_19  and  O2_20 
REMARK    4  A    between atoms: C23_25  and  O3_26 
REMARK    5  A    between atoms: C28_33  and  C29_34 
REMARK    6  A    between atoms: C29_34  and  O6_36 
REMARK    7  A    between atoms: C29_34  and  C31_37 
REMARK    8  A    between atoms: C31_37  and  C33_39 
REMARK    9  A    between atoms: C31_37  and  C34_41 
REMARK   10  A    between atoms: C33_39  and  O7_40 
REMARK   11  A    between atoms: C34_41  and  C35_42 
REMARK   12  A    between atoms: C35_42  and  C36_43 
REMARK   13  A    between atoms: C39_48  and  N2_49 
ROOT
HETATM    1  C1  UNL     1      -3.568  50.277  -9.572  1.00  0.00     0.010 C 
HETATM    2  C2  UNL     1      -3.020  51.236 -10.629  1.00  0.00    -0.014 C 
HETATM    3  C3  UNL     1      -3.909  51.251 -11.874  1.00  0.00     0.030 C 
HETATM    4  C4  UNL     1      -3.141  51.621 -13.135  1.00  0.00     0.169 C 
HETATM    5  O1  UNL     1      -2.027  52.456 -12.834  1.00  0.00    -0.377 OA
HETATM    6  C5  UNL     1      -0.968  51.790 -12.116  1.00  0.00     0.094 C 
HETATM    7  C41 UNL     1      -1.571  50.894 -10.997  1.00  0.00     0.045 C 
ENDROOT
BRANCH   6   8
HETATM    8  C6  UNL     1      -0.012  52.898 -11.545  1.00  0.00     0.035 C 
HETATM    9  C7  UNL     1      -0.759  53.974 -10.627  1.00  0.00     0.016 C 
HETATM   10  C8  UNL     1       0.228  54.306  -9.500  1.00  0.00     0.026 C 
HETATM   11  C9  UNL     1       0.279  55.659  -8.820  1.00  0.00     0.013 C 
HETATM   12  C18 UNL     1       1.567  53.990 -10.154  1.00  0.00     0.094 C 
HETATM   13  C10 UNL     1       1.384  55.587  -7.726  1.00  0.00     0.043 C 
HETATM   14  C11 UNL     1       2.634  54.813  -8.124  1.00  0.00    -0.006 C 
HETATM   15  C12 UNL     1       2.764  54.140  -9.279  1.00  0.00    -0.030 C 
HETATM   16  C26 UNL     1       3.779  54.803  -7.180  1.00  0.00     0.161 C 
HETATM   17  C13 UNL     1       4.045  53.575  -9.874  1.00  0.00     0.027 C 
HETATM   18  C14 UNL     1       3.800  52.181 -10.520  1.00  0.00     0.011 C 
HETATM   19  C19 UNL     1       5.311  53.728  -8.934  1.00  0.00    -0.026 C 
HETATM   20  C15 UNL     1       2.558  52.134 -11.456  1.00  0.00     0.014 C 
HETATM   21  C16 UNL     1       1.285  52.562 -10.702  1.00  0.00    -0.002 C 
HETATM   22  C17 UNL     1       1.017  51.528  -9.570  1.00  0.00     0.019 C 
HETATM   23  C20 UNL     1       6.303  52.559  -9.159  1.00  0.00     0.016 C 
HETATM   24  C21 UNL     1       6.038  55.062  -9.299  1.00  0.00     0.013 C 
HETATM   25  C25 UNL     1       4.904  53.791  -7.432  1.00  0.00     0.071 C 
HETATM   26  C22 UNL     1       7.221  55.392  -8.391  1.00  0.00     0.032 C 
HETATM   27  C23 UNL     1       6.842  55.377  -6.914  1.00  0.00     0.119 C 
HETATM   28  C24 UNL     1       6.100  54.102  -6.510  1.00  0.00     0.045 C 
HETATM   29  O4  UNL     1       3.749  55.540  -6.196  1.00  0.00    -0.292 OA
BRANCH  27  30
HETATM   30  O3  UNL     1       8.026  55.509  -6.130  1.00  0.00    -0.396 OA
HETATM   31  H34 UNL     1       8.567  54.712  -6.257  1.00  0.00     0.210 HD
ENDBRANCH  27  30
BRANCH  12  32
HETATM   32  O2  UNL     1       1.799  54.898 -11.247  1.00  0.00    -0.384 OA
HETATM   33  H25 UNL     1       2.045  55.763 -10.878  1.00  0.00     0.211 HD
ENDBRANCH  12  32
ENDBRANCH   6   8
BRANCH   6  34
HETATM   34  C27 UNL     1      -0.189  50.965 -13.163  1.00  0.00     0.189 A 
HETATM   35  O5  UNL     1      -0.400  49.535 -13.099  1.00  0.00    -0.369 OA
HETATM   36  C28 UNL     1      -0.794  50.153 -14.318  1.00  0.00     0.189 A 
BRANCH  36  37
HETATM   37  C29 UNL     1      -0.012  49.757 -15.561  1.00  0.00     0.092 C 
HETATM   38  C30 UNL     1       0.561  48.327 -15.475  1.00  0.00     0.049 C 
BRANCH  37  39
HETATM   39  O6  UNL     1       1.126  50.643 -15.597  1.00  0.00    -0.387 OA
HETATM   40  H43 UNL     1       1.727  50.376 -14.880  1.00  0.00     0.210 HD
ENDBRANCH  37  39
BRANCH  37  41
HETATM   41  C31 UNL     1      -0.859  49.995 -16.905  1.00  0.00     0.011 C 
HETATM   42  C32 UNL     1      -2.051  50.938 -16.597  1.00  0.00     0.020 C 
BRANCH  41  43
HETATM   43  C33 UNL     1      -1.479  48.662 -17.432  1.00  0.00     0.176 C 
BRANCH  43  44
HETATM   44  O7  UNL     1      -1.097  48.342 -18.764  1.00  0.00    -0.400 OA
HETATM   45  H49 UNL     1      -0.883  49.186 -19.217  1.00  0.00     0.209 HD
ENDBRANCH  43  44
ENDBRANCH  41  43
BRANCH  41  46
HETATM   46  C34 UNL     1       0.060  50.607 -18.017  1.00  0.00     0.019 C 
BRANCH  46  47
HETATM   47  C35 UNL     1      -0.186  52.059 -18.475  1.00  0.00     0.039 C 
BRANCH  47  48
HETATM   48  C36 UNL     1       0.151  52.366 -19.912  1.00  0.00    -0.054 A 
HETATM   49  C37 UNL     1      -0.298  51.555 -20.954  1.00  0.00     0.024 A 
HETATM   50  C38 UNL     1       0.038  51.900 -22.251  1.00  0.00     0.090 A 
HETATM   51  N1  UNL     1       0.769  52.986 -22.577  1.00  0.00    -0.357 N 
HETATM   52  C39 UNL     1       1.187  53.775 -21.578  1.00  0.00     0.077 A 
ATOM     53  H1  UNL     1       0.996  53.199 -23.549  1.00  0.00     0.166 HD
HETATM   54  C40 UNL     1       0.893  53.506 -20.243  1.00  0.00     0.049 A 
BRANCH  52  55
HETATM   55  N2  UNL     1       1.927  54.913 -21.916  1.00  0.00    -0.289 NA
HETATM   56  H56 UNL     1       2.822  54.893 -21.442  1.00  0.00     0.125 HD
HETATM   57  H57 UNL     1       1.425  55.741 -21.614  1.00  0.00     0.125 HD
ENDBRANCH  52  55
ENDBRANCH  47  48
ENDBRANCH  46  47
ENDBRANCH  41  46
ENDBRANCH  37  41
ENDBRANCH  36  37
ENDBRANCH   6  34
TORSDOF 13
ENDMDL
MODEL 8
REMARK minimizedAffinity -10.9056311
REMARK CNNscore 0.263941228
REMARK CNNaffinity 7.57615805
REMARK  13 active torsions:
REMARK  status: ('A' for Active; 'I' for Inactive)
REMARK    1  A    between atoms: C5_6  and  C6_7 
REMARK    2  A    between atoms: C5_6  and  C27_31 
REMARK    3  A    between atoms: C18_19  and  O2_20 
REMARK    4  A    between atoms: C23_25  and  O3_26 
REMARK    5  A    between atoms: C28_33  and  C29_34 
REMARK    6  A    between atoms: C29_34  and  O6_36 
REMARK    7  A    between atoms: C29_34  and  C31_37 
REMARK    8  A    between atoms: C31_37  and  C33_39 
REMARK    9  A    between atoms: C31_37  and  C34_41 
REMARK   10  A    between atoms: C33_39  and  O7_40 
REMARK   11  A    between atoms: C34_41  and  C35_42 
REMARK   12  A    between atoms: C35_42  and  C36_43 
REMARK   13  A    between atoms: C39_48  and  N2_49 
ROOT
HETATM    1  C1  UNL     1      -6.549  45.495 -20.641  1.00  0.00     0.010 C 
HETATM    2  C2  UNL     1      -5.165  46.083 -20.371  1.00  0.00    -0.014 C 
HETATM    3  C3  UNL     1      -4.257  45.064 -19.679  1.00  0.00     0.030 C 
HETATM    4  C4  UNL     1      -3.181  45.723 -18.828  1.00  0.00     0.169 C 
HETATM    5  O1  UNL     1      -2.838  47.010 -19.336  1.00  0.00    -0.377 OA
HETATM    6  C5  UNL     1      -3.878  47.997 -19.184  1.00  0.00     0.094 C 
HETATM    7  C41 UNL     1      -5.256  47.376 -19.552  1.00  0.00     0.045 C 
ENDROOT
BRANCH   6   8
HETATM    8  C6  UNL     1      -3.508  49.219 -20.101  1.00  0.00     0.035 C 
HETATM    9  C7  UNL     1      -2.398  50.181 -19.467  1.00  0.00     0.016 C 
HETATM   10  C8  UNL     1      -1.527  50.633 -20.646  1.00  0.00     0.026 C 
HETATM   11  C9  UNL     1      -0.826  51.976 -20.686  1.00  0.00     0.013 C 
HETATM   12  C18 UNL     1      -2.492  50.501 -21.816  1.00  0.00     0.094 C 
HETATM   13  C10 UNL     1      -0.031  52.044 -22.022  1.00  0.00     0.043 C 
HETATM   14  C11 UNL     1      -0.744  51.446 -23.227  1.00  0.00    -0.006 C 
HETATM   15  C12 UNL     1      -1.922  50.803 -23.160  1.00  0.00    -0.030 C 
HETATM   16  C26 UNL     1      -0.101  51.582 -24.557  1.00  0.00     0.161 C 
HETATM   17  C13 UNL     1      -2.826  50.418 -24.321  1.00  0.00     0.027 C 
HETATM   18  C14 UNL     1      -3.448  49.008 -24.107  1.00  0.00     0.011 C 
HETATM   19  C19 UNL     1      -2.209  50.731 -25.746  1.00  0.00    -0.026 C 
HETATM   20  C15 UNL     1      -4.063  48.803 -22.693  1.00  0.00     0.014 C 
HETATM   21  C16 UNL     1      -3.011  49.053 -21.595  1.00  0.00    -0.002 C 
HETATM   22  C17 UNL     1      -1.889  47.985 -21.741  1.00  0.00     0.019 C 
HETATM   23  C20 UNL     1      -2.709  49.706 -26.795  1.00  0.00     0.016 C 
HETATM   24  C21 UNL     1      -2.685  52.152 -26.187  1.00  0.00     0.013 C 
HETATM   25  C25 UNL     1      -0.652  50.730 -25.708  1.00  0.00     0.071 C 
HETATM   26  C22 UNL     1      -2.073  52.631 -27.503  1.00  0.00     0.032 C 
HETATM   27  C23 UNL     1      -0.549  52.556 -27.496  1.00  0.00     0.119 C 
HETATM   28  C24 UNL     1      -0.030  51.191 -27.041  1.00  0.00     0.045 C 
HETATM   29  O4  UNL     1       0.889  52.301 -24.672  1.00  0.00    -0.292 OA
BRANCH  27  30
HETATM   30  O3  UNL     1      -0.065  52.839 -28.807  1.00  0.00    -0.396 OA
HETATM   31  H34 UNL     1      -0.348  52.121 -29.398  1.00  0.00     0.210 HD
ENDBRANCH  27  30
BRANCH  12  32
HETATM   32  O2  UNL     1      -3.573  51.440 -21.660  1.00  0.00    -0.384 OA
HETATM   33  H25 UNL     1      -3.240  52.327 -21.876  1.00  0.00     0.211 HD
ENDBRANCH  12  32
ENDBRANCH   6   8
BRANCH   6  34
HETATM   34  C27 UNL     1      -3.824  48.458 -17.712  1.00  0.00     0.189 A 
HETATM   35  O5  UNL     1      -4.400  47.536 -16.758  1.00  0.00    -0.369 OA
HETATM   36  C28 UNL     1      -3.015  47.806 -16.582  1.00  0.00     0.189 A 
BRANCH  36  37
HETATM   37  C29 UNL     1      -2.624  48.533 -15.304  1.00  0.00     0.092 C 
HETATM   38  C30 UNL     1      -3.178  47.851 -14.036  1.00  0.00     0.049 C 
BRANCH  37  39
HETATM   39  O6  UNL     1      -3.273  49.820 -15.383  1.00  0.00    -0.387 OA
HETATM   40  H43 UNL     1      -4.227  49.675 -15.256  1.00  0.00     0.210 HD
ENDBRANCH  37  39
BRANCH  37  41
HETATM   41  C31 UNL     1      -1.041  48.788 -15.218  1.00  0.00     0.011 C 
HETATM   42  C32 UNL     1      -0.428  48.682 -16.638  1.00  0.00     0.020 C 
BRANCH  41  43
HETATM   43  C33 UNL     1      -0.334  47.698 -14.353  1.00  0.00     0.176 C 
BRANCH  43  44
HETATM   44  O7  UNL     1      -0.146  46.462 -15.033  1.00  0.00    -0.400 OA
HETATM   45  H49 UNL     1      -0.843  46.398 -15.720  1.00  0.00     0.209 HD
ENDBRANCH  43  44
ENDBRANCH  41  43
BRANCH  41  46
HETATM   46  C34 UNL     1      -0.758  50.199 -14.595  1.00  0.00     0.019 C 
BRANCH  46  47
HETATM   47  C35 UNL     1       0.644  50.499 -14.029  1.00  0.00     0.039 C 
BRANCH  47  48
HETATM   48  C36 UNL     1       1.562  51.295 -14.923  1.00  0.00    -0.054 A 
HETATM   49  C37 UNL     1       2.916  51.448 -14.623  1.00  0.00     0.024 A 
HETATM   50  C38 UNL     1       3.705  52.181 -15.492  1.00  0.00     0.090 A 
HETATM   51  N1  UNL     1       3.249  52.754 -16.625  1.00  0.00    -0.357 N 
HETATM   52  C39 UNL     1       1.952  52.593 -16.922  1.00  0.00     0.077 A 
ATOM     53  H1  UNL     1       3.868  53.290 -17.234  1.00  0.00     0.166 HD
HETATM   54  C40 UNL     1       1.085  51.868 -16.107  1.00  0.00     0.049 A 
BRANCH  52  55
HETATM   55  N2  UNL     1       1.482  53.167 -18.108  1.00  0.00    -0.289 NA
HETATM   56  H56 UNL     1       0.715  53.797 -17.903  1.00  0.00     0.125 HD
HETATM   57  H57 UNL     1       1.138  52.435 -18.721  1.00  0.00     0.125 HD
ENDBRANCH  52  55
ENDBRANCH  47  48
ENDBRANCH  46  47
ENDBRANCH  41  46
ENDBRANCH  37  41
ENDBRANCH  36  37
ENDBRANCH   6  34
TORSDOF 13
ENDMDL
MODEL 9
REMARK minimizedAffinity -10.4111834
REMARK CNNscore 0.260517299
REMARK CNNaffinity 6.61474657
REMARK  13 active torsions:
REMARK  status: ('A' for Active; 'I' for Inactive)
REMARK    1  A    between atoms: C5_6  and  C6_7 
REMARK    2  A    between atoms: C5_6  and  C27_31 
REMARK    3  A    between atoms: C18_19  and  O2_20 
REMARK    4  A    between atoms: C23_25  and  O3_26 
REMARK    5  A    between atoms: C28_33  and  C29_34 
REMARK    6  A    between atoms: C29_34  and  O6_36 
REMARK    7  A    between atoms: C29_34  and  C31_37 
REMARK    8  A    between atoms: C31_37  and  C33_39 
REMARK    9  A    between atoms: C31_37  and  C34_41 
REMARK   10  A    between atoms: C33_39  and  O7_40 
REMARK   11  A    between atoms: C34_41  and  C35_42 
REMARK   12  A    between atoms: C35_42  and  C36_43 
REMARK   13  A    between atoms: C39_48  and  N2_49 
ROOT
HETATM    1  C1  UNL     1      -5.561  44.326 -20.844  1.00  0.00     0.010 C 
HETATM    2  C2  UNL     1      -6.347  45.624 -20.663  1.00  0.00    -0.014 C 
HETATM    3  C3  UNL     1      -7.507  45.434 -19.683  1.00  0.00     0.030 C 
HETATM    4  C4  UNL     1      -8.656  46.399 -19.944  1.00  0.00     0.169 C 
HETATM    5  O1  UNL     1      -8.189  47.607 -20.539  1.00  0.00    -0.377 OA
HETATM    6  C5  UNL     1      -7.717  47.452 -21.893  1.00  0.00     0.094 C 
HETATM    7  C41 UNL     1      -6.851  46.164 -22.007  1.00  0.00     0.045 C 
ENDROOT
BRANCH   6   8
HETATM    8  C6  UNL     1      -6.912  48.749 -22.265  1.00  0.00     0.035 C 
HETATM    9  C7  UNL     1      -6.449  49.601 -20.993  1.00  0.00     0.016 C 
HETATM   10  C8  UNL     1      -5.058  50.143 -21.347  1.00  0.00     0.026 C 
HETATM   11  C9  UNL     1      -4.526  51.459 -20.815  1.00  0.00     0.013 C 
HETATM   12  C18 UNL     1      -5.111  50.167 -22.869  1.00  0.00     0.094 C 
HETATM   13  C10 UNL     1      -3.087  51.638 -21.379  1.00  0.00     0.043 C 
HETATM   14  C11 UNL     1      -2.901  51.193 -22.824  1.00  0.00    -0.006 C 
HETATM   15  C12 UNL     1      -3.854  50.587 -23.551  1.00  0.00    -0.030 C 
HETATM   16  C26 UNL     1      -1.588  51.444 -23.468  1.00  0.00     0.161 C 
HETATM   17  C13 UNL     1      -3.855  50.356 -25.054  1.00  0.00     0.027 C 
HETATM   18  C14 UNL     1      -4.428  48.953 -25.409  1.00  0.00     0.011 C 
HETATM   19  C19 UNL     1      -2.512  50.794 -25.771  1.00  0.00    -0.026 C 
HETATM   20  C15 UNL     1      -5.766  48.624 -24.688  1.00  0.00     0.014 C 
HETATM   21  C16 UNL     1      -5.606  48.722 -23.159  1.00  0.00    -0.002 C 
HETATM   22  C17 UNL     1      -4.587  47.637 -22.704  1.00  0.00     0.019 C 
HETATM   23  C20 UNL     1      -2.236  49.902 -27.008  1.00  0.00     0.016 C 
HETATM   24  C21 UNL     1      -2.674  52.269 -26.262  1.00  0.00     0.013 C 
HETATM   25  C25 UNL     1      -1.298  50.736 -24.798  1.00  0.00     0.071 C 
HETATM   26  C22 UNL     1      -1.407  52.861 -26.878  1.00  0.00     0.032 C 
HETATM   27  C23 UNL     1      -0.198  52.733 -25.957  1.00  0.00     0.119 C 
HETATM   28  C24 UNL     1      -0.012  51.311 -25.424  1.00  0.00     0.045 C 
HETATM   29  O4  UNL     1      -0.758  52.138 -22.884  1.00  0.00    -0.292 OA
BRANCH  27  30
HETATM   30  O3  UNL     1       0.971  53.135 -26.668  1.00  0.00    -0.396 OA
HETATM   31  H34 UNL     1       1.131  52.492 -27.379  1.00  0.00     0.210 HD
ENDBRANCH  27  30
BRANCH  12  32
HETATM   32  O2  UNL     1      -6.098  51.121 -23.304  1.00  0.00    -0.384 OA
HETATM   33  H25 UNL     1      -5.735  52.014 -23.181  1.00  0.00     0.211 HD
ENDBRANCH  12  32
ENDBRANCH   6   8
BRANCH   6  34
HETATM   34  C27 UNL     1      -8.975  47.386 -22.784  1.00  0.00     0.189 A 
HETATM   35  O5  UNL     1      -9.161  48.516 -23.668  1.00  0.00    -0.369 OA
HETATM   36  C28 UNL     1      -9.002  47.259 -24.314  1.00  0.00     0.189 A 
BRANCH  36  37
HETATM   37  C29 UNL     1     -10.203  46.739 -25.090  1.00  0.00     0.092 C 
HETATM   38  C30 UNL     1     -11.514  46.815 -24.279  1.00  0.00     0.049 C 
BRANCH  37  39
HETATM   39  O6  UNL     1      -9.944  45.335 -25.303  1.00  0.00    -0.387 OA
HETATM   40  H43 UNL     1     -10.041  44.887 -24.445  1.00  0.00     0.210 HD
ENDBRANCH  37  39
BRANCH  37  41
HETATM   41  C31 UNL     1     -10.336  47.436 -26.531  1.00  0.00     0.011 C 
HETATM   42  C32 UNL     1      -9.781  46.477 -27.615  1.00  0.00     0.020 C 
BRANCH  41  43
HETATM   43  C33 UNL     1      -9.477  48.738 -26.616  1.00  0.00     0.176 C 
BRANCH  43  44
HETATM   44  O7  UNL     1     -10.131  49.888 -26.093  1.00  0.00    -0.400 OA
HETATM   45  H49 UNL     1     -11.097  49.738 -26.175  1.00  0.00     0.209 HD
ENDBRANCH  43  44
ENDBRANCH  41  43
BRANCH  41  46
HETATM   46  C34 UNL     1     -11.835  47.792 -26.818  1.00  0.00     0.019 C 
BRANCH  46  47
HETATM   47  C35 UNL     1     -12.586  47.026 -27.926  1.00  0.00     0.039 C 
BRANCH  47  48
HETATM   48  C36 UNL     1     -13.882  46.372 -27.517  1.00  0.00    -0.054 A 
HETATM   49  C37 UNL     1     -14.386  46.502 -26.224  1.00  0.00     0.024 A 
HETATM   50  C38 UNL     1     -15.587  45.886 -25.918  1.00  0.00     0.090 A 
HETATM   51  N1  UNL     1     -16.312  45.168 -26.800  1.00  0.00    -0.357 N 
HETATM   52  C39 UNL     1     -15.836  45.056 -28.048  1.00  0.00     0.077 A 
ATOM     53  H1  UNL     1     -17.191  44.727 -26.528  1.00  0.00     0.166 HD
HETATM   54  C40 UNL     1     -14.638  45.646 -28.445  1.00  0.00     0.049 A 
BRANCH  52  55
HETATM   55  N2  UNL     1     -16.599  44.331 -28.970  1.00  0.00    -0.289 NA
HETATM   56  H56 UNL     1     -16.042  43.578 -29.357  1.00  0.00     0.125 HD
HETATM   57  H57 UNL     1     -16.878  44.943 -29.729  1.00  0.00     0.125 HD
ENDBRANCH  52  55
ENDBRANCH  47  48
ENDBRANCH  46  47
ENDBRANCH  41  46
ENDBRANCH  37  41
ENDBRANCH  36  37
ENDBRANCH   6  34
TORSDOF 13
ENDMDL
