MODEL 1
REMARK minimizedAffinity -9.51543331
REMARK  4 active torsions:
REMARK  status: ('A' for Active; 'I' for Inactive)
REMARK    1  A    between atoms: C4_4  and  C5_5 
REMARK    2  A    between atoms: C5_5  and  C6_6 
REMARK    3  A    between atoms: C6_6  and  C7_7 
REMARK    4  A    between atoms: C7_7  and  C9_9 
ROOT
HETATM    1  C9  UNL     1      -3.034  48.161 -19.483  1.00  0.00    -0.002 C 
HETATM    2  C10 UNL     1      -3.638  47.066 -20.416  1.00  0.00     0.007 C 
HETATM    3  C11 UNL     1      -3.507  47.566 -21.867  1.00  0.00     0.015 C 
HETATM    4  C12 UNL     1      -3.141  49.056 -21.739  1.00  0.00    -0.013 C 
HETATM    5  C13 UNL     1      -4.489  49.819 -21.529  1.00  0.00     0.021 C 
HETATM    6  C14 UNL     1      -2.460  49.728 -22.928  1.00  0.00    -0.070 C 
HETATM    7  C15 UNL     1      -2.724  49.373 -24.197  1.00  0.00    -0.022 C 
HETATM    8  C16 UNL     1      -2.178  50.067 -25.405  1.00  0.00     0.034 C 
HETATM    9  C17 UNL     1      -1.058  51.092 -25.115  1.00  0.00     0.013 C 
HETATM   10  C18 UNL     1      -0.672  51.943 -26.380  1.00  0.00     0.018 C 
HETATM   11  C19 UNL     1      -1.858  52.336 -27.284  1.00  0.00     0.023 C 
HETATM   12  C20 UNL     1       0.318  51.141 -27.255  1.00  0.00     0.023 C 
HETATM   13  C21 UNL     1       0.064  53.213 -25.940  1.00  0.00     0.135 C 
HETATM   14  O1  UNL     1       0.115  54.229 -26.633  1.00  0.00    -0.297 OA
HETATM   15  C22 UNL     1       0.811  53.134 -24.638  1.00  0.00     0.080 C 
HETATM   16  C23 UNL     1      -0.132  52.858 -23.478  1.00  0.00     0.017 C 
HETATM   17  C24 UNL     1      -1.335  51.912 -23.796  1.00  0.00    -0.031 C 
HETATM   18  C25 UNL     1      -2.608  52.783 -23.929  1.00  0.00     0.016 C 
HETATM   19  C26 UNL     1      -1.487  50.867 -22.613  1.00  0.00     0.024 C 
HETATM   20  C27 UNL     1      -1.742  51.490 -21.219  1.00  0.00     0.010 C 
HETATM   21  C28 UNL     1      -1.903  50.482 -20.052  1.00  0.00     0.011 C 
HETATM   22  C29 UNL     1      -2.195  49.029 -20.485  1.00  0.00    -0.029 C 
HETATM   23  C30 UNL     1      -0.840  48.295 -20.738  1.00  0.00     0.016 C 
ENDROOT
BRANCH   1  24
HETATM   24  C7  UNL     1      -2.348  47.537 -18.232  1.00  0.00    -0.014 C 
HETATM   25  C8  UNL     1      -3.128  46.310 -17.724  1.00  0.00     0.010 C 
BRANCH  24  26
HETATM   26  C6  UNL     1      -2.101  48.522 -17.063  1.00  0.00     0.008 C 
BRANCH  26  27
HETATM   27  C5  UNL     1      -0.632  48.851 -16.781  1.00  0.00     0.028 C 
BRANCH  27  28
HETATM   28  C4  UNL     1      -0.048  50.149 -17.289  1.00  0.00    -0.025 C 
HETATM   29  C2  UNL     1       0.730  51.094 -16.723  1.00  0.00    -0.091 C 
HETATM   30  C1  UNL     1       1.121  52.318 -17.515  1.00  0.00     0.042 C 
HETATM   31  C3  UNL     1       1.286  51.058 -15.330  1.00  0.00     0.042 C 
ENDBRANCH  27  28
ENDBRANCH  26  27
ENDBRANCH  24  26
ENDBRANCH   1  24
TORSDOF 4
ENDMDL
MODEL 2
REMARK minimizedAffinity -9.00279999
REMARK  4 active torsions:
REMARK  status: ('A' for Active; 'I' for Inactive)
REMARK    1  A    between atoms: C4_4  and  C5_5 
REMARK    2  A    between atoms: C5_5  and  C6_6 
REMARK    3  A    between atoms: C6_6  and  C7_7 
REMARK    4  A    between atoms: C7_7  and  C9_9 
ROOT
HETATM    1  C9  UNL     1      -1.145  50.860 -21.249  1.00  0.00    -0.002 C 
HETATM    2  C10 UNL     1      -0.568  49.508 -20.730  1.00  0.00     0.007 C 
HETATM    3  C11 UNL     1      -1.697  48.463 -20.795  1.00  0.00     0.015 C 
HETATM    4  C12 UNL     1      -2.980  49.283 -21.032  1.00  0.00    -0.013 C 
HETATM    5  C13 UNL     1      -3.439  49.788 -19.626  1.00  0.00     0.021 C 
HETATM    6  C14 UNL     1      -4.185  48.565 -21.634  1.00  0.00    -0.070 C 
HETATM    7  C15 UNL     1      -4.444  47.270 -21.383  1.00  0.00    -0.022 C 
HETATM    8  C16 UNL     1      -5.665  46.543 -21.850  1.00  0.00     0.034 C 
HETATM    9  C17 UNL     1      -6.525  47.310 -22.880  1.00  0.00     0.013 C 
HETATM   10  C18 UNL     1      -7.899  46.600 -23.171  1.00  0.00     0.018 C 
HETATM   11  C19 UNL     1      -8.568  45.953 -21.943  1.00  0.00     0.023 C 
HETATM   12  C20 UNL     1      -7.685  45.480 -24.214  1.00  0.00     0.023 C 
HETATM   13  C21 UNL     1      -8.871  47.603 -23.800  1.00  0.00     0.135 C 
HETATM   14  O1  UNL     1     -10.094  47.468 -23.753  1.00  0.00    -0.297 OA
HETATM   15  C22 UNL     1      -8.255  48.737 -24.571  1.00  0.00     0.080 C 
HETATM   16  C23 UNL     1      -7.390  49.608 -23.672  1.00  0.00     0.017 C 
HETATM   17  C24 UNL     1      -6.606  48.851 -22.552  1.00  0.00    -0.031 C 
HETATM   18  C25 UNL     1      -7.328  49.105 -21.206  1.00  0.00     0.016 C 
HETATM   19  C26 UNL     1      -5.120  49.403 -22.509  1.00  0.00     0.024 C 
HETATM   20  C27 UNL     1      -4.995  50.919 -22.221  1.00  0.00     0.010 C 
HETATM   21  C28 UNL     1      -3.549  51.474 -22.166  1.00  0.00     0.011 C 
HETATM   22  C29 UNL     1      -2.448  50.405 -21.995  1.00  0.00    -0.029 C 
HETATM   23  C30 UNL     1      -2.034  49.876 -23.405  1.00  0.00     0.016 C 
ENDROOT
BRANCH   1  24
HETATM   24  C7  UNL     1      -0.068  51.694 -22.006  1.00  0.00    -0.014 C 
HETATM   25  C8  UNL     1       0.667  52.651 -21.049  1.00  0.00     0.010 C 
BRANCH  24  26
HETATM   26  C6  UNL     1      -0.592  52.478 -23.234  1.00  0.00     0.008 C 
BRANCH  26  27
HETATM   27  C5  UNL     1       0.467  52.856 -24.272  1.00  0.00     0.028 C 
BRANCH  27  28
HETATM   28  C4  UNL     1       0.267  52.464 -25.718  1.00  0.00    -0.025 C 
HETATM   29  C2  UNL     1       1.053  51.849 -26.624  1.00  0.00    -0.091 C 
HETATM   30  C1  UNL     1       0.550  51.630 -28.030  1.00  0.00     0.042 C 
HETATM   31  C3  UNL     1       2.437  51.325 -26.377  1.00  0.00     0.042 C 
ENDBRANCH  27  28
ENDBRANCH  26  27
ENDBRANCH  24  26
ENDBRANCH   1  24
TORSDOF 4
ENDMDL
MODEL 3
REMARK minimizedAffinity -8.63260937
REMARK  4 active torsions:
REMARK  status: ('A' for Active; 'I' for Inactive)
REMARK    1  A    between atoms: C4_4  and  C5_5 
REMARK    2  A    between atoms: C5_5  and  C6_6 
REMARK    3  A    between atoms: C6_6  and  C7_7 
REMARK    4  A    between atoms: C7_7  and  C9_9 
ROOT
HETATM    1  C9  UNL     1      -1.632  51.182 -22.183  1.00  0.00    -0.002 C 
HETATM    2  C10 UNL     1      -0.935  49.895 -21.645  1.00  0.00     0.007 C 
HETATM    3  C11 UNL     1      -1.999  48.784 -21.571  1.00  0.00     0.015 C 
HETATM    4  C12 UNL     1      -3.344  49.514 -21.746  1.00  0.00    -0.013 C 
HETATM    5  C13 UNL     1      -3.727  50.066 -20.335  1.00  0.00     0.021 C 
HETATM    6  C14 UNL     1      -4.543  48.696 -22.216  1.00  0.00    -0.070 C 
HETATM    7  C15 UNL     1      -4.702  47.403 -21.882  1.00  0.00    -0.022 C 
HETATM    8  C16 UNL     1      -5.907  46.582 -22.215  1.00  0.00     0.034 C 
HETATM    9  C17 UNL     1      -6.888  47.241 -23.211  1.00  0.00     0.013 C 
HETATM   10  C18 UNL     1      -8.233  46.438 -23.359  1.00  0.00     0.018 C 
HETATM   11  C19 UNL     1      -8.767  45.820 -22.052  1.00  0.00     0.023 C 
HETATM   12  C20 UNL     1      -8.030  45.278 -24.359  1.00  0.00     0.023 C 
HETATM   13  C21 UNL     1      -9.311  47.348 -23.958  1.00  0.00     0.135 C 
HETATM   14  O1  UNL     1     -10.516  47.143 -23.808  1.00  0.00    -0.297 OA
HETATM   15  C22 UNL     1      -8.827  48.473 -24.828  1.00  0.00     0.080 C 
HETATM   16  C23 UNL     1      -7.952  49.439 -24.045  1.00  0.00     0.017 C 
HETATM   17  C24 UNL     1      -7.041  48.790 -22.953  1.00  0.00    -0.031 C 
HETATM   18  C25 UNL     1      -7.673  49.073 -21.569  1.00  0.00     0.016 C 
HETATM   19  C26 UNL     1      -5.593  49.429 -23.054  1.00  0.00     0.024 C 
HETATM   20  C27 UNL     1      -5.540  50.964 -22.852  1.00  0.00     0.010 C 
HETATM   21  C28 UNL     1      -4.132  51.604 -22.937  1.00  0.00     0.011 C 
HETATM   22  C29 UNL     1      -2.957  50.612 -22.801  1.00  0.00    -0.029 C 
HETATM   23  C30 UNL     1      -2.619  50.033 -24.212  1.00  0.00     0.016 C 
ENDROOT
BRANCH   1  24
HETATM   24  C7  UNL     1      -0.670  52.035 -23.062  1.00  0.00    -0.014 C 
HETATM   25  C8  UNL     1      -0.452  51.384 -24.440  1.00  0.00     0.010 C 
BRANCH  24  26
HETATM   26  C6  UNL     1       0.698  52.355 -22.410  1.00  0.00     0.008 C 
BRANCH  26  27
HETATM   27  C5  UNL     1       0.676  53.453 -21.343  1.00  0.00     0.028 C 
BRANCH  27  28
HETATM   28  C4  UNL     1       1.072  53.119 -19.923  1.00  0.00    -0.025 C 
HETATM   29  C2  UNL     1       0.393  52.622 -18.869  1.00  0.00    -0.091 C 
HETATM   30  C1  UNL     1       1.094  52.433 -17.546  1.00  0.00     0.042 C 
HETATM   31  C3  UNL     1      -1.049  52.208 -18.867  1.00  0.00     0.042 C 
ENDBRANCH  27  28
ENDBRANCH  26  27
ENDBRANCH  24  26
ENDBRANCH   1  24
TORSDOF 4
ENDMDL
MODEL 4
REMARK minimizedAffinity -8.63203335
REMARK  4 active torsions:
REMARK  status: ('A' for Active; 'I' for Inactive)
REMARK    1  A    between atoms: C4_4  and  C5_5 
REMARK    2  A    between atoms: C5_5  and  C6_6 
REMARK    3  A    between atoms: C6_6  and  C7_7 
REMARK    4  A    between atoms: C7_7  and  C9_9 
ROOT
HETATM    1  C9  UNL     1      -1.702  50.802 -21.738  1.00  0.00    -0.002 C 
HETATM    2  C10 UNL     1      -1.051  52.206 -21.933  1.00  0.00     0.007 C 
HETATM    3  C11 UNL     1      -0.372  52.592 -20.606  1.00  0.00     0.015 C 
HETATM    4  C12 UNL     1      -0.909  51.580 -19.578  1.00  0.00    -0.013 C 
HETATM    5  C13 UNL     1      -2.293  52.132 -19.106  1.00  0.00     0.021 C 
HETATM    6  C14 UNL     1      -0.094  51.351 -18.308  1.00  0.00    -0.070 C 
HETATM    7  C15 UNL     1       0.624  52.331 -17.734  1.00  0.00    -0.022 C 
HETATM    8  C16 UNL     1       1.350  52.202 -16.432  1.00  0.00     0.034 C 
HETATM    9  C17 UNL     1       1.445  50.761 -15.882  1.00  0.00     0.013 C 
HETATM   10  C18 UNL     1       2.021  50.707 -14.418  1.00  0.00     0.018 C 
HETATM   11  C19 UNL     1       1.559  51.852 -13.497  1.00  0.00     0.023 C 
HETATM   12  C20 UNL     1       3.564  50.765 -14.474  1.00  0.00     0.023 C 
HETATM   13  C21 UNL     1       1.657  49.367 -13.772  1.00  0.00     0.135 C 
HETATM   14  O1  UNL     1       1.604  49.206 -12.553  1.00  0.00    -0.297 OA
HETATM   15  C22 UNL     1       1.449  48.209 -14.707  1.00  0.00     0.080 C 
HETATM   16  C23 UNL     1       0.287  48.466 -15.653  1.00  0.00     0.017 C 
HETATM   17  C24 UNL     1       0.115  49.947 -16.123  1.00  0.00    -0.031 C 
HETATM   18  C25 UNL     1      -1.073  50.563 -15.346  1.00  0.00     0.016 C 
HETATM   19  C26 UNL     1      -0.166  49.955 -17.684  1.00  0.00     0.024 C 
HETATM   20  C27 UNL     1      -1.430  49.178 -18.125  1.00  0.00     0.010 C 
HETATM   21  C28 UNL     1      -1.725  49.184 -19.647  1.00  0.00     0.011 C 
HETATM   22  C29 UNL     1      -0.982  50.274 -20.449  1.00  0.00    -0.029 C 
HETATM   23  C30 UNL     1       0.418  49.724 -20.871  1.00  0.00     0.016 C 
ENDROOT
BRANCH   1  24
HETATM   24  C7  UNL     1      -1.663  49.961 -23.049  1.00  0.00    -0.014 C 
HETATM   25  C8  UNL     1      -1.692  50.870 -24.293  1.00  0.00     0.010 C 
BRANCH  24  26
HETATM   26  C6  UNL     1      -2.763  48.878 -23.165  1.00  0.00     0.008 C 
BRANCH  26  27
HETATM   27  C5  UNL     1      -4.135  49.382 -23.622  1.00  0.00     0.028 C 
BRANCH  27  28
HETATM   28  C4  UNL     1      -4.713  48.888 -24.928  1.00  0.00    -0.025 C 
HETATM   29  C2  UNL     1      -4.159  48.517 -26.100  1.00  0.00    -0.091 C 
HETATM   30  C1  UNL     1      -5.042  48.093 -27.248  1.00  0.00     0.042 C 
HETATM   31  C3  UNL     1      -2.690  48.468 -26.403  1.00  0.00     0.042 C 
ENDBRANCH  27  28
ENDBRANCH  26  27
ENDBRANCH  24  26
ENDBRANCH   1  24
TORSDOF 4
ENDMDL
MODEL 5
REMARK minimizedAffinity -8.62442589
REMARK  4 active torsions:
REMARK  status: ('A' for Active; 'I' for Inactive)
REMARK    1  A    between atoms: C4_4  and  C5_5 
REMARK    2  A    between atoms: C5_5  and  C6_6 
REMARK    3  A    between atoms: C6_6  and  C7_7 
REMARK    4  A    between atoms: C7_7  and  C9_9 
ROOT
HETATM    1  C9  UNL     1      -1.469  51.131 -23.483  1.00  0.00    -0.002 C 
HETATM    2  C10 UNL     1      -2.422  52.261 -23.980  1.00  0.00     0.007 C 
HETATM    3  C11 UNL     1      -3.863  51.840 -23.640  1.00  0.00     0.015 C 
HETATM    4  C12 UNL     1      -3.759  50.351 -23.257  1.00  0.00    -0.013 C 
HETATM    5  C13 UNL     1      -3.774  49.554 -24.601  1.00  0.00     0.021 C 
HETATM    6  C14 UNL     1      -4.874  49.754 -22.403  1.00  0.00    -0.070 C 
HETATM    7  C15 UNL     1      -6.149  50.169 -22.500  1.00  0.00    -0.022 C 
HETATM    8  C16 UNL     1      -7.302  49.548 -21.776  1.00  0.00     0.034 C 
HETATM    9  C17 UNL     1      -6.909  48.531 -20.681  1.00  0.00     0.013 C 
HETATM   10  C18 UNL     1      -8.149  47.752 -20.104  1.00  0.00     0.018 C 
HETATM   11  C19 UNL     1      -9.226  47.385 -21.145  1.00  0.00     0.023 C 
HETATM   12  C20 UNL     1      -8.839  48.616 -19.025  1.00  0.00     0.023 C 
HETATM   13  C21 UNL     1      -7.674  46.476 -19.404  1.00  0.00     0.135 C 
HETATM   14  O1  UNL     1      -8.401  45.497 -19.233  1.00  0.00    -0.297 OA
HETATM   15  C22 UNL     1      -6.279  46.501 -18.845  1.00  0.00     0.080 C 
HETATM   16  C23 UNL     1      -5.248  46.699 -19.944  1.00  0.00     0.017 C 
HETATM   17  C24 UNL     1      -5.683  47.638 -21.116  1.00  0.00    -0.031 C 
HETATM   18  C25 UNL     1      -6.033  46.753 -22.336  1.00  0.00     0.016 C 
HETATM   19  C26 UNL     1      -4.483  48.618 -21.454  1.00  0.00     0.024 C 
HETATM   20  C27 UNL     1      -3.169  47.920 -21.882  1.00  0.00     0.010 C 
HETATM   21  C28 UNL     1      -1.989  48.863 -22.227  1.00  0.00     0.011 C 
HETATM   22  C29 UNL     1      -2.386  50.331 -22.493  1.00  0.00    -0.029 C 
HETATM   23  C30 UNL     1      -2.414  51.101 -21.134  1.00  0.00     0.016 C 
ENDROOT
BRANCH   1  24
HETATM   24  C7  UNL     1      -0.106  51.702 -22.990  1.00  0.00    -0.014 C 
HETATM   25  C8  UNL     1       0.099  51.432 -21.488  1.00  0.00     0.010 C 
BRANCH  24  26
HETATM   26  C6  UNL     1       0.119  53.205 -23.289  1.00  0.00     0.008 C 
BRANCH  26  27
HETATM   27  C5  UNL     1       0.961  53.508 -24.531  1.00  0.00     0.028 C 
BRANCH  27  28
HETATM   28  C4  UNL     1       0.547  52.939 -25.869  1.00  0.00    -0.025 C 
HETATM   29  C2  UNL     1       1.131  52.075 -26.724  1.00  0.00    -0.091 C 
HETATM   30  C1  UNL     1       0.450  51.730 -28.026  1.00  0.00     0.042 C 
HETATM   31  C3  UNL     1       2.442  51.377 -26.512  1.00  0.00     0.042 C 
ENDBRANCH  27  28
ENDBRANCH  26  27
ENDBRANCH  24  26
ENDBRANCH   1  24
TORSDOF 4
ENDMDL
MODEL 6
REMARK minimizedAffinity -8.57681465
REMARK  4 active torsions:
REMARK  status: ('A' for Active; 'I' for Inactive)
REMARK    1  A    between atoms: C4_4  and  C5_5 
REMARK    2  A    between atoms: C5_5  and  C6_6 
REMARK    3  A    between atoms: C6_6  and  C7_7 
REMARK    4  A    between atoms: C7_7  and  C9_9 
ROOT
HETATM    1  C9  UNL     1      -0.940  50.384 -20.078  1.00  0.00    -0.002 C 
HETATM    2  C10 UNL     1      -0.411  50.666 -21.518  1.00  0.00     0.007 C 
HETATM    3  C11 UNL     1      -1.436  50.091 -22.513  1.00  0.00     0.015 C 
HETATM    4  C12 UNL     1      -2.363  49.207 -21.657  1.00  0.00    -0.013 C 
HETATM    5  C13 UNL     1      -1.636  47.831 -21.509  1.00  0.00     0.021 C 
HETATM    6  C14 UNL     1      -3.752  48.891 -22.204  1.00  0.00    -0.070 C 
HETATM    7  C15 UNL     1      -3.988  48.756 -23.520  1.00  0.00    -0.022 C 
HETATM    8  C16 UNL     1      -5.298  48.337 -24.110  1.00  0.00     0.034 C 
HETATM    9  C17 UNL     1      -6.479  48.305 -23.113  1.00  0.00     0.013 C 
HETATM   10  C18 UNL     1      -7.773  47.655 -23.727  1.00  0.00     0.018 C 
HETATM   11  C19 UNL     1      -7.517  46.449 -24.653  1.00  0.00     0.023 C 
HETATM   12  C20 UNL     1      -8.532  48.712 -24.560  1.00  0.00     0.023 C 
HETATM   13  C21 UNL     1      -8.717  47.228 -22.599  1.00  0.00     0.135 C 
HETATM   14  O1  UNL     1      -9.573  46.353 -22.740  1.00  0.00    -0.297 OA
HETATM   15  C22 UNL     1      -8.613  47.998 -21.313  1.00  0.00     0.080 C 
HETATM   16  C23 UNL     1      -7.235  47.845 -20.690  1.00  0.00     0.017 C 
HETATM   17  C24 UNL     1      -6.044  47.759 -21.699  1.00  0.00    -0.031 C 
HETATM   18  C25 UNL     1      -5.588  46.282 -21.778  1.00  0.00     0.016 C 
HETATM   19  C26 UNL     1      -4.868  48.686 -21.177  1.00  0.00     0.024 C 
HETATM   20  C27 UNL     1      -4.318  48.319 -19.776  1.00  0.00     0.010 C 
HETATM   21  C28 UNL     1      -3.161  49.208 -19.254  1.00  0.00     0.011 C 
HETATM   22  C29 UNL     1      -2.452  50.052 -20.336  1.00  0.00    -0.029 C 
HETATM   23  C30 UNL     1      -3.218  51.403 -20.506  1.00  0.00     0.016 C 
ENDROOT
BRANCH   1  24
HETATM   24  C7  UNL     1      -0.552  51.522 -19.088  1.00  0.00    -0.014 C 
HETATM   25  C8  UNL     1       0.280  52.611 -19.791  1.00  0.00     0.010 C 
BRANCH  24  26
HETATM   26  C6  UNL     1       0.175  51.052 -17.805  1.00  0.00     0.008 C 
BRANCH  26  27
HETATM   27  C5  UNL     1       0.709  52.170 -16.906  1.00  0.00     0.028 C 
BRANCH  27  28
HETATM   28  C4  UNL     1       2.197  52.424 -16.837  1.00  0.00    -0.025 C 
HETATM   29  C2  UNL     1       3.131  52.188 -15.893  1.00  0.00    -0.091 C 
HETATM   30  C1  UNL     1       4.562  52.603 -16.131  1.00  0.00     0.042 C 
HETATM   31  C3  UNL     1       2.895  51.520 -14.570  1.00  0.00     0.042 C 
ENDBRANCH  27  28
ENDBRANCH  26  27
ENDBRANCH  24  26
ENDBRANCH   1  24
TORSDOF 4
ENDMDL
MODEL 7
REMARK minimizedAffinity -8.52235222
REMARK  4 active torsions:
REMARK  status: ('A' for Active; 'I' for Inactive)
REMARK    1  A    between atoms: C4_4  and  C5_5 
REMARK    2  A    between atoms: C5_5  and  C6_6 
REMARK    3  A    between atoms: C6_6  and  C7_7 
REMARK    4  A    between atoms: C7_7  and  C9_9 
ROOT
HETATM    1  C9  UNL     1      -6.361  47.986 -22.248  1.00  0.00    -0.002 C 
HETATM    2  C10 UNL     1      -6.985  48.257 -20.845  1.00  0.00     0.007 C 
HETATM    3  C11 UNL     1      -5.938  49.013 -20.007  1.00  0.00     0.015 C 
HETATM    4  C12 UNL     1      -4.626  48.882 -20.803  1.00  0.00    -0.013 C 
HETATM    5  C13 UNL     1      -4.023  47.492 -20.422  1.00  0.00     0.021 C 
HETATM    6  C14 UNL     1      -3.525  49.905 -20.537  1.00  0.00    -0.070 C 
HETATM    7  C15 UNL     1      -3.335  50.451 -19.324  1.00  0.00    -0.022 C 
HETATM    8  C16 UNL     1      -2.206  51.369 -18.973  1.00  0.00     0.034 C 
HETATM    9  C17 UNL     1      -1.382  51.875 -20.178  1.00  0.00     0.013 C 
HETATM   10  C18 UNL     1      -0.087  52.655 -19.741  1.00  0.00     0.018 C 
HETATM   11  C19 UNL     1       0.633  52.078 -18.506  1.00  0.00     0.023 C 
HETATM   12  C20 UNL     1      -0.458  54.117 -19.407  1.00  0.00     0.023 C 
HETATM   13  C21 UNL     1       0.898  52.711 -20.913  1.00  0.00     0.135 C 
HETATM   14  O1  UNL     1       2.109  52.875 -20.761  1.00  0.00    -0.297 OA
HETATM   15  C22 UNL     1       0.301  52.644 -22.291  1.00  0.00     0.080 C 
HETATM   16  C23 UNL     1      -0.428  51.329 -22.512  1.00  0.00     0.017 C 
HETATM   17  C24 UNL     1      -1.170  50.750 -21.263  1.00  0.00    -0.031 C 
HETATM   18  C25 UNL     1      -0.328  49.578 -20.706  1.00  0.00     0.016 C 
HETATM   19  C26 UNL     1      -2.607  50.251 -21.712  1.00  0.00     0.024 C 
HETATM   20  C27 UNL     1      -2.606  49.152 -22.802  1.00  0.00     0.010 C 
HETATM   21  C28 UNL     1      -4.002  48.645 -23.246  1.00  0.00     0.011 C 
HETATM   22  C29 UNL     1      -5.156  48.989 -22.279  1.00  0.00    -0.029 C 
HETATM   23  C30 UNL     1      -5.715  50.402 -22.642  1.00  0.00     0.016 C 
ENDROOT
BRANCH   1  24
HETATM   24  C7  UNL     1      -7.436  48.029 -23.375  1.00  0.00    -0.014 C 
HETATM   25  C8  UNL     1      -8.849  47.812 -22.803  1.00  0.00     0.010 C 
BRANCH  24  26
HETATM   26  C6  UNL     1      -7.189  47.052 -24.551  1.00  0.00     0.008 C 
BRANCH  26  27
HETATM   27  C5  UNL     1      -6.772  47.705 -25.871  1.00  0.00     0.028 C 
BRANCH  27  28
HETATM   28  C4  UNL     1      -5.336  48.133 -26.069  1.00  0.00    -0.025 C 
HETATM   29  C2  UNL     1      -4.567  48.304 -27.163  1.00  0.00    -0.091 C 
HETATM   30  C1  UNL     1      -3.124  48.720 -27.010  1.00  0.00     0.042 C 
HETATM   31  C3  UNL     1      -5.009  48.126 -28.586  1.00  0.00     0.042 C 
ENDBRANCH  27  28
ENDBRANCH  26  27
ENDBRANCH  24  26
ENDBRANCH   1  24
TORSDOF 4
ENDMDL
MODEL 8
REMARK minimizedAffinity -8.39981174
REMARK  4 active torsions:
REMARK  status: ('A' for Active; 'I' for Inactive)
REMARK    1  A    between atoms: C4_4  and  C5_5 
REMARK    2  A    between atoms: C5_5  and  C6_6 
REMARK    3  A    between atoms: C6_6  and  C7_7 
REMARK    4  A    between atoms: C7_7  and  C9_9 
ROOT
HETATM    1  C9  UNL     1      -1.401  51.303 -25.912  1.00  0.00    -0.002 C 
HETATM    2  C10 UNL     1      -2.452  51.154 -27.055  1.00  0.00     0.007 C 
HETATM    3  C11 UNL     1      -3.625  50.322 -26.505  1.00  0.00     0.015 C 
HETATM    4  C12 UNL     1      -3.103  49.729 -25.183  1.00  0.00    -0.013 C 
HETATM    5  C13 UNL     1      -2.293  48.450 -25.570  1.00  0.00     0.021 C 
HETATM    6  C14 UNL     1      -4.130  49.278 -24.148  1.00  0.00    -0.070 C 
HETATM    7  C15 UNL     1      -5.324  48.771 -24.501  1.00  0.00    -0.022 C 
HETATM    8  C16 UNL     1      -6.324  48.207 -23.541  1.00  0.00     0.034 C 
HETATM    9  C17 UNL     1      -6.015  48.473 -22.050  1.00  0.00     0.013 C 
HETATM   10  C18 UNL     1      -6.971  47.681 -21.083  1.00  0.00     0.018 C 
HETATM   11  C19 UNL     1      -7.334  46.258 -21.550  1.00  0.00     0.023 C 
HETATM   12  C20 UNL     1      -8.297  48.458 -20.925  1.00  0.00     0.023 C 
HETATM   13  C21 UNL     1      -6.341  47.604 -19.689  1.00  0.00     0.135 C 
HETATM   14  O1  UNL     1      -6.635  46.733 -18.870  1.00  0.00    -0.297 OA
HETATM   15  C22 UNL     1      -5.395  48.713 -19.321  1.00  0.00     0.080 C 
HETATM   16  C23 UNL     1      -4.189  48.737 -20.247  1.00  0.00     0.017 C 
HETATM   17  C24 UNL     1      -4.474  48.356 -21.736  1.00  0.00    -0.031 C 
HETATM   18  C25 UNL     1      -3.957  46.916 -21.970  1.00  0.00     0.016 C 
HETATM   19  C26 UNL     1      -3.721  49.386 -22.677  1.00  0.00     0.024 C 
HETATM   20  C27 UNL     1      -2.184  49.435 -22.496  1.00  0.00     0.010 C 
HETATM   21  C28 UNL     1      -1.431  50.430 -23.415  1.00  0.00     0.011 C 
HETATM   22  C29 UNL     1      -2.235  50.921 -24.639  1.00  0.00    -0.029 C 
HETATM   23  C30 UNL     1      -3.076  52.170 -24.223  1.00  0.00     0.016 C 
ENDROOT
BRANCH   1  24
HETATM   24  C7  UNL     1      -0.669  52.676 -25.977  1.00  0.00    -0.014 C 
HETATM   25  C8  UNL     1      -0.542  53.169 -27.430  1.00  0.00     0.010 C 
BRANCH  24  26
HETATM   26  C6  UNL     1       0.717  52.711 -25.288  1.00  0.00     0.008 C 
BRANCH  26  27
HETATM   27  C5  UNL     1       0.767  53.457 -23.952  1.00  0.00     0.028 C 
BRANCH  27  28
HETATM   28  C4  UNL     1       0.394  52.732 -22.679  1.00  0.00    -0.025 C 
HETATM   29  C2  UNL     1       0.614  52.988 -21.374  1.00  0.00    -0.091 C 
HETATM   30  C1  UNL     1       0.121  52.020 -20.325  1.00  0.00     0.042 C 
HETATM   31  C3  UNL     1       1.321  54.189 -20.819  1.00  0.00     0.042 C 
ENDBRANCH  27  28
ENDBRANCH  26  27
ENDBRANCH  24  26
ENDBRANCH   1  24
TORSDOF 4
ENDMDL
MODEL 9
REMARK minimizedAffinity -8.38041592
REMARK  4 active torsions:
REMARK  status: ('A' for Active; 'I' for Inactive)
REMARK    1  A    between atoms: C4_4  and  C5_5 
REMARK    2  A    between atoms: C5_5  and  C6_6 
REMARK    3  A    between atoms: C6_6  and  C7_7 
REMARK    4  A    between atoms: C7_7  and  C9_9 
ROOT
HETATM    1  C9  UNL     1       6.709  63.196 -34.337  1.00  0.00    -0.002 C 
HETATM    2  C10 UNL     1       5.434  62.761 -33.551  1.00  0.00     0.007 C 
HETATM    3  C11 UNL     1       4.267  63.645 -34.030  1.00  0.00     0.015 C 
HETATM    4  C12 UNL     1       4.935  64.781 -34.828  1.00  0.00    -0.013 C 
HETATM    5  C13 UNL     1       5.392  65.841 -33.775  1.00  0.00     0.021 C 
HETATM    6  C14 UNL     1       4.081  65.538 -35.842  1.00  0.00    -0.070 C 
HETATM    7  C15 UNL     1       2.767  65.747 -35.654  1.00  0.00    -0.022 C 
HETATM    8  C16 UNL     1       1.902  66.576 -36.552  1.00  0.00     0.034 C 
HETATM    9  C17 UNL     1       2.561  66.990 -37.887  1.00  0.00     0.013 C 
HETATM   10  C18 UNL     1       1.698  68.031 -38.691  1.00  0.00     0.018 C 
HETATM   11  C19 UNL     1       0.986  69.090 -37.826  1.00  0.00     0.023 C 
HETATM   12  C20 UNL     1       0.603  67.285 -39.486  1.00  0.00     0.023 C 
HETATM   13  C21 UNL     1       2.581  68.741 -39.723  1.00  0.00     0.135 C 
HETATM   14  O1  UNL     1       2.307  69.848 -40.187  1.00  0.00    -0.297 OA
HETATM   15  C22 UNL     1       3.773  67.974 -40.222  1.00  0.00     0.080 C 
HETATM   16  C23 UNL     1       4.741  67.664 -39.091  1.00  0.00     0.017 C 
HETATM   17  C24 UNL     1       4.084  67.357 -37.706  1.00  0.00    -0.031 C 
HETATM   18  C25 UNL     1       4.262  68.603 -36.805  1.00  0.00     0.016 C 
HETATM   19  C26 UNL     1       4.802  66.093 -37.072  1.00  0.00     0.024 C 
HETATM   20  C27 UNL     1       6.324  66.255 -36.839  1.00  0.00     0.010 C 
HETATM   21  C28 UNL     1       7.041  65.032 -36.210  1.00  0.00     0.011 C 
HETATM   22  C29 UNL     1       6.104  64.007 -35.536  1.00  0.00    -0.029 C 
HETATM   23  C30 UNL     1       5.618  62.983 -36.611  1.00  0.00     0.016 C 
ENDROOT
BRANCH   1  24
HETATM   24  C7  UNL     1       7.655  61.990 -34.613  1.00  0.00    -0.014 C 
HETATM   25  C8  UNL     1       6.864  60.671 -34.698  1.00  0.00     0.010 C 
BRANCH  24  26
HETATM   26  C6  UNL     1       8.827  61.836 -33.613  1.00  0.00     0.008 C 
BRANCH  26  27
HETATM   27  C5  UNL     1       9.703  63.078 -33.432  1.00  0.00     0.028 C 
BRANCH  27  28
HETATM   28  C4  UNL     1      11.083  63.112 -34.046  1.00  0.00    -0.025 C 
HETATM   29  C2  UNL     1      11.549  63.517 -35.246  1.00  0.00    -0.091 C 
HETATM   30  C1  UNL     1      13.019  63.384 -35.565  1.00  0.00     0.042 C 
HETATM   31  C3  UNL     1      10.732  64.122 -36.349  1.00  0.00     0.042 C 
ENDBRANCH  27  28
ENDBRANCH  26  27
ENDBRANCH  24  26
ENDBRANCH   1  24
TORSDOF 4
ENDMDL
