MODEL 1
REMARK minimizedAffinity -8.62548447
REMARK  8 active torsions:
REMARK  status: ('A' for Active; 'I' for Inactive)
REMARK    1  A    between atoms: C4_4  and  C5_5 
REMARK    2  A    between atoms: C5_5  and  C6_6 
REMARK    3  A    between atoms: C6_6  and  C7_7 
REMARK    4  A    between atoms: C7_7  and  C9_9 
REMARK    5  A    between atoms: C21_21  and  C22_22 
REMARK    6  A    between atoms: C22_22  and  C23_23 
REMARK    7  A    between atoms: C23_23  and  C24_24 
REMARK    8  A    between atoms: C24_24  and  O1_25 
ROOT
HETATM    1  C9  UNL     1      -0.844  52.034 -19.544  1.00  0.00    -0.002 C 
HETATM    2  C10 UNL     1      -0.462  50.713 -18.798  1.00  0.00     0.006 C 
HETATM    3  C11 UNL     1      -0.716  49.539 -19.768  1.00  0.00     0.011 C 
HETATM    4  C12 UNL     1      -1.563  50.149 -20.902  1.00  0.00    -0.032 C 
HETATM    5  C13 UNL     1      -3.017  50.185 -20.338  1.00  0.00     0.016 C 
HETATM    6  C14 UNL     1      -1.487  49.402 -22.274  1.00  0.00     0.003 C 
HETATM    7  C15 UNL     1      -1.943  47.925 -22.263  1.00  0.00     0.010 C 
HETATM    8  C16 UNL     1      -3.445  47.663 -22.412  1.00  0.00     0.035 C 
HETATM    9  C17 UNL     1      -4.198  48.802 -23.084  1.00  0.00    -0.073 C 
HETATM   10  C18 UNL     1      -5.462  49.122 -22.694  1.00  0.00    -0.085 C 
HETATM   11  C19 UNL     1      -6.249  50.333 -23.123  1.00  0.00     0.043 C 
HETATM   12  C20 UNL     1      -6.260  48.270 -21.726  1.00  0.00     0.043 C 
HETATM   13  C21 UNL     1      -3.308  49.439 -24.165  1.00  0.00     0.023 C 
HETATM   14  C25 UNL     1      -2.094  50.230 -23.494  1.00  0.00    -0.032 C 
HETATM   15  C26 UNL     1      -0.990  50.356 -24.587  1.00  0.00     0.016 C 
HETATM   16  C27 UNL     1      -2.519  51.673 -23.091  1.00  0.00     0.011 C 
HETATM   17  C28 UNL     1      -1.695  52.428 -22.024  1.00  0.00     0.011 C 
HETATM   18  C29 UNL     1      -0.882  51.565 -21.040  1.00  0.00    -0.032 C 
HETATM   19  C30 UNL     1       0.602  51.529 -21.532  1.00  0.00     0.016 C 
ENDROOT
BRANCH   1  20
HETATM   20  C7  UNL     1       0.059  53.232 -19.113  1.00  0.00    -0.014 C 
HETATM   21  C8  UNL     1       0.721  53.863 -20.352  1.00  0.00     0.010 C 
BRANCH  20  22
HETATM   22  C6  UNL     1       1.142  52.807 -18.092  1.00  0.00     0.008 C 
BRANCH  22  23
HETATM   23  C5  UNL     1       0.791  51.607 -17.197  1.00  0.00     0.028 C 
BRANCH  23  24
HETATM   24  C4  UNL     1       1.417  51.701 -15.832  1.00  0.00    -0.025 C 
HETATM   25  C2  UNL     1       2.684  52.029 -15.513  1.00  0.00    -0.091 C 
HETATM   26  C1  UNL     1       3.775  52.368 -16.492  1.00  0.00     0.042 C 
HETATM   27  C3  UNL     1       3.118  52.083 -14.070  1.00  0.00     0.042 C 
ENDBRANCH  23  24
ENDBRANCH  22  23
ENDBRANCH  20  22
ENDBRANCH   1  20
BRANCH  13  28
HETATM   28  C22 UNL     1      -4.005  50.175 -25.345  1.00  0.00     0.012 C 
BRANCH  28  29
HETATM   29  C23 UNL     1      -3.770  49.558 -26.737  1.00  0.00     0.027 C 
BRANCH  29  30
HETATM   30  C24 UNL     1      -3.054  50.488 -27.714  1.00  0.00     0.164 C 
BRANCH  30  31
HETATM   31  O1  UNL     1      -3.575  50.352 -29.026  1.00  0.00    -0.401 OA
HETATM   32  H42 UNL     1      -3.132  51.017 -29.579  1.00  0.00     0.209 HD
ENDBRANCH  30  31
ENDBRANCH  29  30
ENDBRANCH  28  29
ENDBRANCH  13  28
TORSDOF 8
ENDMDL
MODEL 2
REMARK minimizedAffinity -8.54476452
REMARK  8 active torsions:
REMARK  status: ('A' for Active; 'I' for Inactive)
REMARK    1  A    between atoms: C4_4  and  C5_5 
REMARK    2  A    between atoms: C5_5  and  C6_6 
REMARK    3  A    between atoms: C6_6  and  C7_7 
REMARK    4  A    between atoms: C7_7  and  C9_9 
REMARK    5  A    between atoms: C21_21  and  C22_22 
REMARK    6  A    between atoms: C22_22  and  C23_23 
REMARK    7  A    between atoms: C23_23  and  C24_24 
REMARK    8  A    between atoms: C24_24  and  O1_25 
ROOT
HETATM    1  C9  UNL     1      -0.881  51.577 -21.305  1.00  0.00    -0.002 C 
HETATM    2  C10 UNL     1      -0.099  50.291 -20.878  1.00  0.00     0.006 C 
HETATM    3  C11 UNL     1      -0.929  49.069 -21.327  1.00  0.00     0.011 C 
HETATM    4  C12 UNL     1      -2.315  49.647 -21.671  1.00  0.00    -0.032 C 
HETATM    5  C13 UNL     1      -3.032  49.810 -20.296  1.00  0.00     0.016 C 
HETATM    6  C14 UNL     1      -3.165  48.803 -22.677  1.00  0.00     0.003 C 
HETATM    7  C15 UNL     1      -3.496  47.360 -22.232  1.00  0.00     0.010 C 
HETATM    8  C16 UNL     1      -4.721  47.178 -21.330  1.00  0.00     0.035 C 
HETATM    9  C17 UNL     1      -5.732  48.310 -21.441  1.00  0.00    -0.073 C 
HETATM   10  C18 UNL     1      -6.423  48.732 -20.346  1.00  0.00    -0.085 C 
HETATM   11  C19 UNL     1      -7.299  49.955 -20.259  1.00  0.00     0.043 C 
HETATM   12  C20 UNL     1      -6.379  48.000 -19.019  1.00  0.00     0.043 C 
HETATM   13  C21 UNL     1      -5.781  48.816 -22.892  1.00  0.00     0.023 C 
HETATM   14  C25 UNL     1      -4.428  49.578 -23.264  1.00  0.00    -0.032 C 
HETATM   15  C26 UNL     1      -4.324  49.561 -24.820  1.00  0.00     0.016 C 
HETATM   16  C27 UNL     1      -4.483  51.068 -22.817  1.00  0.00     0.011 C 
HETATM   17  C28 UNL     1      -3.160  51.846 -22.633  1.00  0.00     0.011 C 
HETATM   18  C29 UNL     1      -1.898  51.008 -22.354  1.00  0.00    -0.032 C 
HETATM   19  C30 UNL     1      -1.111  50.848 -23.695  1.00  0.00     0.016 C 
ENDROOT
BRANCH   1  20
HETATM   20  C7  UNL     1       0.080  52.747 -21.688  1.00  0.00    -0.014 C 
HETATM   21  C8  UNL     1       0.548  52.584 -23.147  1.00  0.00     0.010 C 
BRANCH  20  22
HETATM   22  C6  UNL     1       1.303  52.828 -20.745  1.00  0.00     0.008 C 
BRANCH  22  23
HETATM   23  C5  UNL     1       1.069  53.525 -19.395  1.00  0.00     0.028 C 
BRANCH  23  24
HETATM   24  C4  UNL     1       0.650  52.566 -18.313  1.00  0.00    -0.025 C 
HETATM   25  C2  UNL     1       1.314  52.226 -17.192  1.00  0.00    -0.091 C 
HETATM   26  C1  UNL     1       2.665  52.744 -16.783  1.00  0.00     0.042 C 
HETATM   27  C3  UNL     1       0.711  51.248 -16.215  1.00  0.00     0.042 C 
ENDBRANCH  23  24
ENDBRANCH  22  23
ENDBRANCH  20  22
ENDBRANCH   1  20
BRANCH  13  28
HETATM   28  C22 UNL     1      -7.086  49.507 -23.382  1.00  0.00     0.012 C 
BRANCH  28  29
HETATM   29  C23 UNL     1      -8.249  48.555 -23.720  1.00  0.00     0.027 C 
BRANCH  29  30
HETATM   30  C24 UNL     1      -8.761  48.687 -25.153  1.00  0.00     0.164 C 
BRANCH  30  31
HETATM   31  O1  UNL     1      -9.271  49.987 -25.396  1.00  0.00    -0.401 OA
HETATM   32  H42 UNL     1      -9.510  50.028 -26.337  1.00  0.00     0.209 HD
ENDBRANCH  30  31
ENDBRANCH  29  30
ENDBRANCH  28  29
ENDBRANCH  13  28
TORSDOF 8
ENDMDL
MODEL 3
REMARK minimizedAffinity -8.44774437
REMARK  8 active torsions:
REMARK  status: ('A' for Active; 'I' for Inactive)
REMARK    1  A    between atoms: C4_4  and  C5_5 
REMARK    2  A    between atoms: C5_5  and  C6_6 
REMARK    3  A    between atoms: C6_6  and  C7_7 
REMARK    4  A    between atoms: C7_7  and  C9_9 
REMARK    5  A    between atoms: C21_21  and  C22_22 
REMARK    6  A    between atoms: C22_22  and  C23_23 
REMARK    7  A    between atoms: C23_23  and  C24_24 
REMARK    8  A    between atoms: C24_24  and  O1_25 
ROOT
HETATM    1  C9  UNL     1      -2.569  49.951 -19.808  1.00  0.00    -0.002 C 
HETATM    2  C10 UNL     1      -3.344  51.287 -19.558  1.00  0.00     0.006 C 
HETATM    3  C11 UNL     1      -4.147  51.608 -20.837  1.00  0.00     0.011 C 
HETATM    4  C12 UNL     1      -3.556  50.673 -21.910  1.00  0.00    -0.032 C 
HETATM    5  C13 UNL     1      -2.249  51.381 -22.381  1.00  0.00     0.016 C 
HETATM    6  C14 UNL     1      -4.505  50.341 -23.109  1.00  0.00     0.003 C 
HETATM    7  C15 UNL     1      -4.990  51.552 -23.938  1.00  0.00     0.010 C 
HETATM    8  C16 UNL     1      -4.059  52.045 -25.051  1.00  0.00     0.035 C 
HETATM    9  C17 UNL     1      -3.083  50.986 -25.543  1.00  0.00    -0.073 C 
HETATM   10  C18 UNL     1      -1.818  51.328 -25.913  1.00  0.00    -0.085 C 
HETATM   11  C19 UNL     1      -0.693  50.377 -26.227  1.00  0.00     0.043 C 
HETATM   12  C20 UNL     1      -1.365  52.769 -26.042  1.00  0.00     0.043 C 
HETATM   13  C21 UNL     1      -3.765  49.608 -25.519  1.00  0.00     0.023 C 
HETATM   14  C25 UNL     1      -4.002  49.129 -24.014  1.00  0.00    -0.032 C 
HETATM   15  C26 UNL     1      -5.137  48.061 -24.063  1.00  0.00     0.016 C 
HETATM   16  C27 UNL     1      -2.733  48.434 -23.440  1.00  0.00     0.011 C 
HETATM   17  C28 UNL     1      -2.561  48.331 -21.907  1.00  0.00     0.011 C 
HETATM   18  C29 UNL     1      -3.319  49.368 -21.056  1.00  0.00    -0.032 C 
HETATM   19  C30 UNL     1      -4.624  48.696 -20.517  1.00  0.00     0.016 C 
ENDROOT
BRANCH   1  20
HETATM   20  C7  UNL     1      -2.426  49.104 -18.504  1.00  0.00    -0.014 C 
HETATM   21  C8  UNL     1      -3.306  49.703 -17.391  1.00  0.00     0.010 C 
BRANCH  20  22
HETATM   22  C6  UNL     1      -0.956  49.015 -18.028  1.00  0.00     0.008 C 
BRANCH  22  23
HETATM   23  C5  UNL     1      -0.406  50.253 -17.302  1.00  0.00     0.028 C 
BRANCH  23  24
HETATM   24  C4  UNL     1       0.029  51.336 -18.254  1.00  0.00    -0.025 C 
HETATM   25  C2  UNL     1       0.992  52.262 -18.084  1.00  0.00    -0.091 C 
HETATM   26  C1  UNL     1       1.852  52.419 -16.861  1.00  0.00     0.042 C 
HETATM   27  C3  UNL     1       1.289  53.261 -19.174  1.00  0.00     0.042 C 
ENDBRANCH  23  24
ENDBRANCH  22  23
ENDBRANCH  20  22
ENDBRANCH   1  20
BRANCH  13  28
HETATM   28  C22 UNL     1      -3.233  48.512 -26.485  1.00  0.00     0.012 C 
BRANCH  28  29
HETATM   29  C23 UNL     1      -4.011  48.365 -27.808  1.00  0.00     0.027 C 
BRANCH  29  30
HETATM   30  C24 UNL     1      -5.490  48.036 -27.622  1.00  0.00     0.164 C 
BRANCH  30  31
HETATM   31  O1  UNL     1      -6.256  48.481 -28.730  1.00  0.00    -0.401 OA
HETATM   32  H42 UNL     1      -7.168  48.179 -28.586  1.00  0.00     0.209 HD
ENDBRANCH  30  31
ENDBRANCH  29  30
ENDBRANCH  28  29
ENDBRANCH  13  28
TORSDOF 8
ENDMDL
MODEL 4
REMARK minimizedAffinity -8.44136524
REMARK  8 active torsions:
REMARK  status: ('A' for Active; 'I' for Inactive)
REMARK    1  A    between atoms: C4_4  and  C5_5 
REMARK    2  A    between atoms: C5_5  and  C6_6 
REMARK    3  A    between atoms: C6_6  and  C7_7 
REMARK    4  A    between atoms: C7_7  and  C9_9 
REMARK    5  A    between atoms: C21_21  and  C22_22 
REMARK    6  A    between atoms: C22_22  and  C23_23 
REMARK    7  A    between atoms: C23_23  and  C24_24 
REMARK    8  A    between atoms: C24_24  and  O1_25 
ROOT
HETATM    1  C9  UNL     1      -1.242  50.014 -18.408  1.00  0.00    -0.002 C 
HETATM    2  C10 UNL     1      -2.168  51.187 -17.948  1.00  0.00     0.006 C 
HETATM    3  C11 UNL     1      -3.255  51.376 -19.028  1.00  0.00     0.011 C 
HETATM    4  C12 UNL     1      -2.741  50.575 -20.240  1.00  0.00    -0.032 C 
HETATM    5  C13 UNL     1      -1.697  51.510 -20.923  1.00  0.00     0.016 C 
HETATM    6  C14 UNL     1      -3.841  50.095 -21.243  1.00  0.00     0.003 C 
HETATM    7  C15 UNL     1      -4.683  51.211 -21.903  1.00  0.00     0.010 C 
HETATM    8  C16 UNL     1      -4.094  51.876 -23.151  1.00  0.00     0.035 C 
HETATM    9  C17 UNL     1      -3.070  51.013 -23.875  1.00  0.00    -0.073 C 
HETATM   10  C18 UNL     1      -1.984  51.579 -24.469  1.00  0.00    -0.085 C 
HETATM   11  C19 UNL     1      -0.798  50.848 -25.043  1.00  0.00     0.043 C 
HETATM   12  C20 UNL     1      -1.820  53.080 -24.615  1.00  0.00     0.043 C 
HETATM   13  C21 UNL     1      -3.486  49.536 -23.784  1.00  0.00     0.023 C 
HETATM   14  C25 UNL     1      -3.330  49.003 -22.287  1.00  0.00    -0.032 C 
HETATM   15  C26 UNL     1      -4.251  47.751 -22.164  1.00  0.00     0.016 C 
HETATM   16  C27 UNL     1      -1.870  48.538 -22.007  1.00  0.00     0.011 C 
HETATM   17  C28 UNL     1      -1.378  48.448 -20.544  1.00  0.00     0.011 C 
HETATM   18  C29 UNL     1      -2.116  49.322 -19.512  1.00  0.00    -0.032 C 
HETATM   19  C30 UNL     1      -3.151  48.422 -18.760  1.00  0.00     0.016 C 
ENDROOT
BRANCH   1  20
HETATM   20  C7  UNL     1      -0.696  49.189 -17.200  1.00  0.00    -0.014 C 
HETATM   21  C8  UNL     1      -1.781  49.069 -16.114  1.00  0.00     0.010 C 
BRANCH  20  22
HETATM   22  C6  UNL     1       0.586  49.816 -16.601  1.00  0.00     0.008 C 
BRANCH  22  23
HETATM   23  C5  UNL     1       0.553  51.337 -16.378  1.00  0.00     0.028 C 
BRANCH  23  24
HETATM   24  C4  UNL     1       1.897  51.981 -16.587  1.00  0.00    -0.025 C 
HETATM   25  C2  UNL     1       2.986  51.922 -15.795  1.00  0.00    -0.091 C 
HETATM   26  C1  UNL     1       3.080  51.185 -14.488  1.00  0.00     0.042 C 
HETATM   27  C3  UNL     1       4.256  52.632 -16.191  1.00  0.00     0.042 C 
ENDBRANCH  23  24
ENDBRANCH  22  23
ENDBRANCH  20  22
ENDBRANCH   1  20
BRANCH  13  28
HETATM   28  C22 UNL     1      -2.979  48.564 -24.888  1.00  0.00     0.012 C 
BRANCH  28  29
HETATM   29  C23 UNL     1      -3.964  48.311 -26.046  1.00  0.00     0.027 C 
BRANCH  29  30
HETATM   30  C24 UNL     1      -3.505  48.885 -27.385  1.00  0.00     0.164 C 
BRANCH  30  31
HETATM   31  O1  UNL     1      -4.613  49.230 -28.200  1.00  0.00    -0.401 OA
HETATM   32  H42 UNL     1      -4.258  49.653 -29.000  1.00  0.00     0.209 HD
ENDBRANCH  30  31
ENDBRANCH  29  30
ENDBRANCH  28  29
ENDBRANCH  13  28
TORSDOF 8
ENDMDL
MODEL 5
REMARK minimizedAffinity -8.33857727
REMARK  8 active torsions:
REMARK  status: ('A' for Active; 'I' for Inactive)
REMARK    1  A    between atoms: C4_4  and  C5_5 
REMARK    2  A    between atoms: C5_5  and  C6_6 
REMARK    3  A    between atoms: C6_6  and  C7_7 
REMARK    4  A    between atoms: C7_7  and  C9_9 
REMARK    5  A    between atoms: C21_21  and  C22_22 
REMARK    6  A    between atoms: C22_22  and  C23_23 
REMARK    7  A    between atoms: C23_23  and  C24_24 
REMARK    8  A    between atoms: C24_24  and  O1_25 
ROOT
HETATM    1  C9  UNL     1      -3.907  48.625 -25.835  1.00  0.00    -0.002 C 
HETATM    2  C10 UNL     1      -5.361  48.665 -25.259  1.00  0.00     0.006 C 
HETATM    3  C11 UNL     1      -5.372  49.672 -24.089  1.00  0.00     0.011 C 
HETATM    4  C12 UNL     1      -3.884  49.922 -23.778  1.00  0.00    -0.032 C 
HETATM    5  C13 UNL     1      -3.447  48.701 -22.911  1.00  0.00     0.016 C 
HETATM    6  C14 UNL     1      -3.562  51.282 -23.075  1.00  0.00     0.003 C 
HETATM    7  C15 UNL     1      -4.241  51.508 -21.705  1.00  0.00     0.010 C 
HETATM    8  C16 UNL     1      -3.538  50.919 -20.479  1.00  0.00     0.035 C 
HETATM    9  C17 UNL     1      -2.048  50.684 -20.684  1.00  0.00    -0.073 C 
HETATM   10  C18 UNL     1      -1.432  49.609 -20.122  1.00  0.00    -0.085 C 
HETATM   11  C19 UNL     1      -0.026  49.141 -20.396  1.00  0.00     0.043 C 
HETATM   12  C20 UNL     1      -2.121  48.701 -19.122  1.00  0.00     0.043 C 
HETATM   13  C21 UNL     1      -1.470  51.798 -21.574  1.00  0.00     0.023 C 
HETATM   14  C25 UNL     1      -2.012  51.655 -23.070  1.00  0.00    -0.032 C 
HETATM   15  C26 UNL     1      -1.852  53.056 -23.735  1.00  0.00     0.016 C 
HETATM   16  C27 UNL     1      -1.147  50.650 -23.886  1.00  0.00     0.011 C 
HETATM   17  C28 UNL     1      -1.745  50.001 -25.155  1.00  0.00     0.011 C 
HETATM   18  C29 UNL     1      -3.283  49.933 -25.237  1.00  0.00    -0.032 C 
HETATM   19  C30 UNL     1      -3.777  51.113 -26.136  1.00  0.00     0.016 C 
ENDROOT
BRANCH   1  20
HETATM   20  C7  UNL     1      -3.894  48.376 -27.377  1.00  0.00    -0.014 C 
HETATM   21  C8  UNL     1      -3.460  49.657 -28.112  1.00  0.00     0.010 C 
BRANCH  20  22
HETATM   22  C6  UNL     1      -5.272  47.904 -27.901  1.00  0.00     0.008 C 
BRANCH  22  23
HETATM   23  C5  UNL     1      -5.552  48.162 -29.390  1.00  0.00     0.028 C 
BRANCH  23  24
HETATM   24  C4  UNL     1      -5.279  46.955 -30.247  1.00  0.00    -0.025 C 
HETATM   25  C2  UNL     1      -4.962  46.913 -31.556  1.00  0.00    -0.091 C 
HETATM   26  C1  UNL     1      -4.824  48.104 -32.464  1.00  0.00     0.042 C 
HETATM   27  C3  UNL     1      -4.709  45.591 -32.236  1.00  0.00     0.042 C 
ENDBRANCH  23  24
ENDBRANCH  22  23
ENDBRANCH  20  22
ENDBRANCH   1  20
BRANCH  13  28
HETATM   28  C22 UNL     1       0.045  52.122 -21.448  1.00  0.00     0.012 C 
BRANCH  28  29
HETATM   29  C23 UNL     1       0.382  53.394 -20.646  1.00  0.00     0.027 C 
BRANCH  29  30
HETATM   30  C24 UNL     1       1.780  53.946 -20.919  1.00  0.00     0.164 C 
BRANCH  30  31
HETATM   31  O1  UNL     1       1.762  54.880 -21.985  1.00  0.00    -0.401 OA
HETATM   32  H42 UNL     1       2.660  55.245 -22.060  1.00  0.00     0.209 HD
ENDBRANCH  30  31
ENDBRANCH  29  30
ENDBRANCH  28  29
ENDBRANCH  13  28
TORSDOF 8
ENDMDL
MODEL 6
REMARK minimizedAffinity -8.30632496
REMARK  8 active torsions:
REMARK  status: ('A' for Active; 'I' for Inactive)
REMARK    1  A    between atoms: C4_4  and  C5_5 
REMARK    2  A    between atoms: C5_5  and  C6_6 
REMARK    3  A    between atoms: C6_6  and  C7_7 
REMARK    4  A    between atoms: C7_7  and  C9_9 
REMARK    5  A    between atoms: C21_21  and  C22_22 
REMARK    6  A    between atoms: C22_22  and  C23_23 
REMARK    7  A    between atoms: C23_23  and  C24_24 
REMARK    8  A    between atoms: C24_24  and  O1_25 
ROOT
HETATM    1  C9  UNL     1      -0.603  50.310 -19.950  1.00  0.00    -0.002 C 
HETATM    2  C10 UNL     1      -0.111  51.769 -20.228  1.00  0.00     0.006 C 
HETATM    3  C11 UNL     1      -1.129  52.432 -21.181  1.00  0.00     0.011 C 
HETATM    4  C12 UNL     1      -1.977  51.263 -21.717  1.00  0.00    -0.032 C 
HETATM    5  C13 UNL     1      -1.112  50.630 -22.850  1.00  0.00     0.016 C 
HETATM    6  C14 UNL     1      -3.408  51.645 -22.219  1.00  0.00     0.003 C 
HETATM    7  C15 UNL     1      -3.465  52.668 -23.376  1.00  0.00     0.010 C 
HETATM    8  C16 UNL     1      -3.315  52.115 -24.797  1.00  0.00     0.035 C 
HETATM    9  C17 UNL     1      -3.676  50.641 -24.918  1.00  0.00    -0.073 C 
HETATM   10  C18 UNL     1      -2.989  49.827 -25.765  1.00  0.00    -0.085 C 
HETATM   11  C19 UNL     1      -3.098  48.326 -25.846  1.00  0.00     0.043 C 
HETATM   12  C20 UNL     1      -1.973  50.352 -26.761  1.00  0.00     0.043 C 
HETATM   13  C21 UNL     1      -4.844  50.319 -23.972  1.00  0.00     0.023 C 
HETATM   14  C25 UNL     1      -4.367  50.392 -22.450  1.00  0.00    -0.032 C 
HETATM   15  C26 UNL     1      -5.652  50.605 -21.592  1.00  0.00     0.016 C 
HETATM   16  C27 UNL     1      -3.722  49.048 -21.999  1.00  0.00     0.011 C 
HETATM   17  C28 UNL     1      -2.781  49.040 -20.773  1.00  0.00     0.011 C 
HETATM   18  C29 UNL     1      -2.099  50.376 -20.417  1.00  0.00    -0.032 C 
HETATM   19  C30 UNL     1      -2.900  51.038 -19.250  1.00  0.00     0.016 C 
ENDROOT
BRANCH   1  20
HETATM   20  C7  UNL     1      -0.245  49.835 -18.507  1.00  0.00    -0.014 C 
HETATM   21  C8  UNL     1      -1.174  48.680 -18.090  1.00  0.00     0.010 C 
BRANCH  20  22
HETATM   22  C6  UNL     1      -0.336  50.987 -17.477  1.00  0.00     0.008 C 
BRANCH  22  23
HETATM   23  C5  UNL     1       0.673  50.937 -16.318  1.00  0.00     0.028 C 
BRANCH  23  24
HETATM   24  C4  UNL     1       1.847  51.854 -16.534  1.00  0.00    -0.025 C 
HETATM   25  C2  UNL     1       2.930  52.026 -15.751  1.00  0.00    -0.091 C 
HETATM   26  C1  UNL     1       3.189  51.323 -14.447  1.00  0.00     0.042 C 
HETATM   27  C3  UNL     1       4.016  52.990 -16.154  1.00  0.00     0.042 C 
ENDBRANCH  23  24
ENDBRANCH  22  23
ENDBRANCH  20  22
ENDBRANCH   1  20
BRANCH  13  28
HETATM   28  C22 UNL     1      -5.756  49.108 -24.322  1.00  0.00     0.012 C 
BRANCH  28  29
HETATM   29  C23 UNL     1      -6.956  48.893 -23.379  1.00  0.00     0.027 C 
BRANCH  29  30
HETATM   30  C24 UNL     1      -8.299  48.789 -24.101  1.00  0.00     0.164 C 
BRANCH  30  31
HETATM   31  O1  UNL     1      -8.353  49.672 -25.209  1.00  0.00    -0.401 OA
HETATM   32  H42 UNL     1      -9.196  49.506 -25.664  1.00  0.00     0.209 HD
ENDBRANCH  30  31
ENDBRANCH  29  30
ENDBRANCH  28  29
ENDBRANCH  13  28
TORSDOF 8
ENDMDL
MODEL 7
REMARK minimizedAffinity -8.29577351
REMARK  8 active torsions:
REMARK  status: ('A' for Active; 'I' for Inactive)
REMARK    1  A    between atoms: C4_4  and  C5_5 
REMARK    2  A    between atoms: C5_5  and  C6_6 
REMARK    3  A    between atoms: C6_6  and  C7_7 
REMARK    4  A    between atoms: C7_7  and  C9_9 
REMARK    5  A    between atoms: C21_21  and  C22_22 
REMARK    6  A    between atoms: C22_22  and  C23_23 
REMARK    7  A    between atoms: C23_23  and  C24_24 
REMARK    8  A    between atoms: C24_24  and  O1_25 
ROOT
HETATM    1  C9  UNL     1      -0.844  51.210 -21.406  1.00  0.00    -0.002 C 
HETATM    2  C10 UNL     1      -0.116  49.943 -20.848  1.00  0.00     0.006 C 
HETATM    3  C11 UNL     1      -1.023  48.724 -21.122  1.00  0.00     0.011 C 
HETATM    4  C12 UNL     1      -2.388  49.333 -21.497  1.00  0.00    -0.032 C 
HETATM    5  C13 UNL     1      -3.049  49.699 -20.132  1.00  0.00     0.016 C 
HETATM    6  C14 UNL     1      -3.313  48.422 -22.369  1.00  0.00     0.003 C 
HETATM    7  C15 UNL     1      -3.704  47.064 -21.743  1.00  0.00     0.010 C 
HETATM    8  C16 UNL     1      -4.906  47.060 -20.793  1.00  0.00     0.035 C 
HETATM    9  C17 UNL     1      -5.860  48.225 -21.013  1.00  0.00    -0.073 C 
HETATM   10  C18 UNL     1      -6.491  48.813 -19.959  1.00  0.00    -0.085 C 
HETATM   11  C19 UNL     1      -7.299  50.084 -19.998  1.00  0.00     0.043 C 
HETATM   12  C20 UNL     1      -6.441  48.244 -18.555  1.00  0.00     0.043 C 
HETATM   13  C21 UNL     1      -5.932  48.555 -22.513  1.00  0.00     0.023 C 
HETATM   14  C25 UNL     1      -4.554  49.191 -23.012  1.00  0.00    -0.032 C 
HETATM   15  C26 UNL     1      -4.503  48.982 -24.556  1.00  0.00     0.016 C 
HETATM   16  C27 UNL     1      -4.516  50.725 -22.747  1.00  0.00     0.011 C 
HETATM   17  C28 UNL     1      -3.150  51.445 -22.695  1.00  0.00     0.011 C 
HETATM   18  C29 UNL     1      -1.924  50.576 -22.350  1.00  0.00    -0.032 C 
HETATM   19  C30 UNL     1      -1.191  50.214 -23.683  1.00  0.00     0.016 C 
ENDROOT
BRANCH   1  20
HETATM   20  C7  UNL     1       0.163  52.270 -21.955  1.00  0.00    -0.014 C 
HETATM   21  C8  UNL     1       0.427  53.345 -20.884  1.00  0.00     0.010 C 
BRANCH  20  22
HETATM   22  C6  UNL     1      -0.344  52.933 -23.258  1.00  0.00     0.008 C 
BRANCH  22  23
HETATM   23  C5  UNL     1       0.731  53.283 -24.300  1.00  0.00     0.028 C 
BRANCH  23  24
HETATM   24  C4  UNL     1       0.331  52.891 -25.697  1.00  0.00    -0.025 C 
HETATM   25  C2  UNL     1       0.968  52.063 -26.548  1.00  0.00    -0.091 C 
HETATM   26  C1  UNL     1       2.260  51.346 -26.272  1.00  0.00     0.042 C 
HETATM   27  C3  UNL     1       0.392  51.784 -27.913  1.00  0.00     0.042 C 
ENDBRANCH  23  24
ENDBRANCH  22  23
ENDBRANCH  20  22
ENDBRANCH   1  20
BRANCH  13  28
HETATM   28  C22 UNL     1      -7.214  49.254 -23.048  1.00  0.00     0.012 C 
BRANCH  28  29
HETATM   29  C23 UNL     1      -8.293  48.309 -23.612  1.00  0.00     0.027 C 
BRANCH  29  30
HETATM   30  C24 UNL     1      -8.698  48.620 -25.051  1.00  0.00     0.164 C 
BRANCH  30  31
HETATM   31  O1  UNL     1      -9.059  49.983 -25.198  1.00  0.00    -0.401 OA
HETATM   32  H42 UNL     1      -9.234  50.132 -26.142  1.00  0.00     0.209 HD
ENDBRANCH  30  31
ENDBRANCH  29  30
ENDBRANCH  28  29
ENDBRANCH  13  28
TORSDOF 8
ENDMDL
MODEL 8
REMARK minimizedAffinity -8.01095009
REMARK  8 active torsions:
REMARK  status: ('A' for Active; 'I' for Inactive)
REMARK    1  A    between atoms: C4_4  and  C5_5 
REMARK    2  A    between atoms: C5_5  and  C6_6 
REMARK    3  A    between atoms: C6_6  and  C7_7 
REMARK    4  A    between atoms: C7_7  and  C9_9 
REMARK    5  A    between atoms: C21_21  and  C22_22 
REMARK    6  A    between atoms: C22_22  and  C23_23 
REMARK    7  A    between atoms: C23_23  and  C24_24 
REMARK    8  A    between atoms: C24_24  and  O1_25 
ROOT
HETATM    1  C9  UNL     1      -0.716  51.638 -23.774  1.00  0.00    -0.002 C 
HETATM    2  C10 UNL     1      -1.956  52.521 -24.133  1.00  0.00     0.006 C 
HETATM    3  C11 UNL     1      -2.989  52.360 -22.996  1.00  0.00     0.011 C 
HETATM    4  C12 UNL     1      -2.499  51.136 -22.198  1.00  0.00    -0.032 C 
HETATM    5  C13 UNL     1      -2.993  49.903 -23.015  1.00  0.00     0.016 C 
HETATM    6  C14 UNL     1      -2.968  51.075 -20.707  1.00  0.00     0.003 C 
HETATM    7  C15 UNL     1      -4.497  51.041 -20.483  1.00  0.00     0.010 C 
HETATM    8  C16 UNL     1      -5.177  49.670 -20.561  1.00  0.00     0.035 C 
HETATM    9  C17 UNL     1      -4.232  48.505 -20.302  1.00  0.00    -0.073 C 
HETATM   10  C18 UNL     1      -4.376  47.333 -20.979  1.00  0.00    -0.085 C 
HETATM   11  C19 UNL     1      -3.410  46.176 -20.975  1.00  0.00     0.043 C 
HETATM   12  C20 UNL     1      -5.567  47.043 -21.871  1.00  0.00     0.043 C 
HETATM   13  C21 UNL     1      -3.197  48.910 -19.239  1.00  0.00     0.023 C 
HETATM   14  C25 UNL     1      -2.187  49.998 -19.829  1.00  0.00    -0.032 C 
HETATM   15  C26 UNL     1      -1.565  50.735 -18.603  1.00  0.00     0.016 C 
HETATM   16  C27 UNL     1      -1.022  49.318 -20.605  1.00  0.00     0.011 C 
HETATM   17  C28 UNL     1      -0.224  50.145 -21.638  1.00  0.00     0.011 C 
HETATM   18  C29 UNL     1      -0.939  51.367 -22.245  1.00  0.00    -0.032 C 
HETATM   19  C30 UNL     1      -0.447  52.646 -21.491  1.00  0.00     0.016 C 
ENDROOT
BRANCH   1  20
HETATM   20  C7  UNL     1       0.619  52.270 -24.279  1.00  0.00    -0.014 C 
HETATM   21  C8  UNL     1       0.525  53.806 -24.227  1.00  0.00     0.010 C 
BRANCH  20  22
HETATM   22  C6  UNL     1       0.975  51.808 -25.713  1.00  0.00     0.008 C 
BRANCH  22  23
HETATM   23  C5  UNL     1       0.250  50.549 -26.216  1.00  0.00     0.028 C 
BRANCH  23  24
HETATM   24  C4  UNL     1      -0.944  50.872 -27.073  1.00  0.00    -0.025 C 
HETATM   25  C2  UNL     1      -2.133  50.241 -27.124  1.00  0.00    -0.091 C 
HETATM   26  C1  UNL     1      -2.519  49.033 -26.317  1.00  0.00     0.042 C 
HETATM   27  C3  UNL     1      -3.218  50.733 -28.048  1.00  0.00     0.042 C 
ENDBRANCH  23  24
ENDBRANCH  22  23
ENDBRANCH  20  22
ENDBRANCH   1  20
BRANCH  13  28
HETATM   28  C22 UNL     1      -2.537  47.783 -18.396  1.00  0.00     0.012 C 
BRANCH  28  29
HETATM   29  C23 UNL     1      -3.280  47.408 -17.099  1.00  0.00     0.027 C 
BRANCH  29  30
HETATM   30  C24 UNL     1      -2.507  47.739 -15.824  1.00  0.00     0.164 C 
BRANCH  30  31
HETATM   31  O1  UNL     1      -1.381  46.891 -15.674  1.00  0.00    -0.401 OA
HETATM   32  H42 UNL     1      -0.895  47.199 -14.890  1.00  0.00     0.209 HD
ENDBRANCH  30  31
ENDBRANCH  29  30
ENDBRANCH  28  29
ENDBRANCH  13  28
TORSDOF 8
ENDMDL
MODEL 9
REMARK minimizedAffinity -7.86507511
REMARK  8 active torsions:
REMARK  status: ('A' for Active; 'I' for Inactive)
REMARK    1  A    between atoms: C4_4  and  C5_5 
REMARK    2  A    between atoms: C5_5  and  C6_6 
REMARK    3  A    between atoms: C6_6  and  C7_7 
REMARK    4  A    between atoms: C7_7  and  C9_9 
REMARK    5  A    between atoms: C21_21  and  C22_22 
REMARK    6  A    between atoms: C22_22  and  C23_23 
REMARK    7  A    between atoms: C23_23  and  C24_24 
REMARK    8  A    between atoms: C24_24  and  O1_25 
ROOT
HETATM    1  C9  UNL     1      -4.390  48.637 -25.167  1.00  0.00    -0.002 C 
HETATM    2  C10 UNL     1      -5.922  48.336 -25.256  1.00  0.00     0.006 C 
HETATM    3  C11 UNL     1      -6.551  48.705 -23.895  1.00  0.00     0.011 C 
HETATM    4  C12 UNL     1      -5.349  48.867 -22.944  1.00  0.00    -0.032 C 
HETATM    5  C13 UNL     1      -4.966  47.412 -22.534  1.00  0.00     0.016 C 
HETATM    6  C14 UNL     1      -5.597  49.779 -21.698  1.00  0.00     0.003 C 
HETATM    7  C15 UNL     1      -6.728  49.328 -20.747  1.00  0.00     0.010 C 
HETATM    8  C16 UNL     1      -6.363  48.288 -19.683  1.00  0.00     0.035 C 
HETATM    9  C17 UNL     1      -4.878  48.251 -19.350  1.00  0.00    -0.073 C 
HETATM   10  C18 UNL     1      -4.261  47.072 -19.062  1.00  0.00    -0.085 C 
HETATM   11  C19 UNL     1      -2.778  46.855 -18.911  1.00  0.00     0.043 C 
HETATM   12  C20 UNL     1      -5.023  45.776 -18.869  1.00  0.00     0.043 C 
HETATM   13  C21 UNL     1      -4.302  49.675 -19.416  1.00  0.00     0.023 C 
HETATM   14  C25 UNL     1      -4.264  50.193 -20.926  1.00  0.00    -0.032 C 
HETATM   15  C26 UNL     1      -4.209  51.750 -20.860  1.00  0.00     0.016 C 
HETATM   16  C27 UNL     1      -2.973  49.711 -21.652  1.00  0.00     0.011 C 
HETATM   17  C28 UNL     1      -2.949  49.674 -23.196  1.00  0.00     0.011 C 
HETATM   18  C29 UNL     1      -4.313  49.567 -23.906  1.00  0.00    -0.032 C 
HETATM   19  C30 UNL     1      -4.729  50.997 -24.382  1.00  0.00     0.016 C 
ENDROOT
BRANCH   1  20
HETATM   20  C7  UNL     1      -3.806  49.111 -26.535  1.00  0.00    -0.014 C 
HETATM   21  C8  UNL     1      -4.263  48.160 -27.657  1.00  0.00     0.010 C 
BRANCH  20  22
HETATM   22  C6  UNL     1      -2.261  49.196 -26.509  1.00  0.00     0.008 C 
BRANCH  22  23
HETATM   23  C5  UNL     1      -1.660  50.601 -26.676  1.00  0.00     0.028 C 
BRANCH  23  24
HETATM   24  C4  UNL     1      -0.218  50.669 -26.250  1.00  0.00    -0.025 C 
HETATM   25  C2  UNL     1       0.817  51.248 -26.889  1.00  0.00    -0.091 C 
HETATM   26  C1  UNL     1       0.744  51.958 -28.212  1.00  0.00     0.042 C 
HETATM   27  C3  UNL     1       2.198  51.221 -26.283  1.00  0.00     0.042 C 
ENDBRANCH  23  24
ENDBRANCH  22  23
ENDBRANCH  20  22
ENDBRANCH   1  20
BRANCH  13  28
HETATM   28  C22 UNL     1      -3.030  49.989 -18.577  1.00  0.00     0.012 C 
BRANCH  28  29
HETATM   29  C23 UNL     1      -2.651  51.480 -18.486  1.00  0.00     0.027 C 
BRANCH  29  30
HETATM   30  C24 UNL     1      -1.156  51.750 -18.636  1.00  0.00     0.164 C 
BRANCH  30  31
HETATM   31  O1  UNL     1      -0.841  52.173 -19.952  1.00  0.00    -0.401 OA
HETATM   32  H42 UNL     1       0.104  52.397 -19.961  1.00  0.00     0.209 HD
ENDBRANCH  30  31
ENDBRANCH  29  30
ENDBRANCH  28  29
ENDBRANCH  13  28
TORSDOF 8
ENDMDL
