MODEL 1
REMARK minimizedAffinity -9.80819798
REMARK  2 active torsions:
REMARK  status: ('A' for Active; 'I' for Inactive)
REMARK    1  A    between atoms: C3_4  and  C4_5 
REMARK       I    between atoms: N2_13  and  C11_14 
REMARK    2  A    between atoms: C11_14  and  C12_16 
ROOT
HETATM    1  C4  UNL     1       4.872   7.899  12.874  1.00  0.00    -0.021 A 
HETATM    2  C5  UNL     1       4.520   7.114  11.772  1.00  0.00     0.015 A 
HETATM    3  C6  UNL     1       3.206   6.678  11.614  1.00  0.00     0.040 A 
HETATM    4  C7  UNL     1       2.225   7.037  12.545  1.00  0.00     0.095 A 
HETATM    5  O1  UNL     1       0.933   6.697  12.250  1.00  0.00    -0.347 OA
HETATM    6  C8  UNL     1       0.697   5.303  12.499  1.00  0.00     0.213 C 
HETATM    7  C9  UNL     1      -0.715   5.138  13.088  1.00  0.00     0.265 C 
HETATM    8  C10 UNL     1      -1.748   5.082  11.936  1.00  0.00     0.164 C 
HETATM    9  N2  UNL     1      -3.104   4.848  12.449  1.00  0.00    -0.344 N 
HETATM   10  C11 UNL     1      -3.953   4.033  11.708  1.00  0.00     0.254 C 
HETATM   11  O2  UNL     1      -3.631   3.456  10.674  1.00  0.00    -0.267 OA
HETATM   12  C18 UNL     1      -3.524   5.748  13.529  1.00  0.00     0.156 C 
HETATM   13  C19 UNL     1      -2.437   5.947  14.606  1.00  0.00     0.293 C 
HETATM   14  N3  UNL     1      -1.117   6.208  14.025  1.00  0.00     0.107 N 
HETATM   15  C20 UNL     1      -0.098   6.610  14.996  1.00  0.00     0.375 C 
HETATM   16  C21 UNL     1       0.295   8.079  14.760  1.00  0.00     0.250 C 
HETATM   17  O3  UNL     1      -0.511   9.013  14.867  1.00  0.00    -0.271 OA
HETATM   18  N4  UNL     1       1.617   8.387  14.573  1.00  0.00    -0.323 N 
HETATM   19  C22 UNL     1       2.543   7.849  13.642  1.00  0.00     0.069 A 
HETATM   20  C23 UNL     1       3.877   8.266  13.795  1.00  0.00     0.044 A 
HETATM   21  H22 UNL     1       1.796   9.365  14.782  1.00  0.00     0.169 HD
ENDROOT
BRANCH  10  22
HETATM   22  C12 UNL     1      -5.306   3.780  12.224  1.00  0.00     0.033 A 
HETATM   23  C13 UNL     1      -5.951   2.572  11.960  1.00  0.00     0.017 A 
HETATM   24  C14 UNL     1      -7.224   2.345  12.483  1.00  0.00     0.003 A 
HETATM   25  C15 UNL     1      -7.833   3.321  13.269  1.00  0.00     0.024 A 
HETATM   26  C16 UNL     1      -7.172   4.522  13.532  1.00  0.00     0.035 A 
HETATM   27 CL1  UNL     1      -7.940   5.723  14.492  1.00  0.00    -0.084 Cl
HETATM   28  C17 UNL     1      -5.903   4.759  13.016  1.00  0.00     0.041 A 
ENDBRANCH  10  22
BRANCH   1  29
HETATM   29  C3  UNL     1       6.238   8.349  13.051  1.00  0.00     0.008 A 
HETATM   30  C2  UNL     1       7.258   7.586  13.580  1.00  0.00     0.123 A 
HETATM   31  N1  UNL     1       8.378   8.366  13.548  1.00  0.00    -0.307 N 
HETATM   32  C1  UNL     1       9.698   8.000  13.990  1.00  0.00     0.177 C 
HETATM   33  N5  UNL     1       8.166   9.589  13.027  1.00  0.00    -0.310 N 
HETATM   34  C24 UNL     1       6.862   9.580  12.730  1.00  0.00     0.120 A 
ATOM     35  H5  UNL     1       8.839  10.343  12.890  1.00  0.00     0.186 HD
ENDBRANCH   1  29
TORSDOF 2
ENDMDL
MODEL 2
REMARK minimizedAffinity -9.54313087
REMARK  2 active torsions:
REMARK  status: ('A' for Active; 'I' for Inactive)
REMARK    1  A    between atoms: C3_4  and  C4_5 
REMARK       I    between atoms: N2_13  and  C11_14 
REMARK    2  A    between atoms: C11_14  and  C12_16 
ROOT
HETATM    1  C4  UNL     1       2.853   6.885  11.849  1.00  0.00    -0.021 A 
HETATM    2  C5  UNL     1       2.122   5.791  11.377  1.00  0.00     0.015 A 
HETATM    3  C6  UNL     1       0.739   5.748  11.543  1.00  0.00     0.040 A 
HETATM    4  C7  UNL     1       0.069   6.808  12.167  1.00  0.00     0.095 A 
HETATM    5  O1  UNL     1      -1.298   6.766  12.166  1.00  0.00    -0.347 OA
HETATM    6  C8  UNL     1      -1.787   5.842  13.150  1.00  0.00     0.213 C 
HETATM    7  C9  UNL     1      -3.054   6.431  13.795  1.00  0.00     0.265 C 
HETATM    8  C10 UNL     1      -4.282   6.101  12.911  1.00  0.00     0.164 C 
HETATM    9  N2  UNL     1      -5.524   6.579  13.528  1.00  0.00    -0.344 N 
HETATM   10  C11 UNL     1      -6.666   5.794  13.396  1.00  0.00     0.254 C 
HETATM   11  O2  UNL     1      -6.694   4.702  12.836  1.00  0.00    -0.267 OA
HETATM   12  C18 UNL     1      -5.508   7.983  13.953  1.00  0.00     0.156 C 
HETATM   13  C19 UNL     1      -4.213   8.375  14.693  1.00  0.00     0.293 C 
HETATM   14  N3  UNL     1      -3.010   7.894  14.006  1.00  0.00     0.107 N 
HETATM   15  C20 UNL     1      -1.754   8.414  14.551  1.00  0.00     0.375 C 
HETATM   16  C21 UNL     1      -1.096   9.357  13.528  1.00  0.00     0.250 C 
HETATM   17  O3  UNL     1      -1.635  10.404  13.140  1.00  0.00    -0.271 OA
HETATM   18  N4  UNL     1       0.197   9.117  13.144  1.00  0.00    -0.323 N 
HETATM   19  C22 UNL     1       0.773   7.930  12.621  1.00  0.00     0.069 A 
HETATM   20  C23 UNL     1       2.170   7.949  12.460  1.00  0.00     0.044 A 
HETATM   21  H22 UNL     1       0.628   9.958  12.772  1.00  0.00     0.169 HD
ENDROOT
BRANCH  10  22
HETATM   22  C12 UNL     1      -7.910   6.257  14.026  1.00  0.00     0.033 A 
HETATM   23  C13 UNL     1      -7.961   6.505  15.397  1.00  0.00     0.017 A 
HETATM   24  C14 UNL     1      -9.146   6.970  15.967  1.00  0.00     0.003 A 
HETATM   25  C15 UNL     1     -10.262   7.188  15.161  1.00  0.00     0.024 A 
HETATM   26  C16 UNL     1     -10.194   6.943  13.789  1.00  0.00     0.035 A 
HETATM   27 CL1  UNL     1     -11.581   7.205  12.809  1.00  0.00    -0.084 Cl
HETATM   28  C17 UNL     1      -9.018   6.481  13.211  1.00  0.00     0.041 A 
ENDBRANCH  10  22
BRANCH   1  29
HETATM   29  C3  UNL     1       4.292   6.932  11.688  1.00  0.00     0.008 A 
HETATM   30  C2  UNL     1       5.170   7.489  12.595  1.00  0.00     0.123 A 
HETATM   31  N1  UNL     1       6.422   7.305  12.081  1.00  0.00    -0.307 N 
HETATM   32  C1  UNL     1       7.668   7.712  12.676  1.00  0.00     0.177 C 
HETATM   33  N5  UNL     1       6.428   6.657  10.901  1.00  0.00    -0.310 N 
HETATM   34  C24 UNL     1       5.131   6.436  10.659  1.00  0.00     0.120 A 
ATOM     35  H5  UNL     1       7.230   6.397  10.327  1.00  0.00     0.186 HD
ENDBRANCH   1  29
TORSDOF 2
ENDMDL
MODEL 3
REMARK minimizedAffinity -9.46348763
REMARK  2 active torsions:
REMARK  status: ('A' for Active; 'I' for Inactive)
REMARK    1  A    between atoms: C3_4  and  C4_5 
REMARK       I    between atoms: N2_13  and  C11_14 
REMARK    2  A    between atoms: C11_14  and  C12_16 
ROOT
HETATM    1  C4  UNL     1      -3.391   3.761  12.069  1.00  0.00    -0.021 A 
HETATM    2  C5  UNL     1      -2.410   3.250  11.214  1.00  0.00     0.015 A 
HETATM    3  C6  UNL     1      -1.123   3.785  11.225  1.00  0.00     0.040 A 
HETATM    4  C7  UNL     1      -0.798   4.825  12.104  1.00  0.00     0.095 A 
HETATM    5  O1  UNL     1       0.516   5.201  12.163  1.00  0.00    -0.347 OA
HETATM    6  C8  UNL     1       0.873   6.009  11.030  1.00  0.00     0.213 C 
HETATM    7  C9  UNL     1       1.833   7.117  11.497  1.00  0.00     0.265 C 
HETATM    8  C10 UNL     1       3.279   6.564  11.526  1.00  0.00     0.164 C 
HETATM    9  N2  UNL     1       4.241   7.611  11.893  1.00  0.00    -0.344 N 
HETATM   10  C11 UNL     1       5.482   7.610  11.265  1.00  0.00     0.254 C 
HETATM   11  O2  UNL     1       5.813   6.818  10.387  1.00  0.00    -0.267 OA
HETATM   12  C18 UNL     1       3.909   8.362  13.109  1.00  0.00     0.156 C 
HETATM   13  C19 UNL     1       2.425   8.779  13.175  1.00  0.00     0.293 C 
HETATM   14  N3  UNL     1       1.521   7.679  12.829  1.00  0.00     0.107 N 
HETATM   15  C20 UNL     1       0.105   7.959  13.077  1.00  0.00     0.375 C 
HETATM   16  C21 UNL     1      -0.406   7.073  14.227  1.00  0.00     0.250 C 
HETATM   17  O3  UNL     1       0.051   7.138  15.377  1.00  0.00    -0.271 OA
HETATM   18  N4  UNL     1      -1.510   6.289  14.016  1.00  0.00    -0.323 N 
HETATM   19  C22 UNL     1      -1.753   5.335  12.993  1.00  0.00     0.069 A 
HETATM   20  C23 UNL     1      -3.051   4.795  12.957  1.00  0.00     0.044 A 
HETATM   21  H22 UNL     1      -1.953   6.041  14.895  1.00  0.00     0.169 HD
ENDROOT
BRANCH  10  22
HETATM   22  C12 UNL     1       6.444   8.665  11.614  1.00  0.00     0.033 A 
HETATM   23  C13 UNL     1       6.498   9.847  10.877  1.00  0.00     0.017 A 
HETATM   24  C14 UNL     1       7.401  10.845  11.245  1.00  0.00     0.003 A 
HETATM   25  C15 UNL     1       8.233  10.652  12.346  1.00  0.00     0.024 A 
HETATM   26  C16 UNL     1       8.163   9.467  13.079  1.00  0.00     0.035 A 
HETATM   27 CL1  UNL     1       9.202   9.238  14.428  1.00  0.00    -0.084 Cl
HETATM   28  C17 UNL     1       7.266   8.467  12.722  1.00  0.00     0.041 A 
ENDBRANCH  10  22
BRANCH   1  29
HETATM   29  C3  UNL     1      -4.733   3.216  12.057  1.00  0.00     0.008 A 
HETATM   30  C2  UNL     1      -5.814   3.766  12.715  1.00  0.00     0.123 A 
HETATM   31  N1  UNL     1      -6.885   2.968  12.429  1.00  0.00    -0.307 N 
HETATM   32  C1  UNL     1      -8.239   3.143  12.886  1.00  0.00     0.177 C 
HETATM   33  N5  UNL     1      -6.583   1.935  11.620  1.00  0.00    -0.310 N 
HETATM   34  C24 UNL     1      -5.273   2.083  11.399  1.00  0.00     0.120 A 
ATOM     35  H5  UNL     1      -7.206   1.211  11.261  1.00  0.00     0.186 HD
ENDBRANCH   1  29
TORSDOF 2
ENDMDL
MODEL 4
REMARK minimizedAffinity -9.45279121
REMARK  2 active torsions:
REMARK  status: ('A' for Active; 'I' for Inactive)
REMARK    1  A    between atoms: C3_4  and  C4_5 
REMARK       I    between atoms: N2_13  and  C11_14 
REMARK    2  A    between atoms: C11_14  and  C12_16 
ROOT
HETATM    1  C4  UNL     1      -4.926   5.427  13.258  1.00  0.00    -0.021 A 
HETATM    2  C5  UNL     1      -4.132   4.683  12.382  1.00  0.00     0.015 A 
HETATM    3  C6  UNL     1      -2.759   4.914  12.312  1.00  0.00     0.040 A 
HETATM    4  C7  UNL     1      -2.163   5.879  13.133  1.00  0.00     0.095 A 
HETATM    5  O1  UNL     1      -0.797   5.950  13.117  1.00  0.00    -0.347 OA
HETATM    6  C8  UNL     1      -0.329   6.624  11.938  1.00  0.00     0.213 C 
HETATM    7  C9  UNL     1       0.879   7.499  12.316  1.00  0.00     0.265 C 
HETATM    8  C10 UNL     1       2.164   6.635  12.301  1.00  0.00     0.164 C 
HETATM    9  N2  UNL     1       3.354   7.448  12.582  1.00  0.00    -0.344 N 
HETATM   10  C11 UNL     1       4.528   7.149  11.898  1.00  0.00     0.254 C 
HETATM   11  O2  UNL     1       4.626   6.277  11.039  1.00  0.00    -0.267 OA
HETATM   12  C18 UNL     1       3.264   8.289  13.780  1.00  0.00     0.156 C 
HETATM   13  C19 UNL     1       1.917   9.032  13.897  1.00  0.00     0.293 C 
HETATM   14  N3  UNL     1       0.771   8.155  13.636  1.00  0.00     0.107 N 
HETATM   15  C20 UNL     1      -0.530   8.755  13.937  1.00  0.00     0.375 C 
HETATM   16  C21 UNL     1      -1.165   8.040  15.143  1.00  0.00     0.250 C 
HETATM   17  O3  UNL     1      -0.644   8.035  16.268  1.00  0.00    -0.271 OA
HETATM   18  N4  UNL     1      -2.426   7.520  15.014  1.00  0.00    -0.323 N 
HETATM   19  C22 UNL     1      -2.930   6.617  14.043  1.00  0.00     0.069 A 
HETATM   20  C23 UNL     1      -4.316   6.382  14.088  1.00  0.00     0.044 A 
HETATM   21  H22 UNL     1      -2.866   7.405  15.922  1.00  0.00     0.169 HD
ENDROOT
BRANCH  10  22
HETATM   22  C12 UNL     1       5.719   7.969  12.160  1.00  0.00     0.033 A 
HETATM   23  C13 UNL     1       5.892   9.193  11.517  1.00  0.00     0.017 A 
HETATM   24  C14 UNL     1       7.017   9.966  11.803  1.00  0.00     0.003 A 
HETATM   25  C15 UNL     1       7.951   9.510  12.732  1.00  0.00     0.024 A 
HETATM   26  C16 UNL     1       7.761   8.286  13.374  1.00  0.00     0.035 A 
HETATM   27 CL1  UNL     1       8.925   7.731  14.509  1.00  0.00    -0.084 Cl
HETATM   28  C17 UNL     1       6.642   7.509  13.098  1.00  0.00     0.041 A 
ENDBRANCH  10  22
BRANCH   1  29
HETATM   29  C3  UNL     1      -6.355   5.199  13.329  1.00  0.00     0.008 A 
HETATM   30  C2  UNL     1      -7.313   6.191  13.337  1.00  0.00     0.123 A 
HETATM   31  N1  UNL     1      -8.522   5.558  13.387  1.00  0.00    -0.307 N 
HETATM   32  C1  UNL     1      -9.822   6.178  13.406  1.00  0.00     0.177 C 
HETATM   33  N5  UNL     1      -8.425   4.215  13.404  1.00  0.00    -0.310 N 
HETATM   34  C24 UNL     1      -7.105   3.998  13.376  1.00  0.00     0.120 A 
ATOM     35  H5  UNL     1      -9.177   3.528  13.433  1.00  0.00     0.186 HD
ENDBRANCH   1  29
TORSDOF 2
ENDMDL
MODEL 5
REMARK minimizedAffinity -9.24862194
REMARK  2 active torsions:
REMARK  status: ('A' for Active; 'I' for Inactive)
REMARK    1  A    between atoms: C3_4  and  C4_5 
REMARK       I    between atoms: N2_13  and  C11_14 
REMARK    2  A    between atoms: C11_14  and  C12_16 
ROOT
HETATM    1  C4  UNL     1       5.623   8.725  13.167  1.00  0.00    -0.021 A 
HETATM    2  C5  UNL     1       4.855   8.886  14.324  1.00  0.00     0.015 A 
HETATM    3  C6  UNL     1       3.592   8.304  14.412  1.00  0.00     0.040 A 
HETATM    4  C7  UNL     1       3.091   7.538  13.353  1.00  0.00     0.095 A 
HETATM    5  O1  UNL     1       1.912   6.878  13.567  1.00  0.00    -0.347 OA
HETATM    6  C8  UNL     1       0.795   7.777  13.481  1.00  0.00     0.213 C 
HETATM    7  C9  UNL     1      -0.371   7.050  12.787  1.00  0.00     0.265 C 
HETATM    8  C10 UNL     1      -1.153   6.219  13.834  1.00  0.00     0.164 C 
HETATM    9  N2  UNL     1      -2.322   5.569  13.229  1.00  0.00    -0.344 N 
HETATM   10  C11 UNL     1      -3.486   5.478  13.986  1.00  0.00     0.254 C 
HETATM   11  O2  UNL     1      -3.617   5.947  15.113  1.00  0.00    -0.267 OA
HETATM   12  C18 UNL     1      -2.047   4.806  12.007  1.00  0.00     0.156 C 
HETATM   13  C19 UNL     1      -1.128   5.557  11.020  1.00  0.00     0.293 C 
HETATM   14  N3  UNL     1       0.035   6.153  11.685  1.00  0.00     0.107 N 
HETATM   15  C20 UNL     1       1.041   6.695  10.770  1.00  0.00     0.375 C 
HETATM   16  C21 UNL     1       2.324   5.848  10.850  1.00  0.00     0.250 C 
HETATM   17  O3  UNL     1       2.354   4.647  10.545  1.00  0.00    -0.271 OA
HETATM   18  N4  UNL     1       3.513   6.474  11.119  1.00  0.00    -0.323 N 
HETATM   19  C22 UNL     1       3.853   7.334  12.196  1.00  0.00     0.069 A 
HETATM   20  C23 UNL     1       5.118   7.943  12.116  1.00  0.00     0.044 A 
HETATM   21  H22 UNL     1       4.299   5.914  10.802  1.00  0.00     0.169 HD
ENDROOT
BRANCH  10  22
HETATM   22  C12 UNL     1      -4.666   4.844  13.382  1.00  0.00     0.033 A 
HETATM   23  C13 UNL     1      -5.907   5.478  13.417  1.00  0.00     0.017 A 
HETATM   24  C14 UNL     1      -7.007   4.869  12.813  1.00  0.00     0.003 A 
HETATM   25  C15 UNL     1      -6.852   3.639  12.176  1.00  0.00     0.024 A 
HETATM   26  C16 UNL     1      -5.603   3.020  12.142  1.00  0.00     0.035 A 
HETATM   27 CL1  UNL     1      -5.428   1.498  11.363  1.00  0.00    -0.084 Cl
HETATM   28  C17 UNL     1      -4.500   3.619  12.739  1.00  0.00     0.041 A 
ENDBRANCH  10  22
BRANCH   1  29
HETATM   29  C3  UNL     1       6.933   9.335  13.064  1.00  0.00     0.008 A 
HETATM   30  C2  UNL     1       8.074   8.864  13.679  1.00  0.00     0.123 A 
HETATM   31  N1  UNL     1       9.086   9.704  13.308  1.00  0.00    -0.307 N 
HETATM   32  C1  UNL     1      10.469   9.613  13.696  1.00  0.00     0.177 C 
HETATM   33  N5  UNL     1       8.689  10.691  12.483  1.00  0.00    -0.310 N 
HETATM   34  C24 UNL     1       7.378  10.470  12.340  1.00  0.00     0.120 A 
ATOM     35  H5  UNL     1       9.253  11.431  12.067  1.00  0.00     0.186 HD
ENDBRANCH   1  29
TORSDOF 2
ENDMDL
MODEL 6
REMARK minimizedAffinity -9.2241087
REMARK  2 active torsions:
REMARK  status: ('A' for Active; 'I' for Inactive)
REMARK    1  A    between atoms: C3_4  and  C4_5 
REMARK       I    between atoms: N2_13  and  C11_14 
REMARK    2  A    between atoms: C11_14  and  C12_16 
ROOT
HETATM    1  C4  UNL     1      -4.805   5.438  13.276  1.00  0.00    -0.021 A 
HETATM    2  C5  UNL     1      -4.022   4.779  12.324  1.00  0.00     0.015 A 
HETATM    3  C6  UNL     1      -2.648   5.006  12.269  1.00  0.00     0.040 A 
HETATM    4  C7  UNL     1      -2.039   5.880  13.178  1.00  0.00     0.095 A 
HETATM    5  O1  UNL     1      -0.672   5.943  13.159  1.00  0.00    -0.347 OA
HETATM    6  C8  UNL     1      -0.206   6.727  12.051  1.00  0.00     0.213 C 
HETATM    7  C9  UNL     1       1.011   7.552  12.506  1.00  0.00     0.265 C 
HETATM    8  C10 UNL     1       2.289   6.685  12.397  1.00  0.00     0.164 C 
HETATM    9  N2  UNL     1       3.486   7.457  12.749  1.00  0.00    -0.344 N 
HETATM   10  C11 UNL     1       4.654   7.219  12.031  1.00  0.00     0.254 C 
HETATM   11  O2  UNL     1       4.740   6.437  11.089  1.00  0.00    -0.267 OA
HETATM   12  C18 UNL     1       3.410   8.175  14.027  1.00  0.00     0.156 C 
HETATM   13  C19 UNL     1       2.070   8.912  14.226  1.00  0.00     0.293 C 
HETATM   14  N3  UNL     1       0.916   8.073  13.886  1.00  0.00     0.107 N 
HETATM   15  C20 UNL     1      -0.379   8.650  14.254  1.00  0.00     0.375 C 
HETATM   16  C21 UNL     1      -1.012   7.823  15.387  1.00  0.00     0.250 C 
HETATM   17  O3  UNL     1      -0.485   7.701  16.502  1.00  0.00    -0.271 OA
HETATM   18  N4  UNL     1      -2.278   7.327  15.216  1.00  0.00    -0.323 N 
HETATM   19  C22 UNL     1      -2.795   6.529  14.162  1.00  0.00     0.069 A 
HETATM   20  C23 UNL     1      -4.183   6.301  14.192  1.00  0.00     0.044 A 
HETATM   21  H22 UNL     1      -2.714   7.124  16.110  1.00  0.00     0.169 HD
ENDROOT
BRANCH  10  22
HETATM   22  C12 UNL     1       5.853   8.000  12.366  1.00  0.00     0.033 A 
HETATM   23  C13 UNL     1       6.878   7.436  13.123  1.00  0.00     0.017 A 
HETATM   24  C14 UNL     1       8.018   8.188  13.405  1.00  0.00     0.003 A 
HETATM   25  C15 UNL     1       8.123   9.491  12.921  1.00  0.00     0.024 A 
HETATM   26  C16 UNL     1       7.092  10.041  12.159  1.00  0.00     0.035 A 
HETATM   27 CL1  UNL     1       7.229  11.653  11.579  1.00  0.00    -0.084 Cl
HETATM   28  C17 UNL     1       5.952   9.299  11.871  1.00  0.00     0.041 A 
ENDBRANCH  10  22
BRANCH   1  29
HETATM   29  C3  UNL     1      -6.235   5.214  13.333  1.00  0.00     0.008 A 
HETATM   30  C2  UNL     1      -7.190   6.209  13.333  1.00  0.00     0.123 A 
HETATM   31  N1  UNL     1      -8.402   5.579  13.371  1.00  0.00    -0.307 N 
HETATM   32  C1  UNL     1      -9.699   6.203  13.379  1.00  0.00     0.177 C 
HETATM   33  N5  UNL     1      -8.308   4.237  13.388  1.00  0.00    -0.310 N 
HETATM   34  C24 UNL     1      -6.989   4.015  13.371  1.00  0.00     0.120 A 
ATOM     35  H5  UNL     1      -9.063   3.551  13.408  1.00  0.00     0.186 HD
ENDBRANCH   1  29
TORSDOF 2
ENDMDL
MODEL 7
REMARK minimizedAffinity -9.16660786
REMARK  2 active torsions:
REMARK  status: ('A' for Active; 'I' for Inactive)
REMARK    1  A    between atoms: C3_4  and  C4_5 
REMARK       I    between atoms: N2_13  and  C11_14 
REMARK    2  A    between atoms: C11_14  and  C12_16 
ROOT
HETATM    1  C4  UNL     1      -6.736   7.226  14.283  1.00  0.00    -0.021 A 
HETATM    2  C5  UNL     1      -6.098   8.462  14.414  1.00  0.00     0.015 A 
HETATM    3  C6  UNL     1      -4.755   8.598  14.064  1.00  0.00     0.040 A 
HETATM    4  C7  UNL     1      -4.042   7.504  13.561  1.00  0.00     0.095 A 
HETATM    5  O1  UNL     1      -2.775   7.745  13.103  1.00  0.00    -0.347 OA
HETATM    6  C8  UNL     1      -1.850   7.882  14.193  1.00  0.00     0.213 C 
HETATM    7  C9  UNL     1      -0.519   7.218  13.797  1.00  0.00     0.265 C 
HETATM    8  C10 UNL     1       0.332   8.221  12.981  1.00  0.00     0.164 C 
HETATM    9  N2  UNL     1       1.645   7.654  12.648  1.00  0.00    -0.344 N 
HETATM   10  C11 UNL     1       2.748   8.503  12.663  1.00  0.00     0.254 C 
HETATM   11  O2  UNL     1       2.705   9.687  12.982  1.00  0.00    -0.267 OA
HETATM   12  C18 UNL     1       1.610   6.324  12.030  1.00  0.00     0.156 C 
HETATM   13  C19 UNL     1       0.636   5.357  12.734  1.00  0.00     0.293 C 
HETATM   14  N3  UNL     1      -0.665   5.977  13.008  1.00  0.00     0.107 N 
HETATM   15  C20 UNL     1      -1.689   5.045  13.483  1.00  0.00     0.375 C 
HETATM   16  C21 UNL     1      -2.787   4.892  12.414  1.00  0.00     0.250 C 
HETATM   17  O3  UNL     1      -2.562   4.436  11.284  1.00  0.00    -0.271 OA
HETATM   18  N4  UNL     1      -4.091   5.122  12.769  1.00  0.00    -0.323 N 
HETATM   19  C22 UNL     1      -4.665   6.262  13.389  1.00  0.00     0.069 A 
HETATM   20  C23 UNL     1      -6.016   6.138  13.763  1.00  0.00     0.044 A 
HETATM   21  H22 UNL     1      -4.728   4.663  12.126  1.00  0.00     0.169 HD
ENDROOT
BRANCH  10  22
HETATM   22  C12 UNL     1       4.068   7.940  12.347  1.00  0.00     0.033 A 
HETATM   23  C13 UNL     1       4.352   7.474  11.065  1.00  0.00     0.017 A 
HETATM   24  C14 UNL     1       5.621   6.970  10.782  1.00  0.00     0.003 A 
HETATM   25  C15 UNL     1       6.592   6.943  11.782  1.00  0.00     0.024 A 
HETATM   26  C16 UNL     1       6.297   7.420  13.059  1.00  0.00     0.035 A 
HETATM   27 CL1  UNL     1       7.500   7.371  14.285  1.00  0.00    -0.084 Cl
HETATM   28  C17 UNL     1       5.036   7.926  13.351  1.00  0.00     0.041 A 
ENDBRANCH  10  22
BRANCH   1  29
HETATM   29  C3  UNL     1      -8.129   7.075  14.653  1.00  0.00     0.008 A 
HETATM   30  C2  UNL     1      -9.174   6.958  13.760  1.00  0.00     0.123 A 
HETATM   31  N1  UNL     1     -10.306   6.811  14.512  1.00  0.00    -0.307 N 
HETATM   32  C1  UNL     1     -11.650   6.646  14.024  1.00  0.00     0.177 C 
HETATM   33  N5  UNL     1     -10.074   6.813  15.838  1.00  0.00    -0.310 N 
HETATM   34  C24 UNL     1      -8.749   6.980  15.923  1.00  0.00     0.120 A 
ATOM     35  H5  UNL     1     -10.747   6.712  16.597  1.00  0.00     0.186 HD
ENDBRANCH   1  29
TORSDOF 2
ENDMDL
MODEL 8
REMARK minimizedAffinity -9.01359558
REMARK  2 active torsions:
REMARK  status: ('A' for Active; 'I' for Inactive)
REMARK    1  A    between atoms: C3_4  and  C4_5 
REMARK       I    between atoms: N2_13  and  C11_14 
REMARK    2  A    between atoms: C11_14  and  C12_16 
ROOT
HETATM    1  C4  UNL     1      -7.034   7.075  14.574  1.00  0.00    -0.021 A 
HETATM    2  C5  UNL     1      -6.594   6.194  13.582  1.00  0.00     0.015 A 
HETATM    3  C6  UNL     1      -5.233   6.078  13.302  1.00  0.00     0.040 A 
HETATM    4  C7  UNL     1      -4.297   6.828  14.024  1.00  0.00     0.095 A 
HETATM    5  O1  UNL     1      -2.975   6.557  13.797  1.00  0.00    -0.347 OA
HETATM    6  C8  UNL     1      -2.533   7.142  12.562  1.00  0.00     0.213 C 
HETATM    7  C9  UNL     1      -1.100   7.672  12.752  1.00  0.00     0.265 C 
HETATM    8  C10 UNL     1      -0.093   6.516  12.536  1.00  0.00     0.164 C 
HETATM    9  N2  UNL     1       1.292   6.994  12.632  1.00  0.00    -0.344 N 
HETATM   10  C11 UNL     1       2.237   6.440  11.774  1.00  0.00     0.254 C 
HETATM   11  O2  UNL     1       1.982   5.609  10.907  1.00  0.00    -0.267 OA
HETATM   12  C18 UNL     1       1.597   7.779  13.833  1.00  0.00     0.156 C 
HETATM   13  C19 UNL     1       0.515   8.829  14.158  1.00  0.00     0.293 C 
HETATM   14  N3  UNL     1      -0.841   8.277  14.075  1.00  0.00     0.107 N 
HETATM   15  C20 UNL     1      -1.888   9.170  14.575  1.00  0.00     0.375 C 
HETATM   16  C21 UNL     1      -2.497   8.586  15.863  1.00  0.00     0.250 C 
HETATM   17  O3  UNL     1      -1.833   8.403  16.894  1.00  0.00    -0.271 OA
HETATM   18  N4  UNL     1      -3.853   8.402  15.929  1.00  0.00    -0.323 N 
HETATM   19  C22 UNL     1      -4.708   7.695  15.044  1.00  0.00     0.069 A 
HETATM   20  C23 UNL     1      -6.086   7.812  15.302  1.00  0.00     0.044 A 
HETATM   21  H22 UNL     1      -4.168   8.362  16.893  1.00  0.00     0.169 HD
ENDROOT
BRANCH  10  22
HETATM   22  C12 UNL     1       3.622   6.925  11.851  1.00  0.00     0.033 A 
HETATM   23  C13 UNL     1       4.534   6.632  10.839  1.00  0.00     0.017 A 
HETATM   24  C14 UNL     1       5.835   7.127  10.922  1.00  0.00     0.003 A 
HETATM   25  C15 UNL     1       6.207   7.913  12.010  1.00  0.00     0.024 A 
HETATM   26  C16 UNL     1       5.282   8.205  13.013  1.00  0.00     0.035 A 
HETATM   27 CL1  UNL     1       5.758   9.167  14.355  1.00  0.00    -0.084 Cl
HETATM   28  C17 UNL     1       3.982   7.719  12.939  1.00  0.00     0.041 A 
ENDBRANCH  10  22
BRANCH   1  29
HETATM   29  C3  UNL     1      -8.447   7.208  14.864  1.00  0.00     0.008 A 
HETATM   30  C2  UNL     1      -9.464   6.690  14.089  1.00  0.00     0.123 A 
HETATM   31  N1  UNL     1     -10.632   7.014  14.720  1.00  0.00    -0.307 N 
HETATM   32  C1  UNL     1     -11.965   6.682  14.292  1.00  0.00     0.177 C 
HETATM   33  N5  UNL     1     -10.451   7.703  15.863  1.00  0.00    -0.310 N 
HETATM   34  C24 UNL     1      -9.122   7.826  15.946  1.00  0.00     0.120 A 
ATOM     35  H5  UNL     1     -11.158   8.049  16.510  1.00  0.00     0.186 HD
ENDBRANCH   1  29
TORSDOF 2
ENDMDL
MODEL 9
REMARK minimizedAffinity -8.91440296
REMARK  2 active torsions:
REMARK  status: ('A' for Active; 'I' for Inactive)
REMARK    1  A    between atoms: C3_4  and  C4_5 
REMARK       I    between atoms: N2_13  and  C11_14 
REMARK    2  A    between atoms: C11_14  and  C12_16 
ROOT
HETATM    1  C4  UNL     1       7.635   9.609  13.830  1.00  0.00    -0.021 A 
HETATM    2  C5  UNL     1       6.766   9.481  14.917  1.00  0.00     0.015 A 
HETATM    3  C6  UNL     1       5.577   8.766  14.783  1.00  0.00     0.040 A 
HETATM    4  C7  UNL     1       5.253   8.154  13.566  1.00  0.00     0.095 A 
HETATM    5  O1  UNL     1       4.147   7.350  13.549  1.00  0.00    -0.347 OA
HETATM    6  C8  UNL     1       2.942   8.130  13.509  1.00  0.00     0.213 C 
HETATM    7  C9  UNL     1       1.927   7.425  12.592  1.00  0.00     0.265 C 
HETATM    8  C10 UNL     1       1.169   6.343  13.401  1.00  0.00     0.164 C 
HETATM    9  N2  UNL     1       0.135   5.696  12.585  1.00  0.00    -0.344 N 
HETATM   10  C11 UNL     1      -1.065   5.353  13.199  1.00  0.00     0.254 C 
HETATM   11  O2  UNL     1      -1.337   5.597  14.371  1.00  0.00    -0.267 OA
HETATM   12  C18 UNL     1       0.593   5.197  11.284  1.00  0.00     0.156 C 
HETATM   13  C19 UNL     1       1.490   6.202  10.533  1.00  0.00     0.293 C 
HETATM   14  N3  UNL     1       2.520   6.785  11.398  1.00  0.00     0.107 N 
HETATM   15  C20 UNL     1       3.523   7.582  10.690  1.00  0.00     0.375 C 
HETATM   16  C21 UNL     1       4.887   6.871  10.750  1.00  0.00     0.250 C 
HETATM   17  O3  UNL     1       5.081   5.753  10.251  1.00  0.00    -0.271 OA
HETATM   18  N4  UNL     1       5.970   7.557  11.235  1.00  0.00    -0.323 N 
HETATM   19  C22 UNL     1       6.121   8.240  12.470  1.00  0.00     0.069 A 
HETATM   20  C23 UNL     1       7.308   8.980  12.617  1.00  0.00     0.044 A 
HETATM   21  H22 UNL     1       6.838   7.146  10.906  1.00  0.00     0.169 HD
ENDROOT
BRANCH  10  22
HETATM   22  C12 UNL     1      -2.112   4.720  12.385  1.00  0.00     0.033 A 
HETATM   23  C13 UNL     1      -1.806   4.167  11.142  1.00  0.00     0.017 A 
HETATM   24  C14 UNL     1      -2.812   3.548  10.401  1.00  0.00     0.003 A 
HETATM   25  C15 UNL     1      -4.107   3.482  10.911  1.00  0.00     0.024 A 
HETATM   26  C16 UNL     1      -4.397   4.034  12.159  1.00  0.00     0.035 A 
HETATM   27 CL1  UNL     1      -6.001   3.957  12.772  1.00  0.00    -0.084 Cl
HETATM   28  C17 UNL     1      -3.402   4.652  12.908  1.00  0.00     0.041 A 
ENDBRANCH  10  22
BRANCH   1  29
HETATM   29  C3  UNL     1       8.868  10.358  13.959  1.00  0.00     0.008 A 
HETATM   30  C2  UNL     1       9.658  10.389  15.089  1.00  0.00     0.123 A 
HETATM   31  N1  UNL     1      10.728  11.184  14.788  1.00  0.00    -0.307 N 
HETATM   32  C1  UNL     1      11.830  11.511  15.654  1.00  0.00     0.177 C 
HETATM   33  N5  UNL     1      10.699  11.672  13.534  1.00  0.00    -0.310 N 
HETATM   34  C24 UNL     1       9.563  11.174  13.032  1.00  0.00     0.120 A 
ATOM     35  H5  UNL     1      11.380  12.276  13.075  1.00  0.00     0.186 HD
ENDBRANCH   1  29
TORSDOF 2
ENDMDL
