MODEL 1
REMARK minimizedAffinity -7.66491604
REMARK CNNscore 0.635327399
REMARK CNNaffinity 6.42862558
REMARK  12 active torsions:
REMARK  status: ('A' for Active; 'I' for Inactive)
REMARK    1  A    between atoms: C2_2  and  C34_40 
REMARK    2  A    between atoms: C3_3  and  C4_4 
REMARK    3  A    between atoms: C4_4  and  O1_5 
REMARK    4  A    between atoms: C4_4  and  C5_6 
REMARK    5  A    between atoms: C5_6  and  C6_7 
REMARK    6  A    between atoms: C6_7  and  C8_9 
REMARK    7  A    between atoms: C10_11  and  O2_12 
REMARK    8  A    between atoms: C11_13  and  C12_14 
REMARK    9  A    between atoms: C12_14  and  C13_15 
REMARK   10  A    between atoms: C13_15  and  O3_16 
REMARK   11  A    between atoms: C33_38  and  O6_39 
REMARK   12  A    between atoms: C34_40  and  O8_42 
ROOT
HETATM    1  C8  UNL     1       4.412  56.910  -6.812  1.00  0.00     0.002 C 
HETATM    2  C9  UNL     1       5.482  55.896  -7.329  1.00  0.00     0.038 C 
HETATM    3  C10 UNL     1       4.744  54.901  -8.250  1.00  0.00     0.132 C 
HETATM    4  C11 UNL     1       3.373  55.569  -8.545  1.00  0.00     0.022 C 
HETATM    5  C14 UNL     1       2.197  54.680  -8.989  1.00  0.00    -0.029 C 
HETATM    6  C15 UNL     1       0.916  55.004  -8.661  1.00  0.00     0.003 C 
HETATM    7  C16 UNL     1       0.677  56.304  -7.898  1.00  0.00     0.157 C 
HETATM    8  O4  UNL     1      -0.437  56.828  -7.874  1.00  0.00    -0.293 OA
HETATM    9  C17 UNL     1       1.806  56.967  -7.129  1.00  0.00     0.094 C 
HETATM   10  C18 UNL     1       3.076  56.117  -7.074  1.00  0.00    -0.015 C 
HETATM   11  C19 UNL     1       2.947  55.065  -5.877  1.00  0.00     0.011 C 
HETATM   12  C20 UNL     1       2.082  53.804  -5.989  1.00  0.00     0.001 C 
HETATM   13  C21 UNL     1       0.605  54.001  -5.645  1.00  0.00     0.000 C 
HETATM   14  C22 UNL     1      -0.310  53.089  -6.461  1.00  0.00     0.001 C 
HETATM   15  C23 UNL     1      -1.071  53.773  -7.615  1.00  0.00     0.015 C 
HETATM   16  C24 UNL     1      -0.326  54.115  -8.962  1.00  0.00    -0.004 C 
HETATM   17  C25 UNL     1      -1.298  54.865  -9.927  1.00  0.00     0.022 C 
HETATM   18  C26 UNL     1      -2.622  54.136 -10.161  1.00  0.00     0.080 C 
HETATM   19  C27 UNL     1      -2.480  52.633 -10.137  1.00  0.00     0.135 C 
HETATM   20  O5  UNL     1      -3.458  51.925  -9.905  1.00  0.00    -0.297 OA
HETATM   21  C28 UNL     1      -1.113  52.056 -10.507  1.00  0.00     0.018 C 
HETATM   22  C29 UNL     1      -1.080  50.547 -10.184  1.00  0.00     0.023 C 
HETATM   23  C30 UNL     1      -1.036  52.194 -12.044  1.00  0.00     0.023 C 
HETATM   24  C31 UNL     1       0.061  52.758  -9.700  1.00  0.00     0.017 C 
HETATM   25  C32 UNL     1       1.296  52.949 -10.591  1.00  0.00     0.043 C 
HETATM   26  C33 UNL     1       2.503  53.452  -9.819  1.00  0.00     0.149 C 
ENDROOT
BRANCH   1  27
HETATM   27  C6  UNL     1       4.745  57.495  -5.401  1.00  0.00    -0.011 C 
HETATM   28  C7  UNL     1       3.708  58.538  -4.965  1.00  0.00     0.010 C 
BRANCH  27  29
HETATM   29  C5  UNL     1       6.195  58.080  -5.416  1.00  0.00     0.040 C 
BRANCH  29  30
HETATM   30  C4  UNL     1       7.180  57.472  -4.399  1.00  0.00     0.142 C 
BRANCH  30  31
HETATM   31  C3  UNL     1       8.552  58.088  -4.467  1.00  0.00     0.018 C 
HETATM   32  C2  UNL     1       9.707  57.521  -4.873  1.00  0.00     0.010 C 
HETATM   33  C1  UNL     1       9.871  56.122  -5.391  1.00  0.00     0.055 C 
BRANCH  32  34
HETATM   34  C34 UNL     1      10.984  58.283  -4.820  1.00  0.00     0.171 C 
HETATM   35  O7  UNL     1      12.069  57.825  -4.518  1.00  0.00    -0.646 OA
BRANCH  34  36
HETATM   36  O8  UNL     1      10.851  59.580  -5.144  1.00  0.00    -0.773 OA
HETATM   37  H50 UNL     1      11.760  59.931  -5.049  1.00  0.00     0.167 HD
ENDBRANCH  34  36
ENDBRANCH  32  34
ENDBRANCH  30  31
BRANCH  30  38
HETATM   38  O1  UNL     1       6.662  57.644  -3.086  1.00  0.00    -0.392 OA
HETATM   39  H6  UNL     1       7.370  57.436  -2.453  1.00  0.00     0.210 HD
ENDBRANCH  30  38
ENDBRANCH  29  30
ENDBRANCH  27  29
ENDBRANCH   1  27
BRANCH   3  40
HETATM   40  O2  UNL     1       5.507  54.576  -9.404  1.00  0.00    -0.394 OA
HETATM   41  H17 UNL     1       6.420  54.379  -9.111  1.00  0.00     0.210 HD
ENDBRANCH   3  40
BRANCH   4  42
HETATM   42  C12 UNL     1       3.434  56.682  -9.702  1.00  0.00     0.043 C 
BRANCH  42  43
HETATM   43  C13 UNL     1       3.221  56.359 -11.188  1.00  0.00     0.165 C 
BRANCH  43  44
HETATM   44  O3  UNL     1       4.421  56.021 -11.861  1.00  0.00    -0.401 OA
HETATM   45  H22 UNL     1       5.118  56.619 -11.531  1.00  0.00     0.209 HD
ENDBRANCH  43  44
ENDBRANCH  42  43
ENDBRANCH   4  42
BRANCH  26  46
HETATM   46  O6  UNL     1       3.471  53.719 -10.822  1.00  0.00    -0.391 OA
HETATM   47  H49 UNL     1       4.325  53.878 -10.375  1.00  0.00     0.210 HD
ENDBRANCH  26  46
TORSDOF 12
ENDMDL
MODEL 2
REMARK minimizedAffinity -8.68437958
REMARK CNNscore 0.622978032
REMARK CNNaffinity 6.60451651
REMARK  12 active torsions:
REMARK  status: ('A' for Active; 'I' for Inactive)
REMARK    1  A    between atoms: C2_2  and  C34_40 
REMARK    2  A    between atoms: C3_3  and  C4_4 
REMARK    3  A    between atoms: C4_4  and  O1_5 
REMARK    4  A    between atoms: C4_4  and  C5_6 
REMARK    5  A    between atoms: C5_6  and  C6_7 
REMARK    6  A    between atoms: C6_7  and  C8_9 
REMARK    7  A    between atoms: C10_11  and  O2_12 
REMARK    8  A    between atoms: C11_13  and  C12_14 
REMARK    9  A    between atoms: C12_14  and  C13_15 
REMARK   10  A    between atoms: C13_15  and  O3_16 
REMARK   11  A    between atoms: C33_38  and  O6_39 
REMARK   12  A    between atoms: C34_40  and  O8_42 
ROOT
HETATM    1  C8  UNL     1      -4.583  49.374 -22.741  1.00  0.00     0.002 C 
HETATM    2  C9  UNL     1      -4.872  47.837 -22.735  1.00  0.00     0.038 C 
HETATM    3  C10 UNL     1      -4.637  47.346 -21.291  1.00  0.00     0.132 C 
HETATM    4  C11 UNL     1      -4.593  48.638 -20.429  1.00  0.00     0.022 C 
HETATM    5  C14 UNL     1      -3.883  48.593 -19.064  1.00  0.00    -0.029 C 
HETATM    6  C15 UNL     1      -3.252  49.693 -18.569  1.00  0.00     0.003 C 
HETATM    7  C16 UNL     1      -3.324  50.986 -19.377  1.00  0.00     0.157 C 
HETATM    8  O4  UNL     1      -3.093  52.075 -18.851  1.00  0.00    -0.293 OA
HETATM    9  C17 UNL     1      -3.659  50.954 -20.858  1.00  0.00     0.094 C 
HETATM   10  C18 UNL     1      -3.726  49.537 -21.428  1.00  0.00    -0.015 C 
HETATM   11  C19 UNL     1      -2.249  49.055 -21.803  1.00  0.00     0.011 C 
HETATM   12  C20 UNL     1      -1.243  48.602 -20.739  1.00  0.00     0.001 C 
HETATM   13  C21 UNL     1      -0.442  49.730 -20.086  1.00  0.00     0.000 C 
HETATM   14  C22 UNL     1      -0.101  49.431 -18.627  1.00  0.00     0.001 C 
HETATM   15  C23 UNL     1      -0.943  50.187 -17.579  1.00  0.00     0.015 C 
HETATM   16  C24 UNL     1      -2.414  49.717 -17.258  1.00  0.00    -0.004 C 
HETATM   17  C25 UNL     1      -3.065  50.692 -16.225  1.00  0.00     0.022 C 
HETATM   18  C26 UNL     1      -2.230  50.901 -14.962  1.00  0.00     0.080 C 
HETATM   19  C27 UNL     1      -1.451  49.673 -14.558  1.00  0.00     0.135 C 
HETATM   20  O5  UNL     1      -0.456  49.780 -13.843  1.00  0.00    -0.297 OA
HETATM   21  C28 UNL     1      -2.010  48.319 -14.994  1.00  0.00     0.018 C 
HETATM   22  C29 UNL     1      -0.969  47.212 -14.723  1.00  0.00     0.023 C 
HETATM   23  C30 UNL     1      -3.201  48.065 -14.042  1.00  0.00     0.023 C 
HETATM   24  C31 UNL     1      -2.361  48.296 -16.543  1.00  0.00     0.017 C 
HETATM   25  C32 UNL     1      -3.649  47.502 -16.799  1.00  0.00     0.043 C 
HETATM   26  C33 UNL     1      -3.929  47.300 -18.277  1.00  0.00     0.149 C 
ENDROOT
BRANCH   1  27
HETATM   27  C6  UNL     1      -4.064  49.900 -24.119  1.00  0.00    -0.011 C 
HETATM   28  C7  UNL     1      -4.442  51.371 -24.336  1.00  0.00     0.010 C 
BRANCH  27  29
HETATM   29  C5  UNL     1      -4.608  48.979 -25.258  1.00  0.00     0.040 C 
BRANCH  29  30
HETATM   30  C4  UNL     1      -3.554  48.405 -26.225  1.00  0.00     0.142 C 
BRANCH  30  31
HETATM   31  C3  UNL     1      -3.979  48.471 -27.667  1.00  0.00     0.018 C 
HETATM   32  C2  UNL     1      -5.140  48.063 -28.219  1.00  0.00     0.010 C 
HETATM   33  C1  UNL     1      -6.307  47.467 -27.486  1.00  0.00     0.055 C 
BRANCH  32  34
HETATM   34  C34 UNL     1      -5.359  48.166 -29.688  1.00  0.00     0.171 C 
HETATM   35  O7  UNL     1      -4.652  47.674 -30.544  1.00  0.00    -0.646 OA
BRANCH  34  36
HETATM   36  O8  UNL     1      -6.448  48.880 -30.020  1.00  0.00    -0.773 OA
HETATM   37  H50 UNL     1      -6.440  48.862 -30.999  1.00  0.00     0.167 HD
ENDBRANCH  34  36
ENDBRANCH  32  34
ENDBRANCH  30  31
BRANCH  30  38
HETATM   38  O1  UNL     1      -2.336  49.124 -26.069  1.00  0.00    -0.392 OA
HETATM   39  H6  UNL     1      -1.751  48.886 -26.808  1.00  0.00     0.210 HD
ENDBRANCH  30  38
ENDBRANCH  29  30
ENDBRANCH  27  29
ENDBRANCH   1  27
BRANCH   3  40
HETATM   40  O2  UNL     1      -5.614  46.397 -20.886  1.00  0.00    -0.394 OA
HETATM   41  H17 UNL     1      -5.712  45.745 -21.610  1.00  0.00     0.210 HD
ENDBRANCH   3  40
BRANCH   4  42
HETATM   42  C12 UNL     1      -6.045  49.215 -20.057  1.00  0.00     0.043 C 
BRANCH  42  43
HETATM   43  C13 UNL     1      -7.214  49.245 -21.051  1.00  0.00     0.165 C 
BRANCH  43  44
HETATM   44  O3  UNL     1      -7.246  50.424 -21.836  1.00  0.00    -0.401 OA
HETATM   45  H22 UNL     1      -7.012  51.170 -21.252  1.00  0.00     0.209 HD
ENDBRANCH  43  44
ENDBRANCH  42  43
ENDBRANCH   4  42
BRANCH  26  46
HETATM   46  O6  UNL     1      -5.218  46.706 -18.309  1.00  0.00    -0.391 OA
HETATM   47  H49 UNL     1      -5.377  46.394 -19.221  1.00  0.00     0.210 HD
ENDBRANCH  26  46
TORSDOF 12
ENDMDL
MODEL 3
REMARK minimizedAffinity -8.31938267
REMARK CNNscore 0.577743173
REMARK CNNaffinity 6.75346804
REMARK  12 active torsions:
REMARK  status: ('A' for Active; 'I' for Inactive)
REMARK    1  A    between atoms: C2_2  and  C34_40 
REMARK    2  A    between atoms: C3_3  and  C4_4 
REMARK    3  A    between atoms: C4_4  and  O1_5 
REMARK    4  A    between atoms: C4_4  and  C5_6 
REMARK    5  A    between atoms: C5_6  and  C6_7 
REMARK    6  A    between atoms: C6_7  and  C8_9 
REMARK    7  A    between atoms: C10_11  and  O2_12 
REMARK    8  A    between atoms: C11_13  and  C12_14 
REMARK    9  A    between atoms: C12_14  and  C13_15 
REMARK   10  A    between atoms: C13_15  and  O3_16 
REMARK   11  A    between atoms: C33_38  and  O6_39 
REMARK   12  A    between atoms: C34_40  and  O8_42 
ROOT
HETATM    1  C8  UNL     1      -0.912  49.159 -16.827  1.00  0.00     0.002 C 
HETATM    2  C9  UNL     1      -2.047  50.019 -16.183  1.00  0.00     0.038 C 
HETATM    3  C10 UNL     1      -3.069  50.315 -17.300  1.00  0.00     0.132 C 
HETATM    4  C11 UNL     1      -2.712  49.327 -18.444  1.00  0.00     0.022 C 
HETATM    5  C14 UNL     1      -3.160  49.660 -19.879  1.00  0.00    -0.029 C 
HETATM    6  C15 UNL     1      -2.416  49.272 -20.950  1.00  0.00     0.003 C 
HETATM    7  C16 UNL     1      -1.161  48.442 -20.690  1.00  0.00     0.157 C 
HETATM    8  O4  UNL     1      -0.646  47.775 -21.587  1.00  0.00    -0.293 OA
HETATM    9  C17 UNL     1      -0.505  48.443 -19.321  1.00  0.00     0.094 C 
HETATM   10  C18 UNL     1      -1.121  49.460 -18.360  1.00  0.00    -0.015 C 
HETATM   11  C19 UNL     1      -0.460  50.892 -18.621  1.00  0.00     0.011 C 
HETATM   12  C20 UNL     1      -0.845  51.761 -19.823  1.00  0.00     0.001 C 
HETATM   13  C21 UNL     1      -0.087  51.451 -21.115  1.00  0.00     0.000 C 
HETATM   14  C22 UNL     1      -0.940  51.688 -22.361  1.00  0.00     0.001 C 
HETATM   15  C23 UNL     1      -1.486  50.417 -23.043  1.00  0.00     0.015 C 
HETATM   16  C24 UNL     1      -2.723  49.657 -22.427  1.00  0.00    -0.004 C 
HETATM   17  C25 UNL     1      -3.023  48.372 -23.263  1.00  0.00     0.022 C 
HETATM   18  C26 UNL     1      -3.185  48.633 -24.761  1.00  0.00     0.080 C 
HETATM   19  C27 UNL     1      -3.805  49.977 -25.062  1.00  0.00     0.135 C 
HETATM   20  O5  UNL     1      -3.637  50.501 -26.161  1.00  0.00    -0.297 OA
HETATM   21  C28 UNL     1      -4.709  50.583 -23.989  1.00  0.00     0.018 C 
HETATM   22  C29 UNL     1      -5.041  52.046 -24.353  1.00  0.00     0.023 C 
HETATM   23  C30 UNL     1      -6.025  49.780 -24.091  1.00  0.00     0.023 C 
HETATM   24  C31 UNL     1      -4.016  50.576 -22.560  1.00  0.00     0.017 C 
HETATM   25  C32 UNL     1      -5.037  50.253 -21.461  1.00  0.00     0.043 C 
HETATM   26  C33 UNL     1      -4.462  50.410 -20.064  1.00  0.00     0.149 C 
ENDROOT
BRANCH   1  27
HETATM   27  C6  UNL     1       0.480  49.360 -16.143  1.00  0.00    -0.011 C 
HETATM   28  C7  UNL     1       0.635  48.463 -14.909  1.00  0.00     0.010 C 
BRANCH  27  29
HETATM   29  C5  UNL     1       0.669  50.873 -15.797  1.00  0.00     0.040 C 
BRANCH  29  30
HETATM   30  C4  UNL     1       0.612  51.236 -14.301  1.00  0.00     0.142 C 
BRANCH  30  31
HETATM   31  C3  UNL     1       1.799  50.729 -13.526  1.00  0.00     0.018 C 
HETATM   32  C2  UNL     1       3.110  50.909 -13.787  1.00  0.00     0.010 C 
HETATM   33  C1  UNL     1       3.685  51.705 -14.924  1.00  0.00     0.055 C 
BRANCH  32  34
HETATM   34  C34 UNL     1       4.148  50.281 -12.925  1.00  0.00     0.171 C 
HETATM   35  O7  UNL     1       4.204  50.360 -11.714  1.00  0.00    -0.646 OA
BRANCH  34  36
HETATM   36  O8  UNL     1       5.070  49.585 -13.613  1.00  0.00    -0.773 OA
HETATM   37  H50 UNL     1       5.672  49.256 -12.914  1.00  0.00     0.167 HD
ENDBRANCH  34  36
ENDBRANCH  32  34
ENDBRANCH  30  31
BRANCH  30  38
HETATM   38  O1  UNL     1       0.542  52.650 -14.165  1.00  0.00    -0.392 OA
HETATM   39  H6  UNL     1       0.702  52.871 -13.232  1.00  0.00     0.210 HD
ENDBRANCH  30  38
ENDBRANCH  29  30
ENDBRANCH  27  29
ENDBRANCH   1  27
BRANCH   3  40
HETATM   40  O2  UNL     1      -4.408  50.225 -16.835  1.00  0.00    -0.394 OA
HETATM   41  H17 UNL     1      -4.462  50.712 -15.988  1.00  0.00     0.210 HD
ENDBRANCH   3  40
BRANCH   4  42
HETATM   42  C12 UNL     1      -3.297  47.847 -18.223  1.00  0.00     0.043 C 
BRANCH  42  43
HETATM   43  C13 UNL     1      -3.488  47.220 -16.836  1.00  0.00     0.165 C 
BRANCH  43  44
HETATM   44  O3  UNL     1      -4.815  47.335 -16.352  1.00  0.00    -0.401 OA
HETATM   45  H22 UNL     1      -5.137  48.224 -16.594  1.00  0.00     0.209 HD
ENDBRANCH  43  44
ENDBRANCH  42  43
ENDBRANCH   4  42
BRANCH  26  46
HETATM   46  O6  UNL     1      -5.483  49.916 -19.210  1.00  0.00    -0.391 OA
HETATM   47  H49 UNL     1      -5.243  50.153 -18.293  1.00  0.00     0.210 HD
ENDBRANCH  26  46
TORSDOF 12
ENDMDL
MODEL 4
REMARK minimizedAffinity -8.15299892
REMARK CNNscore 0.545692325
REMARK CNNaffinity 6.29830694
REMARK  12 active torsions:
REMARK  status: ('A' for Active; 'I' for Inactive)
REMARK    1  A    between atoms: C2_2  and  C34_40 
REMARK    2  A    between atoms: C3_3  and  C4_4 
REMARK    3  A    between atoms: C4_4  and  O1_5 
REMARK    4  A    between atoms: C4_4  and  C5_6 
REMARK    5  A    between atoms: C5_6  and  C6_7 
REMARK    6  A    between atoms: C6_7  and  C8_9 
REMARK    7  A    between atoms: C10_11  and  O2_12 
REMARK    8  A    between atoms: C11_13  and  C12_14 
REMARK    9  A    between atoms: C12_14  and  C13_15 
REMARK   10  A    between atoms: C13_15  and  O3_16 
REMARK   11  A    between atoms: C33_38  and  O6_39 
REMARK   12  A    between atoms: C34_40  and  O8_42 
ROOT
HETATM    1  C8  UNL     1      -6.941  47.075 -27.280  1.00  0.00     0.002 C 
HETATM    2  C9  UNL     1      -8.365  47.220 -26.650  1.00  0.00     0.038 C 
HETATM    3  C10 UNL     1      -9.359  46.591 -27.648  1.00  0.00     0.132 C 
HETATM    4  C11 UNL     1      -8.477  45.772 -28.632  1.00  0.00     0.022 C 
HETATM    5  C14 UNL     1      -9.038  45.437 -30.026  1.00  0.00    -0.029 C 
HETATM    6  C15 UNL     1      -8.212  45.328 -31.102  1.00  0.00     0.003 C 
HETATM    7  C16 UNL     1      -6.711  45.484 -30.874  1.00  0.00     0.157 C 
HETATM    8  O4  UNL     1      -5.898  45.065 -31.698  1.00  0.00    -0.293 OA
HETATM    9  C17 UNL     1      -6.188  46.187 -29.633  1.00  0.00     0.094 C 
HETATM   10  C18 UNL     1      -7.293  46.833 -28.797  1.00  0.00    -0.015 C 
HETATM   11  C19 UNL     1      -7.634  48.271 -29.405  1.00  0.00     0.011 C 
HETATM   12  C20 UNL     1      -8.469  48.441 -30.679  1.00  0.00     0.001 C 
HETATM   13  C21 UNL     1      -7.680  48.350 -31.986  1.00  0.00     0.000 C 
HETATM   14  C22 UNL     1      -8.503  47.745 -33.122  1.00  0.00     0.001 C 
HETATM   15  C23 UNL     1      -8.169  46.281 -33.478  1.00  0.00     0.015 C 
HETATM   16  C24 UNL     1      -8.692  45.106 -32.566  1.00  0.00    -0.004 C 
HETATM   17  C25 UNL     1      -8.153  43.742 -33.104  1.00  0.00     0.022 C 
HETATM   18  C26 UNL     1      -8.443  43.504 -34.586  1.00  0.00     0.080 C 
HETATM   19  C27 UNL     1      -9.750  44.110 -35.037  1.00  0.00     0.135 C 
HETATM   20  O5  UNL     1      -9.936  44.362 -36.226  1.00  0.00    -0.297 OA
HETATM   21  C28 UNL     1     -10.835  44.293 -33.976  1.00  0.00     0.018 C 
HETATM   22  C29 UNL     1     -11.986  45.147 -34.550  1.00  0.00     0.023 C 
HETATM   23  C30 UNL     1     -11.396  42.872 -33.744  1.00  0.00     0.023 C 
HETATM   24  C31 UNL     1     -10.278  45.025 -32.681  1.00  0.00     0.017 C 
HETATM   25  C32 UNL     1     -10.893  44.426 -31.410  1.00  0.00     0.043 C 
HETATM   26  C33 UNL     1     -10.529  45.207 -30.160  1.00  0.00     0.149 C 
ENDROOT
BRANCH   1  27
HETATM   27  C6  UNL     1      -5.955  48.208 -26.847  1.00  0.00    -0.011 C 
HETATM   28  C7  UNL     1      -4.597  48.070 -27.547  1.00  0.00     0.010 C 
BRANCH  27  29
HETATM   29  C5  UNL     1      -5.817  48.201 -25.290  1.00  0.00     0.040 C 
BRANCH  29  30
HETATM   30  C4  UNL     1      -4.423  48.552 -24.733  1.00  0.00     0.142 C 
BRANCH  30  31
HETATM   31  C3  UNL     1      -4.161  50.034 -24.692  1.00  0.00     0.018 C 
HETATM   32  C2  UNL     1      -3.097  50.712 -25.170  1.00  0.00     0.010 C 
HETATM   33  C1  UNL     1      -1.925  50.119 -25.898  1.00  0.00     0.055 C 
BRANCH  32  34
HETATM   34  C34 UNL     1      -2.993  52.185 -24.988  1.00  0.00     0.171 C 
HETATM   35  O7  UNL     1      -2.852  52.758 -23.926  1.00  0.00    -0.646 OA
BRANCH  34  36
HETATM   36  O8  UNL     1      -3.071  52.876 -26.139  1.00  0.00    -0.773 OA
HETATM   37  H50 UNL     1      -2.999  53.808 -25.848  1.00  0.00     0.167 HD
ENDBRANCH  34  36
ENDBRANCH  32  34
ENDBRANCH  30  31
BRANCH  30  38
HETATM   38  O1  UNL     1      -4.298  48.025 -23.419  1.00  0.00    -0.392 OA
HETATM   39  H6  UNL     1      -3.504  48.414 -23.013  1.00  0.00     0.210 HD
ENDBRANCH  30  38
ENDBRANCH  29  30
ENDBRANCH  27  29
ENDBRANCH   1  27
BRANCH   3  40
HETATM   40  O2  UNL     1     -10.369  45.838 -26.991  1.00  0.00    -0.394 OA
HETATM   41  H17 UNL     1     -10.706  46.379 -26.248  1.00  0.00     0.210 HD
ENDBRANCH   3  40
BRANCH   4  42
HETATM   42  C12 UNL     1      -8.047  44.332 -28.065  1.00  0.00     0.043 C 
BRANCH  42  43
HETATM   43  C13 UNL     1      -8.548  43.774 -26.726  1.00  0.00     0.165 C 
BRANCH  43  44
HETATM   44  O3  UNL     1      -7.531  43.136 -25.974  1.00  0.00    -0.401 OA
HETATM   45  H22 UNL     1      -6.980  42.629 -26.601  1.00  0.00     0.209 HD
ENDBRANCH  43  44
ENDBRANCH  42  43
ENDBRANCH   4  42
BRANCH  26  46
HETATM   46  O6  UNL     1     -11.041  44.419 -29.096  1.00  0.00    -0.391 OA
HETATM   47  H49 UNL     1     -10.992  44.955 -28.280  1.00  0.00     0.210 HD
ENDBRANCH  26  46
TORSDOF 12
ENDMDL
MODEL 5
REMARK minimizedAffinity -7.75022507
REMARK CNNscore 0.541990995
REMARK CNNaffinity 6.52979898
REMARK  12 active torsions:
REMARK  status: ('A' for Active; 'I' for Inactive)
REMARK    1  A    between atoms: C2_2  and  C34_40 
REMARK    2  A    between atoms: C3_3  and  C4_4 
REMARK    3  A    between atoms: C4_4  and  O1_5 
REMARK    4  A    between atoms: C4_4  and  C5_6 
REMARK    5  A    between atoms: C5_6  and  C6_7 
REMARK    6  A    between atoms: C6_7  and  C8_9 
REMARK    7  A    between atoms: C10_11  and  O2_12 
REMARK    8  A    between atoms: C11_13  and  C12_14 
REMARK    9  A    between atoms: C12_14  and  C13_15 
REMARK   10  A    between atoms: C13_15  and  O3_16 
REMARK   11  A    between atoms: C33_38  and  O6_39 
REMARK   12  A    between atoms: C34_40  and  O8_42 
ROOT
HETATM    1  C8  UNL     1      -3.353  49.736 -22.544  1.00  0.00     0.002 C 
HETATM    2  C9  UNL     1      -3.502  49.124 -23.974  1.00  0.00     0.038 C 
HETATM    3  C10 UNL     1      -4.685  48.135 -23.913  1.00  0.00     0.132 C 
HETATM    4  C11 UNL     1      -5.421  48.470 -22.587  1.00  0.00     0.022 C 
HETATM    5  C14 UNL     1      -6.315  47.394 -21.943  1.00  0.00    -0.029 C 
HETATM    6  C15 UNL     1      -6.459  47.324 -20.592  1.00  0.00     0.003 C 
HETATM    7  C16 UNL     1      -5.761  48.382 -19.740  1.00  0.00     0.157 C 
HETATM    8  O4  UNL     1      -6.115  48.594 -18.580  1.00  0.00    -0.293 OA
HETATM    9  C17 UNL     1      -4.596  49.178 -20.299  1.00  0.00     0.094 C 
HETATM   10  C18 UNL     1      -4.131  48.682 -21.668  1.00  0.00    -0.015 C 
HETATM   11  C19 UNL     1      -3.128  47.453 -21.465  1.00  0.00     0.011 C 
HETATM   12  C20 UNL     1      -3.621  46.049 -21.099  1.00  0.00     0.001 C 
HETATM   13  C21 UNL     1      -3.829  45.806 -19.603  1.00  0.00     0.000 C 
HETATM   14  C22 UNL     1      -4.975  44.834 -19.325  1.00  0.00     0.001 C 
HETATM   15  C23 UNL     1      -6.285  45.477 -18.827  1.00  0.00     0.015 C 
HETATM   16  C24 UNL     1      -7.244  46.209 -19.842  1.00  0.00    -0.004 C 
HETATM   17  C25 UNL     1      -8.452  46.832 -19.072  1.00  0.00     0.022 C 
HETATM   18  C26 UNL     1      -9.195  45.837 -18.179  1.00  0.00     0.080 C 
HETATM   19  C27 UNL     1      -9.209  44.436 -18.742  1.00  0.00     0.135 C 
HETATM   20  O5  UNL     1      -9.392  43.474 -17.997  1.00  0.00    -0.297 OA
HETATM   21  C28 UNL     1      -9.087  44.293 -20.259  1.00  0.00     0.018 C 
HETATM   22  C29 UNL     1      -8.864  42.810 -20.626  1.00  0.00     0.023 C 
HETATM   23  C30 UNL     1     -10.480  44.690 -20.799  1.00  0.00     0.023 C 
HETATM   24  C31 UNL     1      -7.868  45.132 -20.835  1.00  0.00     0.017 C 
HETATM   25  C32 UNL     1      -8.234  45.770 -22.181  1.00  0.00     0.043 C 
HETATM   26  C33 UNL     1      -7.047  46.433 -22.856  1.00  0.00     0.149 C 
ENDROOT
BRANCH   1  27
HETATM   27  C6  UNL     1      -1.886  50.153 -22.200  1.00  0.00    -0.011 C 
HETATM   28  C7  UNL     1      -1.132  49.021 -21.489  1.00  0.00     0.010 C 
BRANCH  27  29
HETATM   29  C5  UNL     1      -1.910  51.466 -21.352  1.00  0.00     0.040 C 
BRANCH  29  30
HETATM   30  C4  UNL     1      -0.642  51.761 -20.528  1.00  0.00     0.142 C 
BRANCH  30  31
HETATM   31  C3  UNL     1       0.129  52.950 -21.039  1.00  0.00     0.018 C 
HETATM   32  C2  UNL     1       0.685  53.130 -22.255  1.00  0.00     0.010 C 
HETATM   33  C1  UNL     1       0.624  52.169 -23.406  1.00  0.00     0.055 C 
BRANCH  32  34
HETATM   34  C34 UNL     1       1.459  54.364 -22.559  1.00  0.00     0.171 C 
HETATM   35  O7  UNL     1       2.099  55.013 -21.756  1.00  0.00    -0.646 OA
BRANCH  34  36
HETATM   36  O8  UNL     1       1.396  54.734 -23.849  1.00  0.00    -0.773 OA
HETATM   37  H50 UNL     1       1.935  55.551 -23.877  1.00  0.00     0.167 HD
ENDBRANCH  34  36
ENDBRANCH  32  34
ENDBRANCH  30  31
BRANCH  30  38
HETATM   38  O1  UNL     1      -1.007  51.996 -19.174  1.00  0.00    -0.392 OA
HETATM   39  H6  UNL     1      -0.236  52.367 -18.714  1.00  0.00     0.210 HD
ENDBRANCH  30  38
ENDBRANCH  29  30
ENDBRANCH  27  29
ENDBRANCH   1  27
BRANCH   3  40
HETATM   40  O2  UNL     1      -5.498  48.204 -25.077  1.00  0.00    -0.394 OA
HETATM   41  H17 UNL     1      -4.905  48.201 -25.855  1.00  0.00     0.210 HD
ENDBRANCH   3  40
BRANCH   4  42
HETATM   42  C12 UNL     1      -6.409  49.732 -22.699  1.00  0.00     0.043 C 
BRANCH  42  43
HETATM   43  C13 UNL     1      -7.880  49.610 -23.119  1.00  0.00     0.165 C 
BRANCH  43  44
HETATM   44  O3  UNL     1      -8.076  49.776 -24.512  1.00  0.00    -0.401 OA
HETATM   45  H22 UNL     1      -7.487  50.497 -24.805  1.00  0.00     0.209 HD
ENDBRANCH  43  44
ENDBRANCH  42  43
ENDBRANCH   4  42
BRANCH  26  46
HETATM   46  O6  UNL     1      -7.609  47.095 -23.979  1.00  0.00    -0.391 OA
HETATM   47  H49 UNL     1      -6.873  47.392 -24.548  1.00  0.00     0.210 HD
ENDBRANCH  26  46
TORSDOF 12
ENDMDL
MODEL 6
REMARK minimizedAffinity -8.58791065
REMARK CNNscore 0.527486801
REMARK CNNaffinity 6.49211121
REMARK  12 active torsions:
REMARK  status: ('A' for Active; 'I' for Inactive)
REMARK    1  A    between atoms: C2_2  and  C34_40 
REMARK    2  A    between atoms: C3_3  and  C4_4 
REMARK    3  A    between atoms: C4_4  and  O1_5 
REMARK    4  A    between atoms: C4_4  and  C5_6 
REMARK    5  A    between atoms: C5_6  and  C6_7 
REMARK    6  A    between atoms: C6_7  and  C8_9 
REMARK    7  A    between atoms: C10_11  and  O2_12 
REMARK    8  A    between atoms: C11_13  and  C12_14 
REMARK    9  A    between atoms: C12_14  and  C13_15 
REMARK   10  A    between atoms: C13_15  and  O3_16 
REMARK   11  A    between atoms: C33_38  and  O6_39 
REMARK   12  A    between atoms: C34_40  and  O8_42 
ROOT
HETATM    1  C8  UNL     1      -7.960  46.245 -33.340  1.00  0.00     0.002 C 
HETATM    2  C9  UNL     1      -7.083  47.537 -33.412  1.00  0.00     0.038 C 
HETATM    3  C10 UNL     1      -6.768  47.943 -31.957  1.00  0.00     0.132 C 
HETATM    4  C11 UNL     1      -7.135  46.698 -31.104  1.00  0.00     0.022 C 
HETATM    5  C14 UNL     1      -7.439  46.889 -29.607  1.00  0.00    -0.029 C 
HETATM    6  C15 UNL     1      -8.331  46.084 -28.968  1.00  0.00     0.003 C 
HETATM    7  C16 UNL     1      -8.970  44.948 -29.762  1.00  0.00     0.157 C 
HETATM    8  O4  UNL     1      -9.496  43.993 -29.191  1.00  0.00    -0.293 OA
HETATM    9  C17 UNL     1      -8.992  44.985 -31.280  1.00  0.00     0.094 C 
HETATM   10  C18 UNL     1      -8.490  46.309 -31.857  1.00  0.00    -0.015 C 
HETATM   11  C19 UNL     1      -9.691  47.364 -31.864  1.00  0.00     0.011 C 
HETATM   12  C20 UNL     1     -10.161  48.073 -30.589  1.00  0.00     0.001 C 
HETATM   13  C21 UNL     1     -11.179  47.294 -29.754  1.00  0.00     0.000 C 
HETATM   14  C22 UNL     1     -11.034  47.565 -28.258  1.00  0.00     0.001 C 
HETATM   15  C23 UNL     1     -10.355  46.445 -27.443  1.00  0.00     0.015 C 
HETATM   16  C24 UNL     1      -8.789  46.268 -27.492  1.00  0.00    -0.004 C 
HETATM   17  C25 UNL     1      -8.372  45.024 -26.644  1.00  0.00     0.022 C 
HETATM   18  C26 UNL     1      -8.914  45.041 -25.214  1.00  0.00     0.080 C 
HETATM   19  C27 UNL     1      -9.019  46.433 -24.640  1.00  0.00     0.135 C 
HETATM   20  O5  UNL     1      -9.784  46.658 -23.703  1.00  0.00    -0.297 OA
HETATM   21  C28 UNL     1      -8.075  47.494 -25.205  1.00  0.00     0.018 C 
HETATM   22  C29 UNL     1      -8.491  48.890 -24.694  1.00  0.00     0.023 C 
HETATM   23  C30 UNL     1      -6.702  47.170 -24.573  1.00  0.00     0.023 C 
HETATM   24  C31 UNL     1      -8.102  47.523 -26.793  1.00  0.00     0.017 C 
HETATM   25  C32 UNL     1      -6.697  47.768 -27.359  1.00  0.00     0.043 C 
HETATM   26  C33 UNL     1      -6.700  47.981 -28.862  1.00  0.00     0.149 C 
ENDROOT
BRANCH   1  27
HETATM   27  C6  UNL     1      -8.942  46.095 -34.547  1.00  0.00    -0.011 C 
HETATM   28  C7  UNL     1      -9.049  44.636 -35.007  1.00  0.00     0.010 C 
BRANCH  27  29
HETATM   29  C5  UNL     1      -8.484  47.043 -35.703  1.00  0.00     0.040 C 
BRANCH  29  30
HETATM   30  C4  UNL     1      -9.171  46.829 -37.065  1.00  0.00     0.142 C 
BRANCH  30  31
HETATM   31  C3  UNL     1     -10.222  47.864 -37.364  1.00  0.00     0.018 C 
HETATM   32  C2  UNL     1     -11.271  47.776 -38.208  1.00  0.00     0.010 C 
HETATM   33  C1  UNL     1     -11.645  46.577 -39.031  1.00  0.00     0.055 C 
BRANCH  32  34
HETATM   34  C34 UNL     1     -12.182  48.935 -38.409  1.00  0.00     0.171 C 
HETATM   35  O7  UNL     1     -13.024  49.317 -37.621  1.00  0.00    -0.646 OA
BRANCH  34  36
HETATM   36  O8  UNL     1     -12.004  49.562 -39.585  1.00  0.00    -0.773 OA
HETATM   37  H50 UNL     1     -12.674  50.275 -39.564  1.00  0.00     0.167 HD
ENDBRANCH  34  36
ENDBRANCH  32  34
ENDBRANCH  30  31
BRANCH  30  38
HETATM   38  O1  UNL     1      -8.190  46.858 -38.094  1.00  0.00    -0.392 OA
HETATM   39  H6  UNL     1      -8.651  46.918 -38.948  1.00  0.00     0.210 HD
ENDBRANCH  30  38
ENDBRANCH  29  30
ENDBRANCH  27  29
ENDBRANCH   1  27
BRANCH   3  40
HETATM   40  O2  UNL     1      -5.428  48.392 -31.807  1.00  0.00    -0.394 OA
HETATM   41  H17 UNL     1      -5.241  49.017 -32.536  1.00  0.00     0.210 HD
ENDBRANCH   3  40
BRANCH   4  42
HETATM   42  C12 UNL     1      -5.995  45.566 -31.094  1.00  0.00     0.043 C 
BRANCH  42  43
HETATM   43  C13 UNL     1      -4.862  45.508 -32.127  1.00  0.00     0.165 C 
BRANCH  43  44
HETATM   44  O3  UNL     1      -3.712  46.236 -31.732  1.00  0.00    -0.401 OA
HETATM   45  H22 UNL     1      -4.020  47.060 -31.310  1.00  0.00     0.209 HD
ENDBRANCH  43  44
ENDBRANCH  42  43
ENDBRANCH   4  42
BRANCH  26  46
HETATM   46  O6  UNL     1      -5.325  48.022 -29.210  1.00  0.00    -0.391 OA
HETATM   47  H49 UNL     1      -5.262  48.331 -30.135  1.00  0.00     0.210 HD
ENDBRANCH  26  46
TORSDOF 12
ENDMDL
MODEL 7
REMARK minimizedAffinity -8.664361
REMARK CNNscore 0.518582106
REMARK CNNaffinity 6.81166077
REMARK  12 active torsions:
REMARK  status: ('A' for Active; 'I' for Inactive)
REMARK    1  A    between atoms: C2_2  and  C34_40 
REMARK    2  A    between atoms: C3_3  and  C4_4 
REMARK    3  A    between atoms: C4_4  and  O1_5 
REMARK    4  A    between atoms: C4_4  and  C5_6 
REMARK    5  A    between atoms: C5_6  and  C6_7 
REMARK    6  A    between atoms: C6_7  and  C8_9 
REMARK    7  A    between atoms: C10_11  and  O2_12 
REMARK    8  A    between atoms: C11_13  and  C12_14 
REMARK    9  A    between atoms: C12_14  and  C13_15 
REMARK   10  A    between atoms: C13_15  and  O3_16 
REMARK   11  A    between atoms: C33_38  and  O6_39 
REMARK   12  A    between atoms: C34_40  and  O8_42 
ROOT
HETATM    1  C8  UNL     1      -4.563  49.235 -22.811  1.00  0.00     0.002 C 
HETATM    2  C9  UNL     1      -4.821  47.694 -22.770  1.00  0.00     0.038 C 
HETATM    3  C10 UNL     1      -4.575  47.240 -21.316  1.00  0.00     0.132 C 
HETATM    4  C11 UNL     1      -4.555  48.551 -20.483  1.00  0.00     0.022 C 
HETATM    5  C14 UNL     1      -3.844  48.551 -19.118  1.00  0.00    -0.029 C 
HETATM    6  C15 UNL     1      -3.234  49.674 -18.649  1.00  0.00     0.003 C 
HETATM    7  C16 UNL     1      -3.333  50.947 -19.486  1.00  0.00     0.157 C 
HETATM    8  O4  UNL     1      -3.122  52.052 -18.985  1.00  0.00    -0.293 OA
HETATM    9  C17 UNL     1      -3.669  50.875 -20.965  1.00  0.00     0.094 C 
HETATM   10  C18 UNL     1      -3.708  49.444 -21.503  1.00  0.00    -0.015 C 
HETATM   11  C19 UNL     1      -2.222  48.984 -21.870  1.00  0.00     0.011 C 
HETATM   12  C20 UNL     1      -1.207  48.575 -20.797  1.00  0.00     0.001 C 
HETATM   13  C21 UNL     1      -0.427  49.733 -20.170  1.00  0.00     0.000 C 
HETATM   14  C22 UNL     1      -0.078  49.473 -18.706  1.00  0.00     0.001 C 
HETATM   15  C23 UNL     1      -0.934  50.235 -17.674  1.00  0.00     0.015 C 
HETATM   16  C24 UNL     1      -2.395  49.744 -17.340  1.00  0.00    -0.004 C 
HETATM   17  C25 UNL     1      -3.064  50.728 -16.328  1.00  0.00     0.022 C 
HETATM   18  C26 UNL     1      -2.232  50.983 -15.071  1.00  0.00     0.080 C 
HETATM   19  C27 UNL     1      -1.428  49.779 -14.642  1.00  0.00     0.135 C 
HETATM   20  O5  UNL     1      -0.435  49.922 -13.931  1.00  0.00    -0.297 OA
HETATM   21  C28 UNL     1      -1.961  48.405 -15.046  1.00  0.00     0.018 C 
HETATM   22  C29 UNL     1      -0.898  47.326 -14.752  1.00  0.00     0.023 C 
HETATM   23  C30 UNL     1      -3.145  48.149 -14.087  1.00  0.00     0.023 C 
HETATM   24  C31 UNL     1      -2.313  48.340 -16.594  1.00  0.00     0.017 C 
HETATM   25  C32 UNL     1      -3.586  47.516 -16.830  1.00  0.00     0.043 C 
HETATM   26  C33 UNL     1      -3.863  47.276 -18.303  1.00  0.00     0.149 C 
ENDROOT
BRANCH   1  27
HETATM   27  C6  UNL     1      -4.056  49.741 -24.201  1.00  0.00    -0.011 C 
HETATM   28  C7  UNL     1      -3.847  48.578 -25.180  1.00  0.00     0.010 C 
BRANCH  27  29
HETATM   29  C5  UNL     1      -2.753  50.580 -23.999  1.00  0.00     0.040 C 
BRANCH  29  30
HETATM   30  C4  UNL     1      -2.836  52.065 -24.402  1.00  0.00     0.142 C 
BRANCH  30  31
HETATM   31  C3  UNL     1      -1.485  52.712 -24.550  1.00  0.00     0.018 C 
HETATM   32  C2  UNL     1      -0.434  52.301 -25.289  1.00  0.00     0.010 C 
HETATM   33  C1  UNL     1      -0.397  51.090 -26.177  1.00  0.00     0.055 C 
BRANCH  32  34
HETATM   34  C34 UNL     1       0.849  53.054 -25.268  1.00  0.00     0.171 C 
HETATM   35  O7  UNL     1       1.058  54.077 -24.646  1.00  0.00    -0.646 OA
BRANCH  34  36
HETATM   36  O8  UNL     1       1.811  52.499 -26.025  1.00  0.00    -0.773 OA
HETATM   37  H50 UNL     1       2.567  53.111 -25.913  1.00  0.00     0.167 HD
ENDBRANCH  34  36
ENDBRANCH  32  34
ENDBRANCH  30  31
BRANCH  30  38
HETATM   38  O1  UNL     1      -3.539  52.177 -25.634  1.00  0.00    -0.392 OA
HETATM   39  H6  UNL     1      -3.415  53.081 -25.969  1.00  0.00     0.210 HD
ENDBRANCH  30  38
ENDBRANCH  29  30
ENDBRANCH  27  29
ENDBRANCH   1  27
BRANCH   3  40
HETATM   40  O2  UNL     1      -5.532  46.281 -20.888  1.00  0.00    -0.394 OA
HETATM   41  H17 UNL     1      -5.619  45.610 -21.597  1.00  0.00     0.210 HD
ENDBRANCH   3  40
BRANCH   4  42
HETATM   42  C12 UNL     1      -6.019  49.108 -20.122  1.00  0.00     0.043 C 
BRANCH  42  43
HETATM   43  C13 UNL     1      -7.177  49.135 -21.129  1.00  0.00     0.165 C 
BRANCH  43  44
HETATM   44  O3  UNL     1      -7.249  50.347 -21.860  1.00  0.00    -0.401 OA
HETATM   45  H22 UNL     1      -7.053  51.074 -21.238  1.00  0.00     0.209 HD
ENDBRANCH  43  44
ENDBRANCH  42  43
ENDBRANCH   4  42
BRANCH  26  46
HETATM   46  O6  UNL     1      -5.140  46.656 -18.320  1.00  0.00    -0.391 OA
HETATM   47  H49 UNL     1      -5.294  46.319 -19.224  1.00  0.00     0.210 HD
ENDBRANCH  26  46
TORSDOF 12
ENDMDL
MODEL 8
REMARK minimizedAffinity -8.39469433
REMARK CNNscore 0.500674009
REMARK CNNaffinity 6.5917201
REMARK  12 active torsions:
REMARK  status: ('A' for Active; 'I' for Inactive)
REMARK    1  A    between atoms: C2_2  and  C34_40 
REMARK    2  A    between atoms: C3_3  and  C4_4 
REMARK    3  A    between atoms: C4_4  and  O1_5 
REMARK    4  A    between atoms: C4_4  and  C5_6 
REMARK    5  A    between atoms: C5_6  and  C6_7 
REMARK    6  A    between atoms: C6_7  and  C8_9 
REMARK    7  A    between atoms: C10_11  and  O2_12 
REMARK    8  A    between atoms: C11_13  and  C12_14 
REMARK    9  A    between atoms: C12_14  and  C13_15 
REMARK   10  A    between atoms: C13_15  and  O3_16 
REMARK   11  A    between atoms: C33_38  and  O6_39 
REMARK   12  A    between atoms: C34_40  and  O8_42 
ROOT
HETATM    1  C8  UNL     1      -3.218  49.483 -23.099  1.00  0.00     0.002 C 
HETATM    2  C9  UNL     1      -3.712  48.865 -24.447  1.00  0.00     0.038 C 
HETATM    3  C10 UNL     1      -5.138  48.332 -24.195  1.00  0.00     0.132 C 
HETATM    4  C11 UNL     1      -5.578  48.976 -22.852  1.00  0.00     0.022 C 
HETATM    5  C14 UNL     1      -6.697  48.302 -22.038  1.00  0.00    -0.029 C 
HETATM    6  C15 UNL     1      -6.708  48.370 -20.678  1.00  0.00     0.003 C 
HETATM    7  C16 UNL     1      -5.618  49.188 -19.991  1.00  0.00     0.157 C 
HETATM    8  O4  UNL     1      -5.755  49.580 -18.832  1.00  0.00    -0.293 OA
HETATM    9  C17 UNL     1      -4.324  49.515 -20.717  1.00  0.00     0.094 C 
HETATM   10  C18 UNL     1      -4.196  48.805 -22.066  1.00  0.00    -0.015 C 
HETATM   11  C19 UNL     1      -3.631  47.329 -21.827  1.00  0.00     0.011 C 
HETATM   12  C20 UNL     1      -4.510  46.195 -21.290  1.00  0.00     0.001 C 
HETATM   13  C21 UNL     1      -4.623  46.131 -19.765  1.00  0.00     0.000 C 
HETATM   14  C22 UNL     1      -5.985  45.615 -19.304  1.00  0.00     0.001 C 
HETATM   15  C23 UNL     1      -6.953  46.687 -18.764  1.00  0.00     0.015 C 
HETATM   16  C24 UNL     1      -7.727  47.630 -19.764  1.00  0.00    -0.004 C 
HETATM   17  C25 UNL     1      -8.576  48.666 -18.961  1.00  0.00     0.022 C 
HETATM   18  C26 UNL     1      -9.501  48.034 -17.920  1.00  0.00     0.080 C 
HETATM   19  C27 UNL     1     -10.030  46.685 -18.343  1.00  0.00     0.135 C 
HETATM   20  O5  UNL     1     -10.433  45.888 -17.497  1.00  0.00    -0.297 OA
HETATM   21  C28 UNL     1     -10.126  46.412 -19.844  1.00  0.00     0.018 C 
HETATM   22  C29 UNL     1     -10.437  44.920 -20.084  1.00  0.00     0.023 C 
HETATM   23  C30 UNL     1     -11.364  47.214 -20.306  1.00  0.00     0.023 C 
HETATM   24  C31 UNL     1      -8.770  46.760 -20.595  1.00  0.00     0.017 C 
HETATM   25  C32 UNL     1      -9.052  47.397 -21.962  1.00  0.00     0.043 C 
HETATM   26  C33 UNL     1      -7.795  47.583 -22.792  1.00  0.00     0.149 C 
ENDROOT
BRANCH   1  27
HETATM   27  C6  UNL     1      -1.667  49.410 -22.916  1.00  0.00    -0.011 C 
HETATM   28  C7  UNL     1      -1.284  49.163 -21.451  1.00  0.00     0.010 C 
BRANCH  27  29
HETATM   29  C5  UNL     1      -1.021  50.716 -23.481  1.00  0.00     0.040 C 
BRANCH  29  30
HETATM   30  C4  UNL     1      -1.436  52.029 -22.789  1.00  0.00     0.142 C 
BRANCH  30  31
HETATM   31  C3  UNL     1      -0.273  52.769 -22.183  1.00  0.00     0.018 C 
HETATM   32  C2  UNL     1       0.056  52.892 -20.881  1.00  0.00     0.010 C 
HETATM   33  C1  UNL     1      -0.669  52.271 -19.722  1.00  0.00     0.055 C 
BRANCH  32  34
HETATM   34  C34 UNL     1       1.226  53.714 -20.469  1.00  0.00     0.171 C 
HETATM   35  O7  UNL     1       1.829  54.494 -21.181  1.00  0.00    -0.646 OA
BRANCH  34  36
HETATM   36  O8  UNL     1       1.594  53.525 -19.190  1.00  0.00    -0.773 OA
HETATM   37  H50 UNL     1       2.366  54.117 -19.087  1.00  0.00     0.167 HD
ENDBRANCH  34  36
ENDBRANCH  32  34
ENDBRANCH  30  31
BRANCH  30  38
HETATM   38  O1  UNL     1      -2.077  52.874 -23.736  1.00  0.00    -0.392 OA
HETATM   39  H6  UNL     1      -2.157  53.760 -23.343  1.00  0.00     0.210 HD
ENDBRANCH  30  38
ENDBRANCH  29  30
ENDBRANCH  27  29
ENDBRANCH   1  27
BRANCH   3  40
HETATM   40  O2  UNL     1      -6.006  48.593 -25.290  1.00  0.00    -0.394 OA
HETATM   41  H17 UNL     1      -5.533  48.343 -26.110  1.00  0.00     0.210 HD
ENDBRANCH   3  40
BRANCH   4  42
HETATM   42  C12 UNL     1      -6.108  50.485 -23.004  1.00  0.00     0.043 C 
BRANCH  42  43
HETATM   43  C13 UNL     1      -5.243  51.626 -23.559  1.00  0.00     0.165 C 
BRANCH  43  44
HETATM   44  O3  UNL     1      -4.889  52.582 -22.576  1.00  0.00    -0.401 OA
HETATM   45  H22 UNL     1      -5.672  52.722 -22.009  1.00  0.00     0.209 HD
ENDBRANCH  43  44
ENDBRANCH  42  43
ENDBRANCH   4  42
BRANCH  26  46
HETATM   46  O6  UNL     1      -8.230  48.321 -23.923  1.00  0.00    -0.391 OA
HETATM   47  H49 UNL     1      -7.503  48.320 -24.576  1.00  0.00     0.210 HD
ENDBRANCH  26  46
TORSDOF 12
ENDMDL
MODEL 9
REMARK minimizedAffinity -8.322155
REMARK CNNscore 0.481777459
REMARK CNNaffinity 6.32853937
REMARK  12 active torsions:
REMARK  status: ('A' for Active; 'I' for Inactive)
REMARK    1  A    between atoms: C2_2  and  C34_40 
REMARK    2  A    between atoms: C3_3  and  C4_4 
REMARK    3  A    between atoms: C4_4  and  O1_5 
REMARK    4  A    between atoms: C4_4  and  C5_6 
REMARK    5  A    between atoms: C5_6  and  C6_7 
REMARK    6  A    between atoms: C6_7  and  C8_9 
REMARK    7  A    between atoms: C10_11  and  O2_12 
REMARK    8  A    between atoms: C11_13  and  C12_14 
REMARK    9  A    between atoms: C12_14  and  C13_15 
REMARK   10  A    between atoms: C13_15  and  O3_16 
REMARK   11  A    between atoms: C33_38  and  O6_39 
REMARK   12  A    between atoms: C34_40  and  O8_42 
ROOT
HETATM    1  C8  UNL     1      -2.336  49.705 -21.375  1.00  0.00     0.002 C 
HETATM    2  C9  UNL     1      -2.058  49.555 -22.906  1.00  0.00     0.038 C 
HETATM    3  C10 UNL     1      -3.347  48.990 -23.538  1.00  0.00     0.132 C 
HETATM    4  C11 UNL     1      -4.444  49.181 -22.455  1.00  0.00     0.022 C 
HETATM    5  C14 UNL     1      -5.705  48.300 -22.513  1.00  0.00    -0.029 C 
HETATM    6  C15 UNL     1      -6.352  47.933 -21.373  1.00  0.00     0.003 C 
HETATM    7  C16 UNL     1      -5.831  48.474 -20.045  1.00  0.00     0.157 C 
HETATM    8  O4  UNL     1      -6.542  48.479 -19.040  1.00  0.00    -0.293 OA
HETATM    9  C17 UNL     1      -4.409  48.995 -19.929  1.00  0.00     0.094 C 
HETATM   10  C18 UNL     1      -3.574  48.749 -21.186  1.00  0.00    -0.015 C 
HETATM   11  C19 UNL     1      -2.980  47.265 -21.135  1.00  0.00     0.011 C 
HETATM   12  C20 UNL     1      -3.839  46.032 -21.439  1.00  0.00     0.001 C 
HETATM   13  C21 UNL     1      -4.632  45.489 -20.249  1.00  0.00     0.000 C 
HETATM   14  C22 UNL     1      -5.966  44.873 -20.671  1.00  0.00     0.001 C 
HETATM   15  C23 UNL     1      -7.214  45.733 -20.387  1.00  0.00     0.015 C 
HETATM   16  C24 UNL     1      -7.562  46.956 -21.320  1.00  0.00    -0.004 C 
HETATM   17  C25 UNL     1      -8.823  47.696 -20.770  1.00  0.00     0.022 C 
HETATM   18  C26 UNL     1     -10.025  46.779 -20.534  1.00  0.00     0.080 C 
HETATM   19  C27 UNL     1     -10.102  45.642 -21.524  1.00  0.00     0.135 C 
HETATM   20  O5  UNL     1     -10.734  44.624 -21.246  1.00  0.00    -0.297 OA
HETATM   21  C28 UNL     1      -9.454  45.862 -22.891  1.00  0.00     0.018 C 
HETATM   22  C29 UNL     1      -9.405  44.528 -23.666  1.00  0.00     0.023 C 
HETATM   23  C30 UNL     1     -10.438  46.788 -23.643  1.00  0.00     0.023 C 
HETATM   24  C31 UNL     1      -7.969  46.411 -22.759  1.00  0.00     0.017 C 
HETATM   25  C32 UNL     1      -7.675  47.452 -23.846  1.00  0.00     0.043 C 
HETATM   26  C33 UNL     1      -6.216  47.874 -23.873  1.00  0.00     0.149 C 
ENDROOT
BRANCH   1  27
HETATM   27  C6  UNL     1      -1.051  49.554 -20.496  1.00  0.00    -0.011 C 
HETATM   28  C7  UNL     1      -0.497  48.125 -20.552  1.00  0.00     0.010 C 
BRANCH  27  29
HETATM   29  C5  UNL     1      -1.374  50.002 -19.034  1.00  0.00     0.040 C 
BRANCH  29  30
HETATM   30  C4  UNL     1      -1.391  51.522 -18.781  1.00  0.00     0.142 C 
BRANCH  30  31
HETATM   31  C3  UNL     1      -0.697  52.307 -19.862  1.00  0.00     0.018 C 
HETATM   32  C2  UNL     1       0.525  52.878 -19.831  1.00  0.00     0.010 C 
HETATM   33  C1  UNL     1       1.499  52.822 -18.690  1.00  0.00     0.055 C 
BRANCH  32  34
HETATM   34  C34 UNL     1       1.024  53.664 -20.992  1.00  0.00     0.171 C 
HETATM   35  O7  UNL     1       1.726  54.654 -20.927  1.00  0.00    -0.646 OA
BRANCH  34  36
HETATM   36  O8  UNL     1       0.623  53.182 -22.181  1.00  0.00    -0.773 OA
HETATM   37  H50 UNL     1       1.017  53.807 -22.823  1.00  0.00     0.167 HD
ENDBRANCH  34  36
ENDBRANCH  32  34
ENDBRANCH  30  31
BRANCH  30  38
HETATM   38  O1  UNL     1      -2.739  51.965 -18.683  1.00  0.00    -0.392 OA
HETATM   39  H6  UNL     1      -2.739  52.937 -18.719  1.00  0.00     0.210 HD
ENDBRANCH  30  38
ENDBRANCH  29  30
ENDBRANCH  27  29
ENDBRANCH   1  27
BRANCH   3  40
HETATM   40  O2  UNL     1      -3.638  49.598 -24.789  1.00  0.00    -0.394 OA
HETATM   41  H17 UNL     1      -2.810  49.615 -25.311  1.00  0.00     0.210 HD
ENDBRANCH   3  40
BRANCH   4  42
HETATM   42  C12 UNL     1      -5.051  50.668 -22.407  1.00  0.00     0.043 C 
BRANCH  42  43
HETATM   43  C13 UNL     1      -4.685  51.755 -23.427  1.00  0.00     0.165 C 
BRANCH  43  44
HETATM   44  O3  UNL     1      -5.564  51.793 -24.538  1.00  0.00    -0.401 OA
HETATM   45  H22 UNL     1      -5.768  50.869 -24.779  1.00  0.00     0.209 HD
ENDBRANCH  43  44
ENDBRANCH  42  43
ENDBRANCH   4  42
BRANCH  26  46
HETATM   46  O6  UNL     1      -6.179  48.939 -24.810  1.00  0.00    -0.391 OA
HETATM   47  H49 UNL     1      -5.241  49.135 -24.999  1.00  0.00     0.210 HD
ENDBRANCH  26  46
TORSDOF 12
ENDMDL
