MODEL 1
REMARK minimizedAffinity -9.86854553
REMARK  7 active torsions:
REMARK  status: ('A' for Active; 'I' for Inactive)
REMARK    1  A    between atoms: C4_4  and  C5_5 
REMARK    2  A    between atoms: C5_5  and  C6_6 
REMARK    3  A    between atoms: C6_6  and  C7_7 
REMARK    4  A    between atoms: C7_7  and  C9_9 
REMARK    5  A    between atoms: C16_16  and  O1_17 
REMARK    6  A    between atoms: C18_19  and  O2_20 
REMARK    7  A    between atoms: C19_21  and  O3_22 
ROOT
HETATM    1  C9  UNL     1      -1.607  49.322 -18.789  1.00  0.00    -0.002 C 
HETATM    2  C10 UNL     1      -2.787  48.307 -18.800  1.00  0.00     0.006 C 
HETATM    3  C11 UNL     1      -3.374  48.308 -20.220  1.00  0.00     0.011 C 
HETATM    4  C12 UNL     1      -2.278  48.936 -21.099  1.00  0.00    -0.032 C 
HETATM    5  C13 UNL     1      -1.238  47.811 -21.400  1.00  0.00     0.016 C 
HETATM    6  C14 UNL     1      -2.799  49.553 -22.426  1.00  0.00     0.006 C 
HETATM    7  C15 UNL     1      -3.237  48.516 -23.471  1.00  0.00     0.038 C 
HETATM    8  C16 UNL     1      -3.803  49.205 -24.710  1.00  0.00     0.126 C 
HETATM    9  C17 UNL     1      -2.690  49.970 -25.444  1.00  0.00     0.055 C 
HETATM   10  C18 UNL     1      -3.242  50.840 -26.596  1.00  0.00     0.154 C 
HETATM   11  C19 UNL     1      -2.125  51.671 -27.282  1.00  0.00     0.147 C 
HETATM   12  C20 UNL     1      -0.720  51.302 -26.799  1.00  0.00     0.035 C 
HETATM   13  C21 UNL     1      -0.576  51.346 -25.273  1.00  0.00     0.013 C 
HETATM   14  C22 UNL     1      -1.819  50.837 -24.547  1.00  0.00    -0.023 A 
HETATM   15  C23 UNL     1      -2.468  51.824 -23.608  1.00  0.00     0.021 A 
HETATM   16  C24 UNL     1      -1.810  50.589 -23.018  1.00  0.00    -0.027 A 
HETATM   17  C25 UNL     1      -0.474  50.788 -22.294  1.00  0.00     0.011 C 
HETATM   18  C26 UNL     1      -0.452  50.625 -20.762  1.00  0.00     0.011 C 
HETATM   19  C27 UNL     1      -1.750  50.080 -20.153  1.00  0.00    -0.032 C 
HETATM   20  C28 UNL     1      -2.731  51.272 -19.997  1.00  0.00     0.016 C 
ENDROOT
BRANCH   1  21
HETATM   21  C7  UNL     1      -1.437  50.047 -17.417  1.00  0.00    -0.014 C 
HETATM   22  C8  UNL     1      -2.708  50.626 -16.777  1.00  0.00     0.010 C 
BRANCH  21  23
HETATM   23  C6  UNL     1      -0.339  51.134 -17.401  1.00  0.00     0.008 C 
BRANCH  23  24
HETATM   24  C5  UNL     1       0.693  50.964 -16.279  1.00  0.00     0.028 C 
BRANCH  24  25
HETATM   25  C4  UNL     1       1.880  51.860 -16.507  1.00  0.00    -0.025 C 
HETATM   26  C2  UNL     1       2.958  52.041 -15.719  1.00  0.00    -0.091 C 
HETATM   27  C1  UNL     1       4.056  52.984 -16.135  1.00  0.00     0.042 C 
HETATM   28  C3  UNL     1       3.199  51.367 -14.395  1.00  0.00     0.042 C 
ENDBRANCH  24  25
ENDBRANCH  23  24
ENDBRANCH  21  23
ENDBRANCH   1  21
BRANCH   8  29
HETATM   29  O1  UNL     1      -4.352  48.190 -25.555  1.00  0.00    -0.395 OA
HETATM   30  H28 UNL     1      -4.403  48.575 -26.457  1.00  0.00     0.210 HD
ENDBRANCH   8  29
BRANCH  10  31
HETATM   31  O2  UNL     1      -3.883  49.983 -27.555  1.00  0.00    -0.393 OA
HETATM   32  H31 UNL     1      -4.223  50.548 -28.273  1.00  0.00     0.210 HD
ENDBRANCH  10  31
BRANCH  11  33
HETATM   33  O3  UNL     1      -2.326  53.065 -27.033  1.00  0.00    -0.393 OA
HETATM   34  H33 UNL     1      -3.179  53.322 -27.425  1.00  0.00     0.210 HD
ENDBRANCH  11  33
TORSDOF 7
ENDMDL
MODEL 2
REMARK minimizedAffinity -9.59667683
REMARK  7 active torsions:
REMARK  status: ('A' for Active; 'I' for Inactive)
REMARK    1  A    between atoms: C4_4  and  C5_5 
REMARK    2  A    between atoms: C5_5  and  C6_6 
REMARK    3  A    between atoms: C6_6  and  C7_7 
REMARK    4  A    between atoms: C7_7  and  C9_9 
REMARK    5  A    between atoms: C16_16  and  O1_17 
REMARK    6  A    between atoms: C18_19  and  O2_20 
REMARK    7  A    between atoms: C19_21  and  O3_22 
ROOT
HETATM    1  C9  UNL     1      -2.835  48.947 -19.464  1.00  0.00    -0.002 C 
HETATM    2  C10 UNL     1      -4.051  48.040 -19.816  1.00  0.00     0.006 C 
HETATM    3  C11 UNL     1      -4.302  48.184 -21.324  1.00  0.00     0.011 C 
HETATM    4  C12 UNL     1      -2.996  48.770 -21.889  1.00  0.00    -0.032 C 
HETATM    5  C13 UNL     1      -1.997  47.581 -22.046  1.00  0.00     0.016 C 
HETATM    6  C14 UNL     1      -3.162  49.514 -23.242  1.00  0.00     0.006 C 
HETATM    7  C15 UNL     1      -3.426  48.589 -24.438  1.00  0.00     0.038 C 
HETATM    8  C16 UNL     1      -3.652  49.403 -25.711  1.00  0.00     0.126 C 
HETATM    9  C17 UNL     1      -2.351  50.114 -26.118  1.00  0.00     0.055 C 
HETATM   10  C18 UNL     1      -2.568  51.101 -27.288  1.00  0.00     0.154 C 
HETATM   11  C19 UNL     1      -1.271  51.875 -27.643  1.00  0.00     0.147 C 
HETATM   12  C20 UNL     1      -0.039  51.355 -26.898  1.00  0.00     0.035 C 
HETATM   13  C21 UNL     1      -0.238  51.289 -25.378  1.00  0.00     0.013 C 
HETATM   14  C22 UNL     1      -1.645  50.843 -24.985  1.00  0.00    -0.023 A 
HETATM   15  C23 UNL     1      -2.417  51.820 -24.133  1.00  0.00     0.021 A 
HETATM   16  C24 UNL     1      -1.996  50.497 -23.517  1.00  0.00    -0.027 A 
HETATM   17  C25 UNL     1      -0.846  50.532 -22.505  1.00  0.00     0.011 C 
HETATM   18  C26 UNL     1      -1.179  50.270 -21.024  1.00  0.00     0.011 C 
HETATM   19  C27 UNL     1      -2.615  49.801 -20.759  1.00  0.00    -0.032 C 
HETATM   20  C28 UNL     1      -3.520  51.061 -20.724  1.00  0.00     0.016 C 
ENDROOT
BRANCH   1  21
HETATM   21  C7  UNL     1      -2.926  49.564 -18.033  1.00  0.00    -0.014 C 
HETATM   22  C8  UNL     1      -3.005  51.095 -17.943  1.00  0.00     0.010 C 
BRANCH  21  23
HETATM   23  C6  UNL     1      -1.837  49.069 -17.054  1.00  0.00     0.008 C 
BRANCH  23  24
HETATM   24  C5  UNL     1      -0.405  49.231 -17.579  1.00  0.00     0.028 C 
BRANCH  24  25
HETATM   25  C4  UNL     1       0.365  50.208 -16.731  1.00  0.00    -0.025 C 
HETATM   26  C2  UNL     1       0.737  51.467 -17.031  1.00  0.00    -0.091 C 
HETATM   27  C1  UNL     1       1.503  52.294 -16.031  1.00  0.00     0.042 C 
HETATM   28  C3  UNL     1       0.456  52.179 -18.326  1.00  0.00     0.042 C 
ENDBRANCH  24  25
ENDBRANCH  23  24
ENDBRANCH  21  23
ENDBRANCH   1  21
BRANCH   8  29
HETATM   29  O1  UNL     1      -4.066  48.495 -26.735  1.00  0.00    -0.395 OA
HETATM   30  H28 UNL     1      -3.887  48.941 -27.592  1.00  0.00     0.210 HD
ENDBRANCH   8  29
BRANCH  10  31
HETATM   31  O2  UNL     1      -3.037  50.366 -28.431  1.00  0.00    -0.393 OA
HETATM   32  H31 UNL     1      -3.168  51.004 -29.157  1.00  0.00     0.210 HD
ENDBRANCH  10  31
BRANCH  11  33
HETATM   33  O3  UNL     1      -1.425  53.262 -27.330  1.00  0.00    -0.393 OA
HETATM   34  H33 UNL     1      -2.148  53.617 -27.876  1.00  0.00     0.210 HD
ENDBRANCH  11  33
TORSDOF 7
ENDMDL
MODEL 3
REMARK minimizedAffinity -9.47451878
REMARK  7 active torsions:
REMARK  status: ('A' for Active; 'I' for Inactive)
REMARK    1  A    between atoms: C4_4  and  C5_5 
REMARK    2  A    between atoms: C5_5  and  C6_6 
REMARK    3  A    between atoms: C6_6  and  C7_7 
REMARK    4  A    between atoms: C7_7  and  C9_9 
REMARK    5  A    between atoms: C16_16  and  O1_17 
REMARK    6  A    between atoms: C18_19  and  O2_20 
REMARK    7  A    between atoms: C19_21  and  O3_22 
ROOT
HETATM    1  C9  UNL     1      -1.099  51.088 -23.007  1.00  0.00    -0.002 C 
HETATM    2  C10 UNL     1      -0.477  52.510 -23.123  1.00  0.00     0.006 C 
HETATM    3  C11 UNL     1      -0.034  52.928 -21.713  1.00  0.00     0.011 C 
HETATM    4  C12 UNL     1       0.031  51.615 -20.914  1.00  0.00    -0.032 C 
HETATM    5  C13 UNL     1       1.390  50.935 -21.269  1.00  0.00     0.016 C 
HETATM    6  C14 UNL     1      -0.092  51.796 -19.376  1.00  0.00     0.006 C 
HETATM    7  C15 UNL     1       1.147  52.420 -18.717  1.00  0.00     0.038 C 
HETATM    8  C16 UNL     1       0.914  52.632 -17.223  1.00  0.00     0.126 C 
HETATM    9  C17 UNL     1       0.803  51.275 -16.509  1.00  0.00     0.055 C 
HETATM   10  C18 UNL     1       0.379  51.427 -15.030  1.00  0.00     0.154 C 
HETATM   11  C19 UNL     1       0.190  50.052 -14.336  1.00  0.00     0.147 C 
HETATM   12  C20 UNL     1       0.648  48.875 -15.201  1.00  0.00     0.035 C 
HETATM   13  C21 UNL     1       0.017  48.873 -16.599  1.00  0.00     0.013 C 
HETATM   14  C22 UNL     1      -0.124  50.276 -17.185  1.00  0.00    -0.023 A 
HETATM   15  C23 UNL     1      -1.531  50.690 -17.541  1.00  0.00     0.021 A 
HETATM   16  C24 UNL     1      -0.530  50.490 -18.665  1.00  0.00    -0.027 A 
HETATM   17  C25 UNL     1      -0.688  49.234 -19.527  1.00  0.00     0.011 C 
HETATM   18  C26 UNL     1      -1.167  49.410 -20.980  1.00  0.00     0.011 C 
HETATM   19  C27 UNL     1      -1.242  50.865 -21.463  1.00  0.00    -0.032 C 
HETATM   20  C28 UNL     1      -2.587  51.455 -20.963  1.00  0.00     0.016 C 
ENDROOT
BRANCH   1  21
HETATM   21  C7  UNL     1      -2.260  50.843 -24.021  1.00  0.00    -0.014 C 
HETATM   22  C8  UNL     1      -2.725  49.391 -24.205  1.00  0.00     0.010 C 
BRANCH  21  23
HETATM   23  C6  UNL     1      -2.030  51.466 -25.417  1.00  0.00     0.008 C 
BRANCH  23  24
HETATM   24  C5  UNL     1      -1.308  50.540 -26.403  1.00  0.00     0.028 C 
BRANCH  24  25
HETATM   25  C4  UNL     1       0.184  50.698 -26.286  1.00  0.00    -0.025 C 
HETATM   26  C2  UNL     1       1.012  51.436 -27.050  1.00  0.00    -0.091 C 
HETATM   27  C1  UNL     1       2.491  51.469 -26.760  1.00  0.00     0.042 C 
HETATM   28  C3  UNL     1       0.601  52.279 -28.227  1.00  0.00     0.042 C 
ENDBRANCH  24  25
ENDBRANCH  23  24
ENDBRANCH  21  23
ENDBRANCH   1  21
BRANCH   8  29
HETATM   29  O1  UNL     1       2.027  53.373 -16.714  1.00  0.00    -0.395 OA
HETATM   30  H28 UNL     1       2.045  53.219 -15.744  1.00  0.00     0.210 HD
ENDBRANCH   8  29
BRANCH  10  31
HETATM   31  O2  UNL     1       1.377  52.198 -14.341  1.00  0.00    -0.393 OA
HETATM   32  H31 UNL     1       1.092  52.283 -13.412  1.00  0.00     0.210 HD
ENDBRANCH  10  31
BRANCH  11  33
HETATM   33  O3  UNL     1      -1.188  49.851 -14.009  1.00  0.00    -0.393 OA
HETATM   34  H33 UNL     1      -1.454  50.546 -13.383  1.00  0.00     0.210 HD
ENDBRANCH  11  33
TORSDOF 7
ENDMDL
MODEL 4
REMARK minimizedAffinity -9.43808746
REMARK  7 active torsions:
REMARK  status: ('A' for Active; 'I' for Inactive)
REMARK    1  A    between atoms: C4_4  and  C5_5 
REMARK    2  A    between atoms: C5_5  and  C6_6 
REMARK    3  A    between atoms: C6_6  and  C7_7 
REMARK    4  A    between atoms: C7_7  and  C9_9 
REMARK    5  A    between atoms: C16_16  and  O1_17 
REMARK    6  A    between atoms: C18_19  and  O2_20 
REMARK    7  A    between atoms: C19_21  and  O3_22 
ROOT
HETATM    1  C9  UNL     1      -0.200  50.951 -21.773  1.00  0.00    -0.002 C 
HETATM    2  C10 UNL     1      -0.435  50.730 -20.251  1.00  0.00     0.006 C 
HETATM    3  C11 UNL     1      -1.871  50.210 -20.084  1.00  0.00     0.011 C 
HETATM    4  C12 UNL     1      -2.272  49.704 -21.480  1.00  0.00    -0.032 C 
HETATM    5  C13 UNL     1      -1.648  48.283 -21.643  1.00  0.00     0.016 C 
HETATM    6  C14 UNL     1      -3.805  49.647 -21.723  1.00  0.00     0.006 C 
HETATM    7  C15 UNL     1      -4.521  48.525 -20.959  1.00  0.00     0.038 C 
HETATM    8  C16 UNL     1      -6.028  48.587 -21.194  1.00  0.00     0.126 C 
HETATM    9  C17 UNL     1      -6.348  48.251 -22.659  1.00  0.00     0.055 C 
HETATM   10  C18 UNL     1      -7.838  48.484 -23.000  1.00  0.00     0.154 C 
HETATM   11  C19 UNL     1      -8.139  48.220 -24.499  1.00  0.00     0.147 C 
HETATM   12  C20 UNL     1      -6.954  47.608 -25.250  1.00  0.00     0.035 C 
HETATM   13  C21 UNL     1      -5.658  48.411 -25.086  1.00  0.00     0.013 C 
HETATM   14  C22 UNL     1      -5.491  48.983 -23.680  1.00  0.00    -0.023 A 
HETATM   15  C23 UNL     1      -5.363  50.485 -23.604  1.00  0.00     0.021 A 
HETATM   16  C24 UNL     1      -4.159  49.637 -23.233  1.00  0.00    -0.027 A 
HETATM   17  C25 UNL     1      -2.999  49.595 -24.232  1.00  0.00     0.011 C 
HETATM   18  C26 UNL     1      -1.687  50.305 -23.846  1.00  0.00     0.011 C 
HETATM   19  C27 UNL     1      -1.629  50.811 -22.399  1.00  0.00    -0.032 C 
HETATM   20  C28 UNL     1      -2.366  52.176 -22.351  1.00  0.00     0.016 C 
ENDROOT
BRANCH   1  21
HETATM   21  C7  UNL     1       0.758  52.145 -22.078  1.00  0.00    -0.014 C 
HETATM   22  C8  UNL     1       1.043  53.117 -20.922  1.00  0.00     0.010 C 
BRANCH  21  23
HETATM   23  C6  UNL     1       0.376  52.968 -23.329  1.00  0.00     0.008 C 
BRANCH  23  24
HETATM   24  C5  UNL     1       0.930  52.401 -24.642  1.00  0.00     0.028 C 
BRANCH  24  25
HETATM   25  C4  UNL     1       0.275  53.062 -25.825  1.00  0.00    -0.025 C 
HETATM   26  C2  UNL     1       0.473  52.821 -27.136  1.00  0.00    -0.091 C 
HETATM   27  C1  UNL     1      -0.297  53.591 -28.177  1.00  0.00     0.042 C 
HETATM   28  C3  UNL     1       1.431  51.810 -27.706  1.00  0.00     0.042 C 
ENDBRANCH  24  25
ENDBRANCH  23  24
ENDBRANCH  21  23
ENDBRANCH   1  21
BRANCH   8  29
HETATM   29  O1  UNL     1      -6.641  47.636 -20.318  1.00  0.00    -0.395 OA
HETATM   30  H28 UNL     1      -7.527  47.442 -20.694  1.00  0.00     0.210 HD
ENDBRANCH   8  29
BRANCH  10  31
HETATM   31  O2  UNL     1      -8.640  47.625 -22.173  1.00  0.00    -0.393 OA
HETATM   32  H31 UNL     1      -9.574  47.786 -22.402  1.00  0.00     0.210 HD
ENDBRANCH  10  31
BRANCH  11  33
HETATM   33  O3  UNL     1      -8.495  49.442 -25.152  1.00  0.00    -0.393 OA
HETATM   34  H33 UNL     1      -9.305  49.782 -24.735  1.00  0.00     0.210 HD
ENDBRANCH  11  33
TORSDOF 7
ENDMDL
MODEL 5
REMARK minimizedAffinity -9.19277573
REMARK  7 active torsions:
REMARK  status: ('A' for Active; 'I' for Inactive)
REMARK    1  A    between atoms: C4_4  and  C5_5 
REMARK    2  A    between atoms: C5_5  and  C6_6 
REMARK    3  A    between atoms: C6_6  and  C7_7 
REMARK    4  A    between atoms: C7_7  and  C9_9 
REMARK    5  A    between atoms: C16_16  and  O1_17 
REMARK    6  A    between atoms: C18_19  and  O2_20 
REMARK    7  A    between atoms: C19_21  and  O3_22 
ROOT
HETATM    1  C9  UNL     1      -0.654  50.448 -18.570  1.00  0.00    -0.002 C 
HETATM    2  C10 UNL     1      -1.797  49.437 -18.261  1.00  0.00     0.006 C 
HETATM    3  C11 UNL     1      -2.564  49.204 -19.572  1.00  0.00     0.011 C 
HETATM    4  C12 UNL     1      -1.610  49.687 -20.678  1.00  0.00    -0.032 C 
HETATM    5  C13 UNL     1      -0.588  48.535 -20.930  1.00  0.00     0.016 C 
HETATM    6  C14 UNL     1      -2.316  50.076 -22.005  1.00  0.00     0.006 C 
HETATM    7  C15 UNL     1      -2.858  48.882 -22.803  1.00  0.00     0.038 C 
HETATM    8  C16 UNL     1      -3.601  49.356 -24.050  1.00  0.00     0.126 C 
HETATM    9  C17 UNL     1      -2.614  49.998 -25.038  1.00  0.00     0.055 C 
HETATM   10  C18 UNL     1      -3.335  50.665 -26.231  1.00  0.00     0.154 C 
HETATM   11  C19 UNL     1      -2.341  51.381 -27.184  1.00  0.00     0.147 C 
HETATM   12  C20 UNL     1      -0.876  51.103 -26.841  1.00  0.00     0.035 C 
HETATM   13  C21 UNL     1      -0.535  51.397 -25.374  1.00  0.00     0.013 C 
HETATM   14  C22 UNL     1      -1.658  51.005 -24.417  1.00  0.00    -0.023 A 
HETATM   15  C23 UNL     1      -2.206  52.127 -23.570  1.00  0.00     0.021 A 
HETATM   16  C24 UNL     1      -1.442  51.009 -22.883  1.00  0.00    -0.027 A 
HETATM   17  C25 UNL     1      -0.030  51.331 -22.384  1.00  0.00     0.011 C 
HETATM   18  C26 UNL     1       0.197  51.420 -20.863  1.00  0.00     0.011 C 
HETATM   19  C27 UNL     1      -0.995  50.973 -20.007  1.00  0.00    -0.032 C 
HETATM   20  C28 UNL     1      -1.979  52.169 -19.915  1.00  0.00     0.016 C 
ENDROOT
BRANCH   1  21
HETATM   21  C7  UNL     1      -0.326  51.387 -17.367  1.00  0.00    -0.014 C 
HETATM   22  C8  UNL     1       0.943  52.244 -17.484  1.00  0.00     0.010 C 
BRANCH  21  23
HETATM   23  C6  UNL     1      -0.320  50.683 -15.991  1.00  0.00     0.008 C 
BRANCH  23  24
HETATM   24  C5  UNL     1       1.077  50.282 -15.502  1.00  0.00     0.028 C 
BRANCH  24  25
HETATM   25  C4  UNL     1       2.056  51.407 -15.705  1.00  0.00    -0.025 C 
HETATM   26  C2  UNL     1       3.299  51.537 -15.202  1.00  0.00    -0.091 C 
HETATM   27  C1  UNL     1       4.133  52.748 -15.536  1.00  0.00     0.042 C 
HETATM   28  C3  UNL     1       3.985  50.554 -14.294  1.00  0.00     0.042 C 
ENDBRANCH  24  25
ENDBRANCH  23  24
ENDBRANCH  21  23
ENDBRANCH   1  21
BRANCH   8  29
HETATM   29  O1  UNL     1      -4.226  48.213 -24.640  1.00  0.00    -0.395 OA
HETATM   30  H28 UNL     1      -4.406  48.446 -25.577  1.00  0.00     0.210 HD
ENDBRANCH   8  29
BRANCH  10  31
HETATM   31  O2  UNL     1      -4.072  49.660 -26.946  1.00  0.00    -0.393 OA
HETATM   32  H31 UNL     1      -4.519  50.099 -27.694  1.00  0.00     0.210 HD
ENDBRANCH  10  31
BRANCH  11  33
HETATM   33  O3  UNL     1      -2.547  52.796 -27.138  1.00  0.00    -0.393 OA
HETATM   34  H33 UNL     1      -3.450  52.980 -27.448  1.00  0.00     0.210 HD
ENDBRANCH  11  33
TORSDOF 7
ENDMDL
MODEL 6
REMARK minimizedAffinity -9.12415791
REMARK  7 active torsions:
REMARK  status: ('A' for Active; 'I' for Inactive)
REMARK    1  A    between atoms: C4_4  and  C5_5 
REMARK    2  A    between atoms: C5_5  and  C6_6 
REMARK    3  A    between atoms: C6_6  and  C7_7 
REMARK    4  A    between atoms: C7_7  and  C9_9 
REMARK    5  A    between atoms: C16_16  and  O1_17 
REMARK    6  A    between atoms: C18_19  and  O2_20 
REMARK    7  A    between atoms: C19_21  and  O3_22 
ROOT
HETATM    1  C9  UNL     1      -0.125  51.089 -21.250  1.00  0.00    -0.002 C 
HETATM    2  C10 UNL     1      -0.114  51.490 -19.746  1.00  0.00     0.006 C 
HETATM    3  C11 UNL     1      -1.428  50.984 -19.132  1.00  0.00     0.011 C 
HETATM    4  C12 UNL     1      -1.947  49.928 -20.123  1.00  0.00    -0.032 C 
HETATM    5  C13 UNL     1      -1.163  48.610 -19.832  1.00  0.00     0.016 C 
HETATM    6  C14 UNL     1      -3.476  49.672 -20.042  1.00  0.00     0.006 C 
HETATM    7  C15 UNL     1      -3.919  48.909 -18.785  1.00  0.00     0.038 C 
HETATM    8  C16 UNL     1      -5.439  48.767 -18.747  1.00  0.00     0.126 C 
HETATM    9  C17 UNL     1      -5.910  47.843 -19.882  1.00  0.00     0.055 C 
HETATM   10  C18 UNL     1      -7.450  47.814 -20.009  1.00  0.00     0.154 C 
HETATM   11  C19 UNL     1      -7.918  46.944 -21.206  1.00  0.00     0.147 C 
HETATM   12  C20 UNL     1      -6.776  46.164 -21.863  1.00  0.00     0.035 C 
HETATM   13  C21 UNL     1      -5.592  47.052 -22.262  1.00  0.00     0.013 C 
HETATM   14  C22 UNL     1      -5.311  48.156 -21.245  1.00  0.00    -0.023 A 
HETATM   15  C23 UNL     1      -5.380  49.564 -21.783  1.00  0.00     0.021 A 
HETATM   16  C24 UNL     1      -4.032  49.025 -21.337  1.00  0.00    -0.027 A 
HETATM   17  C25 UNL     1      -3.026  48.661 -22.434  1.00  0.00     0.011 C 
HETATM   18  C26 UNL     1      -1.783  49.556 -22.600  1.00  0.00     0.011 C 
HETATM   19  C27 UNL     1      -1.595  50.609 -21.501  1.00  0.00    -0.032 C 
HETATM   20  C28 UNL     1      -2.496  51.821 -21.854  1.00  0.00     0.016 C 
ENDROOT
BRANCH   1  21
HETATM   21  C7  UNL     1       0.610  52.120 -22.163  1.00  0.00    -0.014 C 
HETATM   22  C8  UNL     1       0.954  53.480 -21.535  1.00  0.00     0.010 C 
BRANCH  21  23
HETATM   23  C6  UNL     1      -0.075  52.368 -23.526  1.00  0.00     0.008 C 
BRANCH  23  24
HETATM   24  C5  UNL     1       0.796  53.127 -24.534  1.00  0.00     0.028 C 
BRANCH  24  25
HETATM   25  C4  UNL     1       0.441  52.738 -25.944  1.00  0.00    -0.025 C 
HETATM   26  C2  UNL     1       1.167  52.022 -26.824  1.00  0.00    -0.091 C 
HETATM   27  C1  UNL     1       0.625  51.728 -28.199  1.00  0.00     0.042 C 
HETATM   28  C3  UNL     1       2.536  51.450 -26.572  1.00  0.00     0.042 C 
ENDBRANCH  24  25
ENDBRANCH  23  24
ENDBRANCH  21  23
ENDBRANCH   1  21
BRANCH   8  29
HETATM   29  O1  UNL     1      -5.789  48.213 -17.476  1.00  0.00    -0.395 OA
HETATM   30  H28 UNL     1      -6.684  47.822 -17.578  1.00  0.00     0.210 HD
ENDBRANCH   8  29
BRANCH  10  31
HETATM   31  O2  UNL     1      -8.005  47.311 -18.783  1.00  0.00    -0.393 OA
HETATM   32  H31 UNL     1      -8.975  47.300 -18.882  1.00  0.00     0.210 HD
ENDBRANCH  10  31
BRANCH  11  33
HETATM   33  O3  UNL     1      -8.524  47.768 -22.206  1.00  0.00    -0.393 OA
HETATM   34  H33 UNL     1      -9.308  48.191 -21.814  1.00  0.00     0.210 HD
ENDBRANCH  11  33
TORSDOF 7
ENDMDL
MODEL 7
REMARK minimizedAffinity -9.09497261
REMARK  7 active torsions:
REMARK  status: ('A' for Active; 'I' for Inactive)
REMARK    1  A    between atoms: C4_4  and  C5_5 
REMARK    2  A    between atoms: C5_5  and  C6_6 
REMARK    3  A    between atoms: C6_6  and  C7_7 
REMARK    4  A    between atoms: C7_7  and  C9_9 
REMARK    5  A    between atoms: C16_16  and  O1_17 
REMARK    6  A    between atoms: C18_19  and  O2_20 
REMARK    7  A    between atoms: C19_21  and  O3_22 
ROOT
HETATM    1  C9  UNL     1      -3.756  50.116 -24.482  1.00  0.00    -0.002 C 
HETATM    2  C10 UNL     1      -5.208  49.609 -24.235  1.00  0.00     0.006 C 
HETATM    3  C11 UNL     1      -5.309  49.227 -22.750  1.00  0.00     0.011 C 
HETATM    4  C12 UNL     1      -4.118  49.933 -22.079  1.00  0.00    -0.032 C 
HETATM    5  C13 UNL     1      -4.541  51.417 -21.850  1.00  0.00     0.016 C 
HETATM    6  C14 UNL     1      -3.668  49.290 -20.739  1.00  0.00     0.006 C 
HETATM    7  C15 UNL     1      -4.640  49.523 -19.573  1.00  0.00     0.038 C 
HETATM    8  C16 UNL     1      -4.162  48.797 -18.318  1.00  0.00     0.126 C 
HETATM    9  C17 UNL     1      -2.863  49.437 -17.802  1.00  0.00     0.055 C 
HETATM   10  C18 UNL     1      -2.232  48.626 -16.647  1.00  0.00     0.154 C 
HETATM   11  C19 UNL     1      -0.880  49.231 -16.183  1.00  0.00     0.147 C 
HETATM   12  C20 UNL     1      -0.575  50.584 -16.831  1.00  0.00     0.035 C 
HETATM   13  C21 UNL     1      -0.664  50.553 -18.362  1.00  0.00     0.013 C 
HETATM   14  C22 UNL     1      -1.805  49.674 -18.870  1.00  0.00    -0.023 A 
HETATM   15  C23 UNL     1      -1.393  48.539 -19.775  1.00  0.00     0.021 A 
HETATM   16  C24 UNL     1      -2.213  49.674 -20.364  1.00  0.00    -0.027 A 
HETATM   17  C25 UNL     1      -1.483  50.661 -21.280  1.00  0.00     0.011 C 
HETATM   18  C26 UNL     1      -1.812  50.629 -22.785  1.00  0.00     0.011 C 
HETATM   19  C27 UNL     1      -2.995  49.731 -23.167  1.00  0.00    -0.032 C 
HETATM   20  C28 UNL     1      -2.466  48.276 -23.266  1.00  0.00     0.016 C 
ENDROOT
BRANCH   1  21
HETATM   21  C7  UNL     1      -3.226  49.781 -25.911  1.00  0.00    -0.014 C 
HETATM   22  C8  UNL     1      -3.653  48.432 -26.509  1.00  0.00     0.010 C 
BRANCH  21  23
HETATM   23  C6  UNL     1      -1.697  49.930 -26.076  1.00  0.00     0.008 C 
BRANCH  23  24
HETATM   24  C5  UNL     1      -1.279  51.067 -27.017  1.00  0.00     0.028 C 
BRANCH  24  25
HETATM   25  C4  UNL     1       0.217  51.099 -27.181  1.00  0.00    -0.025 C 
HETATM   26  C2  UNL     1       1.143  51.599 -26.340  1.00  0.00    -0.091 C 
HETATM   27  C1  UNL     1       2.608  51.524 -26.686  1.00  0.00     0.042 C 
HETATM   28  C3  UNL     1       0.860  52.261 -25.019  1.00  0.00     0.042 C 
ENDBRANCH  24  25
ENDBRANCH  23  24
ENDBRANCH  21  23
ENDBRANCH   1  21
BRANCH   8  29
HETATM   29  O1  UNL     1      -5.196  48.907 -17.336  1.00  0.00    -0.395 OA
HETATM   30  H28 UNL     1      -4.772  48.748 -16.465  1.00  0.00     0.210 HD
ENDBRANCH   8  29
BRANCH  10  31
HETATM   31  O2  UNL     1      -3.161  48.587 -15.551  1.00  0.00    -0.393 OA
HETATM   32  H31 UNL     1      -2.746  48.072 -14.833  1.00  0.00     0.210 HD
ENDBRANCH  10  31
BRANCH  11  33
HETATM   33  O3  UNL     1       0.192  48.337 -16.498  1.00  0.00    -0.393 OA
HETATM   34  H33 UNL     1       0.047  47.508 -16.009  1.00  0.00     0.210 HD
ENDBRANCH  11  33
TORSDOF 7
ENDMDL
MODEL 8
REMARK minimizedAffinity -9.07692719
REMARK  7 active torsions:
REMARK  status: ('A' for Active; 'I' for Inactive)
REMARK    1  A    between atoms: C4_4  and  C5_5 
REMARK    2  A    between atoms: C5_5  and  C6_6 
REMARK    3  A    between atoms: C6_6  and  C7_7 
REMARK    4  A    between atoms: C7_7  and  C9_9 
REMARK    5  A    between atoms: C16_16  and  O1_17 
REMARK    6  A    between atoms: C18_19  and  O2_20 
REMARK    7  A    between atoms: C19_21  and  O3_22 
ROOT
HETATM    1  C9  UNL     1      -4.080  50.360 -23.072  1.00  0.00    -0.002 C 
HETATM    2  C10 UNL     1      -3.525  51.655 -23.732  1.00  0.00     0.006 C 
HETATM    3  C11 UNL     1      -2.541  52.287 -22.736  1.00  0.00     0.011 C 
HETATM    4  C12 UNL     1      -2.190  51.154 -21.755  1.00  0.00    -0.032 C 
HETATM    5  C13 UNL     1      -1.107  50.272 -22.451  1.00  0.00     0.016 C 
HETATM    6  C14 UNL     1      -1.678  51.641 -20.373  1.00  0.00     0.006 C 
HETATM    7  C15 UNL     1      -0.264  52.239 -20.402  1.00  0.00     0.038 C 
HETATM    8  C16 UNL     1       0.131  52.760 -19.023  1.00  0.00     0.126 C 
HETATM    9  C17 UNL     1       0.285  51.588 -18.041  1.00  0.00     0.055 C 
HETATM   10  C18 UNL     1       0.497  52.068 -16.587  1.00  0.00     0.154 C 
HETATM   11  C19 UNL     1       0.572  50.883 -15.588  1.00  0.00     0.147 C 
HETATM   12  C20 UNL     1       0.614  49.518 -16.280  1.00  0.00     0.035 C 
HETATM   13  C21 UNL     1      -0.527  49.316 -17.285  1.00  0.00     0.013 C 
HETATM   14  C22 UNL     1      -0.860  50.586 -18.065  1.00  0.00    -0.023 A 
HETATM   15  C23 UNL     1      -2.281  51.076 -17.927  1.00  0.00     0.021 A 
HETATM   16  C24 UNL     1      -1.823  50.554 -19.277  1.00  0.00    -0.027 A 
HETATM   17  C25 UNL     1      -2.345  49.179 -19.709  1.00  0.00     0.011 C 
HETATM   18  C26 UNL     1      -3.365  49.123 -20.862  1.00  0.00     0.011 C 
HETATM   19  C27 UNL     1      -3.593  50.456 -21.586  1.00  0.00    -0.032 C 
HETATM   20  C28 UNL     1      -4.608  51.277 -20.747  1.00  0.00     0.016 C 
ENDROOT
BRANCH   1  21
HETATM   21  C7  UNL     1      -5.557  50.053 -23.474  1.00  0.00    -0.014 C 
HETATM   22  C8  UNL     1      -6.577  49.941 -22.331  1.00  0.00     0.010 C 
BRANCH  21  23
HETATM   23  C6  UNL     1      -5.725  48.832 -24.406  1.00  0.00     0.008 C 
BRANCH  23  24
HETATM   24  C5  UNL     1      -4.402  48.259 -24.929  1.00  0.00     0.028 C 
BRANCH  24  25
HETATM   25  C4  UNL     1      -3.806  49.165 -25.973  1.00  0.00    -0.025 C 
HETATM   26  C2  UNL     1      -3.982  49.136 -27.308  1.00  0.00    -0.091 C 
HETATM   27  C1  UNL     1      -3.297  50.148 -28.190  1.00  0.00     0.042 C 
HETATM   28  C3  UNL     1      -4.836  48.149 -28.058  1.00  0.00     0.042 C 
ENDBRANCH  24  25
ENDBRANCH  23  24
ENDBRANCH  21  23
ENDBRANCH   1  21
BRANCH   8  29
HETATM   29  O1  UNL     1       1.371  53.459 -19.164  1.00  0.00    -0.395 OA
HETATM   30  H28 UNL     1       1.775  53.494 -18.270  1.00  0.00     0.210 HD
ENDBRANCH   8  29
BRANCH  10  31
HETATM   31  O2  UNL     1       1.706  52.843 -16.529  1.00  0.00    -0.393 OA
HETATM   32  H31 UNL     1       1.823  53.137 -15.606  1.00  0.00     0.210 HD
ENDBRANCH  10  31
BRANCH  11  33
HETATM   33  O3  UNL     1      -0.562  50.902 -14.716  1.00  0.00    -0.393 OA
HETATM   34  H33 UNL     1      -0.536  51.730 -14.206  1.00  0.00     0.210 HD
ENDBRANCH  11  33
TORSDOF 7
ENDMDL
MODEL 9
REMARK minimizedAffinity -9.06957817
REMARK  7 active torsions:
REMARK  status: ('A' for Active; 'I' for Inactive)
REMARK    1  A    between atoms: C4_4  and  C5_5 
REMARK    2  A    between atoms: C5_5  and  C6_6 
REMARK    3  A    between atoms: C6_6  and  C7_7 
REMARK    4  A    between atoms: C7_7  and  C9_9 
REMARK    5  A    between atoms: C16_16  and  O1_17 
REMARK    6  A    between atoms: C18_19  and  O2_20 
REMARK    7  A    between atoms: C19_21  and  O3_22 
ROOT
HETATM    1  C9  UNL     1      -0.498  49.957 -18.341  1.00  0.00    -0.002 C 
HETATM    2  C10 UNL     1      -1.607  48.892 -18.099  1.00  0.00     0.006 C 
HETATM    3  C11 UNL     1      -2.407  48.765 -19.405  1.00  0.00     0.011 C 
HETATM    4  C12 UNL     1      -1.498  49.376 -20.486  1.00  0.00    -0.032 C 
HETATM    5  C13 UNL     1      -0.457  48.280 -20.875  1.00  0.00     0.016 C 
HETATM    6  C14 UNL     1      -2.252  49.871 -21.749  1.00  0.00     0.006 C 
HETATM    7  C15 UNL     1      -2.790  48.744 -22.642  1.00  0.00     0.038 C 
HETATM    8  C16 UNL     1      -3.580  49.316 -23.817  1.00  0.00     0.126 C 
HETATM    9  C17 UNL     1      -2.638  50.074 -24.766  1.00  0.00     0.055 C 
HETATM   10  C18 UNL     1      -3.410  50.833 -25.870  1.00  0.00     0.154 C 
HETATM   11  C19 UNL     1      -2.462  51.662 -26.777  1.00  0.00     0.147 C 
HETATM   12  C20 UNL     1      -0.980  51.391 -26.502  1.00  0.00     0.035 C 
HETATM   13  C21 UNL     1      -0.603  51.552 -25.024  1.00  0.00     0.013 C 
HETATM   14  C22 UNL     1      -1.688  51.042 -24.078  1.00  0.00    -0.023 A 
HETATM   15  C23 UNL     1      -2.236  52.064 -23.112  1.00  0.00     0.021 A 
HETATM   16  C24 UNL     1      -1.427  50.906 -22.557  1.00  0.00    -0.027 A 
HETATM   17  C25 UNL     1      -0.008  51.215 -22.069  1.00  0.00     0.011 C 
HETATM   18  C26 UNL     1       0.262  51.165 -20.553  1.00  0.00     0.011 C 
HETATM   19  C27 UNL     1      -0.893  50.608 -19.711  1.00  0.00    -0.032 C 
HETATM   20  C28 UNL     1      -1.902  51.763 -19.478  1.00  0.00     0.016 C 
ENDROOT
BRANCH   1  21
HETATM   21  C7  UNL     1      -0.156  50.786 -17.063  1.00  0.00    -0.014 C 
HETATM   22  C8  UNL     1       0.910  51.882 -17.213  1.00  0.00     0.010 C 
BRANCH  21  23
HETATM   23  C6  UNL     1       0.187  49.932 -15.822  1.00  0.00     0.008 C 
BRANCH  23  24
HETATM   24  C5  UNL     1       0.172  50.714 -14.503  1.00  0.00     0.028 C 
BRANCH  24  25
HETATM   25  C4  UNL     1      -1.231  51.124 -14.143  1.00  0.00    -0.025 C 
HETATM   26  C2  UNL     1      -1.636  51.959 -13.167  1.00  0.00    -0.091 C 
HETATM   27  C1  UNL     1      -3.102  52.251 -12.973  1.00  0.00     0.042 C 
HETATM   28  C3  UNL     1      -0.737  52.672 -12.194  1.00  0.00     0.042 C 
ENDBRANCH  24  25
ENDBRANCH  23  24
ENDBRANCH  21  23
ENDBRANCH   1  21
BRANCH   8  29
HETATM   29  O1  UNL     1      -4.196  48.218 -24.497  1.00  0.00    -0.395 OA
HETATM   30  H28 UNL     1      -4.409  48.535 -25.402  1.00  0.00     0.210 HD
ENDBRANCH   8  29
BRANCH  10  31
HETATM   31  O2  UNL     1      -4.144  49.881 -26.657  1.00  0.00    -0.393 OA
HETATM   32  H31 UNL     1      -4.623  50.378 -27.347  1.00  0.00     0.210 HD
ENDBRANCH  10  31
BRANCH  11  33
HETATM   33  O3  UNL     1      -2.699  53.060 -26.589  1.00  0.00    -0.393 OA
HETATM   34  H33 UNL     1      -3.615  53.249 -26.856  1.00  0.00     0.210 HD
ENDBRANCH  11  33
TORSDOF 7
ENDMDL
