MODEL 1
REMARK minimizedAffinity -7.22538853
REMARK CNNscore 0.802071214
REMARK CNNaffinity 6.87878752
REMARK  14 active torsions:
REMARK  status: ('A' for Active; 'I' for Inactive)
REMARK    1  A    between atoms: C2_2  and  C3_3 
REMARK    2  A    between atoms: C3_3  and  N1_4 
REMARK    3  A    between atoms: N1_4  and  C4_5 
REMARK    4  A    between atoms: C4_5  and  C5_6 
REMARK    5  A    between atoms: C5_6  and  C6_7 
REMARK    6  A    between atoms: C15_17  and  O2_18 
REMARK    7  A    between atoms: C20_23  and  O3_24 
REMARK    8  A    between atoms: C22_26  and  C23_27 
REMARK    9  A    between atoms: C23_27  and  C25_29 
REMARK   10  A    between atoms: C25_29  and  C26_30 
REMARK   11  A    between atoms: C26_30  and  O4_31 
REMARK   12  A    between atoms: C26_30  and  C27_32 
REMARK   13  A    between atoms: C28_33  and  C30_35 
REMARK   14  A    between atoms: C30_35  and  O6_37 
ROOT
HETATM    1  C6  UNL     1      -1.209  52.218 -10.866  1.00  0.00     0.023 C 
HETATM    2  C7  UNL     1      -1.253  52.410 -12.401  1.00  0.00     0.024 C 
HETATM    3  C8  UNL     1      -2.549  52.820 -10.397  1.00  0.00     0.135 C 
HETATM    4  O1  UNL     1      -3.526  52.119 -10.127  1.00  0.00    -0.297 OA
HETATM    5  C9  UNL     1      -2.683  54.325 -10.359  1.00  0.00     0.080 C 
HETATM    6  C10 UNL     1      -1.351  55.040 -10.185  1.00  0.00     0.022 C 
HETATM    7  C11 UNL     1      -0.340  54.240  -9.332  1.00  0.00    -0.008 C 
HETATM    8  C12 UNL     1      -0.955  53.802  -7.969  1.00  0.00     0.021 C 
HETATM    9  C13 UNL     1       0.911  55.104  -9.015  1.00  0.00     0.002 C 
HETATM   10  C14 UNL     1       2.166  54.834  -9.457  1.00  0.00    -0.029 C 
HETATM   11  C15 UNL     1       2.430  53.674 -10.382  1.00  0.00     0.149 C 
HETATM   12  C16 UNL     1       1.183  53.177 -11.099  1.00  0.00     0.043 C 
HETATM   13  C17 UNL     1       0.015  52.923 -10.134  1.00  0.00     0.017 C 
HETATM   14  C18 UNL     1       3.364  55.681  -9.000  1.00  0.00     0.017 C 
HETATM   15  C19 UNL     1       3.412  56.898  -9.980  1.00  0.00     0.023 C 
HETATM   16  C20 UNL     1       4.778  55.034  -8.926  1.00  0.00     0.132 C 
HETATM   17  C21 UNL     1       5.561  55.893  -7.912  1.00  0.00     0.038 C 
HETATM   18  C22 UNL     1       4.521  56.778  -7.168  1.00  0.00     0.001 C 
HETATM   19  C31 UNL     1       3.169  56.061  -7.477  1.00  0.00    -0.019 C 
HETATM   20  C32 UNL     1       2.985  54.814  -6.559  1.00  0.00     0.017 C 
HETATM   21  C33 UNL     1       1.910  56.918  -7.367  1.00  0.00     0.094 C 
HETATM   22  C34 UNL     1       0.716  56.287  -8.073  1.00  0.00     0.157 C 
HETATM   23  O7  UNL     1      -0.407  56.748  -7.873  1.00  0.00    -0.293 OA
ENDROOT
BRANCH  18  24
HETATM   24  C23 UNL     1       4.994  57.203  -5.746  1.00  0.00    -0.011 C 
HETATM   25  C24 UNL     1       4.018  58.080  -4.948  1.00  0.00     0.010 C 
BRANCH  24  26
HETATM   26  C25 UNL     1       6.400  57.849  -5.686  1.00  0.00     0.040 C 
BRANCH  26  27
HETATM   27  C26 UNL     1       7.469  57.055  -4.913  1.00  0.00     0.142 C 
BRANCH  27  28
HETATM   28  O4  UNL     1       7.046  56.994  -3.551  1.00  0.00    -0.392 OA
HETATM   29  H43 UNL     1       7.733  56.516  -3.056  1.00  0.00     0.210 HD
ENDBRANCH  27  28
BRANCH  27  30
HETATM   30  C27 UNL     1       8.829  57.682  -4.899  1.00  0.00     0.018 C 
HETATM   31  C28 UNL     1      10.028  57.065  -4.863  1.00  0.00     0.010 C 
HETATM   32  C29 UNL     1      10.270  55.586  -4.849  1.00  0.00     0.055 C 
BRANCH  31  33
HETATM   33  C30 UNL     1      11.220  57.950  -4.886  1.00  0.00     0.171 C 
HETATM   34  O5  UNL     1      11.221  59.167  -4.942  1.00  0.00    -0.646 OA
BRANCH  33  35
HETATM   35  O6  UNL     1      12.368  57.257  -4.843  1.00  0.00    -0.773 OA
HETATM   36  H48 UNL     1      13.059  57.952  -4.863  1.00  0.00     0.167 HD
ENDBRANCH  33  35
ENDBRANCH  31  33
ENDBRANCH  27  30
ENDBRANCH  26  27
ENDBRANCH  24  26
ENDBRANCH  18  24
BRANCH  16  37
HETATM   37  O3  UNL     1       5.481  55.018 -10.158  1.00  0.00    -0.394 OA
HETATM   38  H32 UNL     1       4.903  54.548 -10.795  1.00  0.00     0.210 HD
ENDBRANCH  16  37
BRANCH  11  39
HETATM   39  O2  UNL     1       3.381  54.046 -11.377  1.00  0.00    -0.391 OA
HETATM   40  H24 UNL     1       2.916  54.584 -12.044  1.00  0.00     0.210 HD
ENDBRANCH  11  39
BRANCH   1  41
HETATM   41  C5  UNL     1      -1.242  50.691 -10.509  1.00  0.00     0.047 C 
BRANCH  41  42
HETATM   42  C4  UNL     1      -0.019  49.825 -10.842  1.00  0.00     0.270 C 
BRANCH  42  43
HETATM   43  N1  UNL     1      -0.354  48.717 -11.731  1.00  0.00     0.083 N 
HETATM   44  H8  UNL     1       0.281  47.939 -11.549  1.00  0.00     0.315 HD
BRANCH  43  45
HETATM   45  C3  UNL     1      -0.260  49.108 -13.138  1.00  0.00     0.269 C 
BRANCH  45  46
HETATM   46  C2  UNL     1       0.296  47.969 -13.998  1.00  0.00     0.025 C 
HETATM   47  C1  UNL     1       0.650  48.388 -15.417  1.00  0.00     0.007 C 
ENDBRANCH  45  46
ENDBRANCH  43  45
ENDBRANCH  42  43
ENDBRANCH  41  42
ENDBRANCH   1  41
TORSDOF 14
ENDMDL
MODEL 2
REMARK minimizedAffinity -7.6118331
REMARK CNNscore 0.6959548
REMARK CNNaffinity 6.32438326
REMARK  14 active torsions:
REMARK  status: ('A' for Active; 'I' for Inactive)
REMARK    1  A    between atoms: C2_2  and  C3_3 
REMARK    2  A    between atoms: C3_3  and  N1_4 
REMARK    3  A    between atoms: N1_4  and  C4_5 
REMARK    4  A    between atoms: C4_5  and  C5_6 
REMARK    5  A    between atoms: C5_6  and  C6_7 
REMARK    6  A    between atoms: C15_17  and  O2_18 
REMARK    7  A    between atoms: C20_23  and  O3_24 
REMARK    8  A    between atoms: C22_26  and  C23_27 
REMARK    9  A    between atoms: C23_27  and  C25_29 
REMARK   10  A    between atoms: C25_29  and  C26_30 
REMARK   11  A    between atoms: C26_30  and  O4_31 
REMARK   12  A    between atoms: C26_30  and  C27_32 
REMARK   13  A    between atoms: C28_33  and  C30_35 
REMARK   14  A    between atoms: C30_35  and  O6_37 
ROOT
HETATM    1  C6  UNL     1      -8.978  46.568 -30.793  1.00  0.00     0.023 C 
HETATM    2  C7  UNL     1      -7.616  46.043 -30.278  1.00  0.00     0.024 C 
HETATM    3  C8  UNL     1      -8.839  48.098 -30.660  1.00  0.00     0.135 C 
HETATM    4  O1  UNL     1      -8.569  48.820 -31.622  1.00  0.00    -0.297 OA
HETATM    5  C9  UNL     1      -8.951  48.710 -29.282  1.00  0.00     0.080 C 
HETATM    6  C10 UNL     1      -9.777  47.868 -28.320  1.00  0.00     0.022 C 
HETATM    7  C11 UNL     1     -10.919  47.093 -29.017  1.00  0.00    -0.008 C 
HETATM    8  C12 UNL     1     -11.806  48.034 -29.888  1.00  0.00     0.021 C 
HETATM    9  C13 UNL     1     -11.849  46.428 -27.967  1.00  0.00     0.002 C 
HETATM   10  C14 UNL     1     -12.003  45.087 -27.814  1.00  0.00    -0.029 C 
HETATM   11  C15 UNL     1     -11.197  44.115 -28.636  1.00  0.00     0.149 C 
HETATM   12  C16 UNL     1      -9.948  44.733 -29.250  1.00  0.00     0.043 C 
HETATM   13  C17 UNL     1     -10.248  46.043 -29.992  1.00  0.00     0.017 C 
HETATM   14  C18 UNL     1     -13.031  44.519 -26.824  1.00  0.00     0.017 C 
HETATM   15  C19 UNL     1     -12.297  44.468 -25.444  1.00  0.00     0.023 C 
HETATM   16  C20 UNL     1     -13.680  43.131 -27.103  1.00  0.00     0.132 C 
HETATM   17  C21 UNL     1     -15.014  43.148 -26.329  1.00  0.00     0.038 C 
HETATM   18  C22 UNL     1     -15.281  44.623 -25.917  1.00  0.00     0.001 C 
HETATM   19  C31 UNL     1     -14.327  45.426 -26.856  1.00  0.00    -0.019 C 
HETATM   20  C32 UNL     1     -14.941  45.558 -28.282  1.00  0.00     0.017 C 
HETATM   21  C33 UNL     1     -13.930  46.822 -26.381  1.00  0.00     0.094 C 
HETATM   22  C34 UNL     1     -12.704  47.355 -27.111  1.00  0.00     0.157 C 
HETATM   23  O7  UNL     1     -12.413  48.546 -26.997  1.00  0.00    -0.293 OA
ENDROOT
BRANCH  18  24
HETATM   24  C23 UNL     1     -16.795  44.932 -25.719  1.00  0.00    -0.011 C 
HETATM   25  C24 UNL     1     -17.648  44.958 -26.996  1.00  0.00     0.010 C 
BRANCH  24  26
HETATM   26  C25 UNL     1     -17.105  46.205 -24.894  1.00  0.00     0.040 C 
BRANCH  26  27
HETATM   27  C26 UNL     1     -18.529  46.298 -24.315  1.00  0.00     0.142 C 
BRANCH  27  28
HETATM   28  O4  UNL     1     -19.104  47.511 -24.803  1.00  0.00    -0.392 OA
HETATM   29  H43 UNL     1     -19.993  47.585 -24.417  1.00  0.00     0.210 HD
ENDBRANCH  27  28
BRANCH  27  30
HETATM   30  C27 UNL     1     -18.596  46.377 -22.821  1.00  0.00     0.018 C 
HETATM   31  C28 UNL     1     -19.209  45.527 -21.971  1.00  0.00     0.010 C 
HETATM   32  C29 UNL     1     -19.955  44.281 -22.339  1.00  0.00     0.055 C 
BRANCH  31  33
HETATM   33  C30 UNL     1     -19.083  45.845 -20.526  1.00  0.00     0.171 C 
HETATM   34  O5  UNL     1     -19.573  45.225 -19.600  1.00  0.00    -0.646 OA
BRANCH  33  35
HETATM   35  O6  UNL     1     -18.342  46.943 -20.311  1.00  0.00    -0.773 OA
HETATM   36  H48 UNL     1     -18.340  47.033 -19.335  1.00  0.00     0.167 HD
ENDBRANCH  33  35
ENDBRANCH  31  33
ENDBRANCH  27  30
ENDBRANCH  26  27
ENDBRANCH  24  26
ENDBRANCH  18  24
BRANCH  16  37
HETATM   37  O3  UNL     1     -12.907  42.024 -26.669  1.00  0.00    -0.394 OA
HETATM   38  H32 UNL     1     -12.037  42.110 -27.112  1.00  0.00     0.210 HD
ENDBRANCH  16  37
BRANCH  11  39
HETATM   39  O2  UNL     1     -10.783  43.016 -27.828  1.00  0.00    -0.391 OA
HETATM   40  H24 UNL     1     -10.030  43.315 -27.285  1.00  0.00     0.210 HD
ENDBRANCH  11  39
BRANCH   1  41
HETATM   41  C5  UNL     1      -9.138  46.253 -32.321  1.00  0.00     0.047 C 
BRANCH  41  42
HETATM   42  C4  UNL     1      -8.008  45.510 -33.048  1.00  0.00     0.270 C 
BRANCH  42  43
HETATM   43  N1  UNL     1      -7.985  45.806 -34.477  1.00  0.00     0.083 N 
HETATM   44  H8  UNL     1      -7.333  46.572 -34.649  1.00  0.00     0.315 HD
BRANCH  43  45
HETATM   45  C3  UNL     1      -9.312  46.171 -34.973  1.00  0.00     0.269 C 
BRANCH  45  46
HETATM   46  C2  UNL     1      -9.279  46.494 -36.470  1.00  0.00     0.025 C 
HETATM   47  C1  UNL     1      -8.272  47.572 -36.843  1.00  0.00     0.007 C 
ENDBRANCH  45  46
ENDBRANCH  43  45
ENDBRANCH  42  43
ENDBRANCH  41  42
ENDBRANCH   1  41
TORSDOF 14
ENDMDL
MODEL 3
REMARK minimizedAffinity -7.66094303
REMARK CNNscore 0.575662196
REMARK CNNaffinity 6.0703392
REMARK  14 active torsions:
REMARK  status: ('A' for Active; 'I' for Inactive)
REMARK    1  A    between atoms: C2_2  and  C3_3 
REMARK    2  A    between atoms: C3_3  and  N1_4 
REMARK    3  A    between atoms: N1_4  and  C4_5 
REMARK    4  A    between atoms: C4_5  and  C5_6 
REMARK    5  A    between atoms: C5_6  and  C6_7 
REMARK    6  A    between atoms: C15_17  and  O2_18 
REMARK    7  A    between atoms: C20_23  and  O3_24 
REMARK    8  A    between atoms: C22_26  and  C23_27 
REMARK    9  A    between atoms: C23_27  and  C25_29 
REMARK   10  A    between atoms: C25_29  and  C26_30 
REMARK   11  A    between atoms: C26_30  and  O4_31 
REMARK   12  A    between atoms: C26_30  and  C27_32 
REMARK   13  A    between atoms: C28_33  and  C30_35 
REMARK   14  A    between atoms: C30_35  and  O6_37 
ROOT
HETATM    1  C6  UNL     1      -8.504  46.348 -30.131  1.00  0.00     0.023 C 
HETATM    2  C7  UNL     1      -7.206  45.897 -29.417  1.00  0.00     0.024 C 
HETATM    3  C8  UNL     1      -8.415  47.886 -30.086  1.00  0.00     0.135 C 
HETATM    4  O1  UNL     1      -8.042  48.552 -31.056  1.00  0.00    -0.297 OA
HETATM    5  C9  UNL     1      -8.710  48.584 -28.778  1.00  0.00     0.080 C 
HETATM    6  C10 UNL     1      -9.632  47.784 -27.869  1.00  0.00     0.022 C 
HETATM    7  C11 UNL     1     -10.662  46.932 -28.647  1.00  0.00    -0.008 C 
HETATM    8  C12 UNL     1     -11.453  47.788 -29.682  1.00  0.00     0.021 C 
HETATM    9  C13 UNL     1     -11.701  46.311 -27.676  1.00  0.00     0.002 C 
HETATM   10  C14 UNL     1     -11.845  44.979 -27.452  1.00  0.00    -0.029 C 
HETATM   11  C15 UNL     1     -10.924  43.978 -28.099  1.00  0.00     0.149 C 
HETATM   12  C16 UNL     1      -9.621  44.590 -28.596  1.00  0.00     0.043 C 
HETATM   13  C17 UNL     1      -9.854  45.840 -29.458  1.00  0.00     0.017 C 
HETATM   14  C18 UNL     1     -12.978  44.447 -26.559  1.00  0.00     0.017 C 
HETATM   15  C19 UNL     1     -12.420  44.507 -25.099  1.00  0.00     0.023 C 
HETATM   16  C20 UNL     1     -13.558  43.026 -26.820  1.00  0.00     0.132 C 
HETATM   17  C21 UNL     1     -14.978  43.054 -26.218  1.00  0.00     0.038 C 
HETATM   18  C22 UNL     1     -15.325  44.545 -25.944  1.00  0.00     0.001 C 
HETATM   19  C31 UNL     1     -14.277  45.312 -26.811  1.00  0.00    -0.019 C 
HETATM   20  C32 UNL     1     -14.712  45.332 -28.308  1.00  0.00     0.017 C 
HETATM   21  C33 UNL     1     -13.972  46.747 -26.389  1.00  0.00     0.094 C 
HETATM   22  C34 UNL     1     -12.675  47.266 -26.997  1.00  0.00     0.157 C 
HETATM   23  O7  UNL     1     -12.425  48.470 -26.930  1.00  0.00    -0.293 OA
ENDROOT
BRANCH  18  24
HETATM   24  C23 UNL     1     -16.858  44.822 -25.955  1.00  0.00    -0.011 C 
HETATM   25  C24 UNL     1     -17.537  44.781 -27.332  1.00  0.00     0.010 C 
BRANCH  24  26
HETATM   26  C25 UNL     1     -17.298  46.116 -25.227  1.00  0.00     0.040 C 
BRANCH  26  27
HETATM   27  C26 UNL     1     -18.815  46.291 -25.032  1.00  0.00     0.142 C 
BRANCH  27  28
HETATM   28  O4  UNL     1     -19.050  47.676 -24.779  1.00  0.00    -0.392 OA
HETATM   29  H43 UNL     1     -20.005  47.785 -24.629  1.00  0.00     0.210 HD
ENDBRANCH  27  28
BRANCH  27  30
HETATM   30  C27 UNL     1     -19.387  45.551 -23.862  1.00  0.00     0.018 C 
HETATM   31  C28 UNL     1     -18.953  45.556 -22.584  1.00  0.00     0.010 C 
HETATM   32  C29 UNL     1     -17.793  46.332 -22.039  1.00  0.00     0.055 C 
BRANCH  31  33
HETATM   33  C30 UNL     1     -19.741  44.743 -21.624  1.00  0.00     0.171 C 
HETATM   34  O5  UNL     1     -20.488  43.819 -21.895  1.00  0.00    -0.646 OA
BRANCH  33  35
HETATM   35  O6  UNL     1     -19.555  45.135 -20.355  1.00  0.00    -0.773 OA
HETATM   36  H48 UNL     1     -20.122  44.524 -19.838  1.00  0.00     0.167 HD
ENDBRANCH  33  35
ENDBRANCH  31  33
ENDBRANCH  27  30
ENDBRANCH  26  27
ENDBRANCH  24  26
ENDBRANCH  18  24
BRANCH  16  37
HETATM   37  O3  UNL     1     -12.823  41.972 -26.218  1.00  0.00    -0.394 OA
HETATM   38  H32 UNL     1     -11.905  42.054 -26.556  1.00  0.00     0.210 HD
ENDBRANCH  16  37
BRANCH  11  39
HETATM   39  O2  UNL     1     -10.591  42.946 -27.173  1.00  0.00    -0.391 OA
HETATM   40  H24 UNL     1      -9.918  43.302 -26.563  1.00  0.00     0.210 HD
ENDBRANCH  11  39
BRANCH   1  41
HETATM   41  C5  UNL     1      -8.466  45.929 -31.642  1.00  0.00     0.047 C 
BRANCH  41  42
HETATM   42  C4  UNL     1      -7.389  44.940 -32.111  1.00  0.00     0.270 C 
BRANCH  42  43
HETATM   43  N1  UNL     1      -6.429  45.561 -33.017  1.00  0.00     0.083 N 
HETATM   44  H8  UNL     1      -6.371  45.009 -33.872  1.00  0.00     0.315 HD
BRANCH  43  45
HETATM   45  C3  UNL     1      -5.102  45.663 -32.408  1.00  0.00     0.269 C 
BRANCH  45  46
HETATM   46  C2  UNL     1      -4.493  47.051 -32.628  1.00  0.00     0.025 C 
HETATM   47  C1  UNL     1      -5.053  47.783 -33.839  1.00  0.00     0.007 C 
ENDBRANCH  45  46
ENDBRANCH  43  45
ENDBRANCH  42  43
ENDBRANCH  41  42
ENDBRANCH   1  41
TORSDOF 14
ENDMDL
MODEL 4
REMARK minimizedAffinity -7.64714718
REMARK CNNscore 0.518140972
REMARK CNNaffinity 6.61941385
REMARK  14 active torsions:
REMARK  status: ('A' for Active; 'I' for Inactive)
REMARK    1  A    between atoms: C2_2  and  C3_3 
REMARK    2  A    between atoms: C3_3  and  N1_4 
REMARK    3  A    between atoms: N1_4  and  C4_5 
REMARK    4  A    between atoms: C4_5  and  C5_6 
REMARK    5  A    between atoms: C5_6  and  C6_7 
REMARK    6  A    between atoms: C15_17  and  O2_18 
REMARK    7  A    between atoms: C20_23  and  O3_24 
REMARK    8  A    between atoms: C22_26  and  C23_27 
REMARK    9  A    between atoms: C23_27  and  C25_29 
REMARK   10  A    between atoms: C25_29  and  C26_30 
REMARK   11  A    between atoms: C26_30  and  O4_31 
REMARK   12  A    between atoms: C26_30  and  C27_32 
REMARK   13  A    between atoms: C28_33  and  C30_35 
REMARK   14  A    between atoms: C30_35  and  O6_37 
ROOT
HETATM    1  C6  UNL     1      -9.284  45.915 -32.574  1.00  0.00     0.023 C 
HETATM    2  C7  UNL     1     -10.766  45.807 -33.008  1.00  0.00     0.024 C 
HETATM    3  C8  UNL     1      -8.757  44.478 -32.758  1.00  0.00     0.135 C 
HETATM    4  O1  UNL     1      -8.101  44.139 -33.746  1.00  0.00    -0.297 OA
HETATM    5  C9  UNL     1      -9.141  43.437 -31.731  1.00  0.00     0.080 C 
HETATM    6  C10 UNL     1      -9.457  44.032 -30.367  1.00  0.00     0.022 C 
HETATM    7  C11 UNL     1      -8.626  45.296 -30.048  1.00  0.00    -0.008 C 
HETATM    8  C12 UNL     1      -7.099  45.046 -30.242  1.00  0.00     0.021 C 
HETATM    9  C13 UNL     1      -8.836  45.730 -28.572  1.00  0.00     0.002 C 
HETATM   10  C14 UNL     1      -9.420  46.895 -28.188  1.00  0.00    -0.029 C 
HETATM   11  C15 UNL     1      -9.992  47.849 -29.204  1.00  0.00     0.149 C 
HETATM   12  C16 UNL     1     -10.265  47.201 -30.554  1.00  0.00     0.043 C 
HETATM   13  C17 UNL     1      -9.054  46.415 -31.081  1.00  0.00     0.017 C 
HETATM   14  C18 UNL     1      -9.483  47.294 -26.705  1.00  0.00     0.017 C 
HETATM   15  C19 UNL     1     -10.770  46.605 -26.143  1.00  0.00     0.023 C 
HETATM   16  C20 UNL     1      -9.506  48.801 -26.317  1.00  0.00     0.132 C 
HETATM   17  C21 UNL     1      -8.970  48.852 -24.871  1.00  0.00     0.038 C 
HETATM   18  C22 UNL     1      -8.330  47.466 -24.575  1.00  0.00     0.001 C 
HETATM   19  C31 UNL     1      -8.135  46.861 -26.001  1.00  0.00    -0.019 C 
HETATM   20  C32 UNL     1      -6.871  47.463 -26.686  1.00  0.00     0.017 C 
HETATM   21  C33 UNL     1      -8.035  45.339 -26.081  1.00  0.00     0.094 C 
HETATM   22  C34 UNL     1      -8.268  44.816 -27.492  1.00  0.00     0.157 C 
HETATM   23  O7  UNL     1      -7.993  43.644 -27.747  1.00  0.00    -0.293 OA
ENDROOT
BRANCH  18  24
HETATM   24  C23 UNL     1      -7.223  47.531 -23.481  1.00  0.00    -0.011 C 
HETATM   25  C24 UNL     1      -7.138  46.321 -22.539  1.00  0.00     0.010 C 
BRANCH  24  26
HETATM   26  C25 UNL     1      -7.217  48.822 -22.626  1.00  0.00     0.040 C 
BRANCH  26  27
HETATM   27  C26 UNL     1      -6.042  49.786 -22.876  1.00  0.00     0.142 C 
BRANCH  27  28
HETATM   28  O4  UNL     1      -6.588  51.103 -22.959  1.00  0.00    -0.392 OA
HETATM   29  H43 UNL     1      -5.851  51.710 -23.143  1.00  0.00     0.210 HD
ENDBRANCH  27  28
BRANCH  27  30
HETATM   30  C27 UNL     1      -5.307  49.559 -24.161  1.00  0.00     0.018 C 
HETATM   31  C28 UNL     1      -4.160  50.137 -24.575  1.00  0.00     0.010 C 
HETATM   32  C29 UNL     1      -3.342  51.139 -23.818  1.00  0.00     0.055 C 
BRANCH  31  33
HETATM   33  C30 UNL     1      -3.644  49.693 -25.894  1.00  0.00     0.171 C 
HETATM   34  O5  UNL     1      -3.263  48.574 -26.187  1.00  0.00    -0.646 OA
BRANCH  33  35
HETATM   35  O6  UNL     1      -3.627  50.688 -26.794  1.00  0.00    -0.773 OA
HETATM   36  H48 UNL     1      -3.273  50.263 -27.603  1.00  0.00     0.167 HD
ENDBRANCH  33  35
ENDBRANCH  31  33
ENDBRANCH  27  30
ENDBRANCH  26  27
ENDBRANCH  24  26
ENDBRANCH  18  24
BRANCH  16  37
HETATM   37  O3  UNL     1     -10.792  49.398 -26.353  1.00  0.00    -0.394 OA
HETATM   38  H32 UNL     1     -11.132  49.256 -27.262  1.00  0.00     0.210 HD
ENDBRANCH  16  37
BRANCH  11  39
HETATM   39  O2  UNL     1     -11.221  48.392 -28.729  1.00  0.00    -0.391 OA
HETATM   40  H24 UNL     1     -11.911  47.713 -28.850  1.00  0.00     0.210 HD
ENDBRANCH  11  39
BRANCH   1  41
HETATM   41  C5  UNL     1      -8.492  46.827 -33.574  1.00  0.00     0.047 C 
BRANCH  41  42
HETATM   42  C4  UNL     1      -8.869  46.800 -35.062  1.00  0.00     0.270 C 
BRANCH  42  43
HETATM   43  N1  UNL     1      -7.985  47.633 -35.869  1.00  0.00     0.083 N 
HETATM   44  H8  UNL     1      -7.712  48.454 -35.328  1.00  0.00     0.315 HD
BRANCH  43  45
HETATM   45  C3  UNL     1      -8.631  48.058 -37.112  1.00  0.00     0.269 C 
BRANCH  45  46
HETATM   46  C2  UNL     1      -7.790  47.681 -38.335  1.00  0.00     0.025 C 
HETATM   47  C1  UNL     1      -6.821  48.769 -38.773  1.00  0.00     0.007 C 
ENDBRANCH  45  46
ENDBRANCH  43  45
ENDBRANCH  42  43
ENDBRANCH  41  42
ENDBRANCH   1  41
TORSDOF 14
ENDMDL
MODEL 5
REMARK minimizedAffinity -7.19461298
REMARK CNNscore 0.509540319
REMARK CNNaffinity 7.06334066
REMARK  14 active torsions:
REMARK  status: ('A' for Active; 'I' for Inactive)
REMARK    1  A    between atoms: C2_2  and  C3_3 
REMARK    2  A    between atoms: C3_3  and  N1_4 
REMARK    3  A    between atoms: N1_4  and  C4_5 
REMARK    4  A    between atoms: C4_5  and  C5_6 
REMARK    5  A    between atoms: C5_6  and  C6_7 
REMARK    6  A    between atoms: C15_17  and  O2_18 
REMARK    7  A    between atoms: C20_23  and  O3_24 
REMARK    8  A    between atoms: C22_26  and  C23_27 
REMARK    9  A    between atoms: C23_27  and  C25_29 
REMARK   10  A    between atoms: C25_29  and  C26_30 
REMARK   11  A    between atoms: C26_30  and  O4_31 
REMARK   12  A    between atoms: C26_30  and  C27_32 
REMARK   13  A    between atoms: C28_33  and  C30_35 
REMARK   14  A    between atoms: C30_35  and  O6_37 
ROOT
HETATM    1  C6  UNL     1      -0.204  52.465 -19.265  1.00  0.00     0.023 C 
HETATM    2  C7  UNL     1      -0.756  53.806 -18.726  1.00  0.00     0.024 C 
HETATM    3  C8  UNL     1       1.123  52.873 -19.934  1.00  0.00     0.135 C 
HETATM    4  O1  UNL     1       2.214  52.720 -19.378  1.00  0.00    -0.297 OA
HETATM    5  C9  UNL     1       1.067  53.565 -21.276  1.00  0.00     0.080 C 
HETATM    6  C10 UNL     1      -0.188  53.228 -22.069  1.00  0.00     0.022 C 
HETATM    7  C11 UNL     1      -0.700  51.791 -21.815  1.00  0.00    -0.008 C 
HETATM    8  C12 UNL     1       0.427  50.734 -22.017  1.00  0.00     0.021 C 
HETATM    9  C13 UNL     1      -1.845  51.437 -22.801  1.00  0.00     0.002 C 
HETATM   10  C14 UNL     1      -3.128  51.188 -22.433  1.00  0.00    -0.029 C 
HETATM   11  C15 UNL     1      -3.563  51.315 -20.996  1.00  0.00     0.149 C 
HETATM   12  C16 UNL     1      -2.615  52.155 -20.151  1.00  0.00     0.043 C 
HETATM   13  C17 UNL     1      -1.151  51.714 -20.300  1.00  0.00     0.017 C 
HETATM   14  C18 UNL     1      -4.171  50.733 -23.467  1.00  0.00     0.017 C 
HETATM   15  C19 UNL     1      -4.736  52.048 -24.096  1.00  0.00     0.023 C 
HETATM   16  C20 UNL     1      -5.361  49.838 -23.012  1.00  0.00     0.132 C 
HETATM   17  C21 UNL     1      -5.818  49.100 -24.287  1.00  0.00     0.038 C 
HETATM   18  C22 UNL     1      -4.702  49.296 -25.351  1.00  0.00     0.001 C 
HETATM   19  C31 UNL     1      -3.478  49.748 -24.492  1.00  0.00    -0.019 C 
HETATM   20  C32 UNL     1      -2.809  48.523 -23.800  1.00  0.00     0.017 C 
HETATM   21  C33 UNL     1      -2.390  50.529 -25.226  1.00  0.00     0.094 C 
HETATM   22  C34 UNL     1      -1.471  51.280 -24.270  1.00  0.00     0.157 C 
HETATM   23  O7  UNL     1      -0.423  51.758 -24.704  1.00  0.00    -0.293 OA
ENDROOT
BRANCH  18  24
HETATM   24  C23 UNL     1      -4.666  48.155 -26.410  1.00  0.00    -0.011 C 
HETATM   25  C24 UNL     1      -3.829  48.431 -27.668  1.00  0.00     0.010 C 
BRANCH  24  26
HETATM   26  C25 UNL     1      -6.052  47.621 -26.849  1.00  0.00     0.040 C 
BRANCH  26  27
HETATM   27  C26 UNL     1      -6.329  47.641 -28.364  1.00  0.00     0.142 C 
BRANCH  27  28
HETATM   28  O4  UNL     1      -7.423  48.532 -28.580  1.00  0.00    -0.392 OA
HETATM   29  H43 UNL     1      -7.617  48.527 -29.533  1.00  0.00     0.210 HD
ENDBRANCH  27  28
BRANCH  27  30
HETATM   30  C27 UNL     1      -6.743  46.325 -28.944  1.00  0.00     0.018 C 
HETATM   31  C28 UNL     1      -7.679  45.470 -28.480  1.00  0.00     0.010 C 
HETATM   32  C29 UNL     1      -8.540  45.662 -27.269  1.00  0.00     0.055 C 
BRANCH  31  33
HETATM   33  C30 UNL     1      -7.899  44.242 -29.285  1.00  0.00     0.171 C 
HETATM   34  O5  UNL     1      -8.914  43.570 -29.324  1.00  0.00    -0.646 OA
BRANCH  33  35
HETATM   35  O6  UNL     1      -6.819  43.910 -30.009  1.00  0.00    -0.773 OA
HETATM   36  H48 UNL     1      -7.099  43.099 -30.484  1.00  0.00     0.167 HD
ENDBRANCH  33  35
ENDBRANCH  31  33
ENDBRANCH  27  30
ENDBRANCH  26  27
ENDBRANCH  24  26
ENDBRANCH  18  24
BRANCH  16  37
HETATM   37  O3  UNL     1      -6.462  50.553 -22.474  1.00  0.00    -0.394 OA
HETATM   38  H32 UNL     1      -6.104  51.081 -21.729  1.00  0.00     0.210 HD
ENDBRANCH  16  37
BRANCH  11  39
HETATM   39  O2  UNL     1      -4.854  51.916 -20.925  1.00  0.00    -0.391 OA
HETATM   40  H24 UNL     1      -4.742  52.874 -21.067  1.00  0.00     0.210 HD
ENDBRANCH  11  39
BRANCH   1  41
HETATM   41  C5  UNL     1       0.155  51.508 -18.075  1.00  0.00     0.047 C 
BRANCH  41  42
HETATM   42  C4  UNL     1      -0.191  50.017 -18.190  1.00  0.00     0.270 C 
BRANCH  42  43
HETATM   43  N1  UNL     1      -1.333  49.652 -17.360  1.00  0.00     0.083 N 
HETATM   44  H8  UNL     1      -0.996  49.273 -16.475  1.00  0.00     0.315 HD
BRANCH  43  45
HETATM   45  C3  UNL     1      -2.186  48.664 -18.022  1.00  0.00     0.269 C 
BRANCH  45  46
HETATM   46  C2  UNL     1      -1.614  48.254 -19.382  1.00  0.00     0.025 C 
HETATM   47  C1  UNL     1      -2.644  47.648 -20.324  1.00  0.00     0.007 C 
ENDBRANCH  45  46
ENDBRANCH  43  45
ENDBRANCH  42  43
ENDBRANCH  41  42
ENDBRANCH   1  41
TORSDOF 14
ENDMDL
MODEL 6
REMARK minimizedAffinity -8.63169861
REMARK CNNscore 0.501470864
REMARK CNNaffinity 6.67058611
REMARK  14 active torsions:
REMARK  status: ('A' for Active; 'I' for Inactive)
REMARK    1  A    between atoms: C2_2  and  C3_3 
REMARK    2  A    between atoms: C3_3  and  N1_4 
REMARK    3  A    between atoms: N1_4  and  C4_5 
REMARK    4  A    between atoms: C4_5  and  C5_6 
REMARK    5  A    between atoms: C5_6  and  C6_7 
REMARK    6  A    between atoms: C15_17  and  O2_18 
REMARK    7  A    between atoms: C20_23  and  O3_24 
REMARK    8  A    between atoms: C22_26  and  C23_27 
REMARK    9  A    between atoms: C23_27  and  C25_29 
REMARK   10  A    between atoms: C25_29  and  C26_30 
REMARK   11  A    between atoms: C26_30  and  O4_31 
REMARK   12  A    between atoms: C26_30  and  C27_32 
REMARK   13  A    between atoms: C28_33  and  C30_35 
REMARK   14  A    between atoms: C30_35  and  O6_37 
ROOT
HETATM    1  C6  UNL     1      -7.703  47.172 -20.357  1.00  0.00     0.023 C 
HETATM    2  C7  UNL     1      -7.626  45.677 -19.965  1.00  0.00     0.024 C 
HETATM    3  C8  UNL     1      -8.284  47.133 -21.784  1.00  0.00     0.135 C 
HETATM    4  O1  UNL     1      -9.476  47.351 -22.015  1.00  0.00    -0.297 OA
HETATM    5  C9  UNL     1      -7.372  46.725 -22.919  1.00  0.00     0.080 C 
HETATM    6  C10 UNL     1      -5.904  47.001 -22.633  1.00  0.00     0.022 C 
HETATM    7  C11 UNL     1      -5.681  48.252 -21.752  1.00  0.00    -0.008 C 
HETATM    8  C12 UNL     1      -6.413  49.501 -22.328  1.00  0.00     0.021 C 
HETATM    9  C13 UNL     1      -4.170  48.602 -21.672  1.00  0.00     0.002 C 
HETATM   10  C14 UNL     1      -3.428  48.555 -20.536  1.00  0.00    -0.029 C 
HETATM   11  C15 UNL     1      -4.023  48.072 -19.239  1.00  0.00     0.149 C 
HETATM   12  C16 UNL     1      -5.290  47.249 -19.426  1.00  0.00     0.043 C 
HETATM   13  C17 UNL     1      -6.313  47.947 -20.334  1.00  0.00     0.017 C 
HETATM   14  C18 UNL     1      -1.966  49.028 -20.528  1.00  0.00     0.017 C 
HETATM   15  C19 UNL     1      -1.125  47.791 -20.982  1.00  0.00     0.023 C 
HETATM   16  C20 UNL     1      -1.352  49.603 -19.218  1.00  0.00     0.132 C 
HETATM   17  C21 UNL     1      -0.182  50.496 -19.680  1.00  0.00     0.038 C 
HETATM   18  C22 UNL     1      -0.348  50.705 -21.211  1.00  0.00     0.001 C 
HETATM   19  C31 UNL     1      -1.836  50.300 -21.460  1.00  0.00    -0.019 C 
HETATM   20  C32 UNL     1      -2.797  51.455 -21.047  1.00  0.00     0.017 C 
HETATM   21  C33 UNL     1      -2.191  49.874 -22.882  1.00  0.00     0.094 C 
HETATM   22  C34 UNL     1      -3.507  49.111 -22.947  1.00  0.00     0.157 C 
HETATM   23  O7  UNL     1      -4.027  48.910 -24.044  1.00  0.00    -0.293 OA
ENDROOT
BRANCH  18  24
HETATM   24  C23 UNL     1       0.306  52.026 -21.717  1.00  0.00    -0.011 C 
HETATM   25  C24 UNL     1       0.436  53.151 -20.679  1.00  0.00     0.010 C 
BRANCH  24  26
HETATM   26  C25 UNL     1      -0.314  52.615 -23.007  1.00  0.00     0.040 C 
BRANCH  26  27
HETATM   27  C26 UNL     1       0.687  53.030 -24.102  1.00  0.00     0.142 C 
BRANCH  27  28
HETATM   28  O4  UNL     1       1.258  54.276 -23.700  1.00  0.00    -0.392 OA
HETATM   29  H43 UNL     1       1.870  54.553 -24.403  1.00  0.00     0.210 HD
ENDBRANCH  27  28
BRANCH  27  30
HETATM   30  C27 UNL     1       0.080  53.266 -25.450  1.00  0.00     0.018 C 
HETATM   31  C28 UNL     1       0.383  52.657 -26.616  1.00  0.00     0.010 C 
HETATM   32  C29 UNL     1       1.400  51.575 -26.818  1.00  0.00     0.055 C 
BRANCH  31  33
HETATM   33  C30 UNL     1      -0.409  53.078 -27.798  1.00  0.00     0.171 C 
HETATM   34  O5  UNL     1      -1.187  54.013 -27.857  1.00  0.00    -0.646 OA
BRANCH  33  35
HETATM   35  O6  UNL     1      -0.188  52.292 -28.863  1.00  0.00    -0.773 OA
HETATM   36  H48 UNL     1      -0.762  52.677 -29.559  1.00  0.00     0.167 HD
ENDBRANCH  33  35
ENDBRANCH  31  33
ENDBRANCH  27  30
ENDBRANCH  26  27
ENDBRANCH  24  26
ENDBRANCH  18  24
BRANCH  16  37
HETATM   37  O3  UNL     1      -0.857  48.622 -18.321  1.00  0.00    -0.394 OA
HETATM   38  H32 UNL     1      -1.610  48.022 -18.133  1.00  0.00     0.210 HD
ENDBRANCH  16  37
BRANCH  11  39
HETATM   39  O2  UNL     1      -3.082  47.263 -18.538  1.00  0.00    -0.391 OA
HETATM   40  H24 UNL     1      -3.073  46.384 -18.962  1.00  0.00     0.210 HD
ENDBRANCH  11  39
BRANCH   1  41
HETATM   41  C5  UNL     1      -8.748  47.917 -19.455  1.00  0.00     0.047 C 
BRANCH  41  42
HETATM   42  C4  UNL     1      -8.249  48.704 -18.235  1.00  0.00     0.270 C 
BRANCH  42  43
HETATM   43  N1  UNL     1      -8.919  48.296 -17.005  1.00  0.00     0.083 N 
HETATM   44  H8  UNL     1      -8.475  48.761 -16.213  1.00  0.00     0.315 HD
BRANCH  43  45
HETATM   45  C3  UNL     1      -8.863  46.846 -16.817  1.00  0.00     0.269 C 
BRANCH  45  46
HETATM   46  C2  UNL     1      -8.310  46.484 -15.435  1.00  0.00     0.025 C 
HETATM   47  C1  UNL     1      -9.380  46.344 -14.363  1.00  0.00     0.007 C 
ENDBRANCH  45  46
ENDBRANCH  43  45
ENDBRANCH  42  43
ENDBRANCH  41  42
ENDBRANCH   1  41
TORSDOF 14
ENDMDL
MODEL 7
REMARK minimizedAffinity -7.45823717
REMARK CNNscore 0.501347423
REMARK CNNaffinity 6.85687017
REMARK  14 active torsions:
REMARK  status: ('A' for Active; 'I' for Inactive)
REMARK    1  A    between atoms: C2_2  and  C3_3 
REMARK    2  A    between atoms: C3_3  and  N1_4 
REMARK    3  A    between atoms: N1_4  and  C4_5 
REMARK    4  A    between atoms: C4_5  and  C5_6 
REMARK    5  A    between atoms: C5_6  and  C6_7 
REMARK    6  A    between atoms: C15_17  and  O2_18 
REMARK    7  A    between atoms: C20_23  and  O3_24 
REMARK    8  A    between atoms: C22_26  and  C23_27 
REMARK    9  A    between atoms: C23_27  and  C25_29 
REMARK   10  A    between atoms: C25_29  and  C26_30 
REMARK   11  A    between atoms: C26_30  and  O4_31 
REMARK   12  A    between atoms: C26_30  and  C27_32 
REMARK   13  A    between atoms: C28_33  and  C30_35 
REMARK   14  A    between atoms: C30_35  and  O6_37 
ROOT
HETATM    1  C6  UNL     1      -2.261  50.233 -21.019  1.00  0.00     0.023 C 
HETATM    2  C7  UNL     1      -1.865  48.938 -21.768  1.00  0.00     0.024 C 
HETATM    3  C8  UNL     1      -1.368  51.306 -21.672  1.00  0.00     0.135 C 
HETATM    4  O1  UNL     1      -1.790  52.073 -22.542  1.00  0.00    -0.297 OA
HETATM    5  C9  UNL     1       0.094  51.351 -21.291  1.00  0.00     0.080 C 
HETATM    6  C10 UNL     1       0.368  50.779 -19.908  1.00  0.00     0.022 C 
HETATM    7  C11 UNL     1      -0.792  51.012 -18.913  1.00  0.00    -0.008 C 
HETATM    8  C12 UNL     1      -1.211  52.512 -18.858  1.00  0.00     0.021 C 
HETATM    9  C13 UNL     1      -0.372  50.600 -17.477  1.00  0.00     0.002 C 
HETATM   10  C14 UNL     1      -0.930  49.580 -16.774  1.00  0.00    -0.029 C 
HETATM   11  C15 UNL     1      -1.984  48.698 -17.390  1.00  0.00     0.149 C 
HETATM   12  C16 UNL     1      -2.005  48.754 -18.911  1.00  0.00     0.043 C 
HETATM   13  C17 UNL     1      -2.038  50.195 -19.444  1.00  0.00     0.017 C 
HETATM   14  C18 UNL     1      -0.528  49.315 -15.314  1.00  0.00     0.017 C 
HETATM   15  C19 UNL     1       0.742  48.406 -15.389  1.00  0.00     0.023 C 
HETATM   16  C20 UNL     1      -1.557  48.667 -14.341  1.00  0.00     0.132 C 
HETATM   17  C21 UNL     1      -1.099  49.093 -12.931  1.00  0.00     0.038 C 
HETATM   18  C22 UNL     1      -0.059  50.234 -13.116  1.00  0.00     0.001 C 
HETATM   19  C31 UNL     1      -0.312  50.702 -14.584  1.00  0.00    -0.019 C 
HETATM   20  C32 UNL     1      -1.563  51.628 -14.658  1.00  0.00     0.017 C 
HETATM   21  C33 UNL     1       0.847  51.417 -15.274  1.00  0.00     0.094 C 
HETATM   22  C34 UNL     1       0.682  51.459 -16.788  1.00  0.00     0.157 C 
HETATM   23  O7  UNL     1       1.415  52.196 -17.447  1.00  0.00    -0.293 OA
ENDROOT
BRANCH  18  24
HETATM   24  C23 UNL     1       0.022  51.185 -11.885  1.00  0.00    -0.011 C 
HETATM   25  C24 UNL     1      -0.938  50.870 -10.728  1.00  0.00     0.010 C 
BRANCH  24  26
HETATM   26  C25 UNL     1      -0.080  52.695 -12.213  1.00  0.00     0.040 C 
BRANCH  26  27
HETATM   27  C26 UNL     1      -0.026  53.648 -11.004  1.00  0.00     0.142 C 
BRANCH  27  28
HETATM   28  O4  UNL     1      -1.148  54.525 -11.108  1.00  0.00    -0.392 OA
HETATM   29  H43 UNL     1      -1.101  55.144 -10.360  1.00  0.00     0.210 HD
ENDBRANCH  27  28
BRANCH  27  30
HETATM   30  C27 UNL     1       1.186  54.526 -10.951  1.00  0.00     0.018 C 
HETATM   31  C28 UNL     1       1.666  55.216  -9.895  1.00  0.00     0.010 C 
HETATM   32  C29 UNL     1       1.093  55.240  -8.510  1.00  0.00     0.055 C 
BRANCH  31  33
HETATM   33  C30 UNL     1       2.912  55.987 -10.131  1.00  0.00     0.171 C 
HETATM   34  O5  UNL     1       3.289  56.454 -11.191  1.00  0.00    -0.646 OA
BRANCH  33  35
HETATM   35  O6  UNL     1       3.638  56.134  -9.012  1.00  0.00    -0.773 OA
HETATM   36  H48 UNL     1       4.416  56.652  -9.306  1.00  0.00     0.167 HD
ENDBRANCH  33  35
ENDBRANCH  31  33
ENDBRANCH  27  30
ENDBRANCH  26  27
ENDBRANCH  24  26
ENDBRANCH  18  24
BRANCH  16  37
HETATM   37  O3  UNL     1      -1.611  47.251 -14.401  1.00  0.00    -0.394 OA
HETATM   38  H32 UNL     1      -1.808  47.026 -15.335  1.00  0.00     0.210 HD
ENDBRANCH  16  37
BRANCH  11  39
HETATM   39  O2  UNL     1      -1.773  47.340 -17.010  1.00  0.00    -0.391 OA
HETATM   40  H24 UNL     1      -1.041  46.992 -17.553  1.00  0.00     0.210 HD
ENDBRANCH  11  39
BRANCH   1  41
HETATM   41  C5  UNL     1      -3.748  50.613 -21.342  1.00  0.00     0.047 C 
BRANCH  41  42
HETATM   42  C4  UNL     1      -4.405  50.034 -22.603  1.00  0.00     0.270 C 
BRANCH  42  43
HETATM   43  N1  UNL     1      -4.314  50.944 -23.739  1.00  0.00     0.083 N 
HETATM   44  H8  UNL     1      -5.106  51.587 -23.717  1.00  0.00     0.315 HD
BRANCH  43  45
HETATM   45  C3  UNL     1      -4.307  50.220 -25.010  1.00  0.00     0.269 C 
BRANCH  45  46
HETATM   46  C2  UNL     1      -3.454  48.951 -24.925  1.00  0.00     0.025 C 
HETATM   47  C1  UNL     1      -2.748  48.597 -26.226  1.00  0.00     0.007 C 
ENDBRANCH  45  46
ENDBRANCH  43  45
ENDBRANCH  42  43
ENDBRANCH  41  42
ENDBRANCH   1  41
TORSDOF 14
ENDMDL
MODEL 8
REMARK minimizedAffinity -7.44031143
REMARK CNNscore 0.414810538
REMARK CNNaffinity 6.79457617
REMARK  14 active torsions:
REMARK  status: ('A' for Active; 'I' for Inactive)
REMARK    1  A    between atoms: C2_2  and  C3_3 
REMARK    2  A    between atoms: C3_3  and  N1_4 
REMARK    3  A    between atoms: N1_4  and  C4_5 
REMARK    4  A    between atoms: C4_5  and  C5_6 
REMARK    5  A    between atoms: C5_6  and  C6_7 
REMARK    6  A    between atoms: C15_17  and  O2_18 
REMARK    7  A    between atoms: C20_23  and  O3_24 
REMARK    8  A    between atoms: C22_26  and  C23_27 
REMARK    9  A    between atoms: C23_27  and  C25_29 
REMARK   10  A    between atoms: C25_29  and  C26_30 
REMARK   11  A    between atoms: C26_30  and  O4_31 
REMARK   12  A    between atoms: C26_30  and  C27_32 
REMARK   13  A    between atoms: C28_33  and  C30_35 
REMARK   14  A    between atoms: C30_35  and  O6_37 
ROOT
HETATM    1  C6  UNL     1      -1.214  51.588 -23.571  1.00  0.00     0.023 C 
HETATM    2  C7  UNL     1      -0.418  50.704 -24.561  1.00  0.00     0.024 C 
HETATM    3  C8  UNL     1      -0.220  51.802 -22.412  1.00  0.00     0.135 C 
HETATM    4  O1  UNL     1       0.440  52.837 -22.294  1.00  0.00    -0.297 OA
HETATM    5  C9  UNL     1       0.011  50.662 -21.447  1.00  0.00     0.080 C 
HETATM    6  C10 UNL     1      -1.171  49.708 -21.355  1.00  0.00     0.022 C 
HETATM    7  C11 UNL     1      -2.535  50.410 -21.555  1.00  0.00    -0.008 C 
HETATM    8  C12 UNL     1      -2.695  51.638 -20.609  1.00  0.00     0.021 C 
HETATM    9  C13 UNL     1      -3.702  49.435 -21.243  1.00  0.00     0.002 C 
HETATM   10  C14 UNL     1      -4.606  48.997 -22.157  1.00  0.00    -0.029 C 
HETATM   11  C15 UNL     1      -4.492  49.385 -23.609  1.00  0.00     0.149 C 
HETATM   12  C16 UNL     1      -3.102  49.871 -23.996  1.00  0.00     0.043 C 
HETATM   13  C17 UNL     1      -2.572  50.952 -23.041  1.00  0.00     0.017 C 
HETATM   14  C18 UNL     1      -5.796  48.122 -21.734  1.00  0.00     0.017 C 
HETATM   15  C19 UNL     1      -5.259  46.654 -21.746  1.00  0.00     0.023 C 
HETATM   16  C20 UNL     1      -7.121  48.182 -22.551  1.00  0.00     0.132 C 
HETATM   17  C21 UNL     1      -8.217  47.712 -21.572  1.00  0.00     0.038 C 
HETATM   18  C22 UNL     1      -7.593  47.728 -20.149  1.00  0.00     0.001 C 
HETATM   19  C31 UNL     1      -6.328  48.626 -20.332  1.00  0.00    -0.019 C 
HETATM   20  C32 UNL     1      -6.720  50.134 -20.338  1.00  0.00     0.017 C 
HETATM   21  C33 UNL     1      -5.209  48.432 -19.312  1.00  0.00     0.094 C 
HETATM   22  C34 UNL     1      -3.883  49.012 -19.789  1.00  0.00     0.157 C 
HETATM   23  O7  UNL     1      -2.961  49.132 -18.984  1.00  0.00    -0.293 OA
ENDROOT
BRANCH  18  24
HETATM   24  C23 UNL     1      -8.654  47.913 -19.023  1.00  0.00    -0.011 C 
HETATM   25  C24 UNL     1      -8.134  47.789 -17.583  1.00  0.00     0.010 C 
BRANCH  24  26
HETATM   26  C25 UNL     1      -9.924  47.038 -19.166  1.00  0.00     0.040 C 
BRANCH  26  27
HETATM   27  C26 UNL     1     -11.259  47.743 -18.864  1.00  0.00     0.142 C 
BRANCH  27  28
HETATM   28  O4  UNL     1     -11.935  46.961 -17.879  1.00  0.00    -0.392 OA
HETATM   29  H43 UNL     1     -12.791  47.390 -17.707  1.00  0.00     0.210 HD
ENDBRANCH  27  28
BRANCH  27  30
HETATM   30  C27 UNL     1     -12.194  47.842 -20.030  1.00  0.00     0.018 C 
HETATM   31  C28 UNL     1     -12.563  46.865 -20.884  1.00  0.00     0.010 C 
HETATM   32  C29 UNL     1     -12.127  45.432 -20.842  1.00  0.00     0.055 C 
BRANCH  31  33
HETATM   33  C30 UNL     1     -13.535  47.251 -21.938  1.00  0.00     0.171 C 
HETATM   34  O5  UNL     1     -13.483  46.956 -23.118  1.00  0.00    -0.646 OA
BRANCH  33  35
HETATM   35  O6  UNL     1     -14.536  48.001 -21.454  1.00  0.00    -0.773 OA
HETATM   36  H48 UNL     1     -15.094  48.179 -22.240  1.00  0.00     0.167 HD
ENDBRANCH  33  35
ENDBRANCH  31  33
ENDBRANCH  27  30
ENDBRANCH  26  27
ENDBRANCH  24  26
ENDBRANCH  18  24
BRANCH  16  37
HETATM   37  O3  UNL     1      -7.141  47.350 -23.700  1.00  0.00    -0.394 OA
HETATM   38  H32 UNL     1      -6.370  47.620 -24.243  1.00  0.00     0.210 HD
ENDBRANCH  16  37
BRANCH  11  39
HETATM   39  O2  UNL     1      -4.808  48.272 -24.441  1.00  0.00    -0.391 OA
HETATM   40  H24 UNL     1      -4.033  47.679 -24.448  1.00  0.00     0.210 HD
ENDBRANCH  11  39
BRANCH   1  41
HETATM   41  C5  UNL     1      -1.492  52.997 -24.204  1.00  0.00     0.047 C 
BRANCH  41  42
HETATM   42  C4  UNL     1      -0.587  53.491 -25.341  1.00  0.00     0.270 C 
BRANCH  42  43
HETATM   43  N1  UNL     1      -1.186  53.276 -26.654  1.00  0.00     0.083 N 
HETATM   44  H8  UNL     1      -1.601  52.345 -26.684  1.00  0.00     0.315 HD
BRANCH  43  45
HETATM   45  C3  UNL     1      -0.197  53.406 -27.725  1.00  0.00     0.269 C 
BRANCH  45  46
HETATM   46  C2  UNL     1       0.335  52.038 -28.162  1.00  0.00     0.025 C 
HETATM   47  C1  UNL     1       1.729  51.725 -27.637  1.00  0.00     0.007 C 
ENDBRANCH  45  46
ENDBRANCH  43  45
ENDBRANCH  42  43
ENDBRANCH  41  42
ENDBRANCH   1  41
TORSDOF 14
ENDMDL
MODEL 9
REMARK minimizedAffinity -8.57308102
REMARK CNNscore 0.408011824
REMARK CNNaffinity 7.2910943
REMARK  14 active torsions:
REMARK  status: ('A' for Active; 'I' for Inactive)
REMARK    1  A    between atoms: C2_2  and  C3_3 
REMARK    2  A    between atoms: C3_3  and  N1_4 
REMARK    3  A    between atoms: N1_4  and  C4_5 
REMARK    4  A    between atoms: C4_5  and  C5_6 
REMARK    5  A    between atoms: C5_6  and  C6_7 
REMARK    6  A    between atoms: C15_17  and  O2_18 
REMARK    7  A    between atoms: C20_23  and  O3_24 
REMARK    8  A    between atoms: C22_26  and  C23_27 
REMARK    9  A    between atoms: C23_27  and  C25_29 
REMARK   10  A    between atoms: C25_29  and  C26_30 
REMARK   11  A    between atoms: C26_30  and  O4_31 
REMARK   12  A    between atoms: C26_30  and  C27_32 
REMARK   13  A    between atoms: C28_33  and  C30_35 
REMARK   14  A    between atoms: C30_35  and  O6_37 
ROOT
HETATM    1  C6  UNL     1      -2.581  51.167 -25.077  1.00  0.00     0.023 C 
HETATM    2  C7  UNL     1      -2.727  52.564 -25.727  1.00  0.00     0.024 C 
HETATM    3  C8  UNL     1      -4.037  50.671 -24.975  1.00  0.00     0.135 C 
HETATM    4  O1  UNL     1      -4.520  49.879 -25.788  1.00  0.00    -0.297 OA
HETATM    5  C9  UNL     1      -4.918  51.252 -23.892  1.00  0.00     0.080 C 
HETATM    6  C10 UNL     1      -4.133  51.759 -22.691  1.00  0.00     0.022 C 
HETATM    7  C11 UNL     1      -2.849  50.942 -22.416  1.00  0.00    -0.008 C 
HETATM    8  C12 UNL     1      -3.146  49.415 -22.324  1.00  0.00     0.021 C 
HETATM    9  C13 UNL     1      -2.209  51.367 -21.068  1.00  0.00     0.002 C 
HETATM   10  C14 UNL     1      -0.993  51.962 -20.945  1.00  0.00    -0.029 C 
HETATM   11  C15 UNL     1      -0.183  52.329 -22.161  1.00  0.00     0.149 C 
HETATM   12  C16 UNL     1      -1.010  52.407 -23.437  1.00  0.00     0.043 C 
HETATM   13  C17 UNL     1      -1.880  51.159 -23.648  1.00  0.00     0.017 C 
HETATM   14  C18 UNL     1      -0.389  52.245 -19.561  1.00  0.00     0.017 C 
HETATM   15  C19 UNL     1      -0.973  53.629 -19.127  1.00  0.00     0.023 C 
HETATM   16  C20 UNL     1       1.158  52.273 -19.390  1.00  0.00     0.132 C 
HETATM   17  C21 UNL     1       1.403  51.973 -17.897  1.00  0.00     0.038 C 
HETATM   18  C22 UNL     1       0.063  51.440 -17.315  1.00  0.00     0.001 C 
HETATM   19  C31 UNL     1      -0.739  51.043 -18.595  1.00  0.00    -0.019 C 
HETATM   20  C32 UNL     1      -0.257  49.665 -19.141  1.00  0.00     0.017 C 
HETATM   21  C33 UNL     1      -2.258  50.988 -18.449  1.00  0.00     0.094 C 
HETATM   22  C34 UNL     1      -2.970  51.013 -19.796  1.00  0.00     0.157 C 
HETATM   23  O7  UNL     1      -4.171  50.745 -19.840  1.00  0.00    -0.293 OA
ENDROOT
BRANCH  18  24
HETATM   24  C23 UNL     1       0.265  50.519 -16.075  1.00  0.00    -0.011 C 
HETATM   25  C24 UNL     1      -0.141  49.048 -16.258  1.00  0.00     0.010 C 
BRANCH  24  26
HETATM   26  C25 UNL     1      -0.359  51.042 -14.758  1.00  0.00     0.040 C 
BRANCH  26  27
HETATM   27  C26 UNL     1       0.640  51.498 -13.679  1.00  0.00     0.142 C 
BRANCH  27  28
HETATM   28  O4  UNL     1       1.214  52.726 -14.128  1.00  0.00    -0.392 OA
HETATM   29  H43 UNL     1       1.865  53.002 -13.460  1.00  0.00     0.210 HD
ENDBRANCH  27  28
BRANCH  27  30
HETATM   30  C27 UNL     1       1.786  50.562 -13.449  1.00  0.00     0.018 C 
HETATM   31  C28 UNL     1       3.025  50.619 -13.983  1.00  0.00     0.010 C 
HETATM   32  C29 UNL     1       3.543  51.663 -14.924  1.00  0.00     0.055 C 
BRANCH  31  33
HETATM   33  C30 UNL     1       3.972  49.563 -13.548  1.00  0.00     0.171 C 
HETATM   34  O5  UNL     1       5.086  49.730 -13.084  1.00  0.00    -0.646 OA
BRANCH  33  35
HETATM   35  O6  UNL     1       3.472  48.330 -13.721  1.00  0.00    -0.773 OA
HETATM   36  H48 UNL     1       4.187  47.742 -13.397  1.00  0.00     0.167 HD
ENDBRANCH  33  35
ENDBRANCH  31  33
ENDBRANCH  27  30
ENDBRANCH  26  27
ENDBRANCH  24  26
ENDBRANCH  18  24
BRANCH  16  37
HETATM   37  O3  UNL     1       1.763  53.514 -19.716  1.00  0.00    -0.394 OA
HETATM   38  H32 UNL     1       1.499  53.710 -20.641  1.00  0.00     0.210 HD
ENDBRANCH  16  37
BRANCH  11  39
HETATM   39  O2  UNL     1       0.440  53.597 -21.971  1.00  0.00    -0.391 OA
HETATM   40  H24 UNL     1      -0.240  54.284 -22.109  1.00  0.00     0.210 HD
ENDBRANCH  11  39
BRANCH   1  41
HETATM   41  C5  UNL     1      -1.830  50.192 -26.049  1.00  0.00     0.047 C 
BRANCH  41  42
HETATM   42  C4  UNL     1      -0.463  50.610 -26.609  1.00  0.00     0.270 C 
BRANCH  42  43
HETATM   43  N1  UNL     1      -0.583  51.344 -27.865  1.00  0.00     0.083 N 
HETATM   44  H8  UNL     1      -0.492  50.692 -28.644  1.00  0.00     0.315 HD
BRANCH  43  45
HETATM   45  C3  UNL     1       0.436  52.388 -27.978  1.00  0.00     0.269 C 
BRANCH  45  46
HETATM   46  C2  UNL     1       1.329  52.433 -26.734  1.00  0.00     0.025 C 
HETATM   47  C1  UNL     1       2.588  51.586 -26.851  1.00  0.00     0.007 C 
ENDBRANCH  45  46
ENDBRANCH  43  45
ENDBRANCH  42  43
ENDBRANCH  41  42
ENDBRANCH   1  41
TORSDOF 14
ENDMDL
