MODEL 1
REMARK minimizedAffinity -9.10301971
REMARK CNNscore 0.4580881
REMARK CNNaffinity 7.49370956
REMARK  14 active torsions:
REMARK  status: ('A' for Active; 'I' for Inactive)
REMARK    1  A    between atoms: C2_2  and  C3_3 
REMARK    2  A    between atoms: C2_2  and  C35_44 
REMARK    3  A    between atoms: C3_3  and  C4_4 
REMARK    4  A    between atoms: C4_4  and  C5_5 
REMARK    5  A    between atoms: C5_5  and  C6_6 
REMARK    6  A    between atoms: C5_5  and  C7_9 
REMARK    7  A    between atoms: C6_6  and  O2_8 
REMARK    8  A    between atoms: C28_31  and  O4_32 
REMARK    9  A    between atoms: O4_32  and  C29_33 
REMARK   10  A    between atoms: C30_35  and  C31_36 
REMARK   11  A    between atoms: C31_36  and  O6_37 
REMARK   12  A    between atoms: C32_38  and  O7_39 
REMARK   13  A    between atoms: C33_40  and  O8_41 
REMARK   14  A    between atoms: C34_42  and  O9_43 
ROOT
HETATM    1  C7  UNL     1      -2.862   8.593  15.086  1.00  0.00     0.009 C 
HETATM    2  C8  UNL     1      -1.732   8.465  16.138  1.00  0.00     0.007 C 
HETATM    3  C9  UNL     1      -0.397   8.437  15.362  1.00  0.00     0.015 C 
HETATM    4  C10 UNL     1      -0.737   8.859  13.918  1.00  0.00    -0.010 C 
HETATM    5  C11 UNL     1      -0.748  10.419  13.887  1.00  0.00     0.021 C 
HETATM    6  C12 UNL     1       0.168   8.427  12.757  1.00  0.00    -0.039 C 
HETATM    7  C13 UNL     1      -0.373   8.260  11.516  1.00  0.00    -0.066 C 
HETATM    8  C14 UNL     1      -1.874   8.471  11.265  1.00  0.00     0.036 C 
HETATM    9  C15 UNL     1      -2.791   8.700  12.484  1.00  0.00     0.015 C 
HETATM   10  C16 UNL     1      -2.151   8.172  13.767  1.00  0.00    -0.028 C 
HETATM   11  C17 UNL     1      -2.079   6.615  13.679  1.00  0.00     0.016 C 
HETATM   12  C18 UNL     1       0.474   7.777  10.309  1.00  0.00    -0.015 C 
HETATM   13  C19 UNL     1       0.169   6.263  10.174  1.00  0.00     0.020 C 
HETATM   14  C20 UNL     1       0.075   8.510   9.006  1.00  0.00     0.021 C 
HETATM   15  C21 UNL     1       0.938   8.131   7.814  1.00  0.00     0.080 C 
HETATM   16  C22 UNL     1       2.400   8.379   8.081  1.00  0.00     0.135 C 
HETATM   17  O3  UNL     1       3.104   8.894   7.207  1.00  0.00    -0.297 OA
HETATM   18  C23 UNL     1       2.993   7.851   9.399  1.00  0.00     0.018 C 
HETATM   19  C24 UNL     1       3.382   6.379   9.190  1.00  0.00     0.023 C 
HETATM   20  C25 UNL     1       4.304   8.637   9.665  1.00  0.00     0.023 C 
HETATM   21  C26 UNL     1       1.988   8.114  10.571  1.00  0.00     0.016 C 
HETATM   22  C27 UNL     1       2.420   7.526  11.929  1.00  0.00     0.043 C 
HETATM   23  C28 UNL     1       1.641   8.202  13.069  1.00  0.00     0.155 C 
ENDROOT
BRANCH  23  24
HETATM   24  O4  UNL     1       2.257   9.476  13.299  1.00  0.00    -0.349 OA
BRANCH  24  25
HETATM   25  C29 UNL     1       3.312   9.426  14.273  1.00  0.00     0.292 C 
HETATM   26  O5  UNL     1       4.340  10.310  13.827  1.00  0.00    -0.348 OA
HETATM   27  C30 UNL     1       5.679  10.033  14.252  1.00  0.00     0.179 C 
HETATM   28  C32 UNL     1       5.764   9.171  15.522  1.00  0.00     0.180 C 
HETATM   29  C33 UNL     1       4.922   7.889  15.434  1.00  0.00     0.183 C 
HETATM   30  C34 UNL     1       3.808   7.973  14.383  1.00  0.00     0.204 C 
BRANCH  27  31
HETATM   31  C31 UNL     1       6.476   9.450  13.075  1.00  0.00     0.198 C 
BRANCH  31  32
HETATM   32  O6  UNL     1       5.655   9.314  11.923  1.00  0.00    -0.398 OA
HETATM   33  H45 UNL     1       6.239   9.040  11.193  1.00  0.00     0.209 HD
ENDBRANCH  31  32
ENDBRANCH  27  31
BRANCH  28  34
HETATM   34  O7  UNL     1       5.252   9.960  16.618  1.00  0.00    -0.390 OA
HETATM   35  H47 UNL     1       5.653   9.605  17.435  1.00  0.00     0.210 HD
ENDBRANCH  28  34
BRANCH  29  36
HETATM   36  O8  UNL     1       5.760   6.761  15.148  1.00  0.00    -0.390 OA
HETATM   37  H49 UNL     1       5.291   5.970  15.472  1.00  0.00     0.210 HD
ENDBRANCH  29  36
BRANCH  30  38
HETATM   38  O9  UNL     1       2.761   7.070  14.779  1.00  0.00    -0.388 OA
HETATM   39  H51 UNL     1       2.886   6.241  14.279  1.00  0.00     0.210 HD
ENDBRANCH  30  38
ENDBRANCH  24  25
ENDBRANCH  23  24
BRANCH   1  40
HETATM   40  C5  UNL     1      -4.227   7.933  15.441  1.00  0.00     0.089 C 
BRANCH  40  41
HETATM   41  C4  UNL     1      -5.345   7.995  14.376  1.00  0.00     0.020 C 
BRANCH  41  42
HETATM   42  C3  UNL     1      -5.544   6.713  13.543  1.00  0.00     0.034 C 
BRANCH  42  43
HETATM   43  C2  UNL     1      -6.805   5.894  13.749  1.00  0.00    -0.086 C 
HETATM   44  C1  UNL     1      -6.902   4.581  13.465  1.00  0.00     0.014 C 
BRANCH  43  45
HETATM   45  C35 UNL     1      -8.010   6.624  14.342  1.00  0.00     0.005 C 
HETATM   46  C36 UNL     1      -9.282   6.425  13.510  1.00  0.00     0.014 C 
HETATM   47  C37 UNL     1      -8.248   6.225  15.801  1.00  0.00     0.014 C 
ENDBRANCH  43  45
ENDBRANCH  42  43
ENDBRANCH  41  42
ENDBRANCH  40  41
BRANCH  40  48
HETATM   48  C6  UNL     1      -3.951   6.488  15.821  1.00  0.00     0.144 C 
HETATM   49  O1  UNL     1      -2.946   5.854  15.548  1.00  0.00    -0.650 OA
BRANCH  48  50
HETATM   50  O2  UNL     1      -4.975   5.897  16.470  1.00  0.00    -0.776 OA
HETATM   51  H8  UNL     1      -4.666   4.977  16.617  1.00  0.00     0.167 HD
ENDBRANCH  48  50
ENDBRANCH  40  48
ENDBRANCH   1  40
TORSDOF 14
ENDMDL
MODEL 2
REMARK minimizedAffinity -9.48071289
REMARK CNNscore 0.345555276
REMARK CNNaffinity 7.09193277
REMARK  14 active torsions:
REMARK  status: ('A' for Active; 'I' for Inactive)
REMARK    1  A    between atoms: C2_2  and  C3_3 
REMARK    2  A    between atoms: C2_2  and  C35_44 
REMARK    3  A    between atoms: C3_3  and  C4_4 
REMARK    4  A    between atoms: C4_4  and  C5_5 
REMARK    5  A    between atoms: C5_5  and  C6_6 
REMARK    6  A    between atoms: C5_5  and  C7_9 
REMARK    7  A    between atoms: C6_6  and  O2_8 
REMARK    8  A    between atoms: C28_31  and  O4_32 
REMARK    9  A    between atoms: O4_32  and  C29_33 
REMARK   10  A    between atoms: C30_35  and  C31_36 
REMARK   11  A    between atoms: C31_36  and  O6_37 
REMARK   12  A    between atoms: C32_38  and  O7_39 
REMARK   13  A    between atoms: C33_40  and  O8_41 
REMARK   14  A    between atoms: C34_42  and  O9_43 
ROOT
HETATM    1  C7  UNL     1      -3.255   3.992  12.629  1.00  0.00     0.009 C 
HETATM    2  C8  UNL     1      -2.559   4.359  11.296  1.00  0.00     0.007 C 
HETATM    3  C9  UNL     1      -1.840   5.708  11.521  1.00  0.00     0.015 C 
HETATM    4  C10 UNL     1      -1.862   5.950  13.044  1.00  0.00    -0.010 C 
HETATM    5  C11 UNL     1      -0.648   5.178  13.648  1.00  0.00     0.021 C 
HETATM    6  C12 UNL     1      -1.762   7.377  13.598  1.00  0.00    -0.039 C 
HETATM    7  C13 UNL     1      -2.348   7.672  14.793  1.00  0.00    -0.066 C 
HETATM    8  C14 UNL     1      -3.126   6.608  15.583  1.00  0.00     0.036 C 
HETATM    9  C15 UNL     1      -3.387   5.246  14.909  1.00  0.00     0.015 C 
HETATM   10  C16 UNL     1      -3.281   5.350  13.388  1.00  0.00    -0.028 C 
HETATM   11  C17 UNL     1      -4.466   6.223  12.869  1.00  0.00     0.016 C 
HETATM   12  C18 UNL     1      -2.328   9.105  15.387  1.00  0.00    -0.015 C 
HETATM   13  C19 UNL     1      -3.715   9.708  15.049  1.00  0.00     0.020 C 
HETATM   14  C20 UNL     1      -2.127   9.081  16.922  1.00  0.00     0.021 C 
HETATM   15  C21 UNL     1      -2.014  10.467  17.536  1.00  0.00     0.080 C 
HETATM   16  C22 UNL     1      -0.897  11.265  16.913  1.00  0.00     0.135 C 
HETATM   17  O3  UNL     1      -0.149  11.935  17.631  1.00  0.00    -0.297 OA
HETATM   18  C23 UNL     1      -0.817  11.318  15.377  1.00  0.00     0.018 C 
HETATM   19  C24 UNL     1      -1.754  12.435  14.891  1.00  0.00     0.023 C 
HETATM   20  C25 UNL     1       0.629  11.739  15.003  1.00  0.00     0.023 C 
HETATM   21  C26 UNL     1      -1.110   9.898  14.785  1.00  0.00     0.016 C 
HETATM   22  C27 UNL     1      -1.171   9.846  13.245  1.00  0.00     0.043 C 
HETATM   23  C28 UNL     1      -1.004   8.398  12.758  1.00  0.00     0.155 C 
ENDROOT
BRANCH  23  24
HETATM   24  O4  UNL     1       0.394   8.093  12.824  1.00  0.00    -0.349 OA
BRANCH  24  25
HETATM   25  C29 UNL     1       0.958   8.307  14.128  1.00  0.00     0.292 C 
HETATM   26  O5  UNL     1       1.663   9.548  14.084  1.00  0.00    -0.348 OA
HETATM   27  C30 UNL     1       2.754   9.719  14.996  1.00  0.00     0.179 C 
HETATM   28  C32 UNL     1       2.690   8.799  16.225  1.00  0.00     0.180 C 
HETATM   29  C33 UNL     1       2.488   7.320  15.857  1.00  0.00     0.183 C 
HETATM   30  C34 UNL     1       1.888   7.126  14.459  1.00  0.00     0.204 C 
BRANCH  27  31
HETATM   31  C31 UNL     1       4.080   9.607  14.228  1.00  0.00     0.198 C 
BRANCH  31  32
HETATM   32  O6  UNL     1       5.139   9.229  15.095  1.00  0.00    -0.398 OA
HETATM   33  H45 UNL     1       5.922   9.078  14.534  1.00  0.00     0.209 HD
ENDBRANCH  31  32
ENDBRANCH  27  31
BRANCH  28  34
HETATM   34  O7  UNL     1       1.558   9.213  17.020  1.00  0.00    -0.390 OA
HETATM   35  H47 UNL     1       1.738   8.929  17.938  1.00  0.00     0.210 HD
ENDBRANCH  28  34
BRANCH  29  36
HETATM   36  O8  UNL     1       3.732   6.611  15.943  1.00  0.00    -0.390 OA
HETATM   37  H49 UNL     1       3.512   5.672  16.085  1.00  0.00     0.210 HD
ENDBRANCH  29  36
BRANCH  30  38
HETATM   38  O9  UNL     1       1.193   5.868  14.450  1.00  0.00    -0.388 OA
HETATM   39  H51 UNL     1       1.793   5.205  14.058  1.00  0.00     0.210 HD
ENDBRANCH  30  38
ENDBRANCH  24  25
ENDBRANCH  23  24
BRANCH   1  40
HETATM   40  C5  UNL     1      -4.573   3.169  12.527  1.00  0.00     0.089 C 
BRANCH  40  41
HETATM   41  C4  UNL     1      -5.831   3.903  12.010  1.00  0.00     0.020 C 
BRANCH  41  42
HETATM   42  C3  UNL     1      -7.067   3.836  12.931  1.00  0.00     0.034 C 
BRANCH  42  43
HETATM   43  C2  UNL     1      -7.780   5.127  13.294  1.00  0.00    -0.086 C 
HETATM   44  C1  UNL     1      -8.808   5.639  12.591  1.00  0.00     0.014 C 
BRANCH  43  45
HETATM   45  C35 UNL     1      -7.298   5.848  14.552  1.00  0.00     0.005 C 
HETATM   46  C36 UNL     1      -7.958   7.221  14.728  1.00  0.00     0.014 C 
HETATM   47  C37 UNL     1      -7.491   4.988  15.804  1.00  0.00     0.014 C 
ENDBRANCH  43  45
ENDBRANCH  42  43
ENDBRANCH  41  42
ENDBRANCH  40  41
BRANCH  40  48
HETATM   48  C6  UNL     1      -4.288   1.955  11.661  1.00  0.00     0.144 C 
HETATM   49  O1  UNL     1      -3.336   1.200  11.774  1.00  0.00    -0.650 OA
BRANCH  48  50
HETATM   50  O2  UNL     1      -5.177   1.785  10.661  1.00  0.00    -0.776 OA
HETATM   51  H8  UNL     1      -4.849   0.995  10.180  1.00  0.00     0.167 HD
ENDBRANCH  48  50
ENDBRANCH  40  48
ENDBRANCH   1  40
TORSDOF 14
ENDMDL
MODEL 3
REMARK minimizedAffinity -8.41530132
REMARK CNNscore 0.271321654
REMARK CNNaffinity 6.47045326
REMARK  14 active torsions:
REMARK  status: ('A' for Active; 'I' for Inactive)
REMARK    1  A    between atoms: C2_2  and  C3_3 
REMARK    2  A    between atoms: C2_2  and  C35_44 
REMARK    3  A    between atoms: C3_3  and  C4_4 
REMARK    4  A    between atoms: C4_4  and  C5_5 
REMARK    5  A    between atoms: C5_5  and  C6_6 
REMARK    6  A    between atoms: C5_5  and  C7_9 
REMARK    7  A    between atoms: C6_6  and  O2_8 
REMARK    8  A    between atoms: C28_31  and  O4_32 
REMARK    9  A    between atoms: O4_32  and  C29_33 
REMARK   10  A    between atoms: C30_35  and  C31_36 
REMARK   11  A    between atoms: C31_36  and  O6_37 
REMARK   12  A    between atoms: C32_38  and  O7_39 
REMARK   13  A    between atoms: C33_40  and  O8_41 
REMARK   14  A    between atoms: C34_42  and  O9_43 
ROOT
HETATM    1  C7  UNL     1       7.169  12.392  20.947  1.00  0.00     0.009 C 
HETATM    2  C8  UNL     1       5.993  12.913  20.084  1.00  0.00     0.007 C 
HETATM    3  C9  UNL     1       6.515  13.021  18.634  1.00  0.00     0.015 C 
HETATM    4  C10 UNL     1       7.865  12.277  18.613  1.00  0.00    -0.010 C 
HETATM    5  C11 UNL     1       7.550  10.762  18.410  1.00  0.00     0.021 C 
HETATM    6  C12 UNL     1       8.920  12.626  17.555  1.00  0.00    -0.039 C 
HETATM    7  C13 UNL     1      10.241  12.455  17.848  1.00  0.00    -0.066 C 
HETATM    8  C14 UNL     1      10.693  11.943  19.224  1.00  0.00     0.036 C 
HETATM    9  C15 UNL     1       9.630  11.799  20.332  1.00  0.00     0.015 C 
HETATM   10  C16 UNL     1       8.406  12.667  20.044  1.00  0.00    -0.028 C 
HETATM   11  C17 UNL     1       8.824  14.166  20.162  1.00  0.00     0.016 C 
HETATM   12  C18 UNL     1      11.361  12.834  16.844  1.00  0.00    -0.015 C 
HETATM   13  C19 UNL     1      11.880  14.218  17.312  1.00  0.00     0.020 C 
HETATM   14  C20 UNL     1      12.517  11.806  16.867  1.00  0.00     0.021 C 
HETATM   15  C21 UNL     1      13.598  12.091  15.837  1.00  0.00     0.080 C 
HETATM   16  C22 UNL     1      13.035  12.155  14.440  1.00  0.00     0.135 C 
HETATM   17  O3  UNL     1      13.638  11.610  13.511  1.00  0.00    -0.297 OA
HETATM   18  C23 UNL     1      11.785  13.022  14.204  1.00  0.00     0.018 C 
HETATM   19  C24 UNL     1      12.247  14.470  13.979  1.00  0.00     0.023 C 
HETATM   20  C25 UNL     1      11.129  12.541  12.883  1.00  0.00     0.023 C 
HETATM   21  C26 UNL     1      10.775  12.821  15.384  1.00  0.00     0.016 C 
HETATM   22  C27 UNL     1       9.528  13.725  15.321  1.00  0.00     0.043 C 
HETATM   23  C28 UNL     1       8.417  13.158  16.219  1.00  0.00     0.155 C 
ENDROOT
BRANCH  23  24
HETATM   24  O4  UNL     1       7.808  12.078  15.500  1.00  0.00    -0.349 OA
BRANCH  24  25
HETATM   25  C29 UNL     1       8.262  10.785  15.932  1.00  0.00     0.292 C 
HETATM   26  O5  UNL     1       9.519  10.547  15.298  1.00  0.00    -0.348 OA
HETATM   27  C30 UNL     1       9.898   9.183  15.079  1.00  0.00     0.179 C 
HETATM   28  C32 UNL     1       9.185   8.182  16.001  1.00  0.00     0.180 C 
HETATM   29  C33 UNL     1       7.658   8.349  16.002  1.00  0.00     0.183 C 
HETATM   30  C34 UNL     1       7.206   9.738  15.533  1.00  0.00     0.204 C 
BRANCH  27  31
HETATM   31  C31 UNL     1       9.742   8.846  13.587  1.00  0.00     0.198 C 
BRANCH  31  32
HETATM   32  O6  UNL     1      10.320   7.584  13.289  1.00  0.00    -0.398 OA
HETATM   33  H45 UNL     1      10.100   7.386  12.360  1.00  0.00     0.209 HD
ENDBRANCH  31  32
ENDBRANCH  27  31
BRANCH  28  34
HETATM   34  O7  UNL     1       9.656   8.418  17.345  1.00  0.00    -0.390 OA
HETATM   35  H47 UNL     1       9.534   7.583  17.838  1.00  0.00     0.210 HD
ENDBRANCH  28  34
BRANCH  29  36
HETATM   36  O8  UNL     1       7.046   7.348  15.177  1.00  0.00    -0.390 OA
HETATM   37  H49 UNL     1       6.130   7.241  15.495  1.00  0.00     0.210 HD
ENDBRANCH  29  36
BRANCH  30  38
HETATM   38  O9  UNL     1       5.924  10.007  16.126  1.00  0.00    -0.388 OA
HETATM   39  H51 UNL     1       5.244   9.789  15.461  1.00  0.00     0.210 HD
ENDBRANCH  30  38
ENDBRANCH  24  25
ENDBRANCH  23  24
BRANCH   1  40
HETATM   40  C5  UNL     1       7.209  12.863  22.431  1.00  0.00     0.089 C 
BRANCH  40  41
HETATM   41  C4  UNL     1       5.943  12.628  23.286  1.00  0.00     0.020 C 
BRANCH  41  42
HETATM   42  C3  UNL     1       5.222  11.285  23.052  1.00  0.00     0.034 C 
BRANCH  42  43
HETATM   43  C2  UNL     1       3.775  11.301  22.592  1.00  0.00    -0.086 C 
HETATM   44  C1  UNL     1       2.983  12.389  22.647  1.00  0.00     0.014 C 
BRANCH  43  45
HETATM   45  C35 UNL     1       3.223  10.000  22.012  1.00  0.00     0.005 C 
HETATM   46  C36 UNL     1       2.942   8.950  23.093  1.00  0.00     0.014 C 
HETATM   47  C37 UNL     1       1.975  10.248  21.159  1.00  0.00     0.014 C 
ENDBRANCH  43  45
ENDBRANCH  42  43
ENDBRANCH  41  42
ENDBRANCH  40  41
BRANCH  40  48
HETATM   48  C6  UNL     1       8.409  12.202  23.087  1.00  0.00     0.144 C 
HETATM   49  O1  UNL     1       8.570  11.003  23.246  1.00  0.00    -0.650 OA
BRANCH  48  50
HETATM   50  O2  UNL     1       9.314  13.080  23.564  1.00  0.00    -0.776 OA
HETATM   51  H8  UNL     1      10.001  12.515  23.979  1.00  0.00     0.167 HD
ENDBRANCH  48  50
ENDBRANCH  40  48
ENDBRANCH   1  40
TORSDOF 14
ENDMDL
MODEL 4
REMARK minimizedAffinity -9.4333477
REMARK CNNscore 0.22305277
REMARK CNNaffinity 6.94113111
REMARK  14 active torsions:
REMARK  status: ('A' for Active; 'I' for Inactive)
REMARK    1  A    between atoms: C2_2  and  C3_3 
REMARK    2  A    between atoms: C2_2  and  C35_44 
REMARK    3  A    between atoms: C3_3  and  C4_4 
REMARK    4  A    between atoms: C4_4  and  C5_5 
REMARK    5  A    between atoms: C5_5  and  C6_6 
REMARK    6  A    between atoms: C5_5  and  C7_9 
REMARK    7  A    between atoms: C6_6  and  O2_8 
REMARK    8  A    between atoms: C28_31  and  O4_32 
REMARK    9  A    between atoms: O4_32  and  C29_33 
REMARK   10  A    between atoms: C30_35  and  C31_36 
REMARK   11  A    between atoms: C31_36  and  O6_37 
REMARK   12  A    between atoms: C32_38  and  O7_39 
REMARK   13  A    between atoms: C33_40  and  O8_41 
REMARK   14  A    between atoms: C34_42  and  O9_43 
ROOT
HETATM    1  C7  UNL     1      -5.436   4.890  13.540  1.00  0.00     0.009 C 
HETATM    2  C8  UNL     1      -4.512   4.776  12.303  1.00  0.00     0.007 C 
HETATM    3  C9  UNL     1      -3.372   5.800  12.498  1.00  0.00     0.015 C 
HETATM    4  C10 UNL     1      -3.469   6.267  13.965  1.00  0.00    -0.010 C 
HETATM    5  C11 UNL     1      -2.704   5.218  14.831  1.00  0.00     0.021 C 
HETATM    6  C12 UNL     1      -2.907   7.634  14.377  1.00  0.00    -0.039 C 
HETATM    7  C13 UNL     1      -3.469   8.298  15.427  1.00  0.00    -0.066 C 
HETATM    8  C14 UNL     1      -4.669   7.715  16.189  1.00  0.00     0.036 C 
HETATM    9  C15 UNL     1      -5.342   6.446  15.627  1.00  0.00     0.015 C 
HETATM   10  C16 UNL     1      -5.039   6.270  14.140  1.00  0.00    -0.028 C 
HETATM   11  C17 UNL     1      -5.750   7.413  13.352  1.00  0.00     0.016 C 
HETATM   12  C18 UNL     1      -2.983   9.704  15.865  1.00  0.00    -0.015 C 
HETATM   13  C19 UNL     1      -4.000  10.699  15.250  1.00  0.00     0.020 C 
HETATM   14  C20 UNL     1      -2.975   9.849  17.406  1.00  0.00     0.021 C 
HETATM   15  C21 UNL     1      -2.423  11.183  17.882  1.00  0.00     0.080 C 
HETATM   16  C22 UNL     1      -1.028  11.427  17.366  1.00  0.00     0.135 C 
HETATM   17  O3  UNL     1      -0.169  11.891  18.120  1.00  0.00    -0.297 OA
HETATM   18  C23 UNL     1      -0.766  11.210  15.865  1.00  0.00     0.018 C 
HETATM   19  C24 UNL     1      -1.160  12.496  15.123  1.00  0.00     0.023 C 
HETATM   20  C25 UNL     1       0.765  11.029  15.683  1.00  0.00     0.023 C 
HETATM   21  C26 UNL     1      -1.499   9.912  15.384  1.00  0.00     0.016 C 
HETATM   22  C27 UNL     1      -1.406   9.648  13.868  1.00  0.00     0.043 C 
HETATM   23  C28 UNL     1      -1.737   8.178  13.567  1.00  0.00     0.155 C 
ENDROOT
BRANCH  23  24
HETATM   24  O4  UNL     1      -0.569   7.412  13.885  1.00  0.00    -0.349 OA
BRANCH  24  25
HETATM   25  C29 UNL     1       0.626   7.924  13.272  1.00  0.00     0.292 C 
HETATM   26  O5  UNL     1       0.249   8.474  12.010  1.00  0.00    -0.348 OA
HETATM   27  C30 UNL     1       1.247   8.512  10.984  1.00  0.00     0.179 C 
HETATM   28  C32 UNL     1       2.689   8.457  11.513  1.00  0.00     0.180 C 
HETATM   29  C33 UNL     1       2.926   7.294  12.488  1.00  0.00     0.183 C 
HETATM   30  C34 UNL     1       1.632   6.769  13.122  1.00  0.00     0.204 C 
BRANCH  27  31
HETATM   31  C31 UNL     1       0.946   7.424   9.942  1.00  0.00     0.198 C 
BRANCH  31  32
HETATM   32  O6  UNL     1       0.114   7.927   8.907  1.00  0.00    -0.398 OA
HETATM   33  H45 UNL     1       0.046   7.226   8.234  1.00  0.00     0.209 HD
ENDBRANCH  31  32
ENDBRANCH  27  31
BRANCH  28  34
HETATM   34  O7  UNL     1       2.937   9.688  12.227  1.00  0.00    -0.390 OA
HETATM   35  H47 UNL     1       3.903   9.833  12.213  1.00  0.00     0.210 HD
ENDBRANCH  28  34
BRANCH  29  36
HETATM   36  O8  UNL     1       3.601   6.216  11.823  1.00  0.00    -0.390 OA
HETATM   37  H49 UNL     1       4.058   5.700  12.513  1.00  0.00     0.210 HD
ENDBRANCH  29  36
BRANCH  30  38
HETATM   38  O9  UNL     1       1.971   6.175  14.386  1.00  0.00    -0.388 OA
HETATM   39  H51 UNL     1       2.049   5.212  14.247  1.00  0.00     0.210 HD
ENDBRANCH  30  38
ENDBRANCH  24  25
ENDBRANCH  23  24
BRANCH   1  40
HETATM   40  C5  UNL     1      -6.946   4.581  13.316  1.00  0.00     0.089 C 
BRANCH  40  41
HETATM   41  C4  UNL     1      -7.775   5.622  12.529  1.00  0.00     0.020 C 
BRANCH  41  42
HETATM   42  C3  UNL     1      -9.243   5.779  12.975  1.00  0.00     0.034 C 
BRANCH  42  43
HETATM   43  C2  UNL     1      -9.568   6.756  14.091  1.00  0.00    -0.086 C 
HETATM   44  C1  UNL     1      -8.808   6.917  15.192  1.00  0.00     0.014 C 
BRANCH  43  45
HETATM   45  C35 UNL     1     -10.821   7.612  13.914  1.00  0.00     0.005 C 
HETATM   46  C36 UNL     1     -10.624   9.048  14.414  1.00  0.00     0.014 C 
HETATM   47  C37 UNL     1     -11.307   7.604  12.461  1.00  0.00     0.014 C 
ENDBRANCH  43  45
ENDBRANCH  42  43
ENDBRANCH  41  42
ENDBRANCH  40  41
BRANCH  40  48
HETATM   48  C6  UNL     1      -7.040   3.224  12.640  1.00  0.00     0.144 C 
HETATM   49  O1  UNL     1      -6.269   2.785  11.803  1.00  0.00    -0.650 OA
BRANCH  48  50
HETATM   50  O2  UNL     1      -8.128   2.515  13.004  1.00  0.00    -0.776 OA
HETATM   51  H8  UNL     1      -8.067   1.693  12.471  1.00  0.00     0.167 HD
ENDBRANCH  48  50
ENDBRANCH  40  48
ENDBRANCH   1  40
TORSDOF 14
ENDMDL
MODEL 5
REMARK minimizedAffinity -8.45619869
REMARK CNNscore 0.216504112
REMARK CNNaffinity 6.34283209
REMARK  14 active torsions:
REMARK  status: ('A' for Active; 'I' for Inactive)
REMARK    1  A    between atoms: C2_2  and  C3_3 
REMARK    2  A    between atoms: C2_2  and  C35_44 
REMARK    3  A    between atoms: C3_3  and  C4_4 
REMARK    4  A    between atoms: C4_4  and  C5_5 
REMARK    5  A    between atoms: C5_5  and  C6_6 
REMARK    6  A    between atoms: C5_5  and  C7_9 
REMARK    7  A    between atoms: C6_6  and  O2_8 
REMARK    8  A    between atoms: C28_31  and  O4_32 
REMARK    9  A    between atoms: O4_32  and  C29_33 
REMARK   10  A    between atoms: C30_35  and  C31_36 
REMARK   11  A    between atoms: C31_36  and  O6_37 
REMARK   12  A    between atoms: C32_38  and  O7_39 
REMARK   13  A    between atoms: C33_40  and  O8_41 
REMARK   14  A    between atoms: C34_42  and  O9_43 
ROOT
HETATM    1  C7  UNL     1       8.307  12.321  20.624  1.00  0.00     0.009 C 
HETATM    2  C8  UNL     1       7.238  12.333  19.504  1.00  0.00     0.007 C 
HETATM    3  C9  UNL     1       7.990  12.179  18.164  1.00  0.00     0.015 C 
HETATM    4  C10 UNL     1       9.431  11.769  18.531  1.00  0.00    -0.010 C 
HETATM    5  C11 UNL     1       9.429  10.222  18.733  1.00  0.00     0.021 C 
HETATM    6  C12 UNL     1      10.584  12.060  17.562  1.00  0.00    -0.039 C 
HETATM    7  C13 UNL     1      11.837  12.264  18.059  1.00  0.00    -0.066 C 
HETATM    8  C14 UNL     1      12.111  12.233  19.571  1.00  0.00     0.036 C 
HETATM    9  C15 UNL     1      10.904  12.146  20.527  1.00  0.00     0.015 C 
HETATM   10  C16 UNL     1       9.622  12.621  19.847  1.00  0.00    -0.028 C 
HETATM   11  C17 UNL     1       9.741  14.154  19.582  1.00  0.00     0.016 C 
HETATM   12  C18 UNL     1      13.039  12.611  17.141  1.00  0.00    -0.015 C 
HETATM   13  C19 UNL     1      13.212  14.147  17.255  1.00  0.00     0.020 C 
HETATM   14  C20 UNL     1      14.333  11.902  17.607  1.00  0.00     0.021 C 
HETATM   15  C21 UNL     1      15.518  12.145  16.686  1.00  0.00     0.080 C 
HETATM   16  C22 UNL     1      15.219  11.725  15.270  1.00  0.00     0.135 C 
HETATM   17  O3  UNL     1      16.069  11.108  14.622  1.00  0.00    -0.297 OA
HETATM   18  C23 UNL     1      13.902  12.207  14.636  1.00  0.00     0.018 C 
HETATM   19  C24 UNL     1      14.135  13.614  14.066  1.00  0.00     0.023 C 
HETATM   20  C25 UNL     1      13.596  11.272  13.436  1.00  0.00     0.023 C 
HETATM   21  C26 UNL     1      12.743  12.097  15.684  1.00  0.00     0.016 C 
HETATM   22  C27 UNL     1      11.390  12.658  15.204  1.00  0.00     0.043 C 
HETATM   23  C28 UNL     1      10.250  12.109  16.077  1.00  0.00     0.155 C 
ENDROOT
BRANCH  23  24
HETATM   24  O4  UNL     1       9.983  10.775  15.626  1.00  0.00    -0.349 OA
BRANCH  24  25
HETATM   25  C29 UNL     1       8.855  10.693  14.739  1.00  0.00     0.292 C 
HETATM   26  O5  UNL     1       7.703  10.448  15.546  1.00  0.00    -0.348 OA
HETATM   27  C30 UNL     1       6.603   9.768  14.932  1.00  0.00     0.179 C 
HETATM   28  C32 UNL     1       6.586   9.864  13.398  1.00  0.00     0.180 C 
HETATM   29  C33 UNL     1       7.925   9.464  12.758  1.00  0.00     0.183 C 
HETATM   30  C34 UNL     1       9.107   9.558  13.731  1.00  0.00     0.204 C 
BRANCH  27  31
HETATM   31  C31 UNL     1       6.550   8.320  15.446  1.00  0.00     0.198 C 
BRANCH  31  32
HETATM   32  O6  UNL     1       7.248   8.192  16.675  1.00  0.00    -0.398 OA
HETATM   33  H45 UNL     1       7.092   7.284  16.994  1.00  0.00     0.209 HD
ENDBRANCH  31  32
ENDBRANCH  27  31
BRANCH  28  34
HETATM   34  O7  UNL     1       6.327  11.241  13.051  1.00  0.00    -0.390 OA
HETATM   35  H47 UNL     1       5.933  11.238  12.157  1.00  0.00     0.210 HD
ENDBRANCH  28  34
BRANCH  29  36
HETATM   36  O8  UNL     1       7.848   8.131  12.233  1.00  0.00    -0.390 OA
HETATM   37  H49 UNL     1       8.526   8.063  11.535  1.00  0.00     0.210 HD
ENDBRANCH  29  36
BRANCH  30  38
HETATM   38  O9  UNL     1      10.298   9.775  12.956  1.00  0.00    -0.388 OA
HETATM   39  H51 UNL     1      10.732   8.909  12.838  1.00  0.00     0.210 HD
ENDBRANCH  30  38
ENDBRANCH  24  25
ENDBRANCH  23  24
BRANCH   1  40
HETATM   40  C5  UNL     1       7.990  13.151  21.903  1.00  0.00     0.089 C 
BRANCH  40  41
HETATM   41  C4  UNL     1       6.505  13.300  22.304  1.00  0.00     0.020 C 
BRANCH  41  42
HETATM   42  C3  UNL     1       5.882  12.083  23.017  1.00  0.00     0.034 C 
BRANCH  42  43
HETATM   43  C2  UNL     1       4.412  11.776  22.792  1.00  0.00    -0.086 C 
HETATM   44  C1  UNL     1       3.473  12.718  22.582  1.00  0.00     0.014 C 
BRANCH  43  45
HETATM   45  C35 UNL     1       4.011  10.302  22.782  1.00  0.00     0.005 C 
HETATM   46  C36 UNL     1       3.038   9.951  23.914  1.00  0.00     0.014 C 
HETATM   47  C37 UNL     1       3.438   9.883  21.425  1.00  0.00     0.014 C 
ENDBRANCH  43  45
ENDBRANCH  42  43
ENDBRANCH  41  42
ENDBRANCH  40  41
BRANCH  40  48
HETATM   48  C6  UNL     1       8.779  12.544  23.050  1.00  0.00     0.144 C 
HETATM   49  O1  UNL     1       8.975  11.354  23.235  1.00  0.00    -0.650 OA
BRANCH  48  50
HETATM   50  O2  UNL     1       9.229  13.455  23.936  1.00  0.00    -0.776 OA
HETATM   51  H8  UNL     1       9.683  12.919  24.622  1.00  0.00     0.167 HD
ENDBRANCH  48  50
ENDBRANCH  40  48
ENDBRANCH   1  40
TORSDOF 14
ENDMDL
MODEL 6
REMARK minimizedAffinity -7.33204937
REMARK CNNscore 0.190779001
REMARK CNNaffinity 5.29186916
REMARK  14 active torsions:
REMARK  status: ('A' for Active; 'I' for Inactive)
REMARK    1  A    between atoms: C2_2  and  C3_3 
REMARK    2  A    between atoms: C2_2  and  C35_44 
REMARK    3  A    between atoms: C3_3  and  C4_4 
REMARK    4  A    between atoms: C4_4  and  C5_5 
REMARK    5  A    between atoms: C5_5  and  C6_6 
REMARK    6  A    between atoms: C5_5  and  C7_9 
REMARK    7  A    between atoms: C6_6  and  O2_8 
REMARK    8  A    between atoms: C28_31  and  O4_32 
REMARK    9  A    between atoms: O4_32  and  C29_33 
REMARK   10  A    between atoms: C30_35  and  C31_36 
REMARK   11  A    between atoms: C31_36  and  O6_37 
REMARK   12  A    between atoms: C32_38  and  O7_39 
REMARK   13  A    between atoms: C33_40  and  O8_41 
REMARK   14  A    between atoms: C34_42  and  O9_43 
ROOT
HETATM    1  C7  UNL     1       8.232  13.028  20.545  1.00  0.00     0.009 C 
HETATM    2  C8  UNL     1       8.142  11.538  20.132  1.00  0.00     0.007 C 
HETATM    3  C9  UNL     1       8.100  11.501  18.589  1.00  0.00     0.015 C 
HETATM    4  C10 UNL     1       8.477  12.921  18.121  1.00  0.00    -0.010 C 
HETATM    5  C11 UNL     1      10.036  12.997  18.099  1.00  0.00     0.021 C 
HETATM    6  C12 UNL     1       8.018  13.427  16.747  1.00  0.00    -0.039 C 
HETATM    7  C13 UNL     1       7.811  14.762  16.562  1.00  0.00    -0.066 C 
HETATM    8  C14 UNL     1       8.005  15.766  17.709  1.00  0.00     0.036 C 
HETATM    9  C15 UNL     1       8.264  15.212  19.125  1.00  0.00     0.015 C 
HETATM   10  C16 UNL     1       7.777  13.769  19.254  1.00  0.00    -0.028 C 
HETATM   11  C17 UNL     1       6.220  13.763  19.162  1.00  0.00     0.016 C 
HETATM   12  C18 UNL     1       7.299  15.335  15.215  1.00  0.00    -0.015 C 
HETATM   13  C19 UNL     1       5.780  15.568  15.419  1.00  0.00     0.020 C 
HETATM   14  C20 UNL     1       7.992  16.675  14.868  1.00  0.00     0.021 C 
HETATM   15  C21 UNL     1       7.584  17.230  13.512  1.00  0.00     0.080 C 
HETATM   16  C22 UNL     1       7.849  16.246  12.403  1.00  0.00     0.135 C 
HETATM   17  O3  UNL     1       8.343  16.638  11.341  1.00  0.00    -0.297 OA
HETATM   18  C23 UNL     1       7.363  14.798  12.590  1.00  0.00     0.018 C 
HETATM   19  C24 UNL     1       5.888  14.732  12.163  1.00  0.00     0.023 C 
HETATM   20  C25 UNL     1       8.165  13.908  11.603  1.00  0.00     0.023 C 
HETATM   21  C26 UNL     1       7.653  14.331  14.057  1.00  0.00     0.016 C 
HETATM   22  C27 UNL     1       7.108  12.931  14.403  1.00  0.00     0.043 C 
HETATM   23  C28 UNL     1       7.811  12.385  15.656  1.00  0.00     0.155 C 
ENDROOT
BRANCH  23  24
HETATM   24  O4  UNL     1       9.095  11.904  15.238  1.00  0.00    -0.349 OA
BRANCH  24  25
HETATM   25  C29 UNL     1       9.088  10.511  14.885  1.00  0.00     0.292 C 
HETATM   26  O5  UNL     1       7.819  10.232  14.293  1.00  0.00    -0.348 OA
HETATM   27  C30 UNL     1       7.330   8.890  14.386  1.00  0.00     0.179 C 
HETATM   28  C32 UNL     1       8.427   7.840  14.624  1.00  0.00     0.180 C 
HETATM   29  C33 UNL     1       9.344   8.189  15.806  1.00  0.00     0.183 C 
HETATM   30  C34 UNL     1       9.325   9.682  16.160  1.00  0.00     0.204 C 
BRANCH  27  31
HETATM   31  C31 UNL     1       6.203   8.830  15.429  1.00  0.00     0.198 C 
BRANCH  31  32
HETATM   32  O6  UNL     1       6.005   7.501  15.888  1.00  0.00    -0.398 OA
HETATM   33  H45 UNL     1       5.355   7.548  16.613  1.00  0.00     0.209 HD
ENDBRANCH  31  32
ENDBRANCH  27  31
BRANCH  28  34
HETATM   34  O7  UNL     1       9.243   7.787  13.434  1.00  0.00    -0.390 OA
HETATM   35  H47 UNL     1       9.657   6.902  13.414  1.00  0.00     0.210 HD
ENDBRANCH  28  34
BRANCH  29  36
HETATM   36  O8  UNL     1       8.979   7.423  16.963  1.00  0.00    -0.390 OA
HETATM   37  H49 UNL     1       9.770   7.376  17.532  1.00  0.00     0.210 HD
ENDBRANCH  29  36
BRANCH  30  38
HETATM   38  O9  UNL     1      10.578  10.000  16.789  1.00  0.00    -0.388 OA
HETATM   39  H51 UNL     1      10.434   9.982  17.754  1.00  0.00     0.210 HD
ENDBRANCH  30  38
ENDBRANCH  24  25
ENDBRANCH  23  24
BRANCH   1  40
HETATM   40  C5  UNL     1       7.574  13.419  21.901  1.00  0.00     0.089 C 
BRANCH  40  41
HETATM   41  C4  UNL     1       6.653  12.374  22.572  1.00  0.00     0.020 C 
BRANCH  41  42
HETATM   42  C3  UNL     1       5.278  12.898  23.033  1.00  0.00     0.034 C 
BRANCH  42  43
HETATM   43  C2  UNL     1       4.029  12.141  22.617  1.00  0.00    -0.086 C 
HETATM   44  C1  UNL     1       2.867  12.735  22.287  1.00  0.00     0.014 C 
BRANCH  43  45
HETATM   45  C35 UNL     1       4.138  10.618  22.551  1.00  0.00     0.005 C 
HETATM   46  C36 UNL     1       3.435   9.929  23.727  1.00  0.00     0.014 C 
HETATM   47  C37 UNL     1       3.622  10.074  21.216  1.00  0.00     0.014 C 
ENDBRANCH  43  45
ENDBRANCH  42  43
ENDBRANCH  41  42
ENDBRANCH  40  41
BRANCH  40  48
HETATM   48  C6  UNL     1       8.689  13.816  22.853  1.00  0.00     0.144 C 
HETATM   49  O1  UNL     1       9.088  13.162  23.802  1.00  0.00    -0.650 OA
BRANCH  48  50
HETATM   50  O2  UNL     1       9.203  15.037  22.601  1.00  0.00    -0.776 OA
HETATM   51  H8  UNL     1       9.877  15.162  23.304  1.00  0.00     0.167 HD
ENDBRANCH  48  50
ENDBRANCH  40  48
ENDBRANCH   1  40
TORSDOF 14
ENDMDL
MODEL 7
REMARK minimizedAffinity -7.27871943
REMARK CNNscore 0.152553499
REMARK CNNaffinity 5.47881174
REMARK  14 active torsions:
REMARK  status: ('A' for Active; 'I' for Inactive)
REMARK    1  A    between atoms: C2_2  and  C3_3 
REMARK    2  A    between atoms: C2_2  and  C35_44 
REMARK    3  A    between atoms: C3_3  and  C4_4 
REMARK    4  A    between atoms: C4_4  and  C5_5 
REMARK    5  A    between atoms: C5_5  and  C6_6 
REMARK    6  A    between atoms: C5_5  and  C7_9 
REMARK    7  A    between atoms: C6_6  and  O2_8 
REMARK    8  A    between atoms: C28_31  and  O4_32 
REMARK    9  A    between atoms: O4_32  and  C29_33 
REMARK   10  A    between atoms: C30_35  and  C31_36 
REMARK   11  A    between atoms: C31_36  and  O6_37 
REMARK   12  A    between atoms: C32_38  and  O7_39 
REMARK   13  A    between atoms: C33_40  and  O8_41 
REMARK   14  A    between atoms: C34_42  and  O9_43 
ROOT
HETATM    1  C7  UNL     1     -15.478  -2.834  16.088  1.00  0.00     0.009 C 
HETATM    2  C8  UNL     1     -15.296  -4.239  16.713  1.00  0.00     0.007 C 
HETATM    3  C9  UNL     1     -14.879  -5.188  15.567  1.00  0.00     0.015 C 
HETATM    4  C10 UNL     1     -14.524  -4.280  14.373  1.00  0.00    -0.010 C 
HETATM    5  C11 UNL     1     -13.043  -3.828  14.566  1.00  0.00     0.021 C 
HETATM    6  C12 UNL     1     -14.607  -4.824  12.940  1.00  0.00    -0.039 C 
HETATM    7  C13 UNL     1     -14.882  -3.966  11.916  1.00  0.00    -0.066 C 
HETATM    8  C14 UNL     1     -15.133  -2.472  12.172  1.00  0.00     0.036 C 
HETATM    9  C15 UNL     1     -15.248  -1.993  13.634  1.00  0.00     0.015 C 
HETATM   10  C16 UNL     1     -15.606  -3.147  14.569  1.00  0.00    -0.028 C 
HETATM   11  C17 UNL     1     -17.059  -3.613  14.245  1.00  0.00     0.016 C 
HETATM   12  C18 UNL     1     -15.030  -4.456  10.452  1.00  0.00    -0.015 C 
HETATM   13  C19 UNL     1     -16.557  -4.555  10.205  1.00  0.00     0.020 C 
HETATM   14  C20 UNL     1     -14.401  -3.456   9.452  1.00  0.00     0.021 C 
HETATM   15  C21 UNL     1     -14.447  -3.937   8.010  1.00  0.00     0.080 C 
HETATM   16  C22 UNL     1     -13.772  -5.274   7.846  1.00  0.00     0.135 C 
HETATM   17  O3  UNL     1     -13.029  -5.471   6.880  1.00  0.00    -0.297 OA
HETATM   18  C23 UNL     1     -14.146  -6.397   8.829  1.00  0.00     0.018 C 
HETATM   19  C24 UNL     1     -15.416  -7.085   8.305  1.00  0.00     0.023 C 
HETATM   20  C25 UNL     1     -13.006  -7.450   8.787  1.00  0.00     0.023 C 
HETATM   21  C26 UNL     1     -14.254  -5.814  10.279  1.00  0.00     0.016 C 
HETATM   22  C27 UNL     1     -14.736  -6.822  11.341  1.00  0.00     0.043 C 
HETATM   23  C28 UNL     1     -14.380  -6.317  12.749  1.00  0.00     0.155 C 
ENDROOT
BRANCH  23  24
HETATM   24  O4  UNL     1     -12.990  -6.596  12.954  1.00  0.00    -0.349 OA
BRANCH  24  25
HETATM   25  C29 UNL     1     -12.758  -7.834  13.646  1.00  0.00     0.292 C 
HETATM   26  O5  UNL     1     -13.127  -7.628  15.010  1.00  0.00    -0.348 OA
HETATM   27  C30 UNL     1     -12.484  -8.443  15.997  1.00  0.00     0.179 C 
HETATM   28  C32 UNL     1     -11.902  -9.752  15.442  1.00  0.00     0.180 C 
HETATM   29  C33 UNL     1     -11.002  -9.535  14.215  1.00  0.00     0.183 C 
HETATM   30  C34 UNL     1     -11.271  -8.205  13.501  1.00  0.00     0.204 C 
BRANCH  27  31
HETATM   31  C31 UNL     1     -11.451  -7.598  16.758  1.00  0.00     0.198 C 
BRANCH  31  32
HETATM   32  O6  UNL     1     -11.897  -6.257  16.902  1.00  0.00    -0.398 OA
HETATM   33  H45 UNL     1     -11.251  -5.806  17.475  1.00  0.00     0.209 HD
ENDBRANCH  31  32
ENDBRANCH  27  31
BRANCH  28  34
HETATM   34  O7  UNL     1     -13.010 -10.583  15.033  1.00  0.00    -0.390 OA
HETATM   35  H47 UNL     1     -12.696 -11.508  15.062  1.00  0.00     0.210 HD
ENDBRANCH  28  34
BRANCH  29  36
HETATM   36  O8  UNL     1      -9.619  -9.599  14.593  1.00  0.00    -0.390 OA
HETATM   37  H49 UNL     1      -9.118  -9.840  13.793  1.00  0.00     0.210 HD
ENDBRANCH  29  36
BRANCH  30  38
HETATM   38  O9  UNL     1     -10.882  -8.358  12.125  1.00  0.00    -0.388 OA
HETATM   39  H51 UNL     1      -9.984  -7.988  12.032  1.00  0.00     0.210 HD
ENDBRANCH  30  38
ENDBRANCH  24  25
ENDBRANCH  23  24
BRANCH   1  40
HETATM   40  C5  UNL     1     -16.541  -1.907  16.750  1.00  0.00     0.089 C 
BRANCH  40  41
HETATM   41  C4  UNL     1     -17.664  -1.353  15.845  1.00  0.00     0.020 C 
BRANCH  41  42
HETATM   42  C3  UNL     1     -17.622   0.166  15.585  1.00  0.00     0.034 C 
BRANCH  42  43
HETATM   43  C2  UNL     1     -16.304   0.901  15.751  1.00  0.00    -0.086 C 
HETATM   44  C1  UNL     1     -15.633   0.985  16.916  1.00  0.00     0.014 C 
BRANCH  43  45
HETATM   45  C35 UNL     1     -15.715   1.548  14.498  1.00  0.00     0.005 C 
HETATM   46  C36 UNL     1     -16.645   1.430  13.285  1.00  0.00     0.014 C 
HETATM   47  C37 UNL     1     -15.330   3.009  14.747  1.00  0.00     0.014 C 
ENDBRANCH  43  45
ENDBRANCH  42  43
ENDBRANCH  41  42
ENDBRANCH  40  41
BRANCH  40  48
HETATM   48  C6  UNL     1     -17.143  -2.665  17.920  1.00  0.00     0.144 C 
HETATM   49  O1  UNL     1     -18.114  -3.402  17.874  1.00  0.00    -0.650 OA
BRANCH  48  50
HETATM   50  O2  UNL     1     -16.535  -2.413  19.097  1.00  0.00    -0.776 OA
HETATM   51  H8  UNL     1     -17.046  -2.939  19.749  1.00  0.00     0.167 HD
ENDBRANCH  48  50
ENDBRANCH  40  48
ENDBRANCH   1  40
TORSDOF 14
ENDMDL
MODEL 8
REMARK minimizedAffinity -9.14034939
REMARK CNNscore 0.150082693
REMARK CNNaffinity 6.69415092
REMARK  14 active torsions:
REMARK  status: ('A' for Active; 'I' for Inactive)
REMARK    1  A    between atoms: C2_2  and  C3_3 
REMARK    2  A    between atoms: C2_2  and  C35_44 
REMARK    3  A    between atoms: C3_3  and  C4_4 
REMARK    4  A    between atoms: C4_4  and  C5_5 
REMARK    5  A    between atoms: C5_5  and  C6_6 
REMARK    6  A    between atoms: C5_5  and  C7_9 
REMARK    7  A    between atoms: C6_6  and  O2_8 
REMARK    8  A    between atoms: C28_31  and  O4_32 
REMARK    9  A    between atoms: O4_32  and  C29_33 
REMARK   10  A    between atoms: C30_35  and  C31_36 
REMARK   11  A    between atoms: C31_36  and  O6_37 
REMARK   12  A    between atoms: C32_38  and  O7_39 
REMARK   13  A    between atoms: C33_40  and  O8_41 
REMARK   14  A    between atoms: C34_42  and  O9_43 
ROOT
HETATM    1  C7  UNL     1      -2.042   4.724  13.110  1.00  0.00     0.009 C 
HETATM    2  C8  UNL     1      -0.916   5.216  12.167  1.00  0.00     0.007 C 
HETATM    3  C9  UNL     1      -0.494   6.617  12.665  1.00  0.00     0.015 C 
HETATM    4  C10 UNL     1      -1.145   6.787  14.052  1.00  0.00    -0.010 C 
HETATM    5  C11 UNL     1      -0.197   6.109  15.090  1.00  0.00     0.021 C 
HETATM    6  C12 UNL     1      -1.426   8.191  14.604  1.00  0.00    -0.039 C 
HETATM    7  C13 UNL     1      -2.467   8.373  15.466  1.00  0.00    -0.066 C 
HETATM    8  C14 UNL     1      -3.378   7.206  15.876  1.00  0.00     0.036 C 
HETATM    9  C15 UNL     1      -3.202   5.856  15.149  1.00  0.00     0.015 C 
HETATM   10  C16 UNL     1      -2.512   6.039  13.798  1.00  0.00    -0.028 C 
HETATM   11  C17 UNL     1      -3.478   6.815  12.851  1.00  0.00     0.016 C 
HETATM   12  C18 UNL     1      -2.837   9.773  16.022  1.00  0.00    -0.015 C 
HETATM   13  C19 UNL     1      -4.031  10.254  15.159  1.00  0.00     0.020 C 
HETATM   14  C20 UNL     1      -3.262   9.700  17.509  1.00  0.00     0.021 C 
HETATM   15  C21 UNL     1      -3.551  11.062  18.120  1.00  0.00     0.080 C 
HETATM   16  C22 UNL     1      -2.370  11.990  17.999  1.00  0.00     0.135 C 
HETATM   17  O3  UNL     1      -2.045  12.697  18.958  1.00  0.00    -0.297 OA
HETATM   18  C23 UNL     1      -1.692  12.120  16.623  1.00  0.00     0.018 C 
HETATM   19  C24 UNL     1      -2.471  13.162  15.805  1.00  0.00     0.023 C 
HETATM   20  C25 UNL     1      -0.270  12.695  16.860  1.00  0.00     0.023 C 
HETATM   21  C26 UNL     1      -1.572  10.707  15.959  1.00  0.00     0.016 C 
HETATM   22  C27 UNL     1      -1.010  10.719  14.524  1.00  0.00     0.043 C 
HETATM   23  C28 UNL     1      -0.511   9.317  14.140  1.00  0.00     0.155 C 
ENDROOT
BRANCH  23  24
HETATM   24  O4  UNL     1       0.770   9.145  14.760  1.00  0.00    -0.349 OA
BRANCH  24  25
HETATM   25  C29 UNL     1       1.858   9.164  13.821  1.00  0.00     0.292 C 
HETATM   26  O5  UNL     1       2.610   7.967  14.025  1.00  0.00    -0.348 OA
HETATM   27  C30 UNL     1       3.998   7.993  13.673  1.00  0.00     0.179 C 
HETATM   28  C32 UNL     1       4.364   9.087  12.658  1.00  0.00     0.180 C 
HETATM   29  C33 UNL     1       3.860  10.480  13.070  1.00  0.00     0.183 C 
HETATM   30  C34 UNL     1       2.702  10.426  14.074  1.00  0.00     0.204 C 
BRANCH  27  31
HETATM   31  C31 UNL     1       4.846   8.050  14.953  1.00  0.00     0.198 C 
BRANCH  31  32
HETATM   32  O6  UNL     1       4.957   6.765  15.547  1.00  0.00    -0.398 OA
HETATM   33  H45 UNL     1       5.584   6.850  16.289  1.00  0.00     0.209 HD
ENDBRANCH  31  32
ENDBRANCH  27  31
BRANCH  28  34
HETATM   34  O7  UNL     1       3.736   8.745  11.404  1.00  0.00    -0.390 OA
HETATM   35  H47 UNL     1       4.259   9.176  10.699  1.00  0.00     0.210 HD
ENDBRANCH  28  34
BRANCH  29  36
HETATM   36  O8  UNL     1       4.933  11.255  13.624  1.00  0.00    -0.390 OA
HETATM   37  H49 UNL     1       4.691  12.192  13.511  1.00  0.00     0.210 HD
ENDBRANCH  29  36
BRANCH  30  38
HETATM   38  O9  UNL     1       1.934  11.632  13.924  1.00  0.00    -0.388 OA
HETATM   39  H51 UNL     1       2.230  12.255  14.614  1.00  0.00     0.210 HD
ENDBRANCH  30  38
ENDBRANCH  24  25
ENDBRANCH  23  24
BRANCH   1  40
HETATM   40  C5  UNL     1      -3.115   3.784  12.487  1.00  0.00     0.089 C 
BRANCH  40  41
HETATM   41  C4  UNL     1      -4.372   4.445  11.876  1.00  0.00     0.020 C 
BRANCH  41  42
HETATM   42  C3  UNL     1      -5.661   3.601  11.930  1.00  0.00     0.034 C 
BRANCH  42  43
HETATM   43  C2  UNL     1      -6.745   3.984  12.922  1.00  0.00    -0.086 C 
HETATM   44  C1  UNL     1      -7.421   3.095  13.676  1.00  0.00     0.014 C 
BRANCH  43  45
HETATM   45  C35 UNL     1      -7.046   5.475  13.071  1.00  0.00     0.005 C 
HETATM   46  C36 UNL     1      -8.458   5.838  12.597  1.00  0.00     0.014 C 
HETATM   47  C37 UNL     1      -6.815   5.955  14.507  1.00  0.00     0.014 C 
ENDBRANCH  43  45
ENDBRANCH  42  43
ENDBRANCH  41  42
ENDBRANCH  40  41
BRANCH  40  48
HETATM   48  C6  UNL     1      -2.421   2.926  11.443  1.00  0.00     0.144 C 
HETATM   49  O1  UNL     1      -1.625   3.319  10.606  1.00  0.00    -0.650 OA
BRANCH  48  50
HETATM   50  O2  UNL     1      -2.805   1.634  11.464  1.00  0.00    -0.776 OA
HETATM   51  H8  UNL     1      -2.304   1.222  10.728  1.00  0.00     0.167 HD
ENDBRANCH  48  50
ENDBRANCH  40  48
ENDBRANCH   1  40
TORSDOF 14
ENDMDL
MODEL 9
REMARK minimizedAffinity -7.44596815
REMARK CNNscore 0.142425984
REMARK CNNaffinity 6.5279727
REMARK  14 active torsions:
REMARK  status: ('A' for Active; 'I' for Inactive)
REMARK    1  A    between atoms: C2_2  and  C3_3 
REMARK    2  A    between atoms: C2_2  and  C35_44 
REMARK    3  A    between atoms: C3_3  and  C4_4 
REMARK    4  A    between atoms: C4_4  and  C5_5 
REMARK    5  A    between atoms: C5_5  and  C6_6 
REMARK    6  A    between atoms: C5_5  and  C7_9 
REMARK    7  A    between atoms: C6_6  and  O2_8 
REMARK    8  A    between atoms: C28_31  and  O4_32 
REMARK    9  A    between atoms: O4_32  and  C29_33 
REMARK   10  A    between atoms: C30_35  and  C31_36 
REMARK   11  A    between atoms: C31_36  and  O6_37 
REMARK   12  A    between atoms: C32_38  and  O7_39 
REMARK   13  A    between atoms: C33_40  and  O8_41 
REMARK   14  A    between atoms: C34_42  and  O9_43 
ROOT
HETATM    1  C7  UNL     1     -10.855  -9.987   4.369  1.00  0.00     0.009 C 
HETATM    2  C8  UNL     1      -9.563  -9.331   3.823  1.00  0.00     0.007 C 
HETATM    3  C9  UNL     1      -8.520  -9.379   4.961  1.00  0.00     0.015 C 
HETATM    4  C10 UNL     1      -9.102 -10.327   6.030  1.00  0.00    -0.010 C 
HETATM    5  C11 UNL     1      -8.734 -11.781   5.601  1.00  0.00     0.021 C 
HETATM    6  C12 UNL     1      -8.660 -10.202   7.493  1.00  0.00    -0.039 C 
HETATM    7  C13 UNL     1      -9.524 -10.564   8.484  1.00  0.00    -0.066 C 
HETATM    8  C14 UNL     1     -10.939 -11.070   8.165  1.00  0.00     0.036 C 
HETATM    9  C15 UNL     1     -11.427 -10.990   6.704  1.00  0.00     0.015 C 
HETATM   10  C16 UNL     1     -10.632  -9.955   5.909  1.00  0.00    -0.028 C 
HETATM   11  C17 UNL     1     -10.973  -8.537   6.463  1.00  0.00     0.016 C 
HETATM   12  C18 UNL     1      -9.160 -10.416   9.985  1.00  0.00    -0.015 C 
HETATM   13  C19 UNL     1      -9.854  -9.110  10.449  1.00  0.00     0.020 C 
HETATM   14  C20 UNL     1      -9.684 -11.612  10.817  1.00  0.00     0.021 C 
HETATM   15  C21 UNL     1      -9.276 -11.552  12.280  1.00  0.00     0.080 C 
HETATM   16  C22 UNL     1      -7.780 -11.470  12.440  1.00  0.00     0.135 C 
HETATM   17  O3  UNL     1      -7.218 -12.149  13.304  1.00  0.00    -0.297 OA
HETATM   18  C23 UNL     1      -7.020 -10.430  11.598  1.00  0.00     0.018 C 
HETATM   19  C24 UNL     1      -7.073  -9.086  12.340  1.00  0.00     0.023 C 
HETATM   20  C25 UNL     1      -5.531 -10.868  11.553  1.00  0.00     0.023 C 
HETATM   21  C26 UNL     1      -7.595 -10.410  10.141  1.00  0.00     0.016 C 
HETATM   22  C27 UNL     1      -6.989  -9.325   9.228  1.00  0.00     0.043 C 
HETATM   23  C28 UNL     1      -7.259  -9.665   7.753  1.00  0.00     0.155 C 
ENDROOT
BRANCH  23  24
HETATM   24  O4  UNL     1      -6.309 -10.670   7.376  1.00  0.00    -0.349 OA
BRANCH  24  25
HETATM   25  C29 UNL     1      -5.122 -10.128   6.774  1.00  0.00     0.292 C 
HETATM   26  O5  UNL     1      -5.273 -10.252   5.360  1.00  0.00    -0.348 OA
HETATM   27  C30 UNL     1      -4.079 -10.343   4.575  1.00  0.00     0.179 C 
HETATM   28  C32 UNL     1      -2.831  -9.775   5.270  1.00  0.00     0.180 C 
HETATM   29  C33 UNL     1      -2.622 -10.340   6.684  1.00  0.00     0.183 C 
HETATM   30  C34 UNL     1      -3.906 -10.914   7.296  1.00  0.00     0.204 C 
BRANCH  27  31
HETATM   31  C31 UNL     1      -3.895 -11.791   4.096  1.00  0.00     0.198 C 
BRANCH  31  32
HETATM   32  O6  UNL     1      -2.728 -11.917   3.296  1.00  0.00    -0.398 OA
HETATM   33  H45 UNL     1      -2.615 -12.867   3.111  1.00  0.00     0.209 HD
ENDBRANCH  31  32
ENDBRANCH  27  31
BRANCH  28  34
HETATM   34  O7  UNL     1      -3.011  -8.347   5.389  1.00  0.00    -0.390 OA
HETATM   35  H47 UNL     1      -2.119  -7.953   5.448  1.00  0.00     0.210 HD
ENDBRANCH  28  34
BRANCH  29  36
HETATM   36  O8  UNL     1      -1.608 -11.355   6.670  1.00  0.00    -0.390 OA
HETATM   37  H49 UNL     1      -1.246 -11.405   7.574  1.00  0.00     0.210 HD
ENDBRANCH  29  36
BRANCH  30  38
HETATM   38  O9  UNL     1      -3.783 -10.837   8.726  1.00  0.00    -0.388 OA
HETATM   39  H51 UNL     1      -3.488 -11.712   9.042  1.00  0.00     0.210 HD
ENDBRANCH  30  38
ENDBRANCH  24  25
ENDBRANCH  23  24
BRANCH   1  40
HETATM   40  C5  UNL     1     -12.204  -9.455   3.800  1.00  0.00     0.089 C 
BRANCH  40  41
HETATM   41  C4  UNL     1     -12.133  -8.351   2.719  1.00  0.00     0.020 C 
BRANCH  41  42
HETATM   42  C3  UNL     1     -11.333  -7.091   3.105  1.00  0.00     0.034 C 
BRANCH  42  43
HETATM   43  C2  UNL     1     -12.081  -5.888   3.650  1.00  0.00    -0.086 C 
HETATM   44  C1  UNL     1     -12.654  -5.849   4.868  1.00  0.00     0.014 C 
BRANCH  43  45
HETATM   45  C35 UNL     1     -12.145  -4.653   2.752  1.00  0.00     0.005 C 
HETATM   46  C36 UNL     1     -11.948  -3.349   3.535  1.00  0.00     0.014 C 
HETATM   47  C37 UNL     1     -11.148  -4.747   1.594  1.00  0.00     0.014 C 
ENDBRANCH  43  45
ENDBRANCH  42  43
ENDBRANCH  41  42
ENDBRANCH  40  41
BRANCH  40  48
HETATM   48  C6  UNL     1     -12.980 -10.649   3.273  1.00  0.00     0.144 C 
HETATM   49  O1  UNL     1     -13.514 -11.512   3.949  1.00  0.00    -0.650 OA
BRANCH  48  50
HETATM   50  O2  UNL     1     -12.997 -10.730   1.927  1.00  0.00    -0.776 OA
HETATM   51  H8  UNL     1     -13.499 -11.553   1.742  1.00  0.00     0.167 HD
ENDBRANCH  48  50
ENDBRANCH  40  48
ENDBRANCH   1  40
TORSDOF 14
ENDMDL
