MODEL 1
REMARK minimizedAffinity -7.50254822
REMARK CNNscore 0.682015717
REMARK CNNaffinity 6.81506777
REMARK  11 active torsions:
REMARK  status: ('A' for Active; 'I' for Inactive)
REMARK    1  A    between atoms: C2_2  and  C3_3 
REMARK    2  A    between atoms: C2_2  and  C30_36 
REMARK    3  A    between atoms: C3_3  and  C4_5 
REMARK    4  A    between atoms: C4_5  and  O2_6 
REMARK    5  A    between atoms: C4_5  and  C5_7 
REMARK    6  A    between atoms: C5_7  and  C7_9 
REMARK    7  A    between atoms: C8_10  and  O3_11 
REMARK    8  A    between atoms: O3_11  and  C9_12 
REMARK    9  A    between atoms: C22_27  and  O6_28 
REMARK   10  A    between atoms: C30_36  and  C32_38 
REMARK   11  A    between atoms: C32_38  and  O7_39 
ROOT
HETATM    1  C7  UNL     1       1.825  53.116 -11.259  1.00  0.00     0.031 C 
HETATM    2  C8  UNL     1       0.777  54.277 -11.179  1.00  0.00     0.138 C 
HETATM    3  C11 UNL     1       1.342  55.323 -10.191  1.00  0.00     0.043 C 
HETATM    4  C12 UNL     1       2.800  54.904  -9.928  1.00  0.00    -0.030 C 
HETATM    5  C13 UNL     1       3.654  55.528 -11.075  1.00  0.00     0.016 C 
HETATM    6  C14 UNL     1       3.343  55.348  -8.542  1.00  0.00     0.004 C 
HETATM    7  C15 UNL     1       3.568  56.859  -8.414  1.00  0.00     0.007 C 
HETATM    8  C16 UNL     1       4.027  57.215  -7.004  1.00  0.00     0.007 C 
HETATM    9  C17 UNL     1       5.439  56.678  -6.754  1.00  0.00     0.008 C 
HETATM   10  C18 UNL     1       5.925  56.888  -5.304  1.00  0.00     0.056 C 
HETATM   11  C19 UNL     1       5.808  58.339  -4.831  1.00  0.00     0.018 C 
HETATM   12  C20 UNL     1       7.376  56.412  -5.215  1.00  0.00     0.133 C 
HETATM   13  O5  UNL     1       8.256  57.071  -4.658  1.00  0.00    -0.297 OA
HETATM   14  C21 UNL     1       7.673  55.016  -5.720  1.00  0.00     0.111 C 
HETATM   15  C22 UNL     1       7.068  54.779  -7.097  1.00  0.00     0.134 C 
HETATM   16  C23 UNL     1       5.604  55.198  -7.132  1.00  0.00    -0.001 A 
HETATM   17  C24 UNL     1       4.619  54.173  -6.626  1.00  0.00     0.024 A 
HETATM   18  C25 UNL     1       4.585  54.537  -8.103  1.00  0.00    -0.025 A 
HETATM   19  C26 UNL     1       5.128  53.506  -9.094  1.00  0.00     0.011 C 
HETATM   20  C27 UNL     1       4.113  52.766  -9.986  1.00  0.00     0.011 C 
HETATM   21  C28 UNL     1       2.689  53.338  -9.968  1.00  0.00    -0.030 C 
HETATM   22  C29 UNL     1       1.947  52.720  -8.747  1.00  0.00     0.016 C 
ENDROOT
BRANCH   1  23
HETATM   23  C5  UNL     1       1.221  51.706 -11.564  1.00  0.00     0.025 C 
HETATM   24  C6  UNL     1       2.256  50.598 -11.313  1.00  0.00     0.013 C 
BRANCH  23  25
HETATM   25  C4  UNL     1       0.707  51.628 -13.027  1.00  0.00     0.196 C 
BRANCH  25  26
HETATM   26  C3  UNL     1       1.796  51.388 -14.095  1.00  0.00     0.184 C 
HETATM   27  O1  UNL     1       2.985  51.334 -13.758  1.00  0.00    -0.290 OA
BRANCH  26  28
HETATM   28  C2  UNL     1       1.423  51.246 -15.540  1.00  0.00    -0.013 C 
HETATM   29  C1  UNL     1       1.039  50.016 -15.918  1.00  0.00     0.023 C 
BRANCH  28  30
HETATM   30  C30 UNL     1       1.564  52.436 -16.457  1.00  0.00     0.041 C 
HETATM   31  C31 UNL     1       3.046  52.744 -16.710  1.00  0.00     0.017 C 
BRANCH  30  32
HETATM   32  C32 UNL     1       0.799  52.274 -17.783  1.00  0.00     0.173 C 
BRANCH  32  33
HETATM   33  O7  UNL     1       0.856  53.493 -18.521  1.00  0.00    -0.400 OA
HETATM   34  H48 UNL     1       0.361  53.352 -19.348  1.00  0.00     0.209 HD
ENDBRANCH  32  33
ENDBRANCH  30  32
ENDBRANCH  28  30
ENDBRANCH  26  28
ENDBRANCH  25  26
BRANCH  25  35
HETATM   35  O2  UNL     1       0.014  52.844 -13.337  1.00  0.00    -0.387 OA
HETATM   36  H4  UNL     1       0.141  52.990 -14.296  1.00  0.00     0.210 HD
ENDBRANCH  25  35
ENDBRANCH  23  25
ENDBRANCH   1  23
BRANCH   2  37
HETATM   37  O3  UNL     1      -0.491  53.799 -10.692  1.00  0.00    -0.316 OA
BRANCH  37  38
HETATM   38  C9  UNL     1      -1.180  54.668  -9.897  1.00  0.00     0.255 C 
HETATM   39  C10 UNL     1      -1.345  54.101  -8.520  1.00  0.00     0.126 C 
HETATM   40  O4  UNL     1      -1.633  55.746 -10.250  1.00  0.00    -0.266 OA
ENDBRANCH  37  38
ENDBRANCH   2  37
BRANCH  15  41
HETATM   41  O6  UNL     1       7.778  55.504  -8.096  1.00  0.00    -0.394 OA
HETATM   42  H32 UNL     1       8.699  55.191  -8.092  1.00  0.00     0.210 HD
ENDBRANCH  15  41
TORSDOF 11
ENDMDL
MODEL 2
REMARK minimizedAffinity -7.9092474
REMARK CNNscore 0.603577495
REMARK CNNaffinity 7.17760849
REMARK  11 active torsions:
REMARK  status: ('A' for Active; 'I' for Inactive)
REMARK    1  A    between atoms: C2_2  and  C3_3 
REMARK    2  A    between atoms: C2_2  and  C30_36 
REMARK    3  A    between atoms: C3_3  and  C4_5 
REMARK    4  A    between atoms: C4_5  and  O2_6 
REMARK    5  A    between atoms: C4_5  and  C5_7 
REMARK    6  A    between atoms: C5_7  and  C7_9 
REMARK    7  A    between atoms: C8_10  and  O3_11 
REMARK    8  A    between atoms: O3_11  and  C9_12 
REMARK    9  A    between atoms: C22_27  and  O6_28 
REMARK   10  A    between atoms: C30_36  and  C32_38 
REMARK   11  A    between atoms: C32_38  and  O7_39 
ROOT
HETATM    1  C7  UNL     1      -3.448  49.986 -23.151  1.00  0.00     0.031 C 
HETATM    2  C8  UNL     1      -2.275  49.537 -22.214  1.00  0.00     0.138 C 
HETATM    3  C11 UNL     1      -2.920  48.852 -20.988  1.00  0.00     0.043 C 
HETATM    4  C12 UNL     1      -4.405  48.665 -21.346  1.00  0.00    -0.030 C 
HETATM    5  C13 UNL     1      -4.504  47.327 -22.143  1.00  0.00     0.016 C 
HETATM    6  C14 UNL     1      -5.352  48.637 -20.114  1.00  0.00     0.004 C 
HETATM    7  C15 UNL     1      -5.218  47.375 -19.253  1.00  0.00     0.007 C 
HETATM    8  C16 UNL     1      -6.124  47.462 -18.029  1.00  0.00     0.007 C 
HETATM    9  C17 UNL     1      -7.594  47.385 -18.452  1.00  0.00     0.008 C 
HETATM   10  C18 UNL     1      -8.578  47.595 -17.280  1.00  0.00     0.056 C 
HETATM   11  C19 UNL     1      -8.308  46.670 -16.091  1.00  0.00     0.018 C 
HETATM   12  C20 UNL     1      -9.998  47.386 -17.808  1.00  0.00     0.133 C 
HETATM   13  O5  UNL     1     -10.832  46.701 -17.213  1.00  0.00    -0.297 OA
HETATM   14  C21 UNL     1     -10.397  48.176 -19.037  1.00  0.00     0.111 C 
HETATM   15  C22 UNL     1      -9.348  48.069 -20.136  1.00  0.00     0.134 C 
HETATM   16  C23 UNL     1      -7.954  48.352 -19.591  1.00  0.00    -0.001 A 
HETATM   17  C24 UNL     1      -7.571  49.809 -19.497  1.00  0.00     0.024 A 
HETATM   18  C25 UNL     1      -6.824  48.929 -20.489  1.00  0.00    -0.025 A 
HETATM   19  C26 UNL     1      -7.138  49.122 -21.974  1.00  0.00     0.011 C 
HETATM   20  C27 UNL     1      -6.066  49.795 -22.852  1.00  0.00     0.011 C 
HETATM   21  C28 UNL     1      -4.690  49.957 -22.192  1.00  0.00    -0.030 C 
HETATM   22  C29 UNL     1      -4.718  51.272 -21.359  1.00  0.00     0.016 C 
ENDROOT
BRANCH   1  23
HETATM   23  C5  UNL     1      -3.151  51.258 -24.011  1.00  0.00     0.025 C 
HETATM   24  C6  UNL     1      -4.424  51.755 -24.715  1.00  0.00     0.013 C 
BRANCH  23  25
HETATM   25  C4  UNL     1      -2.044  50.972 -25.061  1.00  0.00     0.196 C 
BRANCH  25  26
HETATM   26  C3  UNL     1      -1.262  52.212 -25.547  1.00  0.00     0.184 C 
HETATM   27  O1  UNL     1      -1.867  53.152 -26.073  1.00  0.00    -0.290 OA
BRANCH  26  28
HETATM   28  C2  UNL     1       0.230  52.270 -25.405  1.00  0.00    -0.013 C 
HETATM   29  C1  UNL     1       0.684  52.457 -24.155  1.00  0.00     0.023 C 
BRANCH  28  30
HETATM   30  C30 UNL     1       1.090  52.188 -26.642  1.00  0.00     0.041 C 
HETATM   31  C31 UNL     1       2.350  51.357 -26.363  1.00  0.00     0.017 C 
BRANCH  30  32
HETATM   32  C32 UNL     1       0.335  51.654 -27.872  1.00  0.00     0.173 C 
BRANCH  32  33
HETATM   33  O7  UNL     1      -0.116  52.746 -28.669  1.00  0.00    -0.400 OA
HETATM   34  H48 UNL     1      -0.588  52.369 -29.433  1.00  0.00     0.209 HD
ENDBRANCH  32  33
ENDBRANCH  30  32
ENDBRANCH  28  30
ENDBRANCH  26  28
ENDBRANCH  25  26
BRANCH  25  35
HETATM   35  O2  UNL     1      -2.640  50.328 -26.194  1.00  0.00    -0.387 OA
HETATM   36  H4  UNL     1      -2.107  50.597 -26.969  1.00  0.00     0.210 HD
ENDBRANCH  25  35
ENDBRANCH  23  25
ENDBRANCH   1  23
BRANCH   2  37
HETATM   37  O3  UNL     1      -1.500  50.668 -21.774  1.00  0.00    -0.316 OA
BRANCH  37  38
HETATM   38  C9  UNL     1      -0.571  50.405 -20.812  1.00  0.00     0.255 C 
HETATM   39  C10 UNL     1      -0.604  51.458 -19.747  1.00  0.00     0.126 C 
HETATM   40  O4  UNL     1       0.210  49.465 -20.818  1.00  0.00    -0.266 OA
ENDBRANCH  37  38
ENDBRANCH   2  37
BRANCH  15  41
HETATM   41  O6  UNL     1      -9.358  46.773 -20.724  1.00  0.00    -0.394 OA
HETATM   42  H32 UNL     1     -10.240  46.628 -21.108  1.00  0.00     0.210 HD
ENDBRANCH  15  41
TORSDOF 11
ENDMDL
MODEL 3
REMARK minimizedAffinity -7.47785234
REMARK CNNscore 0.569558322
REMARK CNNaffinity 6.57894373
REMARK  11 active torsions:
REMARK  status: ('A' for Active; 'I' for Inactive)
REMARK    1  A    between atoms: C2_2  and  C3_3 
REMARK    2  A    between atoms: C2_2  and  C30_36 
REMARK    3  A    between atoms: C3_3  and  C4_5 
REMARK    4  A    between atoms: C4_5  and  O2_6 
REMARK    5  A    between atoms: C4_5  and  C5_7 
REMARK    6  A    between atoms: C5_7  and  C7_9 
REMARK    7  A    between atoms: C8_10  and  O3_11 
REMARK    8  A    between atoms: O3_11  and  C9_12 
REMARK    9  A    between atoms: C22_27  and  O6_28 
REMARK   10  A    between atoms: C30_36  and  C32_38 
REMARK   11  A    between atoms: C32_38  and  O7_39 
ROOT
HETATM    1  C7  UNL     1      -2.109  50.877 -20.105  1.00  0.00     0.031 C 
HETATM    2  C8  UNL     1      -1.617  51.470 -21.468  1.00  0.00     0.138 C 
HETATM    3  C11 UNL     1      -2.579  50.944 -22.558  1.00  0.00     0.043 C 
HETATM    4  C12 UNL     1      -3.752  50.295 -21.801  1.00  0.00    -0.030 C 
HETATM    5  C13 UNL     1      -4.757  51.443 -21.471  1.00  0.00     0.016 C 
HETATM    6  C14 UNL     1      -4.462  49.161 -22.592  1.00  0.00     0.004 C 
HETATM    7  C15 UNL     1      -5.278  49.654 -23.794  1.00  0.00     0.007 C 
HETATM    8  C16 UNL     1      -5.876  48.476 -24.555  1.00  0.00     0.007 C 
HETATM    9  C17 UNL     1      -6.959  47.796 -23.713  1.00  0.00     0.008 C 
HETATM   10  C18 UNL     1      -7.525  46.515 -24.364  1.00  0.00     0.056 C 
HETATM   11  C19 UNL     1      -8.012  46.731 -25.799  1.00  0.00     0.018 C 
HETATM   12  C20 UNL     1      -8.664  45.998 -23.485  1.00  0.00     0.133 C 
HETATM   13  O5  UNL     1      -9.749  45.639 -23.948  1.00  0.00    -0.297 OA
HETATM   14  C21 UNL     1      -8.363  45.805 -22.014  1.00  0.00     0.111 C 
HETATM   15  C22 UNL     1      -7.680  47.028 -21.417  1.00  0.00     0.134 C 
HETATM   16  C23 UNL     1      -6.507  47.475 -22.279  1.00  0.00    -0.001 A 
HETATM   17  C24 UNL     1      -5.206  46.748 -22.041  1.00  0.00     0.024 A 
HETATM   18  C25 UNL     1      -5.285  48.224 -21.677  1.00  0.00    -0.025 A 
HETATM   19  C26 UNL     1      -5.343  48.579 -20.190  1.00  0.00     0.011 C 
HETATM   20  C27 UNL     1      -4.095  49.223 -19.558  1.00  0.00     0.011 C 
HETATM   21  C28 UNL     1      -3.021  49.682 -20.554  1.00  0.00    -0.030 C 
HETATM   22  C29 UNL     1      -2.124  48.453 -20.882  1.00  0.00     0.016 C 
ENDROOT
BRANCH   1  23
HETATM   23  C5  UNL     1      -0.982  50.647 -19.045  1.00  0.00     0.025 C 
HETATM   24  C6  UNL     1      -0.787  49.147 -18.765  1.00  0.00     0.013 C 
BRANCH  23  25
HETATM   25  C4  UNL     1      -1.303  51.393 -17.722  1.00  0.00     0.196 C 
BRANCH  25  26
HETATM   26  C3  UNL     1      -0.878  50.659 -16.432  1.00  0.00     0.184 C 
HETATM   27  O1  UNL     1      -1.652  49.857 -15.899  1.00  0.00    -0.290 OA
BRANCH  26  28
HETATM   28  C2  UNL     1       0.459  50.932 -15.810  1.00  0.00    -0.013 C 
HETATM   29  C1  UNL     1       1.355  51.535 -16.609  1.00  0.00     0.023 C 
BRANCH  28  30
HETATM   30  C30 UNL     1       0.723  50.466 -14.399  1.00  0.00     0.041 C 
HETATM   31  C31 UNL     1       1.929  49.517 -14.367  1.00  0.00     0.017 C 
BRANCH  30  32
HETATM   32  C32 UNL     1       0.903  51.624 -13.401  1.00  0.00     0.173 C 
BRANCH  32  33
HETATM   33  O7  UNL     1       0.460  52.842 -13.996  1.00  0.00    -0.400 OA
HETATM   34  H48 UNL     1       0.591  53.547 -13.337  1.00  0.00     0.209 HD
ENDBRANCH  32  33
ENDBRANCH  30  32
ENDBRANCH  28  30
ENDBRANCH  26  28
ENDBRANCH  25  26
BRANCH  25  35
HETATM   35  O2  UNL     1      -2.713  51.646 -17.668  1.00  0.00    -0.387 OA
HETATM   36  H4  UNL     1      -2.952  51.639 -16.719  1.00  0.00     0.210 HD
ENDBRANCH  25  35
ENDBRANCH  23  25
ENDBRANCH   1  23
BRANCH   2  37
HETATM   37  O3  UNL     1      -0.277  51.039 -21.769  1.00  0.00    -0.316 OA
BRANCH  37  38
HETATM   38  C9  UNL     1       0.621  52.037 -22.011  1.00  0.00     0.255 C 
HETATM   39  C10 UNL     1       0.567  52.454 -23.450  1.00  0.00     0.126 C 
HETATM   40  O4  UNL     1       1.391  52.513 -21.191  1.00  0.00    -0.266 OA
ENDBRANCH  37  38
ENDBRANCH   2  37
BRANCH  15  41
HETATM   41  O6  UNL     1      -8.596  48.111 -21.290  1.00  0.00    -0.394 OA
HETATM   42  H32 UNL     1      -9.314  47.825 -20.699  1.00  0.00     0.210 HD
ENDBRANCH  15  41
TORSDOF 11
ENDMDL
MODEL 4
REMARK minimizedAffinity -7.91830206
REMARK CNNscore 0.5263322
REMARK CNNaffinity 7.15316439
REMARK  11 active torsions:
REMARK  status: ('A' for Active; 'I' for Inactive)
REMARK    1  A    between atoms: C2_2  and  C3_3 
REMARK    2  A    between atoms: C2_2  and  C30_36 
REMARK    3  A    between atoms: C3_3  and  C4_5 
REMARK    4  A    between atoms: C4_5  and  O2_6 
REMARK    5  A    between atoms: C4_5  and  C5_7 
REMARK    6  A    between atoms: C5_7  and  C7_9 
REMARK    7  A    between atoms: C8_10  and  O3_11 
REMARK    8  A    between atoms: O3_11  and  C9_12 
REMARK    9  A    between atoms: C22_27  and  O6_28 
REMARK   10  A    between atoms: C30_36  and  C32_38 
REMARK   11  A    between atoms: C32_38  and  O7_39 
ROOT
HETATM    1  C7  UNL     1      -2.574  50.140 -22.806  1.00  0.00     0.031 C 
HETATM    2  C8  UNL     1      -1.998  50.245 -21.353  1.00  0.00     0.138 C 
HETATM    3  C11 UNL     1      -2.934  49.420 -20.440  1.00  0.00     0.043 C 
HETATM    4  C12 UNL     1      -3.858  48.636 -21.390  1.00  0.00    -0.030 C 
HETATM    5  C13 UNL     1      -3.092  47.334 -21.780  1.00  0.00     0.016 C 
HETATM    6  C14 UNL     1      -5.244  48.291 -20.777  1.00  0.00     0.004 C 
HETATM    7  C15 UNL     1      -5.190  47.231 -19.669  1.00  0.00     0.007 C 
HETATM    8  C16 UNL     1      -6.576  47.008 -19.074  1.00  0.00     0.007 C 
HETATM    9  C17 UNL     1      -7.489  46.328 -20.097  1.00  0.00     0.008 C 
HETATM   10  C18 UNL     1      -8.949  46.182 -19.612  1.00  0.00     0.056 C 
HETATM   11  C19 UNL     1      -9.066  45.502 -18.247  1.00  0.00     0.018 C 
HETATM   12  C20 UNL     1      -9.725  45.397 -20.670  1.00  0.00     0.133 C 
HETATM   13  O5  UNL     1     -10.478  44.464 -20.383  1.00  0.00    -0.297 OA
HETATM   14  C21 UNL     1      -9.645  45.900 -22.096  1.00  0.00     0.111 C 
HETATM   15  C22 UNL     1      -8.205  46.169 -22.514  1.00  0.00     0.134 C 
HETATM   16  C23 UNL     1      -7.481  47.012 -21.473  1.00  0.00    -0.001 A 
HETATM   17  C24 UNL     1      -7.692  48.503 -21.577  1.00  0.00     0.024 A 
HETATM   18  C25 UNL     1      -6.301  47.950 -21.854  1.00  0.00    -0.025 A 
HETATM   19  C26 UNL     1      -5.830  47.928 -23.309  1.00  0.00     0.011 C 
HETATM   20  C27 UNL     1      -4.736  48.931 -23.723  1.00  0.00     0.011 C 
HETATM   21  C28 UNL     1      -4.049  49.663 -22.562  1.00  0.00    -0.030 C 
HETATM   22  C29 UNL     1      -4.926  50.895 -22.195  1.00  0.00     0.016 C 
ENDROOT
BRANCH   1  23
HETATM   23  C5  UNL     1      -2.291  51.382 -23.715  1.00  0.00     0.025 C 
HETATM   24  C6  UNL     1      -3.582  52.172 -23.983  1.00  0.00     0.013 C 
BRANCH  23  25
HETATM   25  C4  UNL     1      -1.647  50.950 -25.059  1.00  0.00     0.196 C 
BRANCH  25  26
HETATM   26  C3  UNL     1      -1.353  52.100 -26.047  1.00  0.00     0.184 C 
HETATM   27  O1  UNL     1      -2.189  52.995 -26.214  1.00  0.00    -0.290 OA
BRANCH  26  28
HETATM   28  C2  UNL     1      -0.069  52.124 -26.822  1.00  0.00    -0.013 C 
HETATM   29  C1  UNL     1      -0.179  51.832 -28.129  1.00  0.00     0.023 C 
BRANCH  28  30
HETATM   30  C30 UNL     1       1.225  52.396 -26.095  1.00  0.00     0.041 C 
HETATM   31  C31 UNL     1       0.944  52.855 -24.658  1.00  0.00     0.017 C 
BRANCH  30  32
HETATM   32  C32 UNL     1       2.196  51.202 -26.117  1.00  0.00     0.173 C 
BRANCH  32  33
HETATM   33  O7  UNL     1       3.138  51.370 -27.174  1.00  0.00    -0.400 OA
HETATM   34  H48 UNL     1       3.731  50.597 -27.156  1.00  0.00     0.209 HD
ENDBRANCH  32  33
ENDBRANCH  30  32
ENDBRANCH  28  30
ENDBRANCH  26  28
ENDBRANCH  25  26
BRANCH  25  35
HETATM   35  O2  UNL     1      -2.510  50.000 -25.699  1.00  0.00    -0.387 OA
HETATM   36  H4  UNL     1      -2.378  50.121 -26.661  1.00  0.00     0.210 HD
ENDBRANCH  25  35
ENDBRANCH  23  25
ENDBRANCH   1  23
BRANCH   2  37
HETATM   37  O3  UNL     1      -1.977  51.612 -20.900  1.00  0.00    -0.316 OA
BRANCH  37  38
HETATM   38  C9  UNL     1      -1.496  51.806 -19.639  1.00  0.00     0.255 C 
HETATM   39  C10 UNL     1      -0.060  51.385 -19.554  1.00  0.00     0.126 C 
HETATM   40  O4  UNL     1      -2.139  52.231 -18.691  1.00  0.00    -0.266 OA
ENDBRANCH  37  38
ENDBRANCH   2  37
BRANCH  15  41
HETATM   41  O6  UNL     1      -7.492  44.950 -22.696  1.00  0.00    -0.394 OA
HETATM   42  H32 UNL     1      -7.940  44.445 -23.396  1.00  0.00     0.210 HD
ENDBRANCH  15  41
TORSDOF 11
ENDMDL
MODEL 5
REMARK minimizedAffinity -8.21749496
REMARK CNNscore 0.51063633
REMARK CNNaffinity 7.16003609
REMARK  11 active torsions:
REMARK  status: ('A' for Active; 'I' for Inactive)
REMARK    1  A    between atoms: C2_2  and  C3_3 
REMARK    2  A    between atoms: C2_2  and  C30_36 
REMARK    3  A    between atoms: C3_3  and  C4_5 
REMARK    4  A    between atoms: C4_5  and  O2_6 
REMARK    5  A    between atoms: C4_5  and  C5_7 
REMARK    6  A    between atoms: C5_7  and  C7_9 
REMARK    7  A    between atoms: C8_10  and  O3_11 
REMARK    8  A    between atoms: O3_11  and  C9_12 
REMARK    9  A    between atoms: C22_27  and  O6_28 
REMARK   10  A    between atoms: C30_36  and  C32_38 
REMARK   11  A    between atoms: C32_38  and  O7_39 
ROOT
HETATM    1  C7  UNL     1      -0.261  51.824 -16.489  1.00  0.00     0.031 C 
HETATM    2  C8  UNL     1       1.217  52.315 -16.650  1.00  0.00     0.138 C 
HETATM    3  C11 UNL     1       1.478  52.459 -18.167  1.00  0.00     0.043 C 
HETATM    4  C12 UNL     1       0.101  52.324 -18.842  1.00  0.00    -0.030 C 
HETATM    5  C13 UNL     1      -0.545  53.744 -18.820  1.00  0.00     0.016 C 
HETATM    6  C14 UNL     1       0.163  51.776 -20.294  1.00  0.00     0.004 C 
HETATM    7  C15 UNL     1       0.761  52.760 -21.308  1.00  0.00     0.007 C 
HETATM    8  C16 UNL     1       0.853  52.118 -22.688  1.00  0.00     0.007 C 
HETATM    9  C17 UNL     1      -0.547  51.901 -23.268  1.00  0.00     0.008 C 
HETATM   10  C18 UNL     1      -0.542  51.138 -24.610  1.00  0.00     0.056 C 
HETATM   11  C19 UNL     1       0.385  51.762 -25.656  1.00  0.00     0.018 C 
HETATM   12  C20 UNL     1      -1.978  51.085 -25.132  1.00  0.00     0.133 C 
HETATM   13  O5  UNL     1      -2.267  51.341 -26.303  1.00  0.00    -0.297 OA
HETATM   14  C21 UNL     1      -3.035  50.562 -24.183  1.00  0.00     0.111 C 
HETATM   15  C22 UNL     1      -2.939  51.229 -22.817  1.00  0.00     0.134 C 
HETATM   16  C23 UNL     1      -1.509  51.203 -22.294  1.00  0.00    -0.001 A 
HETATM   17  C24 UNL     1      -1.090  49.930 -21.599  1.00  0.00     0.024 A 
HETATM   18  C25 UNL     1      -1.192  51.204 -20.772  1.00  0.00    -0.025 A 
HETATM   19  C26 UNL     1      -2.376  51.324 -19.810  1.00  0.00     0.011 C 
HETATM   20  C27 UNL     1      -2.085  51.217 -18.301  1.00  0.00     0.011 C 
HETATM   21  C28 UNL     1      -0.601  51.267 -17.916  1.00  0.00    -0.030 C 
HETATM   22  C29 UNL     1      -0.029  49.825 -18.047  1.00  0.00     0.016 C 
ENDROOT
BRANCH   1  23
HETATM   23  C5  UNL     1      -0.527  50.947 -15.221  1.00  0.00     0.025 C 
HETATM   24  C6  UNL     1      -1.792  50.091 -15.401  1.00  0.00     0.013 C 
BRANCH  23  25
HETATM   25  C4  UNL     1      -0.663  51.831 -13.953  1.00  0.00     0.196 C 
BRANCH  25  26
HETATM   26  C3  UNL     1       0.052  51.290 -12.695  1.00  0.00     0.184 C 
HETATM   27  O1  UNL     1       0.613  50.190 -12.733  1.00  0.00    -0.290 OA
BRANCH  26  28
HETATM   28  C2  UNL     1       0.046  52.081 -11.421  1.00  0.00    -0.013 C 
HETATM   29  C1  UNL     1      -0.567  51.494 -10.380  1.00  0.00     0.023 C 
BRANCH  28  30
HETATM   30  C30 UNL     1       0.649  53.465 -11.411  1.00  0.00     0.041 C 
HETATM   31  C31 UNL     1      -0.310  54.460 -10.745  1.00  0.00     0.017 C 
BRANCH  30  32
HETATM   32  C32 UNL     1       2.042  53.516 -10.759  1.00  0.00     0.173 C 
BRANCH  32  33
HETATM   33  O7  UNL     1       3.046  53.497 -11.771  1.00  0.00    -0.400 OA
HETATM   34  H48 UNL     1       3.909  53.528 -11.320  1.00  0.00     0.209 HD
ENDBRANCH  32  33
ENDBRANCH  30  32
ENDBRANCH  28  30
ENDBRANCH  26  28
ENDBRANCH  25  26
BRANCH  25  35
HETATM   35  O2  UNL     1      -2.055  52.001 -13.657  1.00  0.00    -0.387 OA
HETATM   36  H4  UNL     1      -2.115  52.098 -12.685  1.00  0.00     0.210 HD
ENDBRANCH  25  35
ENDBRANCH  23  25
ENDBRANCH   1  23
BRANCH   2  37
HETATM   37  O3  UNL     1       2.144  51.362 -16.097  1.00  0.00    -0.316 OA
BRANCH  37  38
HETATM   38  C9  UNL     1       3.110  51.883 -15.287  1.00  0.00     0.255 C 
HETATM   39  C10 UNL     1       4.278  52.354 -16.099  1.00  0.00     0.126 C 
HETATM   40  O4  UNL     1       3.061  51.937 -14.068  1.00  0.00    -0.266 OA
ENDBRANCH  37  38
ENDBRANCH   2  37
BRANCH  15  41
HETATM   41  O6  UNL     1      -3.382  52.580 -22.879  1.00  0.00    -0.394 OA
HETATM   42  H32 UNL     1      -4.310  52.576 -23.169  1.00  0.00     0.210 HD
ENDBRANCH  15  41
TORSDOF 11
ENDMDL
MODEL 6
REMARK minimizedAffinity -8.49904251
REMARK CNNscore 0.508545339
REMARK CNNaffinity 6.94857597
REMARK  11 active torsions:
REMARK  status: ('A' for Active; 'I' for Inactive)
REMARK    1  A    between atoms: C2_2  and  C3_3 
REMARK    2  A    between atoms: C2_2  and  C30_36 
REMARK    3  A    between atoms: C3_3  and  C4_5 
REMARK    4  A    between atoms: C4_5  and  O2_6 
REMARK    5  A    between atoms: C4_5  and  C5_7 
REMARK    6  A    between atoms: C5_7  and  C7_9 
REMARK    7  A    between atoms: C8_10  and  O3_11 
REMARK    8  A    between atoms: O3_11  and  C9_12 
REMARK    9  A    between atoms: C22_27  and  O6_28 
REMARK   10  A    between atoms: C30_36  and  C32_38 
REMARK   11  A    between atoms: C32_38  and  O7_39 
ROOT
HETATM    1  C7  UNL     1      -2.502  49.880 -23.329  1.00  0.00     0.031 C 
HETATM    2  C8  UNL     1      -1.222  50.320 -22.540  1.00  0.00     0.138 C 
HETATM    3  C11 UNL     1      -1.316  49.673 -21.140  1.00  0.00     0.043 C 
HETATM    4  C12 UNL     1      -2.476  48.665 -21.222  1.00  0.00    -0.030 C 
HETATM    5  C13 UNL     1      -1.875  47.342 -21.791  1.00  0.00     0.016 C 
HETATM    6  C14 UNL     1      -3.179  48.402 -19.861  1.00  0.00     0.004 C 
HETATM    7  C15 UNL     1      -2.328  47.610 -18.861  1.00  0.00     0.007 C 
HETATM    8  C16 UNL     1      -3.061  47.462 -17.532  1.00  0.00     0.007 C 
HETATM    9  C17 UNL     1      -4.273  46.540 -17.694  1.00  0.00     0.008 C 
HETATM   10  C18 UNL     1      -5.141  46.441 -16.421  1.00  0.00     0.056 C 
HETATM   11  C19 UNL     1      -4.340  46.068 -15.171  1.00  0.00     0.018 C 
HETATM   12  C20 UNL     1      -6.244  45.414 -16.676  1.00  0.00     0.133 C 
HETATM   13  O5  UNL     1      -6.533  44.535 -15.861  1.00  0.00    -0.297 OA
HETATM   14  C21 UNL     1      -7.081  45.600 -17.924  1.00  0.00     0.111 C 
HETATM   15  C22 UNL     1      -6.210  45.833 -19.152  1.00  0.00     0.134 C 
HETATM   16  C23 UNL     1      -5.167  46.911 -18.887  1.00  0.00    -0.001 A 
HETATM   17  C24 UNL     1      -5.638  48.334 -19.066  1.00  0.00     0.024 A 
HETATM   18  C25 UNL     1      -4.591  47.793 -20.030  1.00  0.00    -0.025 A 
HETATM   19  C26 UNL     1      -5.046  47.477 -21.457  1.00  0.00     0.011 C 
HETATM   20  C27 UNL     1      -4.568  48.411 -22.584  1.00  0.00     0.011 C 
HETATM   21  C28 UNL     1      -3.468  49.405 -22.187  1.00  0.00    -0.030 C 
HETATM   22  C29 UNL     1      -4.161  50.649 -21.558  1.00  0.00     0.016 C 
ENDROOT
BRANCH   1  23
HETATM   23  C5  UNL     1      -2.999  50.907 -24.400  1.00  0.00     0.025 C 
HETATM   24  C6  UNL     1      -4.482  50.677 -24.735  1.00  0.00     0.013 C 
BRANCH  23  25
HETATM   25  C4  UNL     1      -2.145  50.816 -25.692  1.00  0.00     0.196 C 
BRANCH  25  26
HETATM   26  C3  UNL     1      -1.629  52.167 -26.235  1.00  0.00     0.184 C 
HETATM   27  O1  UNL     1      -2.429  52.991 -26.691  1.00  0.00    -0.290 OA
BRANCH  26  28
HETATM   28  C2  UNL     1      -0.161  52.474 -26.235  1.00  0.00    -0.013 C 
HETATM   29  C1  UNL     1       0.180  53.661 -25.708  1.00  0.00     0.023 C 
BRANCH  28  30
HETATM   30  C30 UNL     1       0.796  51.493 -26.868  1.00  0.00     0.041 C 
HETATM   31  C31 UNL     1       0.863  51.714 -28.385  1.00  0.00     0.017 C 
BRANCH  30  32
HETATM   32  C32 UNL     1       2.201  51.526 -26.240  1.00  0.00     0.173 C 
BRANCH  32  33
HETATM   33  O7  UNL     1       3.185  51.534 -27.271  1.00  0.00    -0.400 OA
HETATM   34  H48 UNL     1       4.057  51.553 -26.836  1.00  0.00     0.209 HD
ENDBRANCH  32  33
ENDBRANCH  30  32
ENDBRANCH  28  30
ENDBRANCH  26  28
ENDBRANCH  25  26
BRANCH  25  35
HETATM   35  O2  UNL     1      -2.920  50.173 -26.712  1.00  0.00    -0.387 OA
HETATM   36  H4  UNL     1      -2.613  50.549 -27.562  1.00  0.00     0.210 HD
ENDBRANCH  25  35
ENDBRANCH  23  25
ENDBRANCH   1  23
BRANCH   2  37
HETATM   37  O3  UNL     1      -1.167  51.752 -22.399  1.00  0.00    -0.316 OA
BRANCH  37  38
HETATM   38  C9  UNL     1       0.055  52.263 -22.075  1.00  0.00     0.255 C 
HETATM   39  C10 UNL     1      -0.004  52.969 -20.754  1.00  0.00     0.126 C 
HETATM   40  O4  UNL     1       1.060  52.194 -22.766  1.00  0.00    -0.266 OA
ENDBRANCH  37  38
ENDBRANCH   2  37
BRANCH  15  41
HETATM   41  O6  UNL     1      -5.545  44.635 -19.538  1.00  0.00    -0.394 OA
HETATM   42  H32 UNL     1      -6.225  43.972 -19.749  1.00  0.00     0.210 HD
ENDBRANCH  15  41
TORSDOF 11
ENDMDL
MODEL 7
REMARK minimizedAffinity -7.31024027
REMARK CNNscore 0.490561843
REMARK CNNaffinity 6.19877863
REMARK  11 active torsions:
REMARK  status: ('A' for Active; 'I' for Inactive)
REMARK    1  A    between atoms: C2_2  and  C3_3 
REMARK    2  A    between atoms: C2_2  and  C30_36 
REMARK    3  A    between atoms: C3_3  and  C4_5 
REMARK    4  A    between atoms: C4_5  and  O2_6 
REMARK    5  A    between atoms: C4_5  and  C5_7 
REMARK    6  A    between atoms: C5_7  and  C7_9 
REMARK    7  A    between atoms: C8_10  and  O3_11 
REMARK    8  A    between atoms: O3_11  and  C9_12 
REMARK    9  A    between atoms: C22_27  and  O6_28 
REMARK   10  A    between atoms: C30_36  and  C32_38 
REMARK   11  A    between atoms: C32_38  and  O7_39 
ROOT
HETATM    1  C7  UNL     1      -8.150  45.783 -29.909  1.00  0.00     0.031 C 
HETATM    2  C8  UNL     1      -7.352  46.555 -28.805  1.00  0.00     0.138 C 
HETATM    3  C11 UNL     1      -8.328  46.790 -27.629  1.00  0.00     0.043 C 
HETATM    4  C12 UNL     1      -9.568  45.930 -27.938  1.00  0.00    -0.030 C 
HETATM    5  C13 UNL     1      -9.261  44.499 -27.396  1.00  0.00     0.016 C 
HETATM    6  C14 UNL     1     -10.883  46.477 -27.318  1.00  0.00     0.004 C 
HETATM    7  C15 UNL     1     -10.955  46.349 -25.792  1.00  0.00     0.007 C 
HETATM    8  C16 UNL     1     -12.240  46.975 -25.261  1.00  0.00     0.007 C 
HETATM    9  C17 UNL     1     -13.452  46.144 -25.691  1.00  0.00     0.008 C 
HETATM   10  C18 UNL     1     -14.802  46.784 -25.300  1.00  0.00     0.056 C 
HETATM   11  C19 UNL     1     -14.893  47.143 -23.815  1.00  0.00     0.018 C 
HETATM   12  C20 UNL     1     -15.919  45.812 -25.684  1.00  0.00     0.133 C 
HETATM   13  O5  UNL     1     -16.847  45.535 -24.922  1.00  0.00    -0.297 OA
HETATM   14  C21 UNL     1     -15.922  45.298 -27.108  1.00  0.00     0.111 C 
HETATM   15  C22 UNL     1     -14.546  44.795 -27.525  1.00  0.00     0.134 C 
HETATM   16  C23 UNL     1     -13.466  45.816 -27.193  1.00  0.00    -0.001 A 
HETATM   17  C24 UNL     1     -13.270  46.915 -28.209  1.00  0.00     0.024 A 
HETATM   18  C25 UNL     1     -12.146  45.909 -28.008  1.00  0.00    -0.025 A 
HETATM   19  C26 UNL     1     -11.928  44.869 -29.109  1.00  0.00     0.011 C 
HETATM   20  C27 UNL     1     -10.677  45.016 -29.996  1.00  0.00     0.011 C 
HETATM   21  C28 UNL     1      -9.644  46.039 -29.502  1.00  0.00    -0.030 C 
HETATM   22  C29 UNL     1     -10.079  47.439 -30.024  1.00  0.00     0.016 C 
ENDROOT
BRANCH   1  23
HETATM   23  C5  UNL     1      -7.678  46.060 -31.375  1.00  0.00     0.025 C 
HETATM   24  C6  UNL     1      -8.610  47.065 -32.072  1.00  0.00     0.013 C 
BRANCH  23  25
HETATM   25  C4  UNL     1      -7.613  44.744 -32.195  1.00  0.00     0.196 C 
BRANCH  25  26
HETATM   26  C3  UNL     1      -6.552  43.726 -31.722  1.00  0.00     0.184 C 
HETATM   27  O1  UNL     1      -6.760  43.048 -30.710  1.00  0.00    -0.290 OA
BRANCH  26  28
HETATM   28  C2  UNL     1      -5.260  43.576 -32.468  1.00  0.00    -0.013 C 
HETATM   29  C1  UNL     1      -4.440  44.638 -32.423  1.00  0.00     0.023 C 
BRANCH  28  30
HETATM   30  C30 UNL     1      -5.005  42.311 -33.250  1.00  0.00     0.041 C 
HETATM   31  C31 UNL     1      -6.241  41.937 -34.080  1.00  0.00     0.017 C 
BRANCH  30  32
HETATM   32  C32 UNL     1      -3.747  42.386 -34.134  1.00  0.00     0.173 C 
BRANCH  32  33
HETATM   33  O7  UNL     1      -4.115  42.251 -35.504  1.00  0.00    -0.400 OA
HETATM   34  H48 UNL     1      -3.296  42.303 -36.029  1.00  0.00     0.209 HD
ENDBRANCH  32  33
ENDBRANCH  30  32
ENDBRANCH  28  30
ENDBRANCH  26  28
ENDBRANCH  25  26
BRANCH  25  35
HETATM   35  O2  UNL     1      -7.362  45.069 -33.568  1.00  0.00    -0.387 OA
HETATM   36  H4  UNL     1      -6.857  44.316 -33.937  1.00  0.00     0.210 HD
ENDBRANCH  25  35
ENDBRANCH  23  25
ENDBRANCH   1  23
BRANCH   2  37
HETATM   37  O3  UNL     1      -6.884  47.826 -29.295  1.00  0.00    -0.316 OA
BRANCH  37  38
HETATM   38  C9  UNL     1      -5.530  47.971 -29.352  1.00  0.00     0.255 C 
HETATM   39  C10 UNL     1      -4.957  48.105 -27.974  1.00  0.00     0.126 C 
HETATM   40  O4  UNL     1      -4.864  48.020 -30.375  1.00  0.00    -0.266 OA
ENDBRANCH  37  38
ENDBRANCH   2  37
BRANCH  15  41
HETATM   41  O6  UNL     1     -14.235  43.568 -26.875  1.00  0.00    -0.394 OA
HETATM   42  H32 UNL     1     -14.907  42.915 -27.135  1.00  0.00     0.210 HD
ENDBRANCH  15  41
TORSDOF 11
ENDMDL
MODEL 8
REMARK minimizedAffinity -7.09751225
REMARK CNNscore 0.477331161
REMARK CNNaffinity 5.91998243
REMARK  11 active torsions:
REMARK  status: ('A' for Active; 'I' for Inactive)
REMARK    1  A    between atoms: C2_2  and  C3_3 
REMARK    2  A    between atoms: C2_2  and  C30_36 
REMARK    3  A    between atoms: C3_3  and  C4_5 
REMARK    4  A    between atoms: C4_5  and  O2_6 
REMARK    5  A    between atoms: C4_5  and  C5_7 
REMARK    6  A    between atoms: C5_7  and  C7_9 
REMARK    7  A    between atoms: C8_10  and  O3_11 
REMARK    8  A    between atoms: O3_11  and  C9_12 
REMARK    9  A    between atoms: C22_27  and  O6_28 
REMARK   10  A    between atoms: C30_36  and  C32_38 
REMARK   11  A    between atoms: C32_38  and  O7_39 
ROOT
HETATM    1  C7  UNL     1      -9.891  46.914 -26.893  1.00  0.00     0.031 C 
HETATM    2  C8  UNL     1      -9.907  46.617 -28.431  1.00  0.00     0.138 C 
HETATM    3  C11 UNL     1     -11.347  46.181 -28.787  1.00  0.00     0.043 C 
HETATM    4  C12 UNL     1     -12.197  46.490 -27.542  1.00  0.00    -0.030 C 
HETATM    5  C13 UNL     1     -12.623  47.987 -27.656  1.00  0.00     0.016 C 
HETATM    6  C14 UNL     1     -13.446  45.579 -27.390  1.00  0.00     0.004 C 
HETATM    7  C15 UNL     1     -14.545  45.848 -28.425  1.00  0.00     0.007 C 
HETATM    8  C16 UNL     1     -15.697  44.863 -28.252  1.00  0.00     0.007 C 
HETATM    9  C17 UNL     1     -16.441  45.142 -26.943  1.00  0.00     0.008 C 
HETATM   10  C18 UNL     1     -17.543  44.106 -26.634  1.00  0.00     0.056 C 
HETATM   11  C19 UNL     1     -18.531  43.912 -27.786  1.00  0.00     0.018 C 
HETATM   12  C20 UNL     1     -18.277  44.555 -25.370  1.00  0.00     0.133 C 
HETATM   13  O5  UNL     1     -19.506  44.562 -25.284  1.00  0.00    -0.297 OA
HETATM   14  C21 UNL     1     -17.427  44.864 -24.155  1.00  0.00     0.111 C 
HETATM   15  C22 UNL     1     -16.262  45.780 -24.506  1.00  0.00     0.134 C 
HETATM   16  C23 UNL     1     -15.510  45.266 -25.727  1.00  0.00    -0.001 A 
HETATM   17  C24 UNL     1     -14.472  44.204 -25.456  1.00  0.00     0.024 A 
HETATM   18  C25 UNL     1     -14.000  45.566 -25.946  1.00  0.00    -0.025 A 
HETATM   19  C26 UNL     1     -13.312  46.479 -24.929  1.00  0.00     0.011 C 
HETATM   20  C27 UNL     1     -11.794  46.695 -25.073  1.00  0.00     0.011 C 
HETATM   21  C28 UNL     1     -11.183  46.182 -26.384  1.00  0.00    -0.030 C 
HETATM   22  C29 UNL     1     -10.869  44.669 -26.198  1.00  0.00     0.016 C 
ENDROOT
BRANCH   1  23
HETATM   23  C5  UNL     1      -8.517  46.659 -26.189  1.00  0.00     0.025 C 
HETATM   24  C6  UNL     1      -8.665  45.645 -25.044  1.00  0.00     0.013 C 
BRANCH  23  25
HETATM   25  C4  UNL     1      -7.917  47.984 -25.648  1.00  0.00     0.196 C 
BRANCH  25  26
HETATM   26  C3  UNL     1      -6.448  47.899 -25.181  1.00  0.00     0.184 C 
HETATM   27  O1  UNL     1      -6.194  47.633 -24.001  1.00  0.00    -0.290 OA
BRANCH  26  28
HETATM   28  C2  UNL     1      -5.329  48.161 -26.144  1.00  0.00    -0.013 C 
HETATM   29  C1  UNL     1      -5.621  47.951 -27.439  1.00  0.00     0.023 C 
BRANCH  28  30
HETATM   30  C30 UNL     1      -3.977  48.564 -25.610  1.00  0.00     0.041 C 
HETATM   31  C31 UNL     1      -2.916  48.468 -26.714  1.00  0.00     0.017 C 
BRANCH  30  32
HETATM   32  C32 UNL     1      -3.973  49.958 -24.956  1.00  0.00     0.173 C 
BRANCH  32  33
HETATM   33  O7  UNL     1      -3.995  49.821 -23.537  1.00  0.00    -0.400 OA
HETATM   34  H48 UNL     1      -3.993  50.720 -23.162  1.00  0.00     0.209 HD
ENDBRANCH  32  33
ENDBRANCH  30  32
ENDBRANCH  28  30
ENDBRANCH  26  28
ENDBRANCH  25  26
BRANCH  25  35
HETATM   35  O2  UNL     1      -8.725  48.443 -24.556  1.00  0.00    -0.387 OA
HETATM   36  H4  UNL     1      -8.120  48.925 -23.957  1.00  0.00     0.210 HD
ENDBRANCH  25  35
ENDBRANCH  23  25
ENDBRANCH   1  23
BRANCH   2  37
HETATM   37  O3  UNL     1      -8.993  45.555 -28.764  1.00  0.00    -0.316 OA
BRANCH  37  38
HETATM   38  C9  UNL     1      -8.097  45.839 -29.752  1.00  0.00     0.255 C 
HETATM   39  C10 UNL     1      -6.926  44.907 -29.683  1.00  0.00     0.126 C 
HETATM   40  O4  UNL     1      -8.202  46.744 -30.566  1.00  0.00    -0.266 OA
ENDBRANCH  37  38
ENDBRANCH   2  37
BRANCH  15  41
HETATM   41  O6  UNL     1     -16.717  47.103 -24.769  1.00  0.00    -0.394 OA
HETATM   42  H32 UNL     1     -17.153  47.433 -23.964  1.00  0.00     0.210 HD
ENDBRANCH  15  41
TORSDOF 11
ENDMDL
MODEL 9
REMARK minimizedAffinity -8.74376011
REMARK CNNscore 0.451407105
REMARK CNNaffinity 6.92155457
REMARK  11 active torsions:
REMARK  status: ('A' for Active; 'I' for Inactive)
REMARK    1  A    between atoms: C2_2  and  C3_3 
REMARK    2  A    between atoms: C2_2  and  C30_36 
REMARK    3  A    between atoms: C3_3  and  C4_5 
REMARK    4  A    between atoms: C4_5  and  O2_6 
REMARK    5  A    between atoms: C4_5  and  C5_7 
REMARK    6  A    between atoms: C5_7  and  C7_9 
REMARK    7  A    between atoms: C8_10  and  O3_11 
REMARK    8  A    between atoms: O3_11  and  C9_12 
REMARK    9  A    between atoms: C22_27  and  O6_28 
REMARK   10  A    between atoms: C30_36  and  C32_38 
REMARK   11  A    between atoms: C32_38  and  O7_39 
ROOT
HETATM    1  C7  UNL     1      -2.028  50.663 -21.842  1.00  0.00     0.031 C 
HETATM    2  C8  UNL     1      -1.415  50.743 -20.403  1.00  0.00     0.138 C 
HETATM    3  C11 UNL     1      -2.401  50.023 -19.455  1.00  0.00     0.043 C 
HETATM    4  C12 UNL     1      -3.413  49.309 -20.370  1.00  0.00    -0.030 C 
HETATM    5  C13 UNL     1      -2.776  47.935 -20.747  1.00  0.00     0.016 C 
HETATM    6  C14 UNL     1      -4.810  49.102 -19.723  1.00  0.00     0.004 C 
HETATM    7  C15 UNL     1      -4.828  48.064 -18.594  1.00  0.00     0.007 C 
HETATM    8  C16 UNL     1      -6.216  47.978 -17.967  1.00  0.00     0.007 C 
HETATM    9  C17 UNL     1      -7.209  47.364 -18.957  1.00  0.00     0.008 C 
HETATM   10  C18 UNL     1      -8.664  47.360 -18.441  1.00  0.00     0.056 C 
HETATM   11  C19 UNL     1      -8.813  46.720 -17.059  1.00  0.00     0.018 C 
HETATM   12  C20 UNL     1      -9.531  46.629 -19.466  1.00  0.00     0.133 C 
HETATM   13  O5  UNL     1     -10.359  45.774 -19.145  1.00  0.00    -0.297 OA
HETATM   14  C21 UNL     1      -9.437  47.095 -20.903  1.00  0.00     0.111 C 
HETATM   15  C22 UNL     1      -7.988  47.224 -21.356  1.00  0.00     0.134 C 
HETATM   16  C23 UNL     1      -7.168  48.019 -20.347  1.00  0.00    -0.001 A 
HETATM   17  C24 UNL     1      -7.246  49.520 -20.479  1.00  0.00     0.024 A 
HETATM   18  C25 UNL     1      -5.917  48.838 -20.771  1.00  0.00    -0.025 A 
HETATM   19  C26 UNL     1      -5.481  48.746 -22.234  1.00  0.00     0.011 C 
HETATM   20  C27 UNL     1      -4.310  49.637 -22.690  1.00  0.00     0.011 C 
HETATM   21  C28 UNL     1      -3.535  50.326 -21.559  1.00  0.00    -0.030 C 
HETATM   22  C29 UNL     1      -4.290  51.639 -21.201  1.00  0.00     0.016 C 
ENDROOT
BRANCH   1  23
HETATM   23  C5  UNL     1      -1.655  51.856 -22.782  1.00  0.00     0.025 C 
HETATM   24  C6  UNL     1      -2.912  52.463 -23.426  1.00  0.00     0.013 C 
BRANCH  23  25
HETATM   25  C4  UNL     1      -0.662  51.403 -23.885  1.00  0.00     0.196 C 
BRANCH  25  26
HETATM   26  C3  UNL     1       0.244  52.517 -24.453  1.00  0.00     0.184 C 
HETATM   27  O1  UNL     1       0.785  53.320 -23.685  1.00  0.00    -0.290 OA
BRANCH  26  28
HETATM   28  C2  UNL     1       0.451  52.646 -25.933  1.00  0.00    -0.013 C 
HETATM   29  C1  UNL     1      -0.007  53.783 -26.483  1.00  0.00     0.023 C 
BRANCH  28  30
HETATM   30  C30 UNL     1       1.076  51.501 -26.691  1.00  0.00     0.041 C 
HETATM   31  C31 UNL     1       0.861  51.678 -28.200  1.00  0.00     0.017 C 
BRANCH  30  32
HETATM   32  C32 UNL     1       2.566  51.298 -26.364  1.00  0.00     0.173 C 
BRANCH  32  33
HETATM   33  O7  UNL     1       3.352  51.574 -27.521  1.00  0.00    -0.400 OA
HETATM   34  H48 UNL     1       4.285  51.433 -27.274  1.00  0.00     0.209 HD
ENDBRANCH  32  33
ENDBRANCH  30  32
ENDBRANCH  28  30
ENDBRANCH  26  28
ENDBRANCH  25  26
BRANCH  25  35
HETATM   35  O2  UNL     1      -1.406  50.817 -24.962  1.00  0.00    -0.387 OA
HETATM   36  H4  UNL     1      -0.891  50.996 -25.775  1.00  0.00     0.210 HD
ENDBRANCH  25  35
ENDBRANCH  23  25
ENDBRANCH   1  23
BRANCH   2  37
HETATM   37  O3  UNL     1      -1.261  52.111 -19.980  1.00  0.00    -0.316 OA
BRANCH  37  38
HETATM   38  C9  UNL     1      -0.070  52.411 -19.386  1.00  0.00     0.255 C 
HETATM   39  C10 UNL     1       0.663  53.452 -20.177  1.00  0.00     0.126 C 
HETATM   40  O4  UNL     1       0.367  51.893 -18.370  1.00  0.00    -0.266 OA
ENDBRANCH  37  38
ENDBRANCH   2  37
BRANCH  15  41
HETATM   41  O6  UNL     1      -7.392  45.943 -21.526  1.00  0.00    -0.394 OA
HETATM   42  H32 UNL     1      -7.898  45.467 -22.206  1.00  0.00     0.210 HD
ENDBRANCH  15  41
TORSDOF 11
ENDMDL
