MODEL 1
REMARK minimizedAffinity -9.09494591
REMARK CNNscore 0.530121922
REMARK CNNaffinity 7.33985138
REMARK  15 active torsions:
REMARK  status: ('A' for Active; 'I' for Inactive)
REMARK    1  A    between atoms: C2_2  and  C3_3 
REMARK    2  A    between atoms: C2_2  and  C4_6 
REMARK    3  A    between atoms: C3_3  and  O2_5 
REMARK    4  A    between atoms: C4_6  and  C5_8 
REMARK    5  A    between atoms: C5_8  and  O4_9 
REMARK    6  A    between atoms: C5_8  and  C6_10 
REMARK    7  A    between atoms: C6_10  and  C7_11 
REMARK    8  A    between atoms: C7_11  and  C9_13 
REMARK    9  A    between atoms: C11_15  and  O5_16 
REMARK   10  A    between atoms: C14_19  and  O6_20 
REMARK   11  A    between atoms: C21_28  and  C22_29 
REMARK   12  A    between atoms: C22_29  and  C23_30 
REMARK   13  A    between atoms: C23_30  and  O8_31 
REMARK   14  A    between atoms: C33_42  and  C34_43 
REMARK   15  A    between atoms: C35_44  and  C36_45 
ROOT
HETATM    1  C9  UNL     1      -5.359  46.535 -20.457  1.00  0.00     0.002 C 
HETATM    2  C10 UNL     1      -4.890  46.638 -18.971  1.00  0.00     0.049 C 
HETATM    3  C11 UNL     1      -4.223  48.023 -18.763  1.00  0.00     0.088 C 
HETATM    4  C12 UNL     1      -2.743  47.926 -18.447  1.00  0.00     0.011 C 
HETATM    5  C13 UNL     1      -1.881  48.901 -18.801  1.00  0.00     0.015 C 
HETATM    6  C14 UNL     1      -2.358  50.174 -19.479  1.00  0.00     0.108 C 
HETATM    7  C15 UNL     1      -3.362  49.772 -20.545  1.00  0.00    -0.018 C 
HETATM    8  C16 UNL     1      -3.216  50.079 -21.855  1.00  0.00     0.003 C 
HETATM    9  C17 UNL     1      -4.261  49.520 -22.811  1.00  0.00     0.157 C 
HETATM   10  O7  UNL     1      -4.548  50.126 -23.843  1.00  0.00    -0.293 OA
HETATM   11  C18 UNL     1      -4.958  48.199 -22.487  1.00  0.00     0.094 C 
HETATM   12  C19 UNL     1      -4.473  47.608 -21.159  1.00  0.00    -0.018 C 
HETATM   13  C20 UNL     1      -3.072  46.951 -21.422  1.00  0.00     0.017 C 
HETATM   14  C21 UNL     1      -4.490  48.797 -20.101  1.00  0.00     0.032 C 
HETATM   15  C24 UNL     1      -2.032  50.838 -22.460  1.00  0.00    -0.007 C 
HETATM   16  C25 UNL     1      -1.536  50.002 -23.685  1.00  0.00     0.021 C 
HETATM   17  C26 UNL     1      -2.497  52.251 -22.881  1.00  0.00     0.022 C 
HETATM   18  C27 UNL     1      -1.478  52.994 -23.729  1.00  0.00     0.080 C 
HETATM   19  C28 UNL     1      -0.063  52.581 -23.413  1.00  0.00     0.135 C 
HETATM   20  O9  UNL     1       0.814  52.703 -24.271  1.00  0.00    -0.297 OA
HETATM   21  C29 UNL     1       0.247  52.110 -21.981  1.00  0.00     0.018 C 
HETATM   22  C30 UNL     1       1.664  51.493 -21.978  1.00  0.00     0.023 C 
HETATM   23  C31 UNL     1       0.299  53.433 -21.187  1.00  0.00     0.023 C 
HETATM   24  C32 UNL     1      -0.803  50.998 -21.469  1.00  0.00     0.025 C 
HETATM   25  C33 UNL     1      -1.262  51.188 -19.981  1.00  0.00     0.057 C 
ENDROOT
BRANCH   1  26
HETATM   26  C7  UNL     1      -5.363  45.053 -20.963  1.00  0.00    -0.011 C 
HETATM   27  C8  UNL     1      -6.654  44.699 -21.705  1.00  0.00     0.010 C 
BRANCH  26  28
HETATM   28  C6  UNL     1      -5.149  44.078 -19.763  1.00  0.00     0.044 C 
BRANCH  28  29
HETATM   29  C5  UNL     1      -6.349  43.207 -19.351  1.00  0.00     0.188 C 
BRANCH  29  30
HETATM   30  C4  UNL     1      -5.991  41.714 -19.177  1.00  0.00     0.169 C 
HETATM   31  O3  UNL     1      -6.690  40.829 -19.677  1.00  0.00    -0.294 OA
BRANCH  30  32
HETATM   32  C2  UNL     1      -4.817  41.385 -18.273  1.00  0.00     0.152 C 
HETATM   33  C1  UNL     1      -5.254  40.352 -17.238  1.00  0.00     0.029 C 
BRANCH  32  34
HETATM   34  C3  UNL     1      -3.618  40.899 -19.041  1.00  0.00     0.150 C 
HETATM   35  O1  UNL     1      -2.456  41.238 -18.887  1.00  0.00    -0.649 OA
BRANCH  34  36
HETATM   36  O2  UNL     1      -3.950  40.045 -20.030  1.00  0.00    -0.776 OA
HETATM   37  H5  UNL     1      -3.089  39.790 -20.425  1.00  0.00     0.167 HD
ENDBRANCH  34  36
ENDBRANCH  32  34
ENDBRANCH  30  32
ENDBRANCH  29  30
BRANCH  29  38
HETATM   38  O4  UNL     1      -6.997  43.811 -18.243  1.00  0.00    -0.388 OA
HETATM   39  H7  UNL     1      -7.952  43.642 -18.320  1.00  0.00     0.210 HD
ENDBRANCH  29  38
ENDBRANCH  28  29
ENDBRANCH  26  28
ENDBRANCH   1  26
BRANCH   3  40
HETATM   40  O5  UNL     1      -4.815  48.673 -17.645  1.00  0.00    -0.385 OA
HETATM   41  H17 UNL     1      -4.336  48.409 -16.842  1.00  0.00     0.211 HD
ENDBRANCH   3  40
BRANCH  14  42
HETATM   42  C22 UNL     1      -5.798  49.706 -20.023  1.00  0.00     0.044 C 
BRANCH  42  43
HETATM   43  C23 UNL     1      -7.079  49.429 -20.814  1.00  0.00     0.165 C 
BRANCH  43  44
HETATM   44  O8  UNL     1      -7.291  50.349 -21.864  1.00  0.00    -0.401 OA
HETATM   45  H30 UNL     1      -7.999  49.995 -22.428  1.00  0.00     0.209 HD
ENDBRANCH  43  44
ENDBRANCH  42  43
ENDBRANCH  14  42
BRANCH   6  46
HETATM   46  O6  UNL     1      -3.027  50.894 -18.431  1.00  0.00    -0.380 OA
HETATM   47  H20 UNL     1      -3.921  51.120 -18.725  1.00  0.00     0.211 HD
ENDBRANCH   6  46
BRANCH  25  48
HETATM   48  C34 UNL     1      -0.074  51.210 -19.017  1.00  0.00    -0.017 C 
HETATM   49  C35 UNL     1      -0.074  51.853 -17.838  1.00  0.00     0.008 C 
BRANCH  49  50
HETATM   50  C36 UNL     1       1.070  51.872 -16.917  1.00  0.00    -0.036 A 
HETATM   51  C37 UNL     1       2.190  52.651 -17.238  1.00  0.00     0.011 A 
HETATM   52  C38 UNL     1       3.285  52.713 -16.374  1.00  0.00     0.001 A 
HETATM   53  C39 UNL     1       3.268  52.005 -15.173  1.00  0.00     0.000 A 
HETATM   54  C40 UNL     1       2.156  51.238 -14.837  1.00  0.00     0.001 A 
HETATM   55  C41 UNL     1       1.058  51.175 -15.702  1.00  0.00     0.011 A 
ENDBRANCH  49  50
ENDBRANCH  25  48
TORSDOF 15
ENDMDL
MODEL 2
REMARK minimizedAffinity -7.71599865
REMARK CNNscore 0.440030962
REMARK CNNaffinity 6.11671448
REMARK  15 active torsions:
REMARK  status: ('A' for Active; 'I' for Inactive)
REMARK    1  A    between atoms: C2_2  and  C3_3 
REMARK    2  A    between atoms: C2_2  and  C4_6 
REMARK    3  A    between atoms: C3_3  and  O2_5 
REMARK    4  A    between atoms: C4_6  and  C5_8 
REMARK    5  A    between atoms: C5_8  and  O4_9 
REMARK    6  A    between atoms: C5_8  and  C6_10 
REMARK    7  A    between atoms: C6_10  and  C7_11 
REMARK    8  A    between atoms: C7_11  and  C9_13 
REMARK    9  A    between atoms: C11_15  and  O5_16 
REMARK   10  A    between atoms: C14_19  and  O6_20 
REMARK   11  A    between atoms: C21_28  and  C22_29 
REMARK   12  A    between atoms: C22_29  and  C23_30 
REMARK   13  A    between atoms: C23_30  and  O8_31 
REMARK   14  A    between atoms: C33_42  and  C34_43 
REMARK   15  A    between atoms: C35_44  and  C36_45 
ROOT
HETATM    1  C9  UNL     1     -11.310  43.701 -27.870  1.00  0.00     0.002 C 
HETATM    2  C10 UNL     1     -10.622  44.220 -26.568  1.00  0.00     0.049 C 
HETATM    3  C11 UNL     1     -11.655  44.169 -25.414  1.00  0.00     0.088 C 
HETATM    4  C12 UNL     1     -12.020  45.542 -24.882  1.00  0.00     0.011 C 
HETATM    5  C13 UNL     1     -13.236  45.796 -24.357  1.00  0.00     0.015 C 
HETATM    6  C14 UNL     1     -14.281  44.703 -24.213  1.00  0.00     0.108 C 
HETATM    7  C15 UNL     1     -14.283  43.903 -25.504  1.00  0.00    -0.018 C 
HETATM    8  C16 UNL     1     -15.381  43.745 -26.278  1.00  0.00     0.003 C 
HETATM    9  C17 UNL     1     -15.193  42.995 -27.590  1.00  0.00     0.157 C 
HETATM   10  O7  UNL     1     -16.120  42.348 -28.074  1.00  0.00    -0.293 OA
HETATM   11  C18 UNL     1     -13.846  43.047 -28.309  1.00  0.00     0.094 C 
HETATM   12  C19 UNL     1     -12.822  43.892 -27.544  1.00  0.00    -0.018 C 
HETATM   13  C20 UNL     1     -13.166  45.400 -27.811  1.00  0.00     0.017 C 
HETATM   14  C21 UNL     1     -12.895  43.426 -26.024  1.00  0.00     0.032 C 
HETATM   15  C24 UNL     1     -16.756  44.356 -25.999  1.00  0.00    -0.007 C 
HETATM   16  C25 UNL     1     -17.220  45.055 -27.318  1.00  0.00     0.021 C 
HETATM   17  C26 UNL     1     -17.731  43.235 -25.571  1.00  0.00     0.022 C 
HETATM   18  C27 UNL     1     -19.183  43.683 -25.525  1.00  0.00     0.080 C 
HETATM   19  C28 UNL     1     -19.317  45.149 -25.201  1.00  0.00     0.135 C 
HETATM   20  O9  UNL     1     -20.318  45.767 -25.572  1.00  0.00    -0.297 OA
HETATM   21  C29 UNL     1     -18.229  45.796 -24.325  1.00  0.00     0.018 C 
HETATM   22  C30 UNL     1     -18.435  47.328 -24.363  1.00  0.00     0.023 C 
HETATM   23  C31 UNL     1     -18.587  45.299 -22.908  1.00  0.00     0.023 C 
HETATM   24  C32 UNL     1     -16.744  45.460 -24.858  1.00  0.00     0.025 C 
HETATM   25  C33 UNL     1     -15.717  45.127 -23.721  1.00  0.00     0.057 C 
ENDROOT
BRANCH   1  26
HETATM   26  C7  UNL     1     -10.687  44.346 -29.154  1.00  0.00    -0.011 C 
HETATM   27  C8  UNL     1     -10.141  43.294 -30.123  1.00  0.00     0.010 C 
BRANCH  26  28
HETATM   28  C6  UNL     1      -9.556  45.345 -28.754  1.00  0.00     0.044 C 
BRANCH  28  29
HETATM   29  C5  UNL     1      -9.649  46.769 -29.330  1.00  0.00     0.188 C 
BRANCH  29  30
HETATM   30  C4  UNL     1      -9.066  47.849 -28.391  1.00  0.00     0.169 C 
HETATM   31  O3  UNL     1      -8.318  48.730 -28.822  1.00  0.00    -0.294 OA
BRANCH  30  32
HETATM   32  C2  UNL     1      -9.357  47.707 -26.908  1.00  0.00     0.152 C 
HETATM   33  C1  UNL     1      -8.041  47.697 -26.136  1.00  0.00     0.029 C 
BRANCH  32  34
HETATM   34  C3  UNL     1     -10.270  48.790 -26.397  1.00  0.00     0.150 C 
HETATM   35  O1  UNL     1     -11.478  48.723 -26.242  1.00  0.00    -0.649 OA
BRANCH  34  36
HETATM   36  O2  UNL     1      -9.619  49.946 -26.162  1.00  0.00    -0.776 OA
HETATM   37  H5  UNL     1     -10.313  50.546 -25.814  1.00  0.00     0.167 HD
ENDBRANCH  34  36
ENDBRANCH  32  34
ENDBRANCH  30  32
ENDBRANCH  29  30
BRANCH  29  38
HETATM   38  O4  UNL     1      -9.130  46.765 -30.651  1.00  0.00    -0.388 OA
HETATM   39  H7  UNL     1      -9.639  47.405 -31.178  1.00  0.00     0.210 HD
ENDBRANCH  29  38
ENDBRANCH  28  29
ENDBRANCH  26  28
ENDBRANCH   1  26
BRANCH   3  40
HETATM   40  O5  UNL     1     -11.102  43.462 -24.310  1.00  0.00    -0.385 OA
HETATM   41  H17 UNL     1     -10.622  44.092 -23.747  1.00  0.00     0.211 HD
ENDBRANCH   3  40
BRANCH  14  42
HETATM   42  C22 UNL     1     -12.871  41.860 -25.722  1.00  0.00     0.044 C 
BRANCH  42  43
HETATM   43  C23 UNL     1     -13.850  41.157 -24.780  1.00  0.00     0.165 C 
BRANCH  43  44
HETATM   44  O8  UNL     1     -14.446  40.012 -25.353  1.00  0.00    -0.401 OA
HETATM   45  H30 UNL     1     -14.889  39.522 -24.641  1.00  0.00     0.209 HD
ENDBRANCH  43  44
ENDBRANCH  42  43
ENDBRANCH  14  42
BRANCH   6  46
HETATM   46  O6  UNL     1     -13.784  43.889 -23.139  1.00  0.00    -0.380 OA
HETATM   47  H20 UNL     1     -13.738  42.969 -23.436  1.00  0.00     0.211 HD
ENDBRANCH   6  46
BRANCH  25  48
HETATM   48  C34 UNL     1     -15.616  46.257 -22.695  1.00  0.00    -0.017 C 
HETATM   49  C35 UNL     1     -15.334  46.071 -21.395  1.00  0.00     0.008 C 
BRANCH  49  50
HETATM   50  C36 UNL     1     -15.241  47.160 -20.414  1.00  0.00    -0.036 A 
HETATM   51  C37 UNL     1     -16.218  47.263 -19.416  1.00  0.00     0.011 A 
HETATM   52  C38 UNL     1     -16.147  48.270 -18.451  1.00  0.00     0.001 A 
HETATM   53  C39 UNL     1     -15.091  49.180 -18.468  1.00  0.00     0.000 A 
HETATM   54  C40 UNL     1     -14.107  49.080 -19.448  1.00  0.00     0.001 A 
HETATM   55  C41 UNL     1     -14.177  48.072 -20.415  1.00  0.00     0.011 A 
ENDBRANCH  49  50
ENDBRANCH  25  48
TORSDOF 15
ENDMDL
MODEL 3
REMARK minimizedAffinity -8.76682281
REMARK CNNscore 0.379474342
REMARK CNNaffinity 6.93152618
REMARK  15 active torsions:
REMARK  status: ('A' for Active; 'I' for Inactive)
REMARK    1  A    between atoms: C2_2  and  C3_3 
REMARK    2  A    between atoms: C2_2  and  C4_6 
REMARK    3  A    between atoms: C3_3  and  O2_5 
REMARK    4  A    between atoms: C4_6  and  C5_8 
REMARK    5  A    between atoms: C5_8  and  O4_9 
REMARK    6  A    between atoms: C5_8  and  C6_10 
REMARK    7  A    between atoms: C6_10  and  C7_11 
REMARK    8  A    between atoms: C7_11  and  C9_13 
REMARK    9  A    between atoms: C11_15  and  O5_16 
REMARK   10  A    between atoms: C14_19  and  O6_20 
REMARK   11  A    between atoms: C21_28  and  C22_29 
REMARK   12  A    between atoms: C22_29  and  C23_30 
REMARK   13  A    between atoms: C23_30  and  O8_31 
REMARK   14  A    between atoms: C33_42  and  C34_43 
REMARK   15  A    between atoms: C35_44  and  C36_45 
ROOT
HETATM    1  C9  UNL     1      -8.277  47.790 -20.058  1.00  0.00     0.002 C 
HETATM    2  C10 UNL     1      -8.198  47.943 -21.610  1.00  0.00     0.049 C 
HETATM    3  C11 UNL     1      -6.704  47.988 -22.022  1.00  0.00     0.088 C 
HETATM    4  C12 UNL     1      -6.291  49.323 -22.613  1.00  0.00     0.011 C 
HETATM    5  C13 UNL     1      -5.032  49.791 -22.489  1.00  0.00     0.015 C 
HETATM    6  C14 UNL     1      -3.948  48.976 -21.805  1.00  0.00     0.108 C 
HETATM    7  C15 UNL     1      -4.550  48.384 -20.544  1.00  0.00    -0.018 C 
HETATM    8  C16 UNL     1      -4.049  48.606 -19.307  1.00  0.00     0.003 C 
HETATM    9  C17 UNL     1      -4.826  48.019 -18.136  1.00  0.00     0.157 C 
HETATM   10  O7  UNL     1      -4.242  47.690 -17.105  1.00  0.00    -0.293 OA
HETATM   11  C18 UNL     1      -6.340  47.839 -18.243  1.00  0.00     0.094 C 
HETATM   12  C19 UNL     1      -6.875  48.297 -19.603  1.00  0.00    -0.018 C 
HETATM   13  C20 UNL     1      -6.936  49.865 -19.579  1.00  0.00     0.017 C 
HETATM   14  C21 UNL     1      -5.919  47.659 -20.705  1.00  0.00     0.032 C 
HETATM   15  C24 UNL     1      -2.840  49.489 -18.987  1.00  0.00    -0.007 C 
HETATM   16  C25 UNL     1      -3.274  50.454 -17.835  1.00  0.00     0.021 C 
HETATM   17  C26 UNL     1      -1.654  48.592 -18.566  1.00  0.00     0.022 C 
HETATM   18  C27 UNL     1      -0.489  49.369 -17.975  1.00  0.00     0.080 C 
HETATM   19  C28 UNL     1      -0.393  50.766 -18.535  1.00  0.00     0.135 C 
HETATM   20  O9  UNL     1       0.149  51.653 -17.872  1.00  0.00    -0.297 OA
HETATM   21  C29 UNL     1      -0.895  51.002 -19.971  1.00  0.00     0.018 C 
HETATM   22  C30 UNL     1      -0.946  52.528 -20.212  1.00  0.00     0.023 C 
HETATM   23  C31 UNL     1       0.245  50.418 -20.834  1.00  0.00     0.023 C 
HETATM   24  C32 UNL     1      -2.368  50.391 -20.205  1.00  0.00     0.025 C 
HETATM   25  C33 UNL     1      -2.548  49.666 -21.584  1.00  0.00     0.057 C 
ENDROOT
BRANCH   1  26
HETATM   26  C7  UNL     1      -9.581  48.433 -19.476  1.00  0.00    -0.011 C 
HETATM   27  C8  UNL     1      -9.635  48.350 -17.949  1.00  0.00     0.010 C 
BRANCH  26  28
HETATM   28  C6  UNL     1     -10.838  47.745 -20.096  1.00  0.00     0.044 C 
BRANCH  28  29
HETATM   29  C5  UNL     1     -12.037  47.512 -19.159  1.00  0.00     0.188 C 
BRANCH  29  30
HETATM   30  C4  UNL     1     -13.401  47.786 -19.832  1.00  0.00     0.169 C 
HETATM   31  O3  UNL     1     -13.469  48.364 -20.920  1.00  0.00    -0.294 OA
BRANCH  30  32
HETATM   32  C2  UNL     1     -14.647  47.422 -19.046  1.00  0.00     0.152 C 
HETATM   33  C1  UNL     1     -14.887  45.919 -19.152  1.00  0.00     0.029 C 
BRANCH  32  34
HETATM   34  C3  UNL     1     -14.562  47.851 -17.606  1.00  0.00     0.150 C 
HETATM   35  O1  UNL     1     -14.154  47.193 -16.663  1.00  0.00    -0.649 OA
BRANCH  34  36
HETATM   36  O2  UNL     1     -15.066  49.085 -17.403  1.00  0.00    -0.776 OA
HETATM   37  H5  UNL     1     -14.927  49.246 -16.446  1.00  0.00     0.167 HD
ENDBRANCH  34  36
ENDBRANCH  32  34
ENDBRANCH  30  32
ENDBRANCH  29  30
BRANCH  29  38
HETATM   38  O4  UNL     1     -11.904  46.238 -18.550  1.00  0.00    -0.388 OA
HETATM   39  H7  UNL     1     -12.262  46.295 -17.647  1.00  0.00     0.210 HD
ENDBRANCH  29  38
ENDBRANCH  28  29
ENDBRANCH  26  28
ENDBRANCH   1  26
BRANCH   3  40
HETATM   40  O5  UNL     1      -6.462  47.024 -23.040  1.00  0.00    -0.385 OA
HETATM   41  H17 UNL     1      -6.631  47.435 -23.904  1.00  0.00     0.211 HD
ENDBRANCH   3  40
BRANCH  14  42
HETATM   42  C22 UNL     1      -5.568  46.109 -20.579  1.00  0.00     0.044 C 
BRANCH  42  43
HETATM   43  C23 UNL     1      -4.144  45.549 -20.628  1.00  0.00     0.165 C 
BRANCH  43  44
HETATM   44  O8  UNL     1      -4.060  44.210 -20.188  1.00  0.00    -0.401 OA
HETATM   45  H30 UNL     1      -3.182  43.873 -20.432  1.00  0.00     0.209 HD
ENDBRANCH  43  44
ENDBRANCH  42  43
ENDBRANCH  14  42
BRANCH   6  46
HETATM   46  O6  UNL     1      -3.660  47.926 -22.744  1.00  0.00    -0.380 OA
HETATM   47  H20 UNL     1      -3.741  47.072 -22.296  1.00  0.00     0.211 HD
ENDBRANCH   6  46
BRANCH  25  48
HETATM   48  C34 UNL     1      -2.215  50.586 -22.760  1.00  0.00    -0.017 C 
HETATM   49  C35 UNL     1      -1.361  50.269 -23.746  1.00  0.00     0.008 C 
BRANCH  49  50
HETATM   50  C36 UNL     1      -1.045  51.158 -24.872  1.00  0.00    -0.036 A 
HETATM   51  C37 UNL     1      -0.516  52.428 -24.607  1.00  0.00     0.011 A 
HETATM   52  C38 UNL     1      -0.179  53.290 -25.653  1.00  0.00     0.001 A 
HETATM   53  C39 UNL     1      -0.358  52.887 -26.976  1.00  0.00     0.000 A 
HETATM   54  C40 UNL     1      -0.871  51.622 -27.251  1.00  0.00     0.001 A 
HETATM   55  C41 UNL     1      -1.208  50.758 -26.204  1.00  0.00     0.011 A 
ENDBRANCH  49  50
ENDBRANCH  25  48
TORSDOF 15
ENDMDL
MODEL 4
REMARK minimizedAffinity -8.90146542
REMARK CNNscore 0.378324747
REMARK CNNaffinity 6.98974371
REMARK  15 active torsions:
REMARK  status: ('A' for Active; 'I' for Inactive)
REMARK    1  A    between atoms: C2_2  and  C3_3 
REMARK    2  A    between atoms: C2_2  and  C4_6 
REMARK    3  A    between atoms: C3_3  and  O2_5 
REMARK    4  A    between atoms: C4_6  and  C5_8 
REMARK    5  A    between atoms: C5_8  and  O4_9 
REMARK    6  A    between atoms: C5_8  and  C6_10 
REMARK    7  A    between atoms: C6_10  and  C7_11 
REMARK    8  A    between atoms: C7_11  and  C9_13 
REMARK    9  A    between atoms: C11_15  and  O5_16 
REMARK   10  A    between atoms: C14_19  and  O6_20 
REMARK   11  A    between atoms: C21_28  and  C22_29 
REMARK   12  A    between atoms: C22_29  and  C23_30 
REMARK   13  A    between atoms: C23_30  and  O8_31 
REMARK   14  A    between atoms: C33_42  and  C34_43 
REMARK   15  A    between atoms: C35_44  and  C36_45 
ROOT
HETATM    1  C9  UNL     1      -5.581  46.926 -20.317  1.00  0.00     0.002 C 
HETATM    2  C10 UNL     1      -5.116  47.060 -18.831  1.00  0.00     0.049 C 
HETATM    3  C11 UNL     1      -4.373  48.411 -18.672  1.00  0.00     0.088 C 
HETATM    4  C12 UNL     1      -2.902  48.243 -18.339  1.00  0.00     0.011 C 
HETATM    5  C13 UNL     1      -1.983  49.152 -18.724  1.00  0.00     0.015 C 
HETATM    6  C14 UNL     1      -2.382  50.422 -19.454  1.00  0.00     0.108 C 
HETATM    7  C15 UNL     1      -3.400  50.037 -20.513  1.00  0.00    -0.018 C 
HETATM    8  C16 UNL     1      -3.228  50.284 -21.832  1.00  0.00     0.003 C 
HETATM    9  C17 UNL     1      -4.298  49.748 -22.775  1.00  0.00     0.157 C 
HETATM   10  O7  UNL     1      -4.542  50.328 -23.832  1.00  0.00    -0.293 OA
HETATM   11  C18 UNL     1      -5.071  48.483 -22.406  1.00  0.00     0.094 C 
HETATM   12  C19 UNL     1      -4.631  47.918 -21.052  1.00  0.00    -0.018 C 
HETATM   13  C20 UNL     1      -3.268  47.172 -21.277  1.00  0.00     0.017 C 
HETATM   14  C21 UNL     1      -4.586  49.146 -20.041  1.00  0.00     0.032 C 
HETATM   15  C24 UNL     1      -1.999  50.949 -22.456  1.00  0.00    -0.007 C 
HETATM   16  C25 UNL     1      -1.544  50.039 -23.644  1.00  0.00     0.021 C 
HETATM   17  C26 UNL     1      -2.379  52.368 -22.935  1.00  0.00     0.022 C 
HETATM   18  C27 UNL     1      -1.314  53.018 -23.803  1.00  0.00     0.080 C 
HETATM   19  C28 UNL     1       0.073  52.537 -23.459  1.00  0.00     0.135 C 
HETATM   20  O9  UNL     1       0.962  52.575 -24.313  1.00  0.00    -0.297 OA
HETATM   21  C29 UNL     1       0.346  52.106 -22.007  1.00  0.00     0.018 C 
HETATM   22  C30 UNL     1       1.726  51.409 -21.968  1.00  0.00     0.023 C 
HETATM   23  C31 UNL     1       0.470  53.454 -21.265  1.00  0.00     0.023 C 
HETATM   24  C32 UNL     1      -0.769  51.077 -21.461  1.00  0.00     0.025 C 
HETATM   25  C33 UNL     1      -1.225  51.352 -19.986  1.00  0.00     0.057 C 
ENDROOT
BRANCH   1  26
HETATM   26  C7  UNL     1      -5.667  45.428 -20.765  1.00  0.00    -0.011 C 
HETATM   27  C8  UNL     1      -4.293  44.755 -20.798  1.00  0.00     0.010 C 
BRANCH  26  28
HETATM   28  C6  UNL     1      -6.347  45.328 -22.167  1.00  0.00     0.044 C 
BRANCH  28  29
HETATM   29  C5  UNL     1      -7.669  46.095 -22.356  1.00  0.00     0.188 C 
BRANCH  29  30
HETATM   30  C4  UNL     1      -8.127  46.171 -23.829  1.00  0.00     0.169 C 
HETATM   31  O3  UNL     1      -8.889  45.324 -24.303  1.00  0.00    -0.294 OA
BRANCH  30  32
HETATM   32  C2  UNL     1      -7.509  47.256 -24.691  1.00  0.00     0.152 C 
HETATM   33  C1  UNL     1      -7.371  46.745 -26.122  1.00  0.00     0.029 C 
BRANCH  32  34
HETATM   34  C3  UNL     1      -8.299  48.537 -24.655  1.00  0.00     0.150 C 
HETATM   35  O1  UNL     1      -9.498  48.670 -24.838  1.00  0.00    -0.649 OA
BRANCH  34  36
HETATM   36  O2  UNL     1      -7.520  49.618 -24.452  1.00  0.00    -0.776 OA
HETATM   37  H5  UNL     1      -8.153  50.368 -24.424  1.00  0.00     0.167 HD
ENDBRANCH  34  36
ENDBRANCH  32  34
ENDBRANCH  30  32
ENDBRANCH  29  30
BRANCH  29  38
HETATM   38  O4  UNL     1      -8.630  45.585 -21.445  1.00  0.00    -0.388 OA
HETATM   39  H7  UNL     1      -9.198  46.321 -21.160  1.00  0.00     0.210 HD
ENDBRANCH  29  38
ENDBRANCH  28  29
ENDBRANCH  26  28
ENDBRANCH   1  26
BRANCH   3  40
HETATM   40  O5  UNL     1      -4.933  49.137 -17.585  1.00  0.00    -0.385 OA
HETATM   41  H17 UNL     1      -4.475  48.879 -16.768  1.00  0.00     0.211 HD
ENDBRANCH   3  40
BRANCH  14  42
HETATM   42  C22 UNL     1      -5.840  50.132 -20.010  1.00  0.00     0.044 C 
BRANCH  42  43
HETATM   43  C23 UNL     1      -7.255  49.726 -20.429  1.00  0.00     0.165 C 
BRANCH  43  44
HETATM   44  O8  UNL     1      -7.634  50.254 -21.683  1.00  0.00    -0.401 OA
HETATM   45  H30 UNL     1      -8.446  49.799 -21.962  1.00  0.00     0.209 HD
ENDBRANCH  43  44
ENDBRANCH  42  43
ENDBRANCH  14  42
BRANCH   6  46
HETATM   46  O6  UNL     1      -3.015  51.220 -18.441  1.00  0.00    -0.380 OA
HETATM   47  H20 UNL     1      -3.892  51.486 -18.751  1.00  0.00     0.211 HD
ENDBRANCH   6  46
BRANCH  25  48
HETATM   48  C34 UNL     1      -0.045  51.343 -19.013  1.00  0.00    -0.017 C 
HETATM   49  C35 UNL     1       0.000  52.060 -17.878  1.00  0.00     0.008 C 
BRANCH  49  50
HETATM   50  C36 UNL     1       1.137  52.049 -16.949  1.00  0.00    -0.036 A 
HETATM   51  C37 UNL     1       1.056  51.274 -15.784  1.00  0.00     0.011 A 
HETATM   52  C38 UNL     1       2.128  51.219 -14.890  1.00  0.00     0.001 A 
HETATM   53  C39 UNL     1       3.297  51.929 -15.157  1.00  0.00     0.000 A 
HETATM   54  C40 UNL     1       3.394  52.693 -16.318  1.00  0.00     0.001 A 
HETATM   55  C41 UNL     1       2.321  52.749 -17.213  1.00  0.00     0.011 A 
ENDBRANCH  49  50
ENDBRANCH  25  48
TORSDOF 15
ENDMDL
MODEL 5
REMARK minimizedAffinity -7.84169483
REMARK CNNscore 0.361192673
REMARK CNNaffinity 5.89043379
REMARK  15 active torsions:
REMARK  status: ('A' for Active; 'I' for Inactive)
REMARK    1  A    between atoms: C2_2  and  C3_3 
REMARK    2  A    between atoms: C2_2  and  C4_6 
REMARK    3  A    between atoms: C3_3  and  O2_5 
REMARK    4  A    between atoms: C4_6  and  C5_8 
REMARK    5  A    between atoms: C5_8  and  O4_9 
REMARK    6  A    between atoms: C5_8  and  C6_10 
REMARK    7  A    between atoms: C6_10  and  C7_11 
REMARK    8  A    between atoms: C7_11  and  C9_13 
REMARK    9  A    between atoms: C11_15  and  O5_16 
REMARK   10  A    between atoms: C14_19  and  O6_20 
REMARK   11  A    between atoms: C21_28  and  C22_29 
REMARK   12  A    between atoms: C22_29  and  C23_30 
REMARK   13  A    between atoms: C23_30  and  O8_31 
REMARK   14  A    between atoms: C33_42  and  C34_43 
REMARK   15  A    between atoms: C35_44  and  C36_45 
ROOT
HETATM    1  C9  UNL     1     -10.049  45.664 -30.474  1.00  0.00     0.002 C 
HETATM    2  C10 UNL     1     -11.344  46.471 -30.808  1.00  0.00     0.049 C 
HETATM    3  C11 UNL     1     -11.879  47.101 -29.496  1.00  0.00     0.088 C 
HETATM    4  C12 UNL     1     -13.226  46.544 -29.077  1.00  0.00     0.011 C 
HETATM    5  C13 UNL     1     -13.588  46.473 -27.779  1.00  0.00     0.015 C 
HETATM    6  C14 UNL     1     -12.690  47.006 -26.676  1.00  0.00     0.108 C 
HETATM    7  C15 UNL     1     -11.274  46.553 -26.984  1.00  0.00    -0.018 C 
HETATM    8  C16 UNL     1     -10.531  45.809 -26.132  1.00  0.00     0.003 C 
HETATM    9  C17 UNL     1      -9.165  45.355 -26.630  1.00  0.00     0.157 C 
HETATM   10  O7  UNL     1      -8.243  45.174 -25.837  1.00  0.00    -0.293 OA
HETATM   11  C18 UNL     1      -8.939  45.124 -28.124  1.00  0.00     0.094 C 
HETATM   12  C19 UNL     1     -10.200  45.412 -28.944  1.00  0.00    -0.018 C 
HETATM   13  C20 UNL     1     -11.164  44.184 -28.770  1.00  0.00     0.017 C 
HETATM   14  C21 UNL     1     -10.764  46.810 -28.432  1.00  0.00     0.032 C 
HETATM   15  C24 UNL     1     -10.998  45.293 -24.769  1.00  0.00    -0.007 C 
HETATM   16  C25 UNL     1     -10.669  43.765 -24.723  1.00  0.00     0.021 C 
HETATM   17  C26 UNL     1     -10.262  46.071 -23.654  1.00  0.00     0.022 C 
HETATM   18  C27 UNL     1     -10.449  45.467 -22.272  1.00  0.00     0.080 C 
HETATM   19  C28 UNL     1     -11.770  44.754 -22.135  1.00  0.00     0.135 C 
HETATM   20  O9  UNL     1     -11.892  43.847 -21.310  1.00  0.00    -0.297 OA
HETATM   21  C29 UNL     1     -12.954  45.265 -22.976  1.00  0.00     0.018 C 
HETATM   22  C30 UNL     1     -14.095  44.227 -22.873  1.00  0.00     0.023 C 
HETATM   23  C31 UNL     1     -13.393  46.536 -22.217  1.00  0.00     0.023 C 
HETATM   24  C32 UNL     1     -12.559  45.448 -24.529  1.00  0.00     0.025 C 
HETATM   25  C33 UNL     1     -13.135  46.750 -25.186  1.00  0.00     0.057 C 
ENDROOT
BRANCH   1  26
HETATM   26  C7  UNL     1      -9.842  44.464 -31.460  1.00  0.00    -0.011 C 
HETATM   27  C8  UNL     1      -8.728  44.735 -32.474  1.00  0.00     0.010 C 
BRANCH  26  28
HETATM   28  C6  UNL     1     -11.178  44.147 -32.203  1.00  0.00     0.044 C 
BRANCH  28  29
HETATM   29  C5  UNL     1     -11.198  44.370 -33.725  1.00  0.00     0.188 C 
BRANCH  29  30
HETATM   30  C4  UNL     1     -11.005  43.070 -34.537  1.00  0.00     0.169 C 
HETATM   31  O3  UNL     1     -11.549  42.017 -34.192  1.00  0.00    -0.294 OA
BRANCH  30  32
HETATM   32  C2  UNL     1     -10.031  43.117 -35.700  1.00  0.00     0.152 C 
HETATM   33  C1  UNL     1      -9.679  41.693 -36.120  1.00  0.00     0.029 C 
BRANCH  32  34
HETATM   34  C3  UNL     1     -10.568  43.902 -36.866  1.00  0.00     0.150 C 
HETATM   35  O1  UNL     1     -11.723  44.245 -37.056  1.00  0.00    -0.649 OA
BRANCH  34  36
HETATM   36  O2  UNL     1      -9.622  44.168 -37.790  1.00  0.00    -0.776 OA
HETATM   37  H5  UNL     1     -10.092  44.697 -38.469  1.00  0.00     0.167 HD
ENDBRANCH  34  36
ENDBRANCH  32  34
ENDBRANCH  30  32
ENDBRANCH  29  30
BRANCH  29  38
HETATM   38  O4  UNL     1     -12.346  45.134 -34.062  1.00  0.00    -0.388 OA
HETATM   39  H7  UNL     1     -12.116  45.713 -34.809  1.00  0.00     0.210 HD
ENDBRANCH  29  38
ENDBRANCH  28  29
ENDBRANCH  26  28
ENDBRANCH   1  26
BRANCH   3  40
HETATM   40  O5  UNL     1     -12.081  48.496 -29.687  1.00  0.00    -0.385 OA
HETATM   41  H17 UNL     1     -12.980  48.637 -30.029  1.00  0.00     0.211 HD
ENDBRANCH   3  40
BRANCH  14  42
HETATM   42  C22 UNL     1      -9.735  48.020 -28.287  1.00  0.00     0.044 C 
BRANCH  42  43
HETATM   43  C23 UNL     1      -8.722  48.413 -29.365  1.00  0.00     0.165 C 
BRANCH  43  44
HETATM   44  O8  UNL     1      -8.807  49.774 -29.734  1.00  0.00    -0.401 OA
HETATM   45  H30 UNL     1      -8.019  49.986 -30.262  1.00  0.00     0.209 HD
ENDBRANCH  43  44
ENDBRANCH  42  43
ENDBRANCH  14  42
BRANCH   6  46
HETATM   46  O6  UNL     1     -12.783  48.434 -26.814  1.00  0.00    -0.380 OA
HETATM   47  H20 UNL     1     -11.891  48.802 -26.889  1.00  0.00     0.211 HD
ENDBRANCH   6  46
BRANCH  25  48
HETATM   48  C34 UNL     1     -14.658  46.825 -25.064  1.00  0.00    -0.017 C 
HETATM   49  C35 UNL     1     -15.493  45.847 -25.450  1.00  0.00     0.008 C 
BRANCH  49  50
HETATM   50  C36 UNL     1     -16.955  45.926 -25.332  1.00  0.00    -0.036 A 
HETATM   51  C37 UNL     1     -17.517  46.867 -24.459  1.00  0.00     0.011 A 
HETATM   52  C38 UNL     1     -18.903  46.989 -24.340  1.00  0.00     0.001 A 
HETATM   53  C39 UNL     1     -19.743  46.177 -25.101  1.00  0.00     0.000 A 
HETATM   54  C40 UNL     1     -19.196  45.247 -25.981  1.00  0.00     0.001 A 
HETATM   55  C41 UNL     1     -17.808  45.125 -26.101  1.00  0.00     0.011 A 
ENDBRANCH  49  50
ENDBRANCH  25  48
TORSDOF 15
ENDMDL
MODEL 6
REMARK minimizedAffinity -8.07371044
REMARK CNNscore 0.341137022
REMARK CNNaffinity 6.48931503
REMARK  15 active torsions:
REMARK  status: ('A' for Active; 'I' for Inactive)
REMARK    1  A    between atoms: C2_2  and  C3_3 
REMARK    2  A    between atoms: C2_2  and  C4_6 
REMARK    3  A    between atoms: C3_3  and  O2_5 
REMARK    4  A    between atoms: C4_6  and  C5_8 
REMARK    5  A    between atoms: C5_8  and  O4_9 
REMARK    6  A    between atoms: C5_8  and  C6_10 
REMARK    7  A    between atoms: C6_10  and  C7_11 
REMARK    8  A    between atoms: C7_11  and  C9_13 
REMARK    9  A    between atoms: C11_15  and  O5_16 
REMARK   10  A    between atoms: C14_19  and  O6_20 
REMARK   11  A    between atoms: C21_28  and  C22_29 
REMARK   12  A    between atoms: C22_29  and  C23_30 
REMARK   13  A    between atoms: C23_30  and  O8_31 
REMARK   14  A    between atoms: C33_42  and  C34_43 
REMARK   15  A    between atoms: C35_44  and  C36_45 
ROOT
HETATM    1  C9  UNL     1      -9.818  46.222 -19.007  1.00  0.00     0.002 C 
HETATM    2  C10 UNL     1     -10.589  45.847 -20.313  1.00  0.00     0.049 C 
HETATM    3  C11 UNL     1      -9.568  45.763 -21.476  1.00  0.00     0.088 C 
HETATM    4  C12 UNL     1      -9.789  46.826 -22.536  1.00  0.00     0.011 C 
HETATM    5  C13 UNL     1      -8.766  47.319 -23.264  1.00  0.00     0.015 C 
HETATM    6  C14 UNL     1      -7.352  46.790 -23.105  1.00  0.00     0.108 C 
HETATM    7  C15 UNL     1      -7.084  46.650 -21.617  1.00  0.00    -0.018 C 
HETATM    8  C16 UNL     1      -6.066  47.277 -20.984  1.00  0.00     0.003 C 
HETATM    9  C17 UNL     1      -5.991  47.110 -19.472  1.00  0.00     0.157 C 
HETATM   10  O7  UNL     1      -4.906  47.150 -18.894  1.00  0.00    -0.293 OA
HETATM   11  C18 UNL     1      -7.272  46.893 -18.667  1.00  0.00     0.094 C 
HETATM   12  C19 UNL     1      -8.513  46.864 -19.565  1.00  0.00    -0.018 C 
HETATM   13  C20 UNL     1      -8.852  48.349 -19.944  1.00  0.00     0.017 C 
HETATM   14  C21 UNL     1      -8.167  45.902 -20.786  1.00  0.00     0.032 C 
HETATM   15  C24 UNL     1      -5.063  48.227 -21.644  1.00  0.00    -0.007 C 
HETATM   16  C25 UNL     1      -5.011  49.518 -20.763  1.00  0.00     0.021 C 
HETATM   17  C26 UNL     1      -3.684  47.532 -21.724  1.00  0.00     0.022 C 
HETATM   18  C27 UNL     1      -2.557  48.472 -22.119  1.00  0.00     0.080 C 
HETATM   19  C28 UNL     1      -3.036  49.601 -22.996  1.00  0.00     0.135 C 
HETATM   20  O9  UNL     1      -2.411  50.663 -23.018  1.00  0.00    -0.297 OA
HETATM   21  C29 UNL     1      -4.245  49.338 -23.911  1.00  0.00     0.018 C 
HETATM   22  C30 UNL     1      -4.707  50.695 -24.491  1.00  0.00     0.023 C 
HETATM   23  C31 UNL     1      -3.633  48.509 -25.060  1.00  0.00     0.023 C 
HETATM   24  C32 UNL     1      -5.477  48.671 -23.111  1.00  0.00     0.025 C 
HETATM   25  C33 UNL     1      -6.204  47.525 -23.896  1.00  0.00     0.057 C 
ENDROOT
BRANCH   1  26
HETATM   26  C7  UNL     1     -10.726  47.012 -18.004  1.00  0.00    -0.011 C 
HETATM   27  C8  UNL     1     -10.040  47.229 -16.653  1.00  0.00     0.010 C 
BRANCH  26  28
HETATM   28  C6  UNL     1     -12.080  46.262 -17.804  1.00  0.00     0.044 C 
BRANCH  28  29
HETATM   29  C5  UNL     1     -13.306  47.121 -17.445  1.00  0.00     0.188 C 
BRANCH  29  30
HETATM   30  C4  UNL     1     -14.508  46.897 -18.389  1.00  0.00     0.169 C 
HETATM   31  O3  UNL     1     -14.947  45.764 -18.602  1.00  0.00    -0.294 OA
BRANCH  30  32
HETATM   32  C2  UNL     1     -15.043  48.109 -19.129  1.00  0.00     0.152 C 
HETATM   33  C1  UNL     1     -15.297  49.236 -18.132  1.00  0.00     0.029 C 
BRANCH  32  34
HETATM   34  C3  UNL     1     -14.121  48.565 -20.228  1.00  0.00     0.150 C 
HETATM   35  O1  UNL     1     -13.826  47.956 -21.243  1.00  0.00    -0.649 OA
BRANCH  34  36
HETATM   36  O2  UNL     1     -13.551  49.757 -19.963  1.00  0.00    -0.776 OA
HETATM   37  H5  UNL     1     -13.005  49.944 -20.757  1.00  0.00     0.167 HD
ENDBRANCH  34  36
ENDBRANCH  32  34
ENDBRANCH  30  32
ENDBRANCH  29  30
BRANCH  29  38
HETATM   38  O4  UNL     1     -13.582  46.972 -16.061  1.00  0.00    -0.388 OA
HETATM   39  H7  UNL     1     -13.918  47.821 -15.726  1.00  0.00     0.210 HD
ENDBRANCH  29  38
ENDBRANCH  28  29
ENDBRANCH  26  28
ENDBRANCH   1  26
BRANCH   3  40
HETATM   40  O5  UNL     1      -9.711  44.516 -22.146  1.00  0.00    -0.385 OA
HETATM   41  H17 UNL     1     -10.380  44.612 -22.844  1.00  0.00     0.211 HD
ENDBRANCH   3  40
BRANCH  14  42
HETATM   42  C22 UNL     1      -7.512  44.486 -20.456  1.00  0.00     0.044 C 
BRANCH  42  43
HETATM   43  C23 UNL     1      -6.189  43.997 -21.052  1.00  0.00     0.165 C 
BRANCH  43  44
HETATM   44  O8  UNL     1      -6.365  43.112 -22.139  1.00  0.00    -0.401 OA
HETATM   45  H30 UNL     1      -5.505  43.008 -22.577  1.00  0.00     0.209 HD
ENDBRANCH  43  44
ENDBRANCH  42  43
ENDBRANCH  14  42
BRANCH   6  46
HETATM   46  O6  UNL     1      -7.398  45.489 -23.713  1.00  0.00    -0.380 OA
HETATM   47  H20 UNL     1      -7.069  44.834 -23.082  1.00  0.00     0.211 HD
ENDBRANCH   6  46
BRANCH  25  48
HETATM   48  C34 UNL     1      -6.715  48.001 -25.257  1.00  0.00    -0.017 C 
HETATM   49  C35 UNL     1      -6.687  47.256 -26.374  1.00  0.00     0.008 C 
BRANCH  49  50
HETATM   50  C36 UNL     1      -7.178  47.720 -27.678  1.00  0.00    -0.036 A 
HETATM   51  C37 UNL     1      -6.292  47.761 -28.763  1.00  0.00     0.011 A 
HETATM   52  C38 UNL     1      -6.730  48.172 -30.024  1.00  0.00     0.001 A 
HETATM   53  C39 UNL     1      -8.062  48.536 -30.216  1.00  0.00     0.000 A 
HETATM   54  C40 UNL     1      -8.955  48.487 -29.148  1.00  0.00     0.001 A 
HETATM   55  C41 UNL     1      -8.517  48.075 -27.885  1.00  0.00     0.011 A 
ENDBRANCH  49  50
ENDBRANCH  25  48
TORSDOF 15
ENDMDL
MODEL 7
REMARK minimizedAffinity -9.06703758
REMARK CNNscore 0.336566687
REMARK CNNaffinity 6.29641962
REMARK  15 active torsions:
REMARK  status: ('A' for Active; 'I' for Inactive)
REMARK    1  A    between atoms: C2_2  and  C3_3 
REMARK    2  A    between atoms: C2_2  and  C4_6 
REMARK    3  A    between atoms: C3_3  and  O2_5 
REMARK    4  A    between atoms: C4_6  and  C5_8 
REMARK    5  A    between atoms: C5_8  and  O4_9 
REMARK    6  A    between atoms: C5_8  and  C6_10 
REMARK    7  A    between atoms: C6_10  and  C7_11 
REMARK    8  A    between atoms: C7_11  and  C9_13 
REMARK    9  A    between atoms: C11_15  and  O5_16 
REMARK   10  A    between atoms: C14_19  and  O6_20 
REMARK   11  A    between atoms: C21_28  and  C22_29 
REMARK   12  A    between atoms: C22_29  and  C23_30 
REMARK   13  A    between atoms: C23_30  and  O8_31 
REMARK   14  A    between atoms: C33_42  and  C34_43 
REMARK   15  A    between atoms: C35_44  and  C36_45 
ROOT
HETATM    1  C9  UNL     1      -6.755  47.713 -28.155  1.00  0.00     0.002 C 
HETATM    2  C10 UNL     1      -6.541  46.735 -29.354  1.00  0.00     0.049 C 
HETATM    3  C11 UNL     1      -7.929  46.246 -29.841  1.00  0.00     0.088 C 
HETATM    4  C12 UNL     1      -8.142  44.759 -29.630  1.00  0.00     0.011 C 
HETATM    5  C13 UNL     1      -9.370  44.246 -29.413  1.00  0.00     0.015 C 
HETATM    6  C14 UNL     1     -10.610  45.122 -29.432  1.00  0.00     0.108 C 
HETATM    7  C15 UNL     1     -10.286  46.386 -28.656  1.00  0.00    -0.018 C 
HETATM    8  C16 UNL     1     -10.989  46.794 -27.574  1.00  0.00     0.003 C 
HETATM    9  C17 UNL     1     -10.476  48.031 -26.849  1.00  0.00     0.157 C 
HETATM   10  O7  UNL     1     -11.258  48.771 -26.254  1.00  0.00    -0.293 OA
HETATM   11  C18 UNL     1      -8.983  48.355 -26.861  1.00  0.00     0.094 C 
HETATM   12  C19 UNL     1      -8.181  47.324 -27.661  1.00  0.00    -0.018 C 
HETATM   13  C20 UNL     1      -8.026  46.048 -26.760  1.00  0.00     0.017 C 
HETATM   14  C21 UNL     1      -8.960  47.109 -29.033  1.00  0.00     0.032 C 
HETATM   15  C24 UNL     1     -12.177  46.050 -26.959  1.00  0.00    -0.007 C 
HETATM   16  C25 UNL     1     -11.899  45.941 -25.424  1.00  0.00     0.021 C 
HETATM   17  C26 UNL     1     -13.474  46.838 -27.251  1.00  0.00     0.022 C 
HETATM   18  C27 UNL     1     -14.676  46.336 -26.467  1.00  0.00     0.080 C 
HETATM   19  C28 UNL     1     -14.580  44.863 -26.159  1.00  0.00     0.135 C 
HETATM   20  O9  UNL     1     -15.175  44.404 -25.182  1.00  0.00    -0.297 OA
HETATM   21  C29 UNL     1     -13.811  43.969 -27.149  1.00  0.00     0.018 C 
HETATM   22  C30 UNL     1     -13.620  42.583 -26.490  1.00  0.00     0.023 C 
HETATM   23  C31 UNL     1     -14.810  43.811 -28.316  1.00  0.00     0.023 C 
HETATM   24  C32 UNL     1     -12.361  44.574 -27.512  1.00  0.00     0.025 C 
HETATM   25  C33 UNL     1     -11.980  44.457 -29.028  1.00  0.00     0.057 C 
ENDROOT
BRANCH   1  26
HETATM   26  C7  UNL     1      -5.540  47.695 -27.167  1.00  0.00    -0.011 C 
HETATM   27  C8  UNL     1      -5.940  48.118 -25.751  1.00  0.00     0.010 C 
BRANCH  26  28
HETATM   28  C6  UNL     1      -4.403  48.620 -27.702  1.00  0.00     0.044 C 
BRANCH  28  29
HETATM   29  C5  UNL     1      -3.608  49.423 -26.657  1.00  0.00     0.188 C 
BRANCH  29  30
HETATM   30  C4  UNL     1      -2.635  50.448 -27.282  1.00  0.00     0.169 C 
HETATM   31  O3  UNL     1      -2.630  50.661 -28.498  1.00  0.00    -0.294 OA
BRANCH  30  32
HETATM   32  C2  UNL     1      -1.615  51.087 -26.359  1.00  0.00     0.152 C 
HETATM   33  C1  UNL     1      -0.237  51.027 -27.012  1.00  0.00     0.029 C 
BRANCH  32  34
HETATM   34  C3  UNL     1      -1.975  52.504 -25.998  1.00  0.00     0.150 C 
HETATM   35  O1  UNL     1      -2.201  52.947 -24.884  1.00  0.00    -0.649 OA
BRANCH  34  36
HETATM   36  O2  UNL     1      -2.101  53.296 -27.081  1.00  0.00    -0.776 OA
HETATM   37  H5  UNL     1      -2.307  54.180 -26.709  1.00  0.00     0.167 HD
ENDBRANCH  34  36
ENDBRANCH  32  34
ENDBRANCH  30  32
ENDBRANCH  29  30
BRANCH  29  38
HETATM   38  O4  UNL     1      -4.512  49.949 -25.697  1.00  0.00    -0.388 OA
HETATM   39  H7  UNL     1      -4.066  49.953 -24.832  1.00  0.00     0.210 HD
ENDBRANCH  29  38
ENDBRANCH  28  29
ENDBRANCH  26  28
ENDBRANCH   1  26
BRANCH   3  40
HETATM   40  O5  UNL     1      -8.042  46.457 -31.244  1.00  0.00    -0.385 OA
HETATM   41  H17 UNL     1      -7.693  45.676 -31.705  1.00  0.00     0.211 HD
ENDBRANCH   3  40
BRANCH  14  42
HETATM   42  C22 UNL     1      -9.425  48.406 -29.836  1.00  0.00     0.044 C 
BRANCH  42  43
HETATM   43  C23 UNL     1      -8.485  49.272 -30.679  1.00  0.00     0.165 C 
BRANCH  43  44
HETATM   44  O8  UNL     1      -8.822  50.643 -30.653  1.00  0.00    -0.401 OA
HETATM   45  H30 UNL     1      -8.079  51.137 -31.038  1.00  0.00     0.209 HD
ENDBRANCH  43  44
ENDBRANCH  42  43
ENDBRANCH  14  42
BRANCH   6  46
HETATM   46  O6  UNL     1     -10.788  45.440 -30.822  1.00  0.00    -0.380 OA
HETATM   47  H20 UNL     1     -10.844  46.401 -30.921  1.00  0.00     0.211 HD
ENDBRANCH   6  46
BRANCH  25  48
HETATM   48  C34 UNL     1     -12.034  43.009 -29.519  1.00  0.00    -0.017 C 
HETATM   49  C35 UNL     1     -11.346  41.999 -28.962  1.00  0.00     0.008 C 
BRANCH  49  50
HETATM   50  C36 UNL     1     -11.401  40.611 -29.440  1.00  0.00    -0.036 A 
HETATM   51  C37 UNL     1     -11.232  40.355 -30.807  1.00  0.00     0.011 A 
HETATM   52  C38 UNL     1     -11.253  39.046 -31.293  1.00  0.00     0.001 A 
HETATM   53  C39 UNL     1     -11.431  37.977 -30.416  1.00  0.00     0.000 A 
HETATM   54  C40 UNL     1     -11.588  38.219 -29.053  1.00  0.00     0.001 A 
HETATM   55  C41 UNL     1     -11.567  39.529 -28.565  1.00  0.00     0.011 A 
ENDBRANCH  49  50
ENDBRANCH  25  48
TORSDOF 15
ENDMDL
MODEL 8
REMARK minimizedAffinity -7.90848684
REMARK CNNscore 0.32538715
REMARK CNNaffinity 6.07863235
REMARK  15 active torsions:
REMARK  status: ('A' for Active; 'I' for Inactive)
REMARK    1  A    between atoms: C2_2  and  C3_3 
REMARK    2  A    between atoms: C2_2  and  C4_6 
REMARK    3  A    between atoms: C3_3  and  O2_5 
REMARK    4  A    between atoms: C4_6  and  C5_8 
REMARK    5  A    between atoms: C5_8  and  O4_9 
REMARK    6  A    between atoms: C5_8  and  C6_10 
REMARK    7  A    between atoms: C6_10  and  C7_11 
REMARK    8  A    between atoms: C7_11  and  C9_13 
REMARK    9  A    between atoms: C11_15  and  O5_16 
REMARK   10  A    between atoms: C14_19  and  O6_20 
REMARK   11  A    between atoms: C21_28  and  C22_29 
REMARK   12  A    between atoms: C22_29  and  C23_30 
REMARK   13  A    between atoms: C23_30  and  O8_31 
REMARK   14  A    between atoms: C33_42  and  C34_43 
REMARK   15  A    between atoms: C35_44  and  C36_45 
ROOT
HETATM    1  C9  UNL     1     -11.238  46.054 -28.134  1.00  0.00     0.002 C 
HETATM    2  C10 UNL     1     -10.501  46.269 -26.774  1.00  0.00     0.049 C 
HETATM    3  C11 UNL     1     -11.309  45.553 -25.661  1.00  0.00     0.088 C 
HETATM    4  C12 UNL     1     -11.897  46.514 -24.645  1.00  0.00     0.011 C 
HETATM    5  C13 UNL     1     -13.046  46.237 -23.994  1.00  0.00     0.015 C 
HETATM    6  C14 UNL     1     -13.776  44.921 -24.200  1.00  0.00     0.108 C 
HETATM    7  C15 UNL     1     -13.786  44.635 -25.691  1.00  0.00    -0.018 C 
HETATM    8  C16 UNL     1     -14.922  44.457 -26.405  1.00  0.00     0.003 C 
HETATM    9  C17 UNL     1     -14.765  44.275 -27.909  1.00  0.00     0.157 C 
HETATM   10  O7  UNL     1     -15.579  43.604 -28.542  1.00  0.00    -0.293 OA
HETATM   11  C18 UNL     1     -13.590  44.928 -28.635  1.00  0.00     0.094 C 
HETATM   12  C19 UNL     1     -12.686  45.708 -27.675  1.00  0.00    -0.018 C 
HETATM   13  C20 UNL     1     -13.406  47.066 -27.353  1.00  0.00     0.017 C 
HETATM   14  C21 UNL     1     -12.420  44.755 -26.428  1.00  0.00     0.032 C 
HETATM   15  C24 UNL     1     -16.343  44.543 -25.844  1.00  0.00    -0.007 C 
HETATM   16  C25 UNL     1     -17.149  45.494 -26.788  1.00  0.00     0.021 C 
HETATM   17  C26 UNL     1     -16.957  43.124 -25.800  1.00  0.00     0.022 C 
HETATM   18  C27 UNL     1     -18.448  43.120 -25.510  1.00  0.00     0.080 C 
HETATM   19  C28 UNL     1     -18.868  44.297 -24.666  1.00  0.00     0.135 C 
HETATM   20  O9  UNL     1     -20.029  44.709 -24.727  1.00  0.00    -0.297 OA
HETATM   21  C29 UNL     1     -17.840  44.878 -23.679  1.00  0.00     0.018 C 
HETATM   22  C30 UNL     1     -18.398  46.217 -23.142  1.00  0.00     0.023 C 
HETATM   23  C31 UNL     1     -17.857  43.855 -22.523  1.00  0.00     0.023 C 
HETATM   24  C32 UNL     1     -16.415  45.156 -24.382  1.00  0.00     0.025 C 
HETATM   25  C33 UNL     1     -15.180  44.749 -23.506  1.00  0.00     0.057 C 
ENDROOT
BRANCH   1  26
HETATM   26  C7  UNL     1     -10.981  47.238 -29.127  1.00  0.00    -0.011 C 
HETATM   27  C8  UNL     1     -11.801  47.102 -30.413  1.00  0.00     0.010 C 
BRANCH  26  28
HETATM   28  C6  UNL     1      -9.460  47.328 -29.468  1.00  0.00     0.044 C 
BRANCH  28  29
HETATM   29  C5  UNL     1      -8.622  48.326 -28.649  1.00  0.00     0.188 C 
BRANCH  29  30
HETATM   30  C4  UNL     1      -7.367  47.691 -28.010  1.00  0.00     0.169 C 
HETATM   31  O3  UNL     1      -7.221  47.665 -26.785  1.00  0.00    -0.294 OA
BRANCH  30  32
HETATM   32  C2  UNL     1      -6.278  47.210 -28.951  1.00  0.00     0.152 C 
HETATM   33  C1  UNL     1      -6.917  46.672 -30.228  1.00  0.00     0.029 C 
BRANCH  32  34
HETATM   34  C3  UNL     1      -5.276  48.288 -29.267  1.00  0.00     0.150 C 
HETATM   35  O1  UNL     1      -4.262  48.559 -28.645  1.00  0.00    -0.649 OA
BRANCH  34  36
HETATM   36  O2  UNL     1      -5.636  49.032 -30.332  1.00  0.00    -0.776 OA
HETATM   37  H5  UNL     1      -4.896  49.667 -30.442  1.00  0.00     0.167 HD
ENDBRANCH  34  36
ENDBRANCH  32  34
ENDBRANCH  30  32
ENDBRANCH  29  30
BRANCH  29  38
HETATM   38  O4  UNL     1      -8.385  49.482 -29.437  1.00  0.00    -0.388 OA
HETATM   39  H7  UNL     1      -8.377  50.255 -28.846  1.00  0.00     0.210 HD
ENDBRANCH  29  38
ENDBRANCH  28  29
ENDBRANCH  26  28
ENDBRANCH   1  26
BRANCH   3  40
HETATM   40  O5  UNL     1     -10.448  44.693 -24.925  1.00  0.00    -0.385 OA
HETATM   41  H17 UNL     1     -10.047  45.200 -24.199  1.00  0.00     0.211 HD
ENDBRANCH   3  40
BRANCH  14  42
HETATM   42  C22 UNL     1     -11.989  43.247 -26.721  1.00  0.00     0.044 C 
BRANCH  42  43
HETATM   43  C23 UNL     1     -11.025  42.837 -27.837  1.00  0.00     0.165 C 
BRANCH  43  44
HETATM   44  O8  UNL     1     -11.210  41.504 -28.266  1.00  0.00    -0.401 OA
HETATM   45  H30 UNL     1     -10.709  41.387 -29.090  1.00  0.00     0.209 HD
ENDBRANCH  43  44
ENDBRANCH  42  43
ENDBRANCH  14  42
BRANCH   6  46
HETATM   46  O6  UNL     1     -12.949  43.958 -23.527  1.00  0.00    -0.380 OA
HETATM   47  H20 UNL     1     -12.736  43.241 -24.142  1.00  0.00     0.211 HD
ENDBRANCH   6  46
BRANCH  25  48
HETATM   48  C34 UNL     1     -15.191  45.449 -22.145  1.00  0.00    -0.017 C 
HETATM   49  C35 UNL     1     -15.220  46.782 -21.984  1.00  0.00     0.008 C 
BRANCH  49  50
HETATM   50  C36 UNL     1     -15.228  47.448 -20.675  1.00  0.00    -0.036 A 
HETATM   51  C37 UNL     1     -16.294  47.208 -19.797  1.00  0.00     0.011 A 
HETATM   52  C38 UNL     1     -16.322  47.803 -18.534  1.00  0.00     0.001 A 
HETATM   53  C39 UNL     1     -15.280  48.637 -18.131  1.00  0.00     0.000 A 
HETATM   54  C40 UNL     1     -14.210  48.873 -18.991  1.00  0.00     0.001 A 
HETATM   55  C41 UNL     1     -14.180  48.277 -20.256  1.00  0.00     0.011 A 
ENDBRANCH  49  50
ENDBRANCH  25  48
TORSDOF 15
ENDMDL
MODEL 9
REMARK minimizedAffinity -7.41971827
REMARK CNNscore 0.324229419
REMARK CNNaffinity 5.60995483
REMARK  15 active torsions:
REMARK  status: ('A' for Active; 'I' for Inactive)
REMARK    1  A    between atoms: C2_2  and  C3_3 
REMARK    2  A    between atoms: C2_2  and  C4_6 
REMARK    3  A    between atoms: C3_3  and  O2_5 
REMARK    4  A    between atoms: C4_6  and  C5_8 
REMARK    5  A    between atoms: C5_8  and  O4_9 
REMARK    6  A    between atoms: C5_8  and  C6_10 
REMARK    7  A    between atoms: C6_10  and  C7_11 
REMARK    8  A    between atoms: C7_11  and  C9_13 
REMARK    9  A    between atoms: C11_15  and  O5_16 
REMARK   10  A    between atoms: C14_19  and  O6_20 
REMARK   11  A    between atoms: C21_28  and  C22_29 
REMARK   12  A    between atoms: C22_29  and  C23_30 
REMARK   13  A    between atoms: C23_30  and  O8_31 
REMARK   14  A    between atoms: C33_42  and  C34_43 
REMARK   15  A    between atoms: C35_44  and  C36_45 
ROOT
HETATM    1  C9  UNL     1       6.037  64.483 -35.055  1.00  0.00     0.002 C 
HETATM    2  C10 UNL     1       7.341  65.033 -35.718  1.00  0.00     0.049 C 
HETATM    3  C11 UNL     1       6.997  66.356 -36.450  1.00  0.00     0.088 C 
HETATM    4  C12 UNL     1       7.158  66.260 -37.955  1.00  0.00     0.011 C 
HETATM    5  C13 UNL     1       6.403  66.999 -38.794  1.00  0.00     0.015 C 
HETATM    6  C14 UNL     1       5.397  68.010 -38.273  1.00  0.00     0.108 C 
HETATM    7  C15 UNL     1       4.647  67.356 -37.126  1.00  0.00    -0.018 C 
HETATM    8  C16 UNL     1       3.303  67.205 -37.109  1.00  0.00     0.003 C 
HETATM    9  C17 UNL     1       2.713  66.442 -35.930  1.00  0.00     0.157 C 
HETATM   10  O7  UNL     1       1.578  66.695 -35.531  1.00  0.00    -0.293 OA
HETATM   11  C18 UNL     1       3.537  65.355 -35.241  1.00  0.00     0.094 C 
HETATM   12  C19 UNL     1       4.922  65.198 -35.875  1.00  0.00    -0.018 C 
HETATM   13  C20 UNL     1       4.737  64.390 -37.209  1.00  0.00     0.017 C 
HETATM   14  C21 UNL     1       5.517  66.666 -36.035  1.00  0.00     0.032 C 
HETATM   15  C24 UNL     1       2.349  67.634 -38.227  1.00  0.00    -0.007 C 
HETATM   16  C25 UNL     1       1.426  66.409 -38.532  1.00  0.00     0.021 C 
HETATM   17  C26 UNL     1       1.535  68.861 -37.756  1.00  0.00     0.022 C 
HETATM   18  C27 UNL     1       0.378  69.208 -38.678  1.00  0.00     0.080 C 
HETATM   19  C28 UNL     1       0.652  68.819 -40.108  1.00  0.00     0.135 C 
HETATM   20  O9  UNL     1      -0.290  68.588 -40.869  1.00  0.00    -0.297 OA
HETATM   21  C29 UNL     1       2.115  68.822 -40.588  1.00  0.00     0.018 C 
HETATM   22  C30 UNL     1       2.164  68.137 -41.973  1.00  0.00     0.023 C 
HETATM   23  C31 UNL     1       2.409  70.325 -40.786  1.00  0.00     0.023 C 
HETATM   24  C32 UNL     1       3.085  68.019 -39.579  1.00  0.00     0.025 C 
HETATM   25  C33 UNL     1       4.464  68.720 -39.326  1.00  0.00     0.057 C 
ENDROOT
BRANCH   1  26
HETATM   26  C7  UNL     1       6.060  62.921 -34.938  1.00  0.00    -0.011 C 
HETATM   27  C8  UNL     1       4.807  62.375 -34.250  1.00  0.00     0.010 C 
BRANCH  26  28
HETATM   28  C6  UNL     1       7.338  62.462 -34.169  1.00  0.00     0.044 C 
BRANCH  28  29
HETATM   29  C5  UNL     1       8.525  61.973 -35.019  1.00  0.00     0.188 C 
BRANCH  29  30
HETATM   30  C4  UNL     1       9.892  62.152 -34.321  1.00  0.00     0.169 C 
HETATM   31  O3  UNL     1      10.278  61.352 -33.465  1.00  0.00    -0.294 OA
BRANCH  30  32
HETATM   32  C2  UNL     1      10.678  63.408 -34.649  1.00  0.00     0.152 C 
HETATM   33  C1  UNL     1      12.044  63.337 -33.972  1.00  0.00     0.029 C 
BRANCH  32  34
HETATM   34  C3  UNL     1      10.825  63.623 -36.131  1.00  0.00     0.150 C 
HETATM   35  O1  UNL     1      10.586  64.643 -36.756  1.00  0.00    -0.649 OA
BRANCH  34  36
HETATM   36  O2  UNL     1      11.211  62.506 -36.779  1.00  0.00    -0.776 OA
HETATM   37  H5  UNL     1      11.293  62.788 -37.715  1.00  0.00     0.167 HD
ENDBRANCH  34  36
ENDBRANCH  32  34
ENDBRANCH  30  32
ENDBRANCH  29  30
BRANCH  29  38
HETATM   38  O4  UNL     1       8.246  60.663 -35.487  1.00  0.00    -0.388 OA
HETATM   39  H7  UNL     1       8.636  60.569 -36.374  1.00  0.00     0.210 HD
ENDBRANCH  29  38
ENDBRANCH  28  29
ENDBRANCH  26  28
ENDBRANCH   1  26
BRANCH   3  40
HETATM   40  O5  UNL     1       7.893  67.378 -36.031  1.00  0.00    -0.385 OA
HETATM   41  H17 UNL     1       8.678  67.358 -36.602  1.00  0.00     0.211 HD
ENDBRANCH   3  40
BRANCH  14  42
HETATM   42  C22 UNL     1       5.433  67.644 -34.778  1.00  0.00     0.044 C 
BRANCH  42  43
HETATM   43  C23 UNL     1       6.423  67.621 -33.611  1.00  0.00     0.165 C 
BRANCH  43  44
HETATM   44  O8  UNL     1       5.977  66.841 -32.521  1.00  0.00    -0.401 OA
HETATM   45  H30 UNL     1       6.729  66.717 -31.919  1.00  0.00     0.209 HD
ENDBRANCH  43  44
ENDBRANCH  42  43
ENDBRANCH  14  42
BRANCH   6  46
HETATM   46  O6  UNL     1       6.213  69.081 -37.770  1.00  0.00    -0.380 OA
HETATM   47  H20 UNL     1       5.963  69.264 -36.853  1.00  0.00     0.211 HD
ENDBRANCH   6  46
BRANCH  25  48
HETATM   48  C34 UNL     1       5.225  68.970 -40.629  1.00  0.00    -0.017 C 
HETATM   49  C35 UNL     1       5.994  70.047 -40.858  1.00  0.00     0.008 C 
BRANCH  49  50
HETATM   50  C36 UNL     1       6.721  70.282 -42.113  1.00  0.00    -0.036 A 
HETATM   51  C37 UNL     1       7.740  69.395 -42.484  1.00  0.00     0.011 A 
HETATM   52  C38 UNL     1       8.435  69.572 -43.682  1.00  0.00     0.001 A 
HETATM   53  C39 UNL     1       8.111  70.631 -44.528  1.00  0.00     0.000 A 
HETATM   54  C40 UNL     1       7.091  71.512 -44.175  1.00  0.00     0.001 A 
HETATM   55  C41 UNL     1       6.394  71.336 -42.976  1.00  0.00     0.011 A 
ENDBRANCH  49  50
ENDBRANCH  25  48
TORSDOF 15
ENDMDL
