MODEL 1
REMARK minimizedAffinity -7.42123175
REMARK CNNscore 0.793358505
REMARK CNNaffinity 7.2173419
REMARK  6 active torsions:
REMARK  status: ('A' for Active; 'I' for Inactive)
REMARK    1  A    between atoms: C2_2  and  C30_32 
REMARK    2  A    between atoms: C3_3  and  C4_4 
REMARK    3  A    between atoms: C4_4  and  C5_5 
REMARK    4  A    between atoms: C5_5  and  C6_6 
REMARK    5  A    between atoms: C6_6  and  C8_8 
REMARK    6  A    between atoms: C30_32  and  O4_34 
ROOT
HETATM    1  C8  UNL     1      -1.523  52.212 -10.197  1.00  0.00    -0.002 C 
HETATM    2  C9  UNL     1      -0.735  50.880 -10.376  1.00  0.00     0.007 C 
HETATM    3  C10 UNL     1       0.749  51.173 -10.094  1.00  0.00     0.015 C 
HETATM    4  C11 UNL     1       0.761  52.556  -9.418  1.00  0.00    -0.005 C 
HETATM    5  C12 UNL     1       0.456  52.329  -7.905  1.00  0.00     0.021 C 
HETATM    6  C13 UNL     1       2.025  53.403  -9.439  1.00  0.00    -0.000 C 
HETATM    7  C14 UNL     1       1.970  54.759  -9.404  1.00  0.00    -0.060 C 
HETATM    8  C15 UNL     1       0.611  55.480  -9.433  1.00  0.00     0.036 C 
HETATM    9  C16 UNL     1      -0.662  54.613  -9.538  1.00  0.00     0.015 C 
HETATM   10  C17 UNL     1      -0.383  53.276 -10.236  1.00  0.00    -0.028 C 
HETATM   11  C18 UNL     1       0.006  53.558 -11.722  1.00  0.00     0.016 C 
HETATM   12  C19 UNL     1       3.223  55.667  -9.370  1.00  0.00    -0.014 C 
HETATM   13  C20 UNL     1       3.377  56.293 -10.784  1.00  0.00     0.020 C 
HETATM   14  C21 UNL     1       3.035  56.826  -8.346  1.00  0.00     0.021 C 
HETATM   15  C22 UNL     1       4.350  57.364  -7.810  1.00  0.00     0.080 C 
HETATM   16  C23 UNL     1       5.032  56.286  -7.001  1.00  0.00     0.135 C 
HETATM   17  O1  UNL     1       5.639  56.579  -5.971  1.00  0.00    -0.297 OA
HETATM   18  C24 UNL     1       4.947  54.838  -7.525  1.00  0.00     0.018 C 
HETATM   19  C25 UNL     1       6.353  54.220  -7.348  1.00  0.00     0.023 C 
HETATM   20  C26 UNL     1       3.973  54.071  -6.621  1.00  0.00     0.023 C 
HETATM   21  C27 UNL     1       4.551  54.882  -9.048  1.00  0.00     0.020 C 
HETATM   22  C28 UNL     1       4.565  53.530  -9.766  1.00  0.00     0.090 C 
HETATM   23  C29 UNL     1       3.347  52.710  -9.455  1.00  0.00     0.157 C 
HETATM   24  O2  UNL     1       3.443  51.502  -9.253  1.00  0.00    -0.293 OA
ENDROOT
BRANCH   1  25
HETATM   25  C6  UNL     1      -2.727  52.310 -11.185  1.00  0.00    -0.014 C 
HETATM   26  C7  UNL     1      -3.738  53.380 -10.758  1.00  0.00     0.010 C 
BRANCH  25  27
HETATM   27  C5  UNL     1      -3.432  50.930 -11.307  1.00  0.00     0.008 C 
BRANCH  27  28
HETATM   28  C4  UNL     1      -4.099  50.454 -10.010  1.00  0.00     0.028 C 
BRANCH  28  29
HETATM   29  C3  UNL     1      -5.598  50.450 -10.141  1.00  0.00    -0.013 C 
HETATM   30  C2  UNL     1      -6.438  49.430  -9.865  1.00  0.00     0.008 C 
HETATM   31  C1  UNL     1      -6.021  48.060  -9.420  1.00  0.00     0.055 C 
BRANCH  30  32
HETATM   32  C30 UNL     1      -7.910  49.595 -10.008  1.00  0.00     0.171 C 
HETATM   33  O3  UNL     1      -8.539  49.425 -11.037  1.00  0.00    -0.646 OA
BRANCH  32  34
HETATM   34  O4  UNL     1      -8.534  49.960  -8.875  1.00  0.00    -0.773 OA
HETATM   35  H44 UNL     1      -9.473  50.023  -9.143  1.00  0.00     0.167 HD
ENDBRANCH  32  34
ENDBRANCH  30  32
ENDBRANCH  28  29
ENDBRANCH  27  28
ENDBRANCH  25  27
ENDBRANCH   1  25
TORSDOF 6
ENDMDL
MODEL 2
REMARK minimizedAffinity -7.69524097
REMARK CNNscore 0.681870818
REMARK CNNaffinity 6.25822115
REMARK  6 active torsions:
REMARK  status: ('A' for Active; 'I' for Inactive)
REMARK    1  A    between atoms: C2_2  and  C30_32 
REMARK    2  A    between atoms: C3_3  and  C4_4 
REMARK    3  A    between atoms: C4_4  and  C5_5 
REMARK    4  A    between atoms: C5_5  and  C6_6 
REMARK    5  A    between atoms: C6_6  and  C8_8 
REMARK    6  A    between atoms: C30_32  and  O4_34 
ROOT
HETATM    1  C8  UNL     1     -12.511  46.048 -27.228  1.00  0.00    -0.002 C 
HETATM    2  C9  UNL     1     -13.095  45.113 -28.328  1.00  0.00     0.007 C 
HETATM    3  C10 UNL     1     -12.124  45.131 -29.522  1.00  0.00     0.015 C 
HETATM    4  C11 UNL     1     -10.837  45.774 -28.978  1.00  0.00    -0.005 C 
HETATM    5  C12 UNL     1     -10.029  44.649 -28.260  1.00  0.00     0.021 C 
HETATM    6  C13 UNL     1      -9.843  46.418 -29.935  1.00  0.00    -0.000 C 
HETATM    7  C14 UNL     1      -9.049  47.447 -29.546  1.00  0.00    -0.060 C 
HETATM    8  C15 UNL     1      -9.199  48.052 -28.140  1.00  0.00     0.036 C 
HETATM    9  C16 UNL     1     -10.295  47.474 -27.220  1.00  0.00     0.015 C 
HETATM   10  C17 UNL     1     -11.454  46.874 -28.025  1.00  0.00    -0.028 C 
HETATM   11  C18 UNL     1     -12.177  48.023 -28.798  1.00  0.00     0.016 C 
HETATM   12  C19 UNL     1      -7.986  48.103 -30.461  1.00  0.00    -0.014 C 
HETATM   13  C20 UNL     1      -8.552  49.478 -30.912  1.00  0.00     0.020 C 
HETATM   14  C21 UNL     1      -6.665  48.358 -29.675  1.00  0.00     0.021 C 
HETATM   15  C22 UNL     1      -5.441  48.409 -30.571  1.00  0.00     0.080 C 
HETATM   16  C23 UNL     1      -5.225  47.048 -31.191  1.00  0.00     0.135 C 
HETATM   17  O1  UNL     1      -4.083  46.611 -31.339  1.00  0.00    -0.297 OA
HETATM   18  C24 UNL     1      -6.474  46.259 -31.634  1.00  0.00     0.018 C 
HETATM   19  C25 UNL     1      -6.141  45.639 -33.010  1.00  0.00     0.023 C 
HETATM   20  C26 UNL     1      -6.682  45.114 -30.634  1.00  0.00     0.023 C 
HETATM   21  C27 UNL     1      -7.679  47.263 -31.759  1.00  0.00     0.020 C 
HETATM   22  C28 UNL     1      -8.968  46.669 -32.333  1.00  0.00     0.090 C 
HETATM   23  C29 UNL     1      -9.723  45.863 -31.317  1.00  0.00     0.157 C 
HETATM   24  O2  UNL     1     -10.248  44.797 -31.630  1.00  0.00    -0.293 OA
ENDROOT
BRANCH   1  25
HETATM   25  C6  UNL     1     -13.637  46.774 -26.427  1.00  0.00    -0.014 C 
HETATM   26  C7  UNL     1     -13.347  46.801 -24.922  1.00  0.00     0.010 C 
BRANCH  25  27
HETATM   27  C5  UNL     1     -15.007  46.091 -26.693  1.00  0.00     0.008 C 
BRANCH  27  28
HETATM   28  C4  UNL     1     -15.601  45.385 -25.467  1.00  0.00     0.028 C 
BRANCH  28  29
HETATM   29  C3  UNL     1     -16.906  46.013 -25.058  1.00  0.00    -0.013 C 
HETATM   30  C2  UNL     1     -18.139  45.690 -25.499  1.00  0.00     0.008 C 
HETATM   31  C1  UNL     1     -18.443  44.660 -26.546  1.00  0.00     0.055 C 
BRANCH  30  32
HETATM   32  C30 UNL     1     -19.345  46.382 -24.967  1.00  0.00     0.171 C 
HETATM   33  O3  UNL     1     -20.430  45.860 -24.784  1.00  0.00    -0.646 OA
BRANCH  32  34
HETATM   34  O4  UNL     1     -19.152  47.681 -24.687  1.00  0.00    -0.773 OA
HETATM   35  H44 UNL     1     -20.025  47.975 -24.358  1.00  0.00     0.167 HD
ENDBRANCH  32  34
ENDBRANCH  30  32
ENDBRANCH  28  29
ENDBRANCH  27  28
ENDBRANCH  25  27
ENDBRANCH   1  25
TORSDOF 6
ENDMDL
MODEL 3
REMARK minimizedAffinity -7.64901352
REMARK CNNscore 0.493443608
REMARK CNNaffinity 5.8799901
REMARK  6 active torsions:
REMARK  status: ('A' for Active; 'I' for Inactive)
REMARK    1  A    between atoms: C2_2  and  C30_32 
REMARK    2  A    between atoms: C3_3  and  C4_4 
REMARK    3  A    between atoms: C4_4  and  C5_5 
REMARK    4  A    between atoms: C5_5  and  C6_6 
REMARK    5  A    between atoms: C6_6  and  C8_8 
REMARK    6  A    between atoms: C30_32  and  O4_34 
ROOT
HETATM    1  C8  UNL     1     -13.550  46.423 -27.701  1.00  0.00    -0.002 C 
HETATM    2  C9  UNL     1     -13.190  47.745 -26.959  1.00  0.00     0.007 C 
HETATM    3  C10 UNL     1     -11.683  47.990 -27.145  1.00  0.00     0.015 C 
HETATM    4  C11 UNL     1     -11.258  47.026 -28.267  1.00  0.00    -0.005 C 
HETATM    5  C12 UNL     1     -11.600  47.721 -29.622  1.00  0.00     0.021 C 
HETATM    6  C13 UNL     1      -9.801  46.607 -28.400  1.00  0.00    -0.000 C 
HETATM    7  C14 UNL     1      -9.454  45.405 -28.928  1.00  0.00    -0.060 C 
HETATM    8  C15 UNL     1     -10.542  44.392 -29.326  1.00  0.00     0.036 C 
HETATM    9  C16 UNL     1     -12.014  44.779 -29.071  1.00  0.00     0.015 C 
HETATM   10  C17 UNL     1     -12.148  45.771 -27.910  1.00  0.00    -0.028 C 
HETATM   11  C18 UNL     1     -11.710  45.061 -26.589  1.00  0.00     0.016 C 
HETATM   12  C19 UNL     1      -7.989  44.950 -29.135  1.00  0.00    -0.014 C 
HETATM   13  C20 UNL     1      -7.674  43.899 -28.034  1.00  0.00     0.020 C 
HETATM   14  C21 UNL     1      -7.817  44.263 -30.522  1.00  0.00     0.021 C 
HETATM   15  C22 UNL     1      -6.397  44.343 -31.052  1.00  0.00     0.080 C 
HETATM   16  C23 UNL     1      -6.053  45.787 -31.329  1.00  0.00     0.135 C 
HETATM   17  O1  UNL     1      -5.375  46.082 -32.314  1.00  0.00    -0.297 OA
HETATM   18  C24 UNL     1      -6.565  46.847 -30.333  1.00  0.00     0.018 C 
HETATM   19  C25 UNL     1      -5.401  47.838 -30.103  1.00  0.00     0.023 C 
HETATM   20  C26 UNL     1      -7.712  47.609 -31.011  1.00  0.00     0.023 C 
HETATM   21  C27 UNL     1      -6.947  46.123 -28.989  1.00  0.00     0.020 C 
HETATM   22  C28 UNL     1      -7.339  47.051 -27.835  1.00  0.00     0.090 C 
HETATM   23  C29 UNL     1      -8.741  47.569 -27.974  1.00  0.00     0.157 C 
HETATM   24  O2  UNL     1      -9.002  48.741 -27.715  1.00  0.00    -0.293 OA
ENDROOT
BRANCH   1  25
HETATM   25  C6  UNL     1     -14.683  45.638 -26.968  1.00  0.00    -0.014 C 
HETATM   26  C7  UNL     1     -14.126  44.549 -26.044  1.00  0.00     0.010 C 
BRANCH  25  27
HETATM   27  C5  UNL     1     -15.655  45.010 -28.005  1.00  0.00     0.008 C 
BRANCH  27  28
HETATM   28  C4  UNL     1     -16.864  44.303 -27.379  1.00  0.00     0.028 C 
BRANCH  28  29
HETATM   29  C3  UNL     1     -17.845  45.297 -26.819  1.00  0.00    -0.013 C 
HETATM   30  C2  UNL     1     -18.160  45.489 -25.522  1.00  0.00     0.008 C 
HETATM   31  C1  UNL     1     -17.623  44.689 -24.372  1.00  0.00     0.055 C 
BRANCH  30  32
HETATM   32  C30 UNL     1     -19.127  46.546 -25.120  1.00  0.00     0.171 C 
HETATM   33  O3  UNL     1     -18.829  47.664 -24.740  1.00  0.00    -0.646 OA
BRANCH  32  34
HETATM   34  O4  UNL     1     -20.415  46.173 -25.209  1.00  0.00    -0.773 OA
HETATM   35  H44 UNL     1     -20.903  46.968 -24.913  1.00  0.00     0.167 HD
ENDBRANCH  32  34
ENDBRANCH  30  32
ENDBRANCH  28  29
ENDBRANCH  27  28
ENDBRANCH  25  27
ENDBRANCH   1  25
TORSDOF 6
ENDMDL
MODEL 4
REMARK minimizedAffinity -7.75797272
REMARK CNNscore 0.464467078
REMARK CNNaffinity 6.98723221
REMARK  6 active torsions:
REMARK  status: ('A' for Active; 'I' for Inactive)
REMARK    1  A    between atoms: C2_2  and  C30_32 
REMARK    2  A    between atoms: C3_3  and  C4_4 
REMARK    3  A    between atoms: C4_4  and  C5_5 
REMARK    4  A    between atoms: C5_5  and  C6_6 
REMARK    5  A    between atoms: C6_6  and  C8_8 
REMARK    6  A    between atoms: C30_32  and  O4_34 
ROOT
HETATM    1  C8  UNL     1       2.511  50.007 -11.070  1.00  0.00    -0.002 C 
HETATM    2  C9  UNL     1       3.974  49.472 -11.050  1.00  0.00     0.007 C 
HETATM    3  C10 UNL     1       4.877  50.597 -10.513  1.00  0.00     0.015 C 
HETATM    4  C11 UNL     1       3.910  51.625  -9.901  1.00  0.00    -0.005 C 
HETATM    5  C12 UNL     1       3.566  51.131  -8.461  1.00  0.00     0.021 C 
HETATM    6  C13 UNL     1       4.348  53.072  -9.723  1.00  0.00    -0.000 C 
HETATM    7  C14 UNL     1       3.454  54.092  -9.752  1.00  0.00    -0.060 C 
HETATM    8  C15 UNL     1       1.972  53.815 -10.056  1.00  0.00     0.036 C 
HETATM    9  C16 UNL     1       1.560  52.359 -10.359  1.00  0.00     0.015 C 
HETATM   10  C17 UNL     1       2.723  51.547 -10.942  1.00  0.00    -0.028 C 
HETATM   11  C18 UNL     1       3.092  52.134 -12.342  1.00  0.00     0.016 C 
HETATM   12  C19 UNL     1       3.838  55.575  -9.523  1.00  0.00    -0.014 C 
HETATM   13  C20 UNL     1       3.800  56.278 -10.909  1.00  0.00     0.020 C 
HETATM   14  C21 UNL     1       2.800  56.276  -8.598  1.00  0.00     0.021 C 
HETATM   15  C22 UNL     1       3.378  57.465  -7.851  1.00  0.00     0.080 C 
HETATM   16  C23 UNL     1       4.437  56.978  -6.890  1.00  0.00     0.135 C 
HETATM   17  O1  UNL     1       4.545  57.496  -5.778  1.00  0.00    -0.297 OA
HETATM   18  C24 UNL     1       5.363  55.840  -7.364  1.00  0.00     0.018 C 
HETATM   19  C25 UNL     1       6.792  56.215  -6.909  1.00  0.00     0.023 C 
HETATM   20  C26 UNL     1       4.948  54.562  -6.624  1.00  0.00     0.023 C 
HETATM   21  C27 UNL     1       5.288  55.758  -8.934  1.00  0.00     0.020 C 
HETATM   22  C28 UNL     1       6.262  54.773  -9.584  1.00  0.00     0.090 C 
HETATM   23  C29 UNL     1       5.794  53.351  -9.470  1.00  0.00     0.157 C 
HETATM   24  O2  UNL     1       6.587  52.452  -9.207  1.00  0.00    -0.293 OA
ENDROOT
BRANCH   1  25
HETATM   25  C6  UNL     1       1.696  49.421 -12.265  1.00  0.00    -0.014 C 
HETATM   26  C7  UNL     1       2.569  48.573 -13.197  1.00  0.00     0.010 C 
BRANCH  25  27
HETATM   27  C5  UNL     1       1.020  50.568 -13.065  1.00  0.00     0.008 C 
BRANCH  27  28
HETATM   28  C4  UNL     1       0.673  50.199 -14.514  1.00  0.00     0.028 C 
BRANCH  28  29
HETATM   29  C3  UNL     1       1.131  51.267 -15.471  1.00  0.00    -0.013 C 
HETATM   30  C2  UNL     1       0.822  51.375 -16.779  1.00  0.00     0.008 C 
HETATM   31  C1  UNL     1      -0.008  50.397 -17.558  1.00  0.00     0.055 C 
BRANCH  30  32
HETATM   32  C30 UNL     1       1.324  52.518 -17.589  1.00  0.00     0.171 C 
HETATM   33  O3  UNL     1       0.913  52.832 -18.692  1.00  0.00    -0.646 OA
BRANCH  32  34
HETATM   34  O4  UNL     1       2.308  53.217 -17.000  1.00  0.00    -0.773 OA
HETATM   35  H44 UNL     1       2.517  53.914 -17.655  1.00  0.00     0.167 HD
ENDBRANCH  32  34
ENDBRANCH  30  32
ENDBRANCH  28  29
ENDBRANCH  27  28
ENDBRANCH  25  27
ENDBRANCH   1  25
TORSDOF 6
ENDMDL
MODEL 5
REMARK minimizedAffinity -7.62528944
REMARK CNNscore 0.461789429
REMARK CNNaffinity 6.64528131
REMARK  6 active torsions:
REMARK  status: ('A' for Active; 'I' for Inactive)
REMARK    1  A    between atoms: C2_2  and  C30_32 
REMARK    2  A    between atoms: C3_3  and  C4_4 
REMARK    3  A    between atoms: C4_4  and  C5_5 
REMARK    4  A    between atoms: C5_5  and  C6_6 
REMARK    5  A    between atoms: C6_6  and  C8_8 
REMARK    6  A    between atoms: C30_32  and  O4_34 
ROOT
HETATM    1  C8  UNL     1      -1.448  50.947 -17.489  1.00  0.00    -0.002 C 
HETATM    2  C9  UNL     1      -0.494  51.584 -18.544  1.00  0.00     0.007 C 
HETATM    3  C10 UNL     1      -0.918  51.067 -19.930  1.00  0.00     0.015 C 
HETATM    4  C11 UNL     1      -2.304  50.435 -19.713  1.00  0.00    -0.005 C 
HETATM    5  C12 UNL     1      -3.349  51.593 -19.759  1.00  0.00     0.021 C 
HETATM    6  C13 UNL     1      -2.829  49.396 -20.693  1.00  0.00    -0.000 C 
HETATM    7  C14 UNL     1      -3.694  48.426 -20.302  1.00  0.00    -0.060 C 
HETATM    8  C15 UNL     1      -4.099  48.300 -18.823  1.00  0.00     0.036 C 
HETATM    9  C16 UNL     1      -3.463  49.281 -17.816  1.00  0.00     0.015 C 
HETATM   10  C17 UNL     1      -2.091  49.775 -18.293  1.00  0.00    -0.028 C 
HETATM   11  C18 UNL     1      -1.103  48.566 -18.317  1.00  0.00     0.016 C 
HETATM   12  C19 UNL     1      -4.301  47.378 -21.267  1.00  0.00    -0.014 C 
HETATM   13  C20 UNL     1      -3.579  46.029 -20.993  1.00  0.00     0.020 C 
HETATM   14  C21 UNL     1      -5.819  47.180 -20.981  1.00  0.00     0.021 C 
HETATM   15  C22 UNL     1      -6.591  46.684 -22.190  1.00  0.00     0.080 C 
HETATM   16  C23 UNL     1      -6.570  47.749 -23.262  1.00  0.00     0.135 C 
HETATM   17  O1  UNL     1      -7.569  47.949 -23.953  1.00  0.00    -0.297 OA
HETATM   18  C24 UNL     1      -5.261  48.542 -23.454  1.00  0.00     0.018 C 
HETATM   19  C25 UNL     1      -5.037  48.665 -24.978  1.00  0.00     0.023 C 
HETATM   20  C26 UNL     1      -5.483  49.952 -22.891  1.00  0.00     0.023 C 
HETATM   21  C27 UNL     1      -4.087  47.734 -22.787  1.00  0.00     0.020 C 
HETATM   22  C28 UNL     1      -2.687  48.311 -23.013  1.00  0.00     0.090 C 
HETATM   23  C29 UNL     1      -2.406  49.487 -22.123  1.00  0.00     0.157 C 
HETATM   24  O2  UNL     1      -1.819  50.474 -22.559  1.00  0.00    -0.293 OA
ENDROOT
BRANCH   1  25
HETATM   25  C6  UNL     1      -0.715  50.669 -16.139  1.00  0.00    -0.014 C 
HETATM   26  C7  UNL     1      -1.635  50.873 -14.931  1.00  0.00     0.010 C 
BRANCH  25  27
HETATM   27  C5  UNL     1       0.538  51.578 -16.014  1.00  0.00     0.008 C 
BRANCH  27  28
HETATM   28  C4  UNL     1       0.865  51.996 -14.574  1.00  0.00     0.028 C 
BRANCH  28  29
HETATM   29  C3  UNL     1       1.896  51.083 -13.966  1.00  0.00    -0.013 C 
HETATM   30  C2  UNL     1       3.219  51.058 -14.230  1.00  0.00     0.008 C 
HETATM   31  C1  UNL     1       3.917  51.914 -15.244  1.00  0.00     0.055 C 
BRANCH  30  32
HETATM   32  C30 UNL     1       4.121  50.117 -13.512  1.00  0.00     0.171 C 
HETATM   33  O3  UNL     1       4.970  49.419 -14.037  1.00  0.00    -0.646 OA
BRANCH  32  34
HETATM   34  O4  UNL     1       3.933  50.084 -12.182  1.00  0.00    -0.773 OA
HETATM   35  H44 UNL     1       4.591  49.428 -11.875  1.00  0.00     0.167 HD
ENDBRANCH  32  34
ENDBRANCH  30  32
ENDBRANCH  28  29
ENDBRANCH  27  28
ENDBRANCH  25  27
ENDBRANCH   1  25
TORSDOF 6
ENDMDL
MODEL 6
REMARK minimizedAffinity -7.8230052
REMARK CNNscore 0.384802461
REMARK CNNaffinity 6.64689589
REMARK  6 active torsions:
REMARK  status: ('A' for Active; 'I' for Inactive)
REMARK    1  A    between atoms: C2_2  and  C30_32 
REMARK    2  A    between atoms: C3_3  and  C4_4 
REMARK    3  A    between atoms: C4_4  and  C5_5 
REMARK    4  A    between atoms: C5_5  and  C6_6 
REMARK    5  A    between atoms: C6_6  and  C8_8 
REMARK    6  A    between atoms: C30_32  and  O4_34 
ROOT
HETATM    1  C8  UNL     1      -4.234  49.287 -22.237  1.00  0.00    -0.002 C 
HETATM    2  C9  UNL     1      -4.889  48.650 -23.499  1.00  0.00     0.007 C 
HETATM    3  C10 UNL     1      -6.121  47.852 -23.034  1.00  0.00     0.015 C 
HETATM    4  C11 UNL     1      -6.374  48.317 -21.589  1.00  0.00    -0.005 C 
HETATM    5  C12 UNL     1      -7.190  49.645 -21.671  1.00  0.00     0.021 C 
HETATM    6  C13 UNL     1      -7.161  47.433 -20.632  1.00  0.00    -0.000 C 
HETATM    7  C14 UNL     1      -6.944  47.470 -19.293  1.00  0.00    -0.060 C 
HETATM    8  C15 UNL     1      -5.823  48.350 -18.714  1.00  0.00     0.036 C 
HETATM    9  C16 UNL     1      -4.949  49.147 -19.705  1.00  0.00     0.015 C 
HETATM   10  C17 UNL     1      -4.886  48.470 -21.080  1.00  0.00    -0.028 C 
HETATM   11  C18 UNL     1      -4.142  47.104 -20.933  1.00  0.00     0.016 C 
HETATM   12  C19 UNL     1      -7.751  46.633 -18.270  1.00  0.00    -0.014 C 
HETATM   13  C20 UNL     1      -6.831  45.473 -17.797  1.00  0.00     0.020 C 
HETATM   14  C21 UNL     1      -8.122  47.493 -17.026  1.00  0.00     0.021 C 
HETATM   15  C22 UNL     1      -9.362  46.993 -16.306  1.00  0.00     0.080 C 
HETATM   16  C23 UNL     1     -10.558  47.152 -17.215  1.00  0.00     0.135 C 
HETATM   17  O1  UNL     1     -11.645  47.498 -16.749  1.00  0.00    -0.297 OA
HETATM   18  C24 UNL     1     -10.362  46.850 -18.714  1.00  0.00     0.018 C 
HETATM   19  C25 UNL     1     -11.601  46.046 -19.170  1.00  0.00     0.023 C 
HETATM   20  C26 UNL     1     -10.362  48.189 -19.464  1.00  0.00     0.023 C 
HETATM   21  C27 UNL     1      -9.054  45.991 -18.882  1.00  0.00     0.020 C 
HETATM   22  C28 UNL     1      -8.787  45.478 -20.299  1.00  0.00     0.090 C 
HETATM   23  C29 UNL     1      -8.222  46.543 -21.193  1.00  0.00     0.157 C 
HETATM   24  O2  UNL     1      -8.605  46.652 -22.354  1.00  0.00    -0.293 OA
ENDROOT
BRANCH   1  25
HETATM   25  C6  UNL     1      -2.681  49.367 -22.369  1.00  0.00    -0.014 C 
HETATM   26  C7  UNL     1      -2.006  48.030 -22.043  1.00  0.00     0.010 C 
BRANCH  25  27
HETATM   27  C5  UNL     1      -2.123  50.484 -21.445  1.00  0.00     0.008 C 
BRANCH  27  28
HETATM   28  C4  UNL     1      -0.641  50.315 -21.086  1.00  0.00     0.028 C 
BRANCH  28  29
HETATM   29  C3  UNL     1      -0.044  51.615 -20.618  1.00  0.00    -0.013 C 
HETATM   30  C2  UNL     1       0.461  52.603 -21.385  1.00  0.00     0.008 C 
HETATM   31  C1  UNL     1       0.577  52.566 -22.880  1.00  0.00     0.055 C 
BRANCH  30  32
HETATM   32  C30 UNL     1       0.983  53.854 -20.771  1.00  0.00     0.171 C 
HETATM   33  O3  UNL     1       1.758  54.628 -21.304  1.00  0.00    -0.646 OA
BRANCH  32  34
HETATM   34  O4  UNL     1       0.523  54.090 -19.531  1.00  0.00    -0.773 OA
HETATM   35  H44 UNL     1       0.958  54.930 -19.283  1.00  0.00     0.167 HD
ENDBRANCH  32  34
ENDBRANCH  30  32
ENDBRANCH  28  29
ENDBRANCH  27  28
ENDBRANCH  25  27
ENDBRANCH   1  25
TORSDOF 6
ENDMDL
MODEL 7
REMARK minimizedAffinity -8.09620667
REMARK CNNscore 0.381565839
REMARK CNNaffinity 6.91206551
REMARK  6 active torsions:
REMARK  status: ('A' for Active; 'I' for Inactive)
REMARK    1  A    between atoms: C2_2  and  C30_32 
REMARK    2  A    between atoms: C3_3  and  C4_4 
REMARK    3  A    between atoms: C4_4  and  C5_5 
REMARK    4  A    between atoms: C5_5  and  C6_6 
REMARK    5  A    between atoms: C6_6  and  C8_8 
REMARK    6  A    between atoms: C30_32  and  O4_34 
ROOT
HETATM    1  C8  UNL     1      -0.115  50.834 -17.921  1.00  0.00    -0.002 C 
HETATM    2  C9  UNL     1      -1.476  50.452 -17.266  1.00  0.00     0.007 C 
HETATM    3  C10 UNL     1      -2.502  50.258 -18.397  1.00  0.00     0.015 C 
HETATM    4  C11 UNL     1      -1.664  50.178 -19.685  1.00  0.00    -0.005 C 
HETATM    5  C12 UNL     1      -1.157  48.707 -19.812  1.00  0.00     0.021 C 
HETATM    6  C13 UNL     1      -2.305  50.487 -21.031  1.00  0.00    -0.000 C 
HETATM    7  C14 UNL     1      -1.579  50.988 -22.062  1.00  0.00    -0.060 C 
HETATM    8  C15 UNL     1      -0.094  51.341 -21.866  1.00  0.00     0.036 C 
HETATM    9  C16 UNL     1       0.513  51.140 -20.461  1.00  0.00     0.015 C 
HETATM   10  C17 UNL     1      -0.549  51.250 -19.361  1.00  0.00    -0.028 C 
HETATM   11  C18 UNL     1      -1.093  52.714 -19.331  1.00  0.00     0.016 C 
HETATM   12  C19 UNL     1      -2.167  51.271 -23.466  1.00  0.00    -0.014 C 
HETATM   13  C20 UNL     1      -2.326  52.812 -23.597  1.00  0.00     0.020 C 
HETATM   14  C21 UNL     1      -1.190  50.790 -24.580  1.00  0.00     0.021 C 
HETATM   15  C22 UNL     1      -1.891  50.464 -25.886  1.00  0.00     0.080 C 
HETATM   16  C23 UNL     1      -2.800  49.276 -25.677  1.00  0.00     0.135 C 
HETATM   17  O1  UNL     1      -2.914  48.424 -26.558  1.00  0.00    -0.297 OA
HETATM   18  C24 UNL     1      -3.572  49.194 -24.344  1.00  0.00     0.018 C 
HETATM   19  C25 UNL     1      -5.009  48.743 -24.693  1.00  0.00     0.023 C 
HETATM   20  C26 UNL     1      -2.921  48.094 -23.495  1.00  0.00     0.023 C 
HETATM   21  C27 UNL     1      -3.587  50.624 -23.688  1.00  0.00     0.020 C 
HETATM   22  C28 UNL     1      -4.441  50.754 -22.424  1.00  0.00     0.090 C 
HETATM   23  C29 UNL     1      -3.756  50.187 -21.215  1.00  0.00     0.157 C 
HETATM   24  O2  UNL     1      -4.385  49.525 -20.394  1.00  0.00    -0.293 OA
ENDROOT
BRANCH   1  25
HETATM   25  C6  UNL     1       0.700  51.821 -17.028  1.00  0.00    -0.014 C 
HETATM   26  C7  UNL     1       1.748  52.596 -17.834  1.00  0.00     0.010 C 
BRANCH  25  27
HETATM   27  C5  UNL     1       1.385  51.048 -15.867  1.00  0.00     0.008 C 
BRANCH  27  28
HETATM   28  C4  UNL     1       2.476  51.849 -15.143  1.00  0.00     0.028 C 
BRANCH  28  29
HETATM   29  C3  UNL     1       2.507  51.521 -13.675  1.00  0.00    -0.013 C 
HETATM   30  C2  UNL     1       1.565  51.815 -12.754  1.00  0.00     0.008 C 
HETATM   31  C1  UNL     1       0.310  52.594 -13.017  1.00  0.00     0.055 C 
BRANCH  30  32
HETATM   32  C30 UNL     1       1.722  51.386 -11.339  1.00  0.00     0.171 C 
HETATM   33  O3  UNL     1       2.539  50.576 -10.936  1.00  0.00    -0.646 OA
BRANCH  32  34
HETATM   34  O4  UNL     1       0.866  51.976 -10.488  1.00  0.00    -0.773 OA
HETATM   35  H44 UNL     1       1.101  51.587  -9.621  1.00  0.00     0.167 HD
ENDBRANCH  32  34
ENDBRANCH  30  32
ENDBRANCH  28  29
ENDBRANCH  27  28
ENDBRANCH  25  27
ENDBRANCH   1  25
TORSDOF 6
ENDMDL
MODEL 8
REMARK minimizedAffinity -9.25512218
REMARK CNNscore 0.356221795
REMARK CNNaffinity 6.76170397
REMARK  6 active torsions:
REMARK  status: ('A' for Active; 'I' for Inactive)
REMARK    1  A    between atoms: C2_2  and  C30_32 
REMARK    2  A    between atoms: C3_3  and  C4_4 
REMARK    3  A    between atoms: C4_4  and  C5_5 
REMARK    4  A    between atoms: C5_5  and  C6_6 
REMARK    5  A    between atoms: C6_6  and  C8_8 
REMARK    6  A    between atoms: C30_32  and  O4_34 
ROOT
HETATM    1  C8  UNL     1      -0.537  50.113 -18.418  1.00  0.00    -0.002 C 
HETATM    2  C9  UNL     1      -1.367  48.847 -18.048  1.00  0.00     0.007 C 
HETATM    3  C10 UNL     1      -2.346  48.576 -19.204  1.00  0.00     0.015 C 
HETATM    4  C11 UNL     1      -1.843  49.449 -20.366  1.00  0.00    -0.005 C 
HETATM    5  C12 UNL     1      -0.698  48.658 -21.072  1.00  0.00     0.021 C 
HETATM    6  C13 UNL     1      -2.792  49.846 -21.488  1.00  0.00    -0.000 C 
HETATM    7  C14 UNL     1      -2.628  51.002 -22.180  1.00  0.00    -0.060 C 
HETATM    8  C15 UNL     1      -1.519  51.991 -21.783  1.00  0.00     0.036 C 
HETATM    9  C16 UNL     1      -0.641  51.637 -20.564  1.00  0.00     0.015 C 
HETATM   10  C17 UNL     1      -1.383  50.735 -19.571  1.00  0.00    -0.028 C 
HETATM   11  C18 UNL     1      -2.575  51.539 -18.958  1.00  0.00     0.016 C 
HETATM   12  C19 UNL     1      -3.531  51.428 -23.363  1.00  0.00    -0.014 C 
HETATM   13  C20 UNL     1      -4.467  52.556 -22.845  1.00  0.00     0.020 C 
HETATM   14  C21 UNL     1      -2.675  52.008 -24.528  1.00  0.00     0.021 C 
HETATM   15  C22 UNL     1      -3.347  51.877 -25.882  1.00  0.00     0.080 C 
HETATM   16  C23 UNL     1      -3.474  50.413 -26.232  1.00  0.00     0.135 C 
HETATM   17  O1  UNL     1      -3.305  50.040 -27.394  1.00  0.00    -0.297 OA
HETATM   18  C24 UNL     1      -3.832  49.435 -25.095  1.00  0.00     0.018 C 
HETATM   19  C25 UNL     1      -4.880  48.454 -25.668  1.00  0.00     0.023 C 
HETATM   20  C26 UNL     1      -2.568  48.634 -24.753  1.00  0.00     0.023 C 
HETATM   21  C27 UNL     1      -4.442  50.261 -23.902  1.00  0.00     0.020 C 
HETATM   22  C28 UNL     1      -4.989  49.425 -22.742  1.00  0.00     0.090 C 
HETATM   23  C29 UNL     1      -3.898  48.909 -21.849  1.00  0.00     0.157 C 
HETATM   24  O2  UNL     1      -3.940  47.763 -21.412  1.00  0.00    -0.293 OA
ENDROOT
BRANCH   1  25
HETATM   25  C6  UNL     1      -0.179  50.959 -17.156  1.00  0.00    -0.014 C 
HETATM   26  C7  UNL     1       0.926  51.982 -17.442  1.00  0.00     0.010 C 
BRANCH  25  27
HETATM   27  C5  UNL     1       0.247  50.026 -15.989  1.00  0.00     0.008 C 
BRANCH  27  28
HETATM   28  C4  UNL     1       0.555  50.765 -14.680  1.00  0.00     0.028 C 
BRANCH  28  29
HETATM   29  C3  UNL     1       1.654  50.078 -13.915  1.00  0.00    -0.013 C 
HETATM   30  C2  UNL     1       2.967  50.390 -13.918  1.00  0.00     0.008 C 
HETATM   31  C1  UNL     1       3.600  51.467 -14.748  1.00  0.00     0.055 C 
BRANCH  30  32
HETATM   32  C30 UNL     1       3.931  49.636 -13.072  1.00  0.00     0.171 C 
HETATM   33  O3  UNL     1       3.642  48.996 -12.076  1.00  0.00    -0.646 OA
BRANCH  32  34
HETATM   34  O4  UNL     1       5.204  49.707 -13.496  1.00  0.00    -0.773 OA
HETATM   35  H44 UNL     1       5.693  49.170 -12.839  1.00  0.00     0.167 HD
ENDBRANCH  32  34
ENDBRANCH  30  32
ENDBRANCH  28  29
ENDBRANCH  27  28
ENDBRANCH  25  27
ENDBRANCH   1  25
TORSDOF 6
ENDMDL
MODEL 9
REMARK minimizedAffinity -9.02291489
REMARK CNNscore 0.304994524
REMARK CNNaffinity 6.1909523
REMARK  6 active torsions:
REMARK  status: ('A' for Active; 'I' for Inactive)
REMARK    1  A    between atoms: C2_2  and  C30_32 
REMARK    2  A    between atoms: C3_3  and  C4_4 
REMARK    3  A    between atoms: C4_4  and  C5_5 
REMARK    4  A    between atoms: C5_5  and  C6_6 
REMARK    5  A    between atoms: C6_6  and  C8_8 
REMARK    6  A    between atoms: C30_32  and  O4_34 
ROOT
HETATM    1  C8  UNL     1      -1.756  50.287 -23.712  1.00  0.00    -0.002 C 
HETATM    2  C9  UNL     1      -1.471  51.769 -23.328  1.00  0.00     0.007 C 
HETATM    3  C10 UNL     1      -1.611  51.892 -21.801  1.00  0.00     0.015 C 
HETATM    4  C11 UNL     1      -1.621  50.443 -21.284  1.00  0.00    -0.005 C 
HETATM    5  C12 UNL     1      -0.133  49.986 -21.171  1.00  0.00     0.021 C 
HETATM    6  C13 UNL     1      -2.232  50.122 -19.927  1.00  0.00    -0.000 C 
HETATM    7  C14 UNL     1      -2.784  48.910 -19.667  1.00  0.00    -0.060 C 
HETATM    8  C15 UNL     1      -2.885  47.851 -20.778  1.00  0.00     0.036 C 
HETATM    9  C16 UNL     1      -2.376  48.232 -22.184  1.00  0.00     0.015 C 
HETATM   10  C17 UNL     1      -2.456  49.744 -22.428  1.00  0.00    -0.028 C 
HETATM   11  C18 UNL     1      -3.959  50.170 -22.443  1.00  0.00     0.016 C 
HETATM   12  C19 UNL     1      -3.371  48.513 -18.291  1.00  0.00    -0.014 C 
HETATM   13  C20 UNL     1      -4.919  48.536 -18.426  1.00  0.00     0.020 C 
HETATM   14  C21 UNL     1      -2.942  47.066 -17.906  1.00  0.00     0.021 C 
HETATM   15  C22 UNL     1      -2.935  46.827 -16.407  1.00  0.00     0.080 C 
HETATM   16  C23 UNL     1      -1.870  47.691 -15.773  1.00  0.00     0.135 C 
HETATM   17  O1  UNL     1      -1.197  47.254 -14.839  1.00  0.00    -0.297 OA
HETATM   18  C24 UNL     1      -1.685  49.118 -16.328  1.00  0.00     0.018 C 
HETATM   19  C25 UNL     1      -1.506  50.048 -15.106  1.00  0.00     0.023 C 
HETATM   20  C26 UNL     1      -0.381  49.138 -17.136  1.00  0.00     0.023 C 
HETATM   21  C27 UNL     1      -2.978  49.510 -17.135  1.00  0.00     0.020 C 
HETATM   22  C28 UNL     1      -3.023  50.956 -17.634  1.00  0.00     0.090 C 
HETATM   23  C29 UNL     1      -2.176  51.162 -18.857  1.00  0.00     0.157 C 
HETATM   24  O2  UNL     1      -1.486  52.172 -18.975  1.00  0.00    -0.293 OA
ENDROOT
BRANCH   1  25
HETATM   25  C6  UNL     1      -2.459  50.173 -25.101  1.00  0.00    -0.014 C 
HETATM   26  C7  UNL     1      -3.670  51.106 -25.213  1.00  0.00     0.010 C 
BRANCH  25  27
HETATM   27  C5  UNL     1      -2.892  48.704 -25.362  1.00  0.00     0.008 C 
BRANCH  27  28
HETATM   28  C4  UNL     1      -4.271  48.568 -26.022  1.00  0.00     0.028 C 
BRANCH  28  29
HETATM   29  C3  UNL     1      -4.162  48.618 -27.522  1.00  0.00    -0.013 C 
HETATM   30  C2  UNL     1      -5.083  48.210 -28.420  1.00  0.00     0.008 C 
HETATM   31  C1  UNL     1      -6.394  47.564 -28.084  1.00  0.00     0.055 C 
BRANCH  30  32
HETATM   32  C30 UNL     1      -4.843  48.362 -29.881  1.00  0.00     0.171 C 
HETATM   33  O3  UNL     1      -4.907  47.463 -30.700  1.00  0.00    -0.646 OA
BRANCH  32  34
HETATM   34  O4  UNL     1      -4.536  49.614 -30.259  1.00  0.00    -0.773 OA
HETATM   35  H44 UNL     1      -4.411  49.536 -31.226  1.00  0.00     0.167 HD
ENDBRANCH  32  34
ENDBRANCH  30  32
ENDBRANCH  28  29
ENDBRANCH  27  28
ENDBRANCH  25  27
ENDBRANCH   1  25
TORSDOF 6
ENDMDL
