MODEL 1
REMARK minimizedAffinity -7.99617147
REMARK CNNscore 0.453139544
REMARK CNNaffinity 6.70049143
REMARK  15 active torsions:
REMARK  status: ('A' for Active; 'I' for Inactive)
REMARK    1  A    between atoms: C2_2  and  C3_3 
REMARK    2  A    between atoms: C2_2  and  C35_44 
REMARK    3  A    between atoms: C3_3  and  C4_4 
REMARK    4  A    between atoms: C4_4  and  C5_5 
REMARK    5  A    between atoms: C5_5  and  C7_7 
REMARK    6  A    between atoms: C9_9  and  O1_10 
REMARK    7  A    between atoms: C10_11  and  C11_12 
REMARK    8  A    between atoms: C11_12  and  O3_14 
REMARK    9  A    between atoms: C22_25  and  O4_26 
REMARK   10  A    between atoms: O4_26  and  C23_27 
REMARK   11  A    between atoms: C24_29  and  C25_30 
REMARK   12  A    between atoms: C25_30  and  O6_31 
REMARK   13  A    between atoms: C26_32  and  O7_33 
REMARK   14  A    between atoms: C28_35  and  O8_36 
REMARK   15  A    between atoms: C29_37  and  O9_38 
ROOT
HETATM    1  C7  UNL     1       4.645   7.817  12.391  1.00  0.00     0.001 C 
HETATM    2  C8  UNL     1       3.777   9.099  12.599  1.00  0.00     0.039 C 
HETATM    3  C9  UNL     1       4.612  10.145  13.354  1.00  0.00     0.142 C 
HETATM    4  C10 UNL     1       6.074   9.735  13.042  1.00  0.00     0.102 C 
HETATM    5  C12 UNL     1       7.245  10.267  13.875  1.00  0.00    -0.054 C 
HETATM    6  C13 UNL     1       8.400   9.556  13.973  1.00  0.00    -0.067 C 
HETATM    7  C14 UNL     1       8.549   8.174  13.346  1.00  0.00     0.036 C 
HETATM    8  C15 UNL     1       7.326   7.573  12.616  1.00  0.00     0.015 C 
HETATM    9  C16 UNL     1       5.998   8.159  13.121  1.00  0.00    -0.016 C 
HETATM   10  C17 UNL     1       5.849   7.605  14.585  1.00  0.00     0.017 C 
HETATM   11  C18 UNL     1       9.606  10.085  14.796  1.00  0.00    -0.013 C 
HETATM   12  C19 UNL     1       9.442   9.440  16.198  1.00  0.00     0.021 C 
HETATM   13  C20 UNL     1      10.978   9.699  14.180  1.00  0.00     0.017 C 
HETATM   14  C21 UNL     1      12.206  10.370  14.822  1.00  0.00     0.037 C 
HETATM   15  C22 UNL     1      11.915  11.479  15.840  1.00  0.00     0.153 C 
HETATM   16  C30 UNL     1      10.787  12.370  15.358  1.00  0.00    -0.055 C 
HETATM   17  C31 UNL     1      10.879  13.713  15.287  1.00  0.00     0.017 C 
HETATM   18  C32 UNL     1       9.555  11.654  14.799  1.00  0.00     0.029 C 
HETATM   19  C33 UNL     1       8.219  12.113  15.396  1.00  0.00     0.014 C 
HETATM   20  C34 UNL     1       7.062  11.636  14.510  1.00  0.00     0.036 C 
ENDROOT
BRANCH  15  21
HETATM   21  O4  UNL     1      13.135  12.204  16.031  1.00  0.00    -0.349 OA
BRANCH  21  22
HETATM   22  C23 UNL     1      14.130  11.488  16.773  1.00  0.00     0.292 C 
HETATM   23  O5  UNL     1      13.620  11.142  18.061  1.00  0.00    -0.348 OA
HETATM   24  C24 UNL     1      13.296  12.284  18.883  1.00  0.00     0.179 C 
HETATM   25  C26 UNL     1      14.536  13.183  19.111  1.00  0.00     0.183 C 
HETATM   26  C28 UNL     1      15.107  13.578  17.736  1.00  0.00     0.183 C 
HETATM   27  C29 UNL     1      15.420  12.324  16.915  1.00  0.00     0.204 C 
BRANCH  24  28
HETATM   28  C25 UNL     1      12.748  11.750  20.217  1.00  0.00     0.198 C 
BRANCH  28  29
HETATM   29  O6  UNL     1      11.972  10.564  20.015  1.00  0.00    -0.398 OA
HETATM   30  H36 UNL     1      11.066  10.840  19.781  1.00  0.00     0.209 HD
ENDBRANCH  28  29
ENDBRANCH  24  28
BRANCH  25  31
HETATM   31  O7  UNL     1      15.496  12.429  19.880  1.00  0.00    -0.385 OA
HETATM   32  C27 UNL     1      15.875  13.066  21.093  1.00  0.00     0.202 C 
ENDBRANCH  25  31
BRANCH  26  33
HETATM   33  O8  UNL     1      16.282  14.392  17.860  1.00  0.00    -0.390 OA
HETATM   34  H42 UNL     1      16.716  14.337  16.986  1.00  0.00     0.210 HD
ENDBRANCH  26  33
BRANCH  27  35
HETATM   35  O9  UNL     1      15.982  12.730  15.652  1.00  0.00    -0.388 OA
HETATM   36  H44 UNL     1      16.141  11.921  15.138  1.00  0.00     0.210 HD
ENDBRANCH  27  35
ENDBRANCH  21  22
ENDBRANCH  15  21
BRANCH   4  37
HETATM   37  C11 UNL     1       6.395  10.288  11.614  1.00  0.00     0.156 C 
HETATM   38  O2  UNL     1       5.889  11.237  11.036  1.00  0.00    -0.649 OA
BRANCH  37  39
HETATM   39  O3  UNL     1       7.288   9.543  10.917  1.00  0.00    -0.775 OA
HETATM   40  H16 UNL     1       7.296   9.965  10.031  1.00  0.00     0.167 HD
ENDBRANCH  37  39
ENDBRANCH   4  37
BRANCH   3  41
HETATM   41  O1  UNL     1       4.248  10.203  14.730  1.00  0.00    -0.394 OA
HETATM   42  H15 UNL     1       4.307   9.331  15.138  1.00  0.00     0.210 HD
ENDBRANCH   3  41
BRANCH   1  43
HETATM   43  C5  UNL     1       4.711   7.286  10.922  1.00  0.00    -0.013 C 
HETATM   44  C6  UNL     1       4.368   8.387   9.904  1.00  0.00     0.010 C 
BRANCH  43  45
HETATM   45  C4  UNL     1       3.705   6.115  10.720  1.00  0.00     0.009 C 
BRANCH  45  46
HETATM   46  C3  UNL     1       3.205   5.936   9.276  1.00  0.00     0.034 C 
BRANCH  46  47
HETATM   47  C2  UNL     1       1.957   6.702   8.876  1.00  0.00    -0.086 C 
HETATM   48  C1  UNL     1       1.838   7.172   7.622  1.00  0.00     0.014 C 
BRANCH  47  49
HETATM   49  C35 UNL     1       0.804   6.853   9.864  1.00  0.00     0.005 C 
HETATM   50  C36 UNL     1       0.796   8.209  10.565  1.00  0.00     0.014 C 
HETATM   51  C37 UNL     1       0.722   5.717  10.887  1.00  0.00     0.014 C 
ENDBRANCH  47  49
ENDBRANCH  46  47
ENDBRANCH  45  46
ENDBRANCH  43  45
ENDBRANCH   1  43
TORSDOF 15
ENDMDL
MODEL 2
REMARK minimizedAffinity -7.55711508
REMARK CNNscore 0.307098597
REMARK CNNaffinity 6.39509773
REMARK  15 active torsions:
REMARK  status: ('A' for Active; 'I' for Inactive)
REMARK    1  A    between atoms: C2_2  and  C3_3 
REMARK    2  A    between atoms: C2_2  and  C35_44 
REMARK    3  A    between atoms: C3_3  and  C4_4 
REMARK    4  A    between atoms: C4_4  and  C5_5 
REMARK    5  A    between atoms: C5_5  and  C7_7 
REMARK    6  A    between atoms: C9_9  and  O1_10 
REMARK    7  A    between atoms: C10_11  and  C11_12 
REMARK    8  A    between atoms: C11_12  and  O3_14 
REMARK    9  A    between atoms: C22_25  and  O4_26 
REMARK   10  A    between atoms: O4_26  and  C23_27 
REMARK   11  A    between atoms: C24_29  and  C25_30 
REMARK   12  A    between atoms: C25_30  and  O6_31 
REMARK   13  A    between atoms: C26_32  and  O7_33 
REMARK   14  A    between atoms: C28_35  and  O8_36 
REMARK   15  A    between atoms: C29_37  and  O9_38 
ROOT
HETATM    1  C7  UNL     1       3.982   8.051  12.911  1.00  0.00     0.001 C 
HETATM    2  C8  UNL     1       3.520   7.786  14.379  1.00  0.00     0.039 C 
HETATM    3  C9  UNL     1       4.692   8.080  15.329  1.00  0.00     0.142 C 
HETATM    4  C10 UNL     1       5.576   9.062  14.518  1.00  0.00     0.102 C 
HETATM    5  C12 UNL     1       7.030   9.337  14.916  1.00  0.00    -0.054 C 
HETATM    6  C13 UNL     1       7.936   9.737  13.985  1.00  0.00    -0.067 C 
HETATM    7  C14 UNL     1       7.577   9.839  12.506  1.00  0.00     0.036 C 
HETATM    8  C15 UNL     1       6.148   9.435  12.077  1.00  0.00     0.015 C 
HETATM    9  C16 UNL     1       5.498   8.450  13.063  1.00  0.00    -0.016 C 
HETATM   10  C17 UNL     1       6.313   7.117  12.891  1.00  0.00     0.017 C 
HETATM   11  C18 UNL     1       9.409  10.041  14.369  1.00  0.00    -0.013 C 
HETATM   12  C19 UNL     1      10.169   8.713  14.102  1.00  0.00     0.021 C 
HETATM   13  C20 UNL     1      10.030  11.195  13.538  1.00  0.00     0.017 C 
HETATM   14  C21 UNL     1      11.408  11.689  14.012  1.00  0.00     0.037 C 
HETATM   15  C22 UNL     1      11.902  11.130  15.352  1.00  0.00     0.153 C 
HETATM   16  C30 UNL     1      10.775  11.083  16.364  1.00  0.00    -0.055 C 
HETATM   17  C31 UNL     1      10.860  11.623  17.597  1.00  0.00     0.017 C 
HETATM   18  C32 UNL     1       9.445  10.512  15.866  1.00  0.00     0.029 C 
HETATM   19  C33 UNL     1       8.843   9.416  16.754  1.00  0.00     0.014 C 
HETATM   20  C34 UNL     1       7.368   9.205  16.393  1.00  0.00     0.036 C 
ENDROOT
BRANCH  15  21
HETATM   21  O4  UNL     1      12.984  11.964  15.782  1.00  0.00    -0.349 OA
BRANCH  21  22
HETATM   22  C23 UNL     1      14.124  11.241  16.261  1.00  0.00     0.292 C 
HETATM   23  O5  UNL     1      14.253  11.417  17.673  1.00  0.00    -0.348 OA
HETATM   24  C24 UNL     1      14.487  12.785  18.069  1.00  0.00     0.179 C 
HETATM   25  C26 UNL     1      15.779  13.343  17.423  1.00  0.00     0.183 C 
HETATM   26  C28 UNL     1      15.668  13.173  15.896  1.00  0.00     0.183 C 
HETATM   27  C29 UNL     1      15.412  11.705  15.546  1.00  0.00     0.204 C 
BRANCH  24  28
HETATM   28  C25 UNL     1      14.583  12.809  19.604  1.00  0.00     0.198 C 
BRANCH  28  29
HETATM   29  O6  UNL     1      15.010  14.094  20.070  1.00  0.00    -0.398 OA
HETATM   30  H36 UNL     1      15.984  14.114  20.033  1.00  0.00     0.209 HD
ENDBRANCH  28  29
ENDBRANCH  24  28
BRANCH  25  31
HETATM   31  O7  UNL     1      16.897  12.603  17.953  1.00  0.00    -0.385 OA
HETATM   32  C27 UNL     1      17.973  13.429  18.378  1.00  0.00     0.202 C 
ENDBRANCH  25  31
BRANCH  26  33
HETATM   33  O8  UNL     1      16.844  13.642  15.220  1.00  0.00    -0.390 OA
HETATM   34  H42 UNL     1      16.802  13.232  14.333  1.00  0.00     0.210 HD
ENDBRANCH  26  33
BRANCH  27  35
HETATM   35  O9  UNL     1      15.347  11.577  14.112  1.00  0.00    -0.388 OA
HETATM   36  H44 UNL     1      15.151  10.646  13.917  1.00  0.00     0.210 HD
ENDBRANCH  27  35
ENDBRANCH  21  22
ENDBRANCH  15  21
BRANCH   4  37
HETATM   37  C11 UNL     1       4.914  10.473  14.654  1.00  0.00     0.156 C 
HETATM   38  O2  UNL     1       4.263  10.919  15.586  1.00  0.00    -0.649 OA
BRANCH  37  39
HETATM   39  O3  UNL     1       5.015  11.243  13.544  1.00  0.00    -0.775 OA
HETATM   40  H16 UNL     1       4.473  12.032  13.764  1.00  0.00     0.167 HD
ENDBRANCH  37  39
ENDBRANCH   4  37
BRANCH   3  41
HETATM   41  O1  UNL     1       5.315   6.878  15.769  1.00  0.00    -0.394 OA
HETATM   42  H15 UNL     1       5.586   6.336  15.018  1.00  0.00     0.210 HD
ENDBRANCH   3  41
BRANCH   1  43
HETATM   43  C5  UNL     1       3.050   8.989  12.075  1.00  0.00    -0.013 C 
HETATM   44  C6  UNL     1       1.919   9.577  12.935  1.00  0.00     0.010 C 
BRANCH  43  45
HETATM   45  C4  UNL     1       2.402   8.204  10.898  1.00  0.00     0.009 C 
BRANCH  45  46
HETATM   46  C3  UNL     1       3.401   7.620   9.885  1.00  0.00     0.034 C 
BRANCH  46  47
HETATM   47  C2  UNL     1       2.826   6.997   8.625  1.00  0.00    -0.086 C 
HETATM   48  C1  UNL     1       2.998   5.684   8.394  1.00  0.00     0.014 C 
BRANCH  47  49
HETATM   49  C35 UNL     1       1.976   7.838   7.677  1.00  0.00     0.005 C 
HETATM   50  C36 UNL     1       0.630   8.233   8.278  1.00  0.00     0.014 C 
HETATM   51  C37 UNL     1       1.784   7.200   6.298  1.00  0.00     0.014 C 
ENDBRANCH  47  49
ENDBRANCH  46  47
ENDBRANCH  45  46
ENDBRANCH  43  45
ENDBRANCH   1  43
TORSDOF 15
ENDMDL
MODEL 3
REMARK minimizedAffinity -7.97433233
REMARK CNNscore 0.269765347
REMARK CNNaffinity 6.51368093
REMARK  15 active torsions:
REMARK  status: ('A' for Active; 'I' for Inactive)
REMARK    1  A    between atoms: C2_2  and  C3_3 
REMARK    2  A    between atoms: C2_2  and  C35_44 
REMARK    3  A    between atoms: C3_3  and  C4_4 
REMARK    4  A    between atoms: C4_4  and  C5_5 
REMARK    5  A    between atoms: C5_5  and  C7_7 
REMARK    6  A    between atoms: C9_9  and  O1_10 
REMARK    7  A    between atoms: C10_11  and  C11_12 
REMARK    8  A    between atoms: C11_12  and  O3_14 
REMARK    9  A    between atoms: C22_25  and  O4_26 
REMARK   10  A    between atoms: O4_26  and  C23_27 
REMARK   11  A    between atoms: C24_29  and  C25_30 
REMARK   12  A    between atoms: C25_30  and  O6_31 
REMARK   13  A    between atoms: C26_32  and  O7_33 
REMARK   14  A    between atoms: C28_35  and  O8_36 
REMARK   15  A    between atoms: C29_37  and  O9_38 
ROOT
HETATM    1  C7  UNL     1       3.155  12.704  16.925  1.00  0.00     0.001 C 
HETATM    2  C8  UNL     1       1.881  13.268  17.632  1.00  0.00     0.039 C 
HETATM    3  C9  UNL     1       0.662  12.446  17.187  1.00  0.00     0.142 C 
HETATM    4  C10 UNL     1       1.278  11.093  16.748  1.00  0.00     0.102 C 
HETATM    5  C12 UNL     1       0.488  10.100  15.889  1.00  0.00    -0.054 C 
HETATM    6  C13 UNL     1       1.136   9.216  15.086  1.00  0.00    -0.067 C 
HETATM    7  C14 UNL     1       2.653   9.232  14.930  1.00  0.00     0.036 C 
HETATM    8  C15 UNL     1       3.448  10.318  15.691  1.00  0.00     0.015 C 
HETATM    9  C16 UNL     1       2.592  11.557  16.003  1.00  0.00    -0.016 C 
HETATM   10  C17 UNL     1       2.327  12.222  14.604  1.00  0.00     0.017 C 
HETATM   11  C18 UNL     1       0.356   8.187  14.223  1.00  0.00    -0.013 C 
HETATM   12  C19 UNL     1       0.199   8.871  12.839  1.00  0.00     0.021 C 
HETATM   13  C20 UNL     1       1.097   6.831  14.075  1.00  0.00     0.017 C 
HETATM   14  C21 UNL     1       0.287   5.699  13.418  1.00  0.00     0.037 C 
HETATM   15  C22 UNL     1      -1.201   5.985  13.179  1.00  0.00     0.153 C 
HETATM   16  C30 UNL     1      -1.810   6.698  14.370  1.00  0.00    -0.055 C 
HETATM   17  C31 UNL     1      -2.927   6.276  14.997  1.00  0.00     0.017 C 
HETATM   18  C32 UNL     1      -1.003   7.865  14.941  1.00  0.00     0.029 C 
HETATM   19  C33 UNL     1      -1.795   9.166  15.124  1.00  0.00     0.014 C 
HETATM   20  C34 UNL     1      -1.025  10.120  16.045  1.00  0.00     0.036 C 
ENDROOT
BRANCH  15  21
HETATM   21  O4  UNL     1      -1.833   4.726  12.918  1.00  0.00    -0.349 OA
BRANCH  21  22
HETATM   22  C23 UNL     1      -2.584   4.691  11.699  1.00  0.00     0.292 C 
HETATM   23  O5  UNL     1      -3.966   4.927  11.972  1.00  0.00    -0.348 OA
HETATM   24  C24 UNL     1      -4.572   3.920  12.810  1.00  0.00     0.179 C 
HETATM   25  C26 UNL     1      -4.470   2.516  12.165  1.00  0.00     0.183 C 
HETATM   26  C28 UNL     1      -2.988   2.229  11.862  1.00  0.00     0.183 C 
HETATM   27  C29 UNL     1      -2.406   3.337  10.979  1.00  0.00     0.204 C 
BRANCH  24  28
HETATM   28  C25 UNL     1      -6.041   4.322  13.025  1.00  0.00     0.198 C 
BRANCH  28  29
HETATM   29  O6  UNL     1      -6.789   3.246  13.600  1.00  0.00    -0.398 OA
HETATM   30  H36 UNL     1      -7.080   2.665  12.872  1.00  0.00     0.209 HD
ENDBRANCH  28  29
ENDBRANCH  24  28
BRANCH  25  31
HETATM   31  O7  UNL     1      -5.259   2.523  10.958  1.00  0.00    -0.385 OA
HETATM   32  C27 UNL     1      -6.140   1.412  10.851  1.00  0.00     0.202 C 
ENDBRANCH  25  31
BRANCH  26  33
HETATM   33  O8  UNL     1      -2.808   0.953  11.232  1.00  0.00    -0.390 OA
HETATM   34  H42 UNL     1      -1.919   0.996  10.828  1.00  0.00     0.210 HD
ENDBRANCH  26  33
BRANCH  27  35
HETATM   35  O9  UNL     1      -1.031   3.020  10.689  1.00  0.00    -0.388 OA
HETATM   36  H44 UNL     1      -0.675   3.751  10.157  1.00  0.00     0.210 HD
ENDBRANCH  27  35
ENDBRANCH  21  22
ENDBRANCH  15  21
BRANCH   4  37
HETATM   37  C11 UNL     1       1.540  10.278  18.057  1.00  0.00     0.156 C 
HETATM   38  O2  UNL     1       2.386   9.421  18.261  1.00  0.00    -0.649 OA
BRANCH  37  39
HETATM   39  O3  UNL     1       0.641  10.508  19.045  1.00  0.00    -0.775 OA
HETATM   40  H16 UNL     1       0.890   9.857  19.736  1.00  0.00     0.167 HD
ENDBRANCH  37  39
ENDBRANCH   4  37
BRANCH   3  41
HETATM   41  O1  UNL     1      -0.104  13.143  16.209  1.00  0.00    -0.394 OA
HETATM   42  H15 UNL     1       0.449  13.404  15.462  1.00  0.00     0.210 HD
ENDBRANCH   3  41
BRANCH   1  43
HETATM   43  C5  UNL     1       4.353  12.370  17.873  1.00  0.00    -0.013 C 
HETATM   44  C6  UNL     1       5.328  11.373  17.225  1.00  0.00     0.010 C 
BRANCH  43  45
HETATM   45  C4  UNL     1       3.838  11.745  19.202  1.00  0.00     0.009 C 
BRANCH  45  46
HETATM   46  C3  UNL     1       4.061  12.612  20.452  1.00  0.00     0.034 C 
BRANCH  46  47
HETATM   47  C2  UNL     1       4.523  11.904  21.714  1.00  0.00    -0.086 C 
HETATM   48  C1  UNL     1       5.304  12.554  22.593  1.00  0.00     0.014 C 
BRANCH  47  49
HETATM   49  C35 UNL     1       4.022  10.497  22.026  1.00  0.00     0.005 C 
HETATM   50  C36 UNL     1       2.505  10.369  21.920  1.00  0.00     0.014 C 
HETATM   51  C37 UNL     1       4.517   9.955  23.370  1.00  0.00     0.014 C 
ENDBRANCH  47  49
ENDBRANCH  46  47
ENDBRANCH  45  46
ENDBRANCH  43  45
ENDBRANCH   1  43
TORSDOF 15
ENDMDL
MODEL 4
REMARK minimizedAffinity -8.4138689
REMARK CNNscore 0.248996422
REMARK CNNaffinity 6.45546722
REMARK  15 active torsions:
REMARK  status: ('A' for Active; 'I' for Inactive)
REMARK    1  A    between atoms: C2_2  and  C3_3 
REMARK    2  A    between atoms: C2_2  and  C35_44 
REMARK    3  A    between atoms: C3_3  and  C4_4 
REMARK    4  A    between atoms: C4_4  and  C5_5 
REMARK    5  A    between atoms: C5_5  and  C7_7 
REMARK    6  A    between atoms: C9_9  and  O1_10 
REMARK    7  A    between atoms: C10_11  and  C11_12 
REMARK    8  A    between atoms: C11_12  and  O3_14 
REMARK    9  A    between atoms: C22_25  and  O4_26 
REMARK   10  A    between atoms: O4_26  and  C23_27 
REMARK   11  A    between atoms: C24_29  and  C25_30 
REMARK   12  A    between atoms: C25_30  and  O6_31 
REMARK   13  A    between atoms: C26_32  and  O7_33 
REMARK   14  A    between atoms: C28_35  and  O8_36 
REMARK   15  A    between atoms: C29_37  and  O9_38 
ROOT
HETATM    1  C7  UNL     1      -1.486   6.750  12.027  1.00  0.00     0.001 C 
HETATM    2  C8  UNL     1      -0.301   6.611  11.019  1.00  0.00     0.039 C 
HETATM    3  C9  UNL     1       0.849   7.522  11.476  1.00  0.00     0.142 C 
HETATM    4  C10 UNL     1       0.594   7.691  12.996  1.00  0.00     0.102 C 
HETATM    5  C12 UNL     1       1.272   8.808  13.796  1.00  0.00    -0.054 C 
HETATM    6  C13 UNL     1       0.695   9.292  14.928  1.00  0.00    -0.067 C 
HETATM    7  C14 UNL     1      -0.678   8.821  15.396  1.00  0.00     0.036 C 
HETATM    8  C15 UNL     1      -1.428   7.791  14.521  1.00  0.00     0.015 C 
HETATM    9  C16 UNL     1      -0.979   7.835  13.051  1.00  0.00    -0.016 C 
HETATM   10  C17 UNL     1      -1.509   9.214  12.513  1.00  0.00     0.017 C 
HETATM   11  C18 UNL     1       1.373  10.410  15.766  1.00  0.00    -0.013 C 
HETATM   12  C19 UNL     1       0.750  11.731  15.241  1.00  0.00     0.021 C 
HETATM   13  C20 UNL     1       1.125  10.263  17.291  1.00  0.00     0.017 C 
HETATM   14  C21 UNL     1       1.942  11.206  18.191  1.00  0.00     0.037 C 
HETATM   15  C22 UNL     1       3.039  12.022  17.495  1.00  0.00     0.153 C 
HETATM   16  C30 UNL     1       3.788  11.170  16.490  1.00  0.00    -0.055 C 
HETATM   17  C31 UNL     1       5.131  11.053  16.469  1.00  0.00     0.017 C 
HETATM   18  C32 UNL     1       2.927  10.307  15.565  1.00  0.00     0.029 C 
HETATM   19  C33 UNL     1       3.252  10.443  14.073  1.00  0.00     0.014 C 
HETATM   20  C34 UNL     1       2.628   9.277  13.295  1.00  0.00     0.036 C 
ENDROOT
BRANCH  15  21
HETATM   21  O4  UNL     1       3.898  12.532  18.522  1.00  0.00    -0.349 OA
BRANCH  21  22
HETATM   22  C23 UNL     1       4.755  11.547  19.110  1.00  0.00     0.292 C 
HETATM   23  O5  UNL     1       4.008  10.732  20.015  1.00  0.00    -0.348 OA
HETATM   24  C24 UNL     1       3.458  11.461  21.133  1.00  0.00     0.179 C 
HETATM   25  C26 UNL     1       4.573  12.151  21.957  1.00  0.00     0.183 C 
HETATM   26  C28 UNL     1       5.394  13.043  21.008  1.00  0.00     0.183 C 
HETATM   27  C29 UNL     1       5.939  12.212  19.843  1.00  0.00     0.204 C 
BRANCH  24  28
HETATM   28  C25 UNL     1       2.676  10.456  21.997  1.00  0.00     0.198 C 
BRANCH  28  29
HETATM   29  O6  UNL     1       2.047   9.461  21.182  1.00  0.00    -0.398 OA
HETATM   30  H36 UNL     1       1.195   9.825  20.875  1.00  0.00     0.209 HD
ENDBRANCH  28  29
ENDBRANCH  24  28
BRANCH  25  31
HETATM   31  O7  UNL     1       5.392  11.121  22.548  1.00  0.00    -0.385 OA
HETATM   32  C27 UNL     1       4.667  10.238  23.394  1.00  0.00     0.202 C 
ENDBRANCH  25  31
BRANCH  26  33
HETATM   33  O8  UNL     1       6.471  13.700  21.691  1.00  0.00    -0.390 OA
HETATM   34  H42 UNL     1       7.080  13.985  20.981  1.00  0.00     0.210 HD
ENDBRANCH  26  33
BRANCH  27  35
HETATM   35  O9  UNL     1       6.728  13.070  18.995  1.00  0.00    -0.388 OA
HETATM   36  H44 UNL     1       7.034  12.529  18.249  1.00  0.00     0.210 HD
ENDBRANCH  27  35
ENDBRANCH  21  22
ENDBRANCH  15  21
BRANCH   4  37
HETATM   37  C11 UNL     1       1.141   6.398  13.685  1.00  0.00     0.156 C 
HETATM   38  O2  UNL     1       0.797   5.240  13.508  1.00  0.00    -0.649 OA
BRANCH  37  39
HETATM   39  O3  UNL     1       2.048   6.632  14.665  1.00  0.00    -0.775 OA
HETATM   40  H16 UNL     1       2.205   5.741  15.048  1.00  0.00     0.167 HD
ENDBRANCH  37  39
ENDBRANCH   4  37
BRANCH   3  41
HETATM   41  O1  UNL     1       0.902   8.717  10.702  1.00  0.00    -0.394 OA
HETATM   42  H15 UNL     1       0.052   9.173  10.717  1.00  0.00     0.210 HD
ENDBRANCH   3  41
BRANCH   1  43
HETATM   43  C5  UNL     1      -2.044   5.403  12.594  1.00  0.00    -0.013 C 
HETATM   44  C6  UNL     1      -1.872   4.251  11.589  1.00  0.00     0.010 C 
BRANCH  43  45
HETATM   45  C4  UNL     1      -3.560   5.536  12.919  1.00  0.00     0.009 C 
BRANCH  45  46
HETATM   46  C3  UNL     1      -4.361   4.228  12.802  1.00  0.00     0.034 C 
BRANCH  46  47
HETATM   47  C2  UNL     1      -5.854   4.304  13.067  1.00  0.00    -0.086 C 
HETATM   48  C1  UNL     1      -6.421   5.491  13.345  1.00  0.00     0.014 C 
BRANCH  47  49
HETATM   49  C35 UNL     1      -6.720   3.056  12.923  1.00  0.00     0.005 C 
HETATM   50  C36 UNL     1      -6.294   2.169  11.756  1.00  0.00     0.014 C 
HETATM   51  C37 UNL     1      -8.220   3.356  12.853  1.00  0.00     0.014 C 
ENDBRANCH  47  49
ENDBRANCH  46  47
ENDBRANCH  45  46
ENDBRANCH  43  45
ENDBRANCH   1  43
TORSDOF 15
ENDMDL
MODEL 5
REMARK minimizedAffinity -6.60027695
REMARK CNNscore 0.24161534
REMARK CNNaffinity 6.20880318
REMARK  15 active torsions:
REMARK  status: ('A' for Active; 'I' for Inactive)
REMARK    1  A    between atoms: C2_2  and  C3_3 
REMARK    2  A    between atoms: C2_2  and  C35_44 
REMARK    3  A    between atoms: C3_3  and  C4_4 
REMARK    4  A    between atoms: C4_4  and  C5_5 
REMARK    5  A    between atoms: C5_5  and  C7_7 
REMARK    6  A    between atoms: C9_9  and  O1_10 
REMARK    7  A    between atoms: C10_11  and  C11_12 
REMARK    8  A    between atoms: C11_12  and  O3_14 
REMARK    9  A    between atoms: C22_25  and  O4_26 
REMARK   10  A    between atoms: O4_26  and  C23_27 
REMARK   11  A    between atoms: C24_29  and  C25_30 
REMARK   12  A    between atoms: C25_30  and  O6_31 
REMARK   13  A    between atoms: C26_32  and  O7_33 
REMARK   14  A    between atoms: C28_35  and  O8_36 
REMARK   15  A    between atoms: C29_37  and  O9_38 
ROOT
HETATM    1  C7  UNL     1     -10.082  -7.142  -6.309  1.00  0.00     0.001 C 
HETATM    2  C8  UNL     1     -10.811  -8.436  -6.794  1.00  0.00     0.039 C 
HETATM    3  C9  UNL     1     -10.429  -9.599  -5.864  1.00  0.00     0.142 C 
HETATM    4  C10 UNL     1     -10.012  -8.889  -4.550  1.00  0.00     0.102 C 
HETATM    5  C12 UNL     1      -9.209  -9.623  -3.471  1.00  0.00    -0.054 C 
HETATM    6  C13 UNL     1      -8.413  -8.930  -2.614  1.00  0.00    -0.067 C 
HETATM    7  C14 UNL     1      -8.209  -7.423  -2.745  1.00  0.00     0.036 C 
HETATM    8  C15 UNL     1      -8.912  -6.696  -3.914  1.00  0.00     0.015 C 
HETATM    9  C16 UNL     1      -9.213  -7.638  -5.092  1.00  0.00    -0.016 C 
HETATM   10  C17 UNL     1      -7.803  -7.995  -5.688  1.00  0.00     0.017 C 
HETATM   11  C18 UNL     1      -7.606  -9.650  -1.500  1.00  0.00    -0.013 C 
HETATM   12  C19 UNL     1      -6.207  -9.900  -2.124  1.00  0.00     0.021 C 
HETATM   13  C20 UNL     1      -7.476  -8.808  -0.202  1.00  0.00     0.017 C 
HETATM   14  C21 UNL     1      -6.878  -9.544   1.010  1.00  0.00     0.037 C 
HETATM   15  C22 UNL     1      -6.678 -11.056   0.851  1.00  0.00     0.153 C 
HETATM   16  C30 UNL     1      -7.865 -11.686   0.149  1.00  0.00    -0.055 C 
HETATM   17  C31 UNL     1      -8.539 -12.747   0.636  1.00  0.00     0.017 C 
HETATM   18  C32 UNL     1      -8.375 -10.957  -1.096  1.00  0.00     0.029 C 
HETATM   19  C33 UNL     1      -8.543 -11.845  -2.336  1.00  0.00     0.014 C 
HETATM   20  C34 UNL     1      -9.410 -11.127  -3.376  1.00  0.00     0.036 C 
ENDROOT
BRANCH  15  21
HETATM   21  O4  UNL     1      -6.475 -11.593   2.162  1.00  0.00    -0.349 OA
BRANCH  21  22
HETATM   22  C23 UNL     1      -6.154 -10.611   3.154  1.00  0.00     0.292 C 
HETATM   23  O5  UNL     1      -4.804 -10.174   2.986  1.00  0.00    -0.348 OA
HETATM   24  C24 UNL     1      -3.828 -11.221   3.172  1.00  0.00     0.179 C 
HETATM   25  C26 UNL     1      -3.932 -11.841   4.587  1.00  0.00     0.183 C 
HETATM   26  C28 UNL     1      -5.377 -12.327   4.797  1.00  0.00     0.183 C 
HETATM   27  C29 UNL     1      -6.360 -11.173   4.577  1.00  0.00     0.204 C 
BRANCH  24  28
HETATM   28  C25 UNL     1      -2.439 -10.601   2.942  1.00  0.00     0.198 C 
BRANCH  28  29
HETATM   29  O6  UNL     1      -1.437 -11.617   2.824  1.00  0.00    -0.398 OA
HETATM   30  H36 UNL     1      -1.154 -11.860   3.725  1.00  0.00     0.209 HD
ENDBRANCH  28  29
ENDBRANCH  24  28
BRANCH  25  31
HETATM   31  O7  UNL     1      -3.577 -10.823   5.545  1.00  0.00    -0.385 OA
HETATM   32  C27 UNL     1      -2.899 -11.332   6.687  1.00  0.00     0.202 C 
ENDBRANCH  25  31
BRANCH  26  33
HETATM   33  O8  UNL     1      -5.567 -12.892   6.102  1.00  0.00    -0.390 OA
HETATM   34  H42 UNL     1      -6.535 -12.891   6.237  1.00  0.00     0.210 HD
ENDBRANCH  26  33
BRANCH  27  35
HETATM   35  O9  UNL     1      -7.697 -11.655   4.813  1.00  0.00    -0.388 OA
HETATM   36  H44 UNL     1      -8.302 -10.916   4.635  1.00  0.00     0.210 HD
ENDBRANCH  27  35
ENDBRANCH  21  22
ENDBRANCH  15  21
BRANCH   4  37
HETATM   37  C11 UNL     1     -11.336  -8.526  -3.801  1.00  0.00     0.156 C 
HETATM   38  O2  UNL     1     -11.563  -7.564  -3.084  1.00  0.00    -0.649 OA
BRANCH  37  39
HETATM   39  O3  UNL     1     -12.310  -9.463  -3.907  1.00  0.00    -0.775 OA
HETATM   40  H16 UNL     1     -13.014  -9.128  -3.310  1.00  0.00     0.167 HD
ENDBRANCH  37  39
ENDBRANCH   4  37
BRANCH   3  41
HETATM   41  O1  UNL     1      -9.455 -10.445  -6.467  1.00  0.00    -0.394 OA
HETATM   42  H15 UNL     1      -8.684  -9.936  -6.746  1.00  0.00     0.210 HD
ENDBRANCH   3  41
BRANCH   1  43
HETATM   43  C5  UNL     1     -11.002  -5.895  -6.101  1.00  0.00    -0.013 C 
HETATM   44  C6  UNL     1     -12.436  -6.159  -6.590  1.00  0.00     0.010 C 
BRANCH  43  45
HETATM   45  C4  UNL     1     -10.444  -4.671  -6.886  1.00  0.00     0.009 C 
BRANCH  45  46
HETATM   46  C3  UNL     1      -9.728  -3.622  -6.019  1.00  0.00     0.034 C 
BRANCH  46  47
HETATM   47  C2  UNL     1      -9.771  -2.182  -6.498  1.00  0.00    -0.086 C 
HETATM   48  C1  UNL     1     -10.180  -1.908  -7.749  1.00  0.00     0.014 C 
BRANCH  47  49
HETATM   49  C35 UNL     1      -9.443  -1.046  -5.534  1.00  0.00     0.005 C 
HETATM   50  C36 UNL     1     -10.603  -0.705  -4.602  1.00  0.00     0.014 C 
HETATM   51  C37 UNL     1      -8.920   0.215  -6.227  1.00  0.00     0.014 C 
ENDBRANCH  47  49
ENDBRANCH  46  47
ENDBRANCH  45  46
ENDBRANCH  43  45
ENDBRANCH   1  43
TORSDOF 15
ENDMDL
MODEL 6
REMARK minimizedAffinity -7.21935511
REMARK CNNscore 0.23161763
REMARK CNNaffinity 6.38528299
REMARK  15 active torsions:
REMARK  status: ('A' for Active; 'I' for Inactive)
REMARK    1  A    between atoms: C2_2  and  C3_3 
REMARK    2  A    between atoms: C2_2  and  C35_44 
REMARK    3  A    between atoms: C3_3  and  C4_4 
REMARK    4  A    between atoms: C4_4  and  C5_5 
REMARK    5  A    between atoms: C5_5  and  C7_7 
REMARK    6  A    between atoms: C9_9  and  O1_10 
REMARK    7  A    between atoms: C10_11  and  C11_12 
REMARK    8  A    between atoms: C11_12  and  O3_14 
REMARK    9  A    between atoms: C22_25  and  O4_26 
REMARK   10  A    between atoms: O4_26  and  C23_27 
REMARK   11  A    between atoms: C24_29  and  C25_30 
REMARK   12  A    between atoms: C25_30  and  O6_31 
REMARK   13  A    between atoms: C26_32  and  O7_33 
REMARK   14  A    between atoms: C28_35  and  O8_36 
REMARK   15  A    between atoms: C29_37  and  O9_38 
ROOT
HETATM    1  C7  UNL     1       4.809   8.335  10.995  1.00  0.00     0.001 C 
HETATM    2  C8  UNL     1       5.399   6.923  11.309  1.00  0.00     0.039 C 
HETATM    3  C9  UNL     1       6.612   7.088  12.238  1.00  0.00     0.142 C 
HETATM    4  C10 UNL     1       6.354   8.451  12.931  1.00  0.00     0.102 C 
HETATM    5  C12 UNL     1       7.475   9.196  13.663  1.00  0.00    -0.054 C 
HETATM    6  C13 UNL     1       7.429  10.547  13.800  1.00  0.00    -0.067 C 
HETATM    7  C14 UNL     1       6.326  11.384  13.161  1.00  0.00     0.036 C 
HETATM    8  C15 UNL     1       5.264  10.653  12.309  1.00  0.00     0.015 C 
HETATM    9  C16 UNL     1       5.784   9.321  11.742  1.00  0.00    -0.016 C 
HETATM   10  C17 UNL     1       6.869   9.736  10.683  1.00  0.00     0.017 C 
HETATM   11  C18 UNL     1       8.544  11.320  14.556  1.00  0.00    -0.013 C 
HETATM   12  C19 UNL     1       9.535  11.767  13.448  1.00  0.00     0.021 C 
HETATM   13  C20 UNL     1       8.010  12.554  15.333  1.00  0.00     0.017 C 
HETATM   14  C21 UNL     1       9.020  13.235  16.273  1.00  0.00     0.037 C 
HETATM   15  C22 UNL     1      10.350  12.501  16.482  1.00  0.00     0.153 C 
HETATM   16  C30 UNL     1      10.123  11.010  16.640  1.00  0.00    -0.055 C 
HETATM   17  C31 UNL     1      10.610  10.290  17.670  1.00  0.00     0.017 C 
HETATM   18  C32 UNL     1       9.169  10.364  15.632  1.00  0.00     0.029 C 
HETATM   19  C33 UNL     1       9.721   9.114  14.936  1.00  0.00     0.014 C 
HETATM   20  C34 UNL     1       8.576   8.341  14.271  1.00  0.00     0.036 C 
ENDROOT
BRANCH  15  21
HETATM   21  O4  UNL     1      10.973  13.080  17.634  1.00  0.00    -0.349 OA
BRANCH  21  22
HETATM   22  C23 UNL     1      12.110  13.898  17.335  1.00  0.00     0.292 C 
HETATM   23  O5  UNL     1      12.911  13.269  16.333  1.00  0.00    -0.348 OA
HETATM   24  C24 UNL     1      13.464  12.001  16.744  1.00  0.00     0.179 C 
HETATM   25  C26 UNL     1      14.352  12.157  18.003  1.00  0.00     0.183 C 
HETATM   26  C28 UNL     1      13.514  12.829  19.106  1.00  0.00     0.183 C 
HETATM   27  C29 UNL     1      12.950  14.161  18.603  1.00  0.00     0.204 C 
BRANCH  24  28
HETATM   28  C25 UNL     1      14.277  11.449  15.561  1.00  0.00     0.198 C 
BRANCH  28  29
HETATM   29  O6  UNL     1      13.516  10.490  14.819  1.00  0.00    -0.398 OA
HETATM   30  H36 UNL     1      13.617   9.626  15.260  1.00  0.00     0.209 HD
ENDBRANCH  28  29
ENDBRANCH  24  28
BRANCH  25  31
HETATM   31  O7  UNL     1      15.492  12.965  17.646  1.00  0.00    -0.385 OA
HETATM   32  C27 UNL     1      16.696  12.220  17.518  1.00  0.00     0.202 C 
ENDBRANCH  25  31
BRANCH  26  33
HETATM   33  O8  UNL     1      14.275  13.038  20.304  1.00  0.00    -0.390 OA
HETATM   34  H42 UNL     1      13.771  13.707  20.807  1.00  0.00     0.210 HD
ENDBRANCH  26  33
BRANCH  27  35
HETATM   35  O9  UNL     1      12.201  14.776  19.668  1.00  0.00    -0.388 OA
HETATM   36  H44 UNL     1      11.828  15.601  19.315  1.00  0.00     0.210 HD
ENDBRANCH  27  35
ENDBRANCH  21  22
ENDBRANCH  15  21
BRANCH   4  37
HETATM   37  C11 UNL     1       5.322   8.180  14.075  1.00  0.00     0.156 C 
HETATM   38  O2  UNL     1       4.489   8.941  14.542  1.00  0.00    -0.649 OA
BRANCH  37  39
HETATM   39  O3  UNL     1       5.454   6.968  14.667  1.00  0.00    -0.775 OA
HETATM   40  H16 UNL     1       4.811   7.005  15.409  1.00  0.00     0.167 HD
ENDBRANCH  37  39
ENDBRANCH   4  37
BRANCH   3  41
HETATM   41  O1  UNL     1       7.835   6.961  11.520  1.00  0.00    -0.394 OA
HETATM   42  H15 UNL     1       7.863   7.576  10.777  1.00  0.00     0.210 HD
ENDBRANCH   3  41
BRANCH   1  43
HETATM   43  C5  UNL     1       3.272   8.488  11.242  1.00  0.00    -0.013 C 
HETATM   44  C6  UNL     1       2.956   9.713  12.117  1.00  0.00     0.010 C 
BRANCH  43  45
HETATM   45  C4  UNL     1       2.709   7.226  11.959  1.00  0.00     0.009 C 
BRANCH  45  46
HETATM   46  C3  UNL     1       1.670   6.433  11.148  1.00  0.00     0.034 C 
BRANCH  46  47
HETATM   47  C2  UNL     1       1.363   6.927   9.745  1.00  0.00    -0.086 C 
HETATM   48  C1  UNL     1       0.160   7.464   9.478  1.00  0.00     0.014 C 
BRANCH  47  49
HETATM   49  C35 UNL     1       2.447   6.900   8.672  1.00  0.00     0.005 C 
HETATM   50  C36 UNL     1       1.943   7.360   7.307  1.00  0.00     0.014 C 
HETATM   51  C37 UNL     1       3.162   5.551   8.557  1.00  0.00     0.014 C 
ENDBRANCH  47  49
ENDBRANCH  46  47
ENDBRANCH  45  46
ENDBRANCH  43  45
ENDBRANCH   1  43
TORSDOF 15
ENDMDL
MODEL 7
REMARK minimizedAffinity -7.35518312
REMARK CNNscore 0.18255192
REMARK CNNaffinity 5.77747011
REMARK  15 active torsions:
REMARK  status: ('A' for Active; 'I' for Inactive)
REMARK    1  A    between atoms: C2_2  and  C3_3 
REMARK    2  A    between atoms: C2_2  and  C35_44 
REMARK    3  A    between atoms: C3_3  and  C4_4 
REMARK    4  A    between atoms: C4_4  and  C5_5 
REMARK    5  A    between atoms: C5_5  and  C7_7 
REMARK    6  A    between atoms: C9_9  and  O1_10 
REMARK    7  A    between atoms: C10_11  and  C11_12 
REMARK    8  A    between atoms: C11_12  and  O3_14 
REMARK    9  A    between atoms: C22_25  and  O4_26 
REMARK   10  A    between atoms: O4_26  and  C23_27 
REMARK   11  A    between atoms: C24_29  and  C25_30 
REMARK   12  A    between atoms: C25_30  and  O6_31 
REMARK   13  A    between atoms: C26_32  and  O7_33 
REMARK   14  A    between atoms: C28_35  and  O8_36 
REMARK   15  A    between atoms: C29_37  and  O9_38 
ROOT
HETATM    1  C7  UNL     1       5.178   9.805  13.071  1.00  0.00     0.001 C 
HETATM    2  C8  UNL     1       5.892   9.884  11.684  1.00  0.00     0.039 C 
HETATM    3  C9  UNL     1       7.331  10.377  11.895  1.00  0.00     0.142 C 
HETATM    4  C10 UNL     1       7.632   9.997  13.367  1.00  0.00     0.102 C 
HETATM    5  C12 UNL     1       8.810  10.619  14.125  1.00  0.00    -0.054 C 
HETATM    6  C13 UNL     1       8.781  10.721  15.480  1.00  0.00    -0.067 C 
HETATM    7  C14 UNL     1       7.555  10.314  16.292  1.00  0.00     0.036 C 
HETATM    8  C15 UNL     1       6.312   9.811  15.523  1.00  0.00     0.015 C 
HETATM    9  C16 UNL     1       6.263  10.338  14.080  1.00  0.00    -0.016 C 
HETATM   10  C17 UNL     1       5.992  11.879  14.228  1.00  0.00     0.017 C 
HETATM   11  C18 UNL     1       9.972  11.329  16.270  1.00  0.00    -0.013 C 
HETATM   12  C19 UNL     1       9.604  12.826  16.449  1.00  0.00     0.021 C 
HETATM   13  C20 UNL     1      10.192  10.657  17.651  1.00  0.00     0.017 C 
HETATM   14  C21 UNL     1      11.481  11.062  18.389  1.00  0.00     0.037 C 
HETATM   15  C22 UNL     1      12.479  11.910  17.590  1.00  0.00     0.153 C 
HETATM   16  C30 UNL     1      12.602  11.399  16.169  1.00  0.00    -0.055 C 
HETATM   17  C31 UNL     1      13.781  11.104  15.585  1.00  0.00     0.017 C 
HETATM   18  C32 UNL     1      11.288  11.083  15.450  1.00  0.00     0.029 C 
HETATM   19  C33 UNL     1      11.145  11.721  14.063  1.00  0.00     0.014 C 
HETATM   20  C34 UNL     1      10.010  11.039  13.291  1.00  0.00     0.036 C 
ENDROOT
BRANCH  15  21
HETATM   21  O4  UNL     1      13.725  11.865  18.294  1.00  0.00    -0.349 OA
BRANCH  21  22
HETATM   22  C23 UNL     1      14.154  13.133  18.805  1.00  0.00     0.292 C 
HETATM   23  O5  UNL     1      14.857  13.853  17.791  1.00  0.00    -0.348 OA
HETATM   24  C24 UNL     1      16.068  13.202  17.350  1.00  0.00     0.179 C 
HETATM   25  C26 UNL     1      17.054  12.994  18.526  1.00  0.00     0.183 C 
HETATM   26  C28 UNL     1      16.325  12.214  19.636  1.00  0.00     0.183 C 
HETATM   27  C29 UNL     1      15.050  12.952  20.050  1.00  0.00     0.204 C 
BRANCH  24  28
HETATM   28  C25 UNL     1      16.692  14.084  16.256  1.00  0.00     0.198 C 
BRANCH  28  29
HETATM   29  O6  UNL     1      15.715  14.455  15.277  1.00  0.00    -0.398 OA
HETATM   30  H36 UNL     1      15.658  13.730  14.627  1.00  0.00     0.209 HD
ENDBRANCH  28  29
ENDBRANCH  24  28
BRANCH  25  31
HETATM   31  O7  UNL     1      17.475  14.293  18.988  1.00  0.00    -0.385 OA
HETATM   32  C27 UNL     1      18.885  14.417  19.122  1.00  0.00     0.202 C 
ENDBRANCH  25  31
BRANCH  26  33
HETATM   33  O8  UNL     1      17.165  12.003  20.780  1.00  0.00    -0.390 OA
HETATM   34  H42 UNL     1      16.549  11.780  21.505  1.00  0.00     0.210 HD
ENDBRANCH  26  33
BRANCH  27  35
HETATM   35  O9  UNL     1      14.413  12.213  21.110  1.00  0.00    -0.388 OA
HETATM   36  H44 UNL     1      13.592  12.682  21.331  1.00  0.00     0.210 HD
ENDBRANCH  27  35
ENDBRANCH  21  22
ENDBRANCH  15  21
BRANCH   4  37
HETATM   37  C11 UNL     1       7.991   8.475  13.370  1.00  0.00     0.156 C 
HETATM   38  O2  UNL     1       7.919   7.677  12.449  1.00  0.00    -0.649 OA
BRANCH  37  39
HETATM   39  O3  UNL     1       8.338   7.988  14.586  1.00  0.00    -0.775 OA
HETATM   40  H16 UNL     1       8.430   7.023  14.428  1.00  0.00     0.167 HD
ENDBRANCH  37  39
ENDBRANCH   4  37
BRANCH   3  41
HETATM   41  O1  UNL     1       7.463  11.753  11.553  1.00  0.00    -0.394 OA
HETATM   42  H15 UNL     1       6.823  12.290  12.036  1.00  0.00     0.210 HD
ENDBRANCH   3  41
BRANCH   1  43
HETATM   43  C5  UNL     1       4.481   8.440  13.388  1.00  0.00    -0.013 C 
HETATM   44  C6  UNL     1       5.142   7.729  14.580  1.00  0.00     0.010 C 
BRANCH  43  45
HETATM   45  C4  UNL     1       4.560   7.491  12.157  1.00  0.00     0.009 C 
BRANCH  45  46
HETATM   46  C3  UNL     1       3.205   6.939  11.681  1.00  0.00     0.034 C 
BRANCH  46  47
HETATM   47  C2  UNL     1       3.040   6.698  10.191  1.00  0.00    -0.086 C 
HETATM   48  C1  UNL     1       3.459   5.538   9.654  1.00  0.00     0.014 C 
BRANCH  47  49
HETATM   49  C35 UNL     1       2.317   7.726   9.327  1.00  0.00     0.005 C 
HETATM   50  C36 UNL     1       0.845   7.885   9.699  1.00  0.00     0.014 C 
HETATM   51  C37 UNL     1       2.469   7.478   7.823  1.00  0.00     0.014 C 
ENDBRANCH  47  49
ENDBRANCH  46  47
ENDBRANCH  45  46
ENDBRANCH  43  45
ENDBRANCH   1  43
TORSDOF 15
ENDMDL
MODEL 8
REMARK minimizedAffinity -7.22909498
REMARK CNNscore 0.169060767
REMARK CNNaffinity 5.36319113
REMARK  15 active torsions:
REMARK  status: ('A' for Active; 'I' for Inactive)
REMARK    1  A    between atoms: C2_2  and  C3_3 
REMARK    2  A    between atoms: C2_2  and  C35_44 
REMARK    3  A    between atoms: C3_3  and  C4_4 
REMARK    4  A    between atoms: C4_4  and  C5_5 
REMARK    5  A    between atoms: C5_5  and  C7_7 
REMARK    6  A    between atoms: C9_9  and  O1_10 
REMARK    7  A    between atoms: C10_11  and  C11_12 
REMARK    8  A    between atoms: C11_12  and  O3_14 
REMARK    9  A    between atoms: C22_25  and  O4_26 
REMARK   10  A    between atoms: O4_26  and  C23_27 
REMARK   11  A    between atoms: C24_29  and  C25_30 
REMARK   12  A    between atoms: C25_30  and  O6_31 
REMARK   13  A    between atoms: C26_32  and  O7_33 
REMARK   14  A    between atoms: C28_35  and  O8_36 
REMARK   15  A    between atoms: C29_37  and  O9_38 
ROOT
HETATM    1  C7  UNL     1       6.621   9.262  12.464  1.00  0.00     0.001 C 
HETATM    2  C8  UNL     1       7.479   8.016  12.853  1.00  0.00     0.039 C 
HETATM    3  C9  UNL     1       8.275   8.341  14.127  1.00  0.00     0.142 C 
HETATM    4  C10 UNL     1       7.448   9.470  14.792  1.00  0.00     0.102 C 
HETATM    5  C12 UNL     1       8.048  10.355  15.890  1.00  0.00    -0.054 C 
HETATM    6  C13 UNL     1       7.576  11.613  16.096  1.00  0.00    -0.067 C 
HETATM    7  C14 UNL     1       6.508  12.229  15.198  1.00  0.00     0.036 C 
HETATM    8  C15 UNL     1       5.992  11.391  14.006  1.00  0.00     0.015 C 
HETATM    9  C16 UNL     1       7.014  10.338  13.545  1.00  0.00    -0.016 C 
HETATM   10  C17 UNL     1       8.188  11.172  12.914  1.00  0.00     0.017 C 
HETATM   11  C18 UNL     1       8.156  12.520  17.215  1.00  0.00    -0.013 C 
HETATM   12  C19 UNL     1       9.248  13.368  16.511  1.00  0.00     0.021 C 
HETATM   13  C20 UNL     1       7.090  13.443  17.864  1.00  0.00     0.017 C 
HETATM   14  C21 UNL     1       7.548  14.207  19.119  1.00  0.00     0.037 C 
HETATM   15  C22 UNL     1       8.916  13.813  19.688  1.00  0.00     0.153 C 
HETATM   16  C30 UNL     1       9.095  12.308  19.666  1.00  0.00    -0.055 C 
HETATM   17  C31 UNL     1       9.454  11.586  20.746  1.00  0.00     0.017 C 
HETATM   18  C32 UNL     1       8.697  11.602  18.368  1.00  0.00     0.029 C 
HETATM   19  C33 UNL     1       9.761  10.655  17.799  1.00  0.00     0.014 C 
HETATM   20  C34 UNL     1       9.128   9.726  16.756  1.00  0.00     0.036 C 
ENDROOT
BRANCH  15  21
HETATM   21  O4  UNL     1       8.990  14.349  21.014  1.00  0.00    -0.349 OA
BRANCH  21  22
HETATM   22  C23 UNL     1       7.800  14.158  21.788  1.00  0.00     0.292 C 
HETATM   23  O5  UNL     1       6.887  15.230  21.547  1.00  0.00    -0.348 OA
HETATM   24  C24 UNL     1       7.389  16.522  21.950  1.00  0.00     0.179 C 
HETATM   25  C26 UNL     1       7.729  16.546  23.461  1.00  0.00     0.183 C 
HETATM   26  C28 UNL     1       8.718  15.403  23.752  1.00  0.00     0.183 C 
HETATM   27  C29 UNL     1       8.129  14.066  23.294  1.00  0.00     0.204 C 
BRANCH  24  28
HETATM   28  C25 UNL     1       6.308  17.562  21.612  1.00  0.00     0.198 C 
BRANCH  28  29
HETATM   29  O6  UNL     1       5.193  16.948  20.956  1.00  0.00    -0.398 OA
HETATM   30  H36 UNL     1       5.403  16.892  20.005  1.00  0.00     0.209 HD
ENDBRANCH  28  29
ENDBRANCH  24  28
BRANCH  25  31
HETATM   31  O7  UNL     1       6.500  16.376  24.196  1.00  0.00    -0.385 OA
HETATM   32  C27 UNL     1       6.310  17.351  25.214  1.00  0.00     0.202 C 
ENDBRANCH  25  31
BRANCH  26  33
HETATM   33  O8  UNL     1       9.064  15.337  25.143  1.00  0.00    -0.390 OA
HETATM   34  H42 UNL     1       9.436  14.441  25.266  1.00  0.00     0.210 HD
ENDBRANCH  26  33
BRANCH  27  35
HETATM   35  O9  UNL     1       9.065  13.017  23.611  1.00  0.00    -0.388 OA
HETATM   36  H44 UNL     1       8.684  12.186  23.282  1.00  0.00     0.210 HD
ENDBRANCH  27  35
ENDBRANCH  21  22
ENDBRANCH  15  21
BRANCH   4  37
HETATM   37  C11 UNL     1       6.257   8.774  15.531  1.00  0.00     0.156 C 
HETATM   38  O2  UNL     1       5.195   9.262  15.885  1.00  0.00    -0.649 OA
BRANCH  37  39
HETATM   39  O3  UNL     1       6.500   7.490  15.890  1.00  0.00    -0.775 OA
HETATM   40  H16 UNL     1       5.708   7.247  16.417  1.00  0.00     0.167 HD
ENDBRANCH  37  39
ENDBRANCH   4  37
BRANCH   3  41
HETATM   41  O1  UNL     1       9.634   8.640  13.826  1.00  0.00    -0.394 OA
HETATM   42  H15 UNL     1       9.694   9.348  13.173  1.00  0.00     0.210 HD
ENDBRANCH   3  41
BRANCH   1  43
HETATM   43  C5  UNL     1       5.102   8.979  12.222  1.00  0.00    -0.013 C 
HETATM   44  C6  UNL     1       4.636   7.714  12.963  1.00  0.00     0.010 C 
BRANCH  43  45
HETATM   45  C4  UNL     1       4.821   8.778  10.704  1.00  0.00     0.009 C 
BRANCH  45  46
HETATM   46  C3  UNL     1       4.679   7.311  10.263  1.00  0.00     0.034 C 
BRANCH  46  47
HETATM   47  C2  UNL     1       3.441   6.945   9.464  1.00  0.00    -0.086 C 
HETATM   48  C1  UNL     1       3.142   5.651   9.256  1.00  0.00     0.014 C 
BRANCH  47  49
HETATM   49  C35 UNL     1       2.491   8.038   8.984  1.00  0.00     0.005 C 
HETATM   50  C36 UNL     1       1.192   8.089   9.783  1.00  0.00     0.014 C 
HETATM   51  C37 UNL     1       2.199   7.979   7.482  1.00  0.00     0.014 C 
ENDBRANCH  47  49
ENDBRANCH  46  47
ENDBRANCH  45  46
ENDBRANCH  43  45
ENDBRANCH   1  43
TORSDOF 15
ENDMDL
MODEL 9
REMARK minimizedAffinity -7.25837564
REMARK CNNscore 0.164938971
REMARK CNNaffinity 5.96354151
REMARK  15 active torsions:
REMARK  status: ('A' for Active; 'I' for Inactive)
REMARK    1  A    between atoms: C2_2  and  C3_3 
REMARK    2  A    between atoms: C2_2  and  C35_44 
REMARK    3  A    between atoms: C3_3  and  C4_4 
REMARK    4  A    between atoms: C4_4  and  C5_5 
REMARK    5  A    between atoms: C5_5  and  C7_7 
REMARK    6  A    between atoms: C9_9  and  O1_10 
REMARK    7  A    between atoms: C10_11  and  C11_12 
REMARK    8  A    between atoms: C11_12  and  O3_14 
REMARK    9  A    between atoms: C22_25  and  O4_26 
REMARK   10  A    between atoms: O4_26  and  C23_27 
REMARK   11  A    between atoms: C24_29  and  C25_30 
REMARK   12  A    between atoms: C25_30  and  O6_31 
REMARK   13  A    between atoms: C26_32  and  O7_33 
REMARK   14  A    between atoms: C28_35  and  O8_36 
REMARK   15  A    between atoms: C29_37  and  O9_38 
ROOT
HETATM    1  C7  UNL     1       4.155   7.975  11.257  1.00  0.00     0.001 C 
HETATM    2  C8  UNL     1       4.924   6.618  11.360  1.00  0.00     0.039 C 
HETATM    3  C9  UNL     1       6.214   6.840  12.165  1.00  0.00     0.142 C 
HETATM    4  C10 UNL     1       5.898   8.096  13.016  1.00  0.00     0.102 C 
HETATM    5  C12 UNL     1       7.014   8.898  13.695  1.00  0.00    -0.054 C 
HETATM    6  C13 UNL     1       6.842  10.217  13.973  1.00  0.00    -0.067 C 
HETATM    7  C14 UNL     1       5.589  10.974  13.545  1.00  0.00     0.036 C 
HETATM    8  C15 UNL     1       4.516  10.203  12.743  1.00  0.00     0.015 C 
HETATM    9  C16 UNL     1       5.103   8.997  11.990  1.00  0.00    -0.016 C 
HETATM   10  C17 UNL     1       6.005   9.628  10.868  1.00  0.00     0.017 C 
HETATM   11  C18 UNL     1       7.951  11.045  14.679  1.00  0.00    -0.013 C 
HETATM   12  C19 UNL     1       8.751  11.700  13.522  1.00  0.00     0.021 C 
HETATM   13  C20 UNL     1       7.386  12.133  15.630  1.00  0.00     0.017 C 
HETATM   14  C21 UNL     1       8.423  12.841  16.520  1.00  0.00     0.037 C 
HETATM   15  C22 UNL     1       9.839  12.251  16.508  1.00  0.00     0.153 C 
HETATM   16  C30 UNL     1       9.790  10.736  16.537  1.00  0.00    -0.055 C 
HETATM   17  C31 UNL     1      10.469   9.988  17.430  1.00  0.00     0.017 C 
HETATM   18  C32 UNL     1       8.797  10.076  15.578  1.00  0.00     0.029 C 
HETATM   19  C33 UNL     1       9.390   8.965  14.703  1.00  0.00     0.014 C 
HETATM   20  C34 UNL     1       8.263   8.126  14.090  1.00  0.00     0.036 C 
ENDROOT
BRANCH  15  21
HETATM   21  O4  UNL     1      10.529  12.794  17.639  1.00  0.00    -0.349 OA
BRANCH  21  22
HETATM   22  C23 UNL     1      11.588  13.697  17.299  1.00  0.00     0.292 C 
HETATM   23  O5  UNL     1      12.389  13.137  16.257  1.00  0.00    -0.348 OA
HETATM   24  C24 UNL     1      13.052  11.911  16.630  1.00  0.00     0.179 C 
HETATM   25  C26 UNL     1      13.981  12.124  17.851  1.00  0.00     0.183 C 
HETATM   26  C28 UNL     1      13.144  12.723  18.996  1.00  0.00     0.183 C 
HETATM   27  C29 UNL     1      12.462  14.013  18.533  1.00  0.00     0.204 C 
BRANCH  24  28
HETATM   28  C25 UNL     1      13.851  11.429  15.407  1.00  0.00     0.198 C 
BRANCH  28  29
HETATM   29  O6  UNL     1      13.192  10.334  14.763  1.00  0.00    -0.398 OA
HETATM   30  H36 UNL     1      13.454   9.517  15.226  1.00  0.00     0.209 HD
ENDBRANCH  28  29
ENDBRANCH  24  28
BRANCH  25  31
HETATM   31  O7  UNL     1      15.040  13.017  17.454  1.00  0.00    -0.385 OA
HETATM   32  C27 UNL     1      16.337  12.547  17.800  1.00  0.00     0.202 C 
ENDBRANCH  25  31
BRANCH  26  33
HETATM   33  O8  UNL     1      13.939  12.979  20.163  1.00  0.00    -0.390 OA
HETATM   34  H42 UNL     1      13.410  13.605  20.694  1.00  0.00     0.210 HD
ENDBRANCH  26  33
BRANCH  27  35
HETATM   35  O9  UNL     1      11.716  14.562  19.636  1.00  0.00    -0.388 OA
HETATM   36  H44 UNL     1      11.267  15.359  19.308  1.00  0.00     0.210 HD
ENDBRANCH  27  35
ENDBRANCH  21  22
ENDBRANCH  15  21
BRANCH   4  37
HETATM   37  C11 UNL     1       5.044   7.606  14.232  1.00  0.00     0.156 C 
HETATM   38  O2  UNL     1       4.000   8.072  14.663  1.00  0.00    -0.649 OA
BRANCH  37  39
HETATM   39  O3  UNL     1       5.605   6.591  14.932  1.00  0.00    -0.775 OA
HETATM   40  H16 UNL     1       5.000   6.480  15.698  1.00  0.00     0.167 HD
ENDBRANCH  37  39
ENDBRANCH   4  37
BRANCH   3  41
HETATM   41  O1  UNL     1       7.350   6.920  11.310  1.00  0.00    -0.394 OA
HETATM   42  H15 UNL     1       7.225   7.598  10.634  1.00  0.00     0.210 HD
ENDBRANCH   3  41
BRANCH   1  43
HETATM   43  C5  UNL     1       2.651   7.924  11.683  1.00  0.00    -0.013 C 
HETATM   44  C6  UNL     1       2.279   6.563  12.294  1.00  0.00     0.010 C 
BRANCH  43  45
HETATM   45  C4  UNL     1       1.729   8.167  10.452  1.00  0.00     0.009 C 
BRANCH  45  46
HETATM   46  C3  UNL     1       0.414   7.369  10.466  1.00  0.00     0.034 C 
BRANCH  46  47
HETATM   47  C2  UNL     1      -0.566   7.667  11.587  1.00  0.00    -0.086 C 
HETATM   48  C1  UNL     1      -0.960   8.933  11.808  1.00  0.00     0.014 C 
BRANCH  47  49
HETATM   49  C35 UNL     1      -1.172   6.524  12.395  1.00  0.00     0.005 C 
HETATM   50  C36 UNL     1      -1.054   5.173  11.694  1.00  0.00     0.014 C 
HETATM   51  C37 UNL     1      -2.617   6.780  12.831  1.00  0.00     0.014 C 
ENDBRANCH  47  49
ENDBRANCH  46  47
ENDBRANCH  45  46
ENDBRANCH  43  45
ENDBRANCH   1  43
TORSDOF 15
ENDMDL
