MODEL 1
REMARK minimizedAffinity -7.47383976
REMARK CNNscore 0.329988033
REMARK CNNaffinity 6.4996376
REMARK  13 active torsions:
REMARK  status: ('A' for Active; 'I' for Inactive)
REMARK    1  A    between atoms: C3_3  and  O1_4 
REMARK    2  A    between atoms: N1_14  and  O2_16 
REMARK    3  A    between atoms: O2_16  and  C13_17 
REMARK    4  A    between atoms: C13_17  and  C14_18 
REMARK       I    between atoms: C14_18  and  N2_20 
REMARK    5  A    between atoms: N2_20  and  C15_21 
REMARK    6  A    between atoms: C15_21  and  C16_22 
REMARK    7  A    between atoms: C15_21  and  C21_32 
REMARK       I    between atoms: C16_22  and  N3_24 
REMARK    8  A    between atoms: N3_24  and  C17_25 
REMARK    9  A    between atoms: C17_25  and  C18_26 
REMARK   10  A    between atoms: C17_25  and  C19_28 
REMARK   11  A    between atoms: C18_26  and  S1_27 
REMARK   12  A    between atoms: C19_28  and  C20_29 
REMARK   13  A    between atoms: C20_29  and  O6_31 
ROOT
HETATM    1  C1  UNL     1      -0.439  54.462 -27.781  1.00  0.00     0.015 C 
HETATM    2  C2  UNL     1      -0.569  53.330 -27.406  1.00  0.00    -0.078 C 
HETATM    3  C3  UNL     1      -0.742  51.926 -26.959  1.00  0.00     0.128 C 
HETATM    4  C4  UNL     1       0.608  51.363 -26.492  1.00  0.00     0.052 C 
HETATM    5  C5  UNL     1       0.610  51.473 -24.963  1.00  0.00     0.010 C 
HETATM    6  C6  UNL     1      -0.712  52.172 -24.562  1.00  0.00     0.002 C 
HETATM    7  C7  UNL     1      -1.237  51.908 -23.120  1.00  0.00    -0.004 C 
HETATM    8  C8  UNL     1      -0.082  51.569 -22.159  1.00  0.00     0.010 C 
HETATM    9  C9  UNL     1      -0.554  51.412 -20.729  1.00  0.00     0.035 C 
HETATM   10  C10 UNL     1      -1.586  50.321 -20.627  1.00  0.00    -0.069 C 
HETATM   11  C11 UNL     1      -1.449  49.357 -19.697  1.00  0.00     0.030 C 
HETATM   12  C12 UNL     1      -2.529  48.372 -19.423  1.00  0.00     0.032 C 
HETATM   13  N1  UNL     1      -2.314  47.475 -18.504  1.00  0.00    -0.271 N 
ATOM     14  H1  UNL     1      -1.434  47.366 -18.000  1.00  0.00     0.194 HD
HETATM   15  C24 UNL     1      -3.834  48.530 -20.179  1.00  0.00     0.060 C 
HETATM   16  C25 UNL     1      -3.567  49.096 -21.566  1.00  0.00     0.020 C 
HETATM   17  C26 UNL     1      -2.788  50.440 -21.558  1.00  0.00    -0.016 C 
HETATM   18  C27 UNL     1      -3.716  51.538 -20.963  1.00  0.00     0.020 C 
HETATM   19  C28 UNL     1      -2.409  50.883 -23.038  1.00  0.00     0.002 C 
HETATM   20  C29 UNL     1      -2.175  49.771 -24.074  1.00  0.00     0.007 C 
HETATM   21  C30 UNL     1      -2.128  50.291 -25.524  1.00  0.00     0.014 C 
HETATM   22  C31 UNL     1      -1.666  51.770 -25.705  1.00  0.00     0.003 C 
HETATM   23  C32 UNL     1      -2.908  52.685 -25.807  1.00  0.00     0.020 C 
ENDROOT
BRANCH   3  24
HETATM   24  O1  UNL     1      -1.226  51.169 -28.061  1.00  0.00    -0.377 OA
HETATM   25  H2  UNL     1      -2.018  51.627 -28.390  1.00  0.00     0.211 HD
ENDBRANCH   3  24
BRANCH  13  26
HETATM   26  O2  UNL     1      -3.451  46.677 -18.297  1.00  0.00    -0.271 OA
BRANCH  26  27
HETATM   27  C13 UNL     1      -3.161  45.352 -18.713  1.00  0.00     0.303 C 
BRANCH  27  28
HETATM   28  C14 UNL     1      -3.276  44.382 -17.541  1.00  0.00     0.244 C 
HETATM   29  O3  UNL     1      -4.131  43.504 -17.449  1.00  0.00    -0.271 OA
HETATM   30  N2  UNL     1      -2.319  44.585 -16.570  1.00  0.00    -0.346 N 
HETATM   31  H16 UNL     1      -1.552  45.236 -16.727  1.00  0.00     0.163 HD
BRANCH  30  32
HETATM   32  C15 UNL     1      -2.240  43.792 -15.347  1.00  0.00     0.180 C 
BRANCH  32  33
HETATM   33  C16 UNL     1      -1.204  42.679 -15.628  1.00  0.00     0.241 C 
HETATM   34  O4  UNL     1      -1.469  41.486 -15.448  1.00  0.00    -0.271 OA
HETATM   35  N3  UNL     1       0.017  43.115 -16.095  1.00  0.00    -0.353 N 
HETATM   36  H18 UNL     1       0.162  44.106 -16.239  1.00  0.00     0.163 HD
BRANCH  35  37
HETATM   37  C17 UNL     1       1.139  42.199 -16.314  1.00  0.00     0.103 C 
BRANCH  37  38
HETATM   38  C18 UNL     1       0.894  40.841 -15.626  1.00  0.00     0.096 C 
BRANCH  38  39
HETATM   39  S1  UNL     1       2.239  40.372 -14.486  1.00  0.00    -0.180 SA
HETATM   40  H22 UNL     1       1.775  39.149 -14.198  1.00  0.00     0.101 HD
ENDBRANCH  38  39
ENDBRANCH  37  38
BRANCH  37  41
HETATM   41  C19 UNL     1       1.352  41.969 -17.813  1.00  0.00     0.136 C 
BRANCH  41  42
HETATM   42  C20 UNL     1       0.523  40.833 -18.348  1.00  0.00     0.141 C 
HETATM   43  O5  UNL     1       0.926  39.741 -18.710  1.00  0.00    -0.650 OA
BRANCH  42  44
HETATM   44  O6  UNL     1      -0.780  41.159 -18.479  1.00  0.00    -0.776 OA
HETATM   45  H25 UNL     1      -1.190  40.355 -18.871  1.00  0.00     0.167 HD
ENDBRANCH  42  44
ENDBRANCH  41  42
ENDBRANCH  37  41
ENDBRANCH  35  37
ENDBRANCH  32  33
BRANCH  32  46
HETATM   46  C21 UNL     1      -1.912  44.698 -14.139  1.00  0.00     0.009 C 
HETATM   47  C22 UNL     1      -1.270  46.030 -14.546  1.00  0.00     0.012 C 
HETATM   48  C23 UNL     1      -1.048  44.004 -13.085  1.00  0.00     0.012 C 
ENDBRANCH  32  46
ENDBRANCH  30  32
ENDBRANCH  27  28
ENDBRANCH  26  27
ENDBRANCH  13  26
TORSDOF 13
ENDMDL
MODEL 2
REMARK minimizedAffinity -7.31247234
REMARK CNNscore 0.305401415
REMARK CNNaffinity 7.01869583
REMARK  13 active torsions:
REMARK  status: ('A' for Active; 'I' for Inactive)
REMARK    1  A    between atoms: C3_3  and  O1_4 
REMARK    2  A    between atoms: N1_14  and  O2_16 
REMARK    3  A    between atoms: O2_16  and  C13_17 
REMARK    4  A    between atoms: C13_17  and  C14_18 
REMARK       I    between atoms: C14_18  and  N2_20 
REMARK    5  A    between atoms: N2_20  and  C15_21 
REMARK    6  A    between atoms: C15_21  and  C16_22 
REMARK    7  A    between atoms: C15_21  and  C21_32 
REMARK       I    between atoms: C16_22  and  N3_24 
REMARK    8  A    between atoms: N3_24  and  C17_25 
REMARK    9  A    between atoms: C17_25  and  C18_26 
REMARK   10  A    between atoms: C17_25  and  C19_28 
REMARK   11  A    between atoms: C18_26  and  S1_27 
REMARK   12  A    between atoms: C19_28  and  C20_29 
REMARK   13  A    between atoms: C20_29  and  O6_31 
ROOT
HETATM    1  C1  UNL     1       1.900  51.864 -28.289  1.00  0.00     0.015 C 
HETATM    2  C2  UNL     1       1.014  52.319 -27.620  1.00  0.00    -0.078 C 
HETATM    3  C3  UNL     1      -0.069  52.894 -26.786  1.00  0.00     0.128 C 
HETATM    4  C4  UNL     1      -1.353  53.017 -27.619  1.00  0.00     0.052 C 
HETATM    5  C5  UNL     1      -2.212  51.800 -27.262  1.00  0.00     0.010 C 
HETATM    6  C6  UNL     1      -1.383  50.937 -26.279  1.00  0.00     0.002 C 
HETATM    7  C7  UNL     1      -2.178  49.991 -25.332  1.00  0.00    -0.004 C 
HETATM    8  C8  UNL     1      -3.526  49.583 -25.955  1.00  0.00     0.010 C 
HETATM    9  C9  UNL     1      -4.271  48.578 -25.100  1.00  0.00     0.035 C 
HETATM   10  C10 UNL     1      -4.536  49.139 -23.730  1.00  0.00    -0.069 C 
HETATM   11  C11 UNL     1      -5.780  49.088 -23.216  1.00  0.00     0.030 C 
HETATM   12  C12 UNL     1      -6.060  49.448 -21.801  1.00  0.00     0.032 C 
HETATM   13  N1  UNL     1      -7.292  49.366 -21.386  1.00  0.00    -0.271 N 
ATOM     14  H1  UNL     1      -8.085  49.127 -21.980  1.00  0.00     0.194 HD
HETATM   15  C24 UNL     1      -4.880  49.810 -20.920  1.00  0.00     0.060 C 
HETATM   16  C25 UNL     1      -3.804  50.497 -21.747  1.00  0.00     0.020 C 
HETATM   17  C26 UNL     1      -3.324  49.666 -22.970  1.00  0.00    -0.016 C 
HETATM   18  C27 UNL     1      -2.546  48.427 -22.442  1.00  0.00     0.020 C 
HETATM   19  C28 UNL     1      -2.323  50.513 -23.871  1.00  0.00     0.002 C 
HETATM   20  C29 UNL     1      -2.512  52.038 -23.901  1.00  0.00     0.007 C 
HETATM   21  C30 UNL     1      -1.323  52.787 -24.534  1.00  0.00     0.014 C 
HETATM   22  C31 UNL     1      -0.491  51.985 -25.582  1.00  0.00     0.003 C 
HETATM   23  C32 UNL     1       0.743  51.364 -24.889  1.00  0.00     0.020 C 
ENDROOT
BRANCH   3  24
HETATM   24  O1  UNL     1       0.348  54.180 -26.347  1.00  0.00    -0.377 OA
HETATM   25  H2  UNL     1       1.217  54.064 -25.925  1.00  0.00     0.211 HD
ENDBRANCH   3  24
BRANCH  13  26
HETATM   26  O2  UNL     1      -7.385  49.647 -20.013  1.00  0.00    -0.271 OA
BRANCH  26  27
HETATM   27  C13 UNL     1      -8.234  48.685 -19.407  1.00  0.00     0.303 C 
BRANCH  27  28
HETATM   28  C14 UNL     1      -7.868  47.278 -19.870  1.00  0.00     0.244 C 
HETATM   29  O3  UNL     1      -8.342  46.730 -20.863  1.00  0.00    -0.271 OA
HETATM   30  N2  UNL     1      -6.943  46.660 -19.056  1.00  0.00    -0.346 N 
HETATM   31  H16 UNL     1      -6.478  47.179 -18.313  1.00  0.00     0.163 HD
BRANCH  30  32
HETATM   32  C15 UNL     1      -6.453  45.304 -19.288  1.00  0.00     0.180 C 
BRANCH  32  33
HETATM   33  C16 UNL     1      -7.670  44.491 -19.786  1.00  0.00     0.241 C 
HETATM   34  O4  UNL     1      -8.644  44.270 -19.060  1.00  0.00    -0.271 OA
HETATM   35  N3  UNL     1      -7.586  44.043 -21.087  1.00  0.00    -0.353 N 
HETATM   36  H18 UNL     1      -6.768  44.276 -21.634  1.00  0.00     0.163 HD
BRANCH  35  37
HETATM   37  C17 UNL     1      -8.607  43.175 -21.678  1.00  0.00     0.103 C 
BRANCH  37  38
HETATM   38  C18 UNL     1      -9.967  43.353 -20.975  1.00  0.00     0.096 C 
BRANCH  38  39
HETATM   39  S1  UNL     1     -11.330  43.686 -22.142  1.00  0.00    -0.180 SA
HETATM   40  H22 UNL     1     -12.272  43.909 -21.217  1.00  0.00     0.101 HD
ENDBRANCH  38  39
ENDBRANCH  37  38
BRANCH  37  41
HETATM   41  C19 UNL     1      -8.770  43.486 -23.169  1.00  0.00     0.136 C 
BRANCH  41  42
HETATM   42  C20 UNL     1      -8.195  42.411 -24.051  1.00  0.00     0.141 C 
HETATM   43  O5  UNL     1      -7.225  42.506 -24.783  1.00  0.00    -0.650 OA
BRANCH  42  44
HETATM   44  O6  UNL     1      -8.924  41.275 -24.027  1.00  0.00    -0.776 OA
HETATM   45  H25 UNL     1      -8.468  40.684 -24.668  1.00  0.00     0.167 HD
ENDBRANCH  42  44
ENDBRANCH  41  42
ENDBRANCH  37  41
ENDBRANCH  35  37
ENDBRANCH  32  33
BRANCH  32  46
HETATM   46  C21 UNL     1      -5.245  45.328 -20.252  1.00  0.00     0.009 C 
HETATM   47  C22 UNL     1      -4.047  46.104 -19.692  1.00  0.00     0.012 C 
HETATM   48  C23 UNL     1      -5.600  45.850 -21.645  1.00  0.00     0.012 C 
ENDBRANCH  32  46
ENDBRANCH  30  32
ENDBRANCH  27  28
ENDBRANCH  26  27
ENDBRANCH  13  26
TORSDOF 13
ENDMDL
MODEL 3
REMARK minimizedAffinity -7.7304635
REMARK CNNscore 0.300062805
REMARK CNNaffinity 6.54136038
REMARK  13 active torsions:
REMARK  status: ('A' for Active; 'I' for Inactive)
REMARK    1  A    between atoms: C3_3  and  O1_4 
REMARK    2  A    between atoms: N1_14  and  O2_16 
REMARK    3  A    between atoms: O2_16  and  C13_17 
REMARK    4  A    between atoms: C13_17  and  C14_18 
REMARK       I    between atoms: C14_18  and  N2_20 
REMARK    5  A    between atoms: N2_20  and  C15_21 
REMARK    6  A    between atoms: C15_21  and  C16_22 
REMARK    7  A    between atoms: C15_21  and  C21_32 
REMARK       I    between atoms: C16_22  and  N3_24 
REMARK    8  A    between atoms: N3_24  and  C17_25 
REMARK    9  A    between atoms: C17_25  and  C18_26 
REMARK   10  A    between atoms: C17_25  and  C19_28 
REMARK   11  A    between atoms: C18_26  and  S1_27 
REMARK   12  A    between atoms: C19_28  and  C20_29 
REMARK   13  A    between atoms: C20_29  and  O6_31 
ROOT
HETATM    1  C1  UNL     1       2.067  51.932 -27.692  1.00  0.00     0.015 C 
HETATM    2  C2  UNL     1       1.012  52.310 -27.262  1.00  0.00    -0.078 C 
HETATM    3  C3  UNL     1      -0.284  52.795 -26.728  1.00  0.00     0.128 C 
HETATM    4  C4  UNL     1      -1.428  52.311 -27.630  1.00  0.00     0.052 C 
HETATM    5  C5  UNL     1      -2.016  51.073 -26.944  1.00  0.00     0.010 C 
HETATM    6  C6  UNL     1      -1.156  50.804 -25.686  1.00  0.00     0.002 C 
HETATM    7  C7  UNL     1      -1.830  50.009 -24.529  1.00  0.00    -0.004 C 
HETATM    8  C8  UNL     1      -2.941  49.085 -25.062  1.00  0.00     0.010 C 
HETATM    9  C9  UNL     1      -3.540  48.222 -23.970  1.00  0.00     0.035 C 
HETATM   10  C10 UNL     1      -4.123  49.077 -22.878  1.00  0.00    -0.069 C 
HETATM   11  C11 UNL     1      -5.379  48.849 -22.450  1.00  0.00     0.030 C 
HETATM   12  C12 UNL     1      -5.935  49.529 -21.250  1.00  0.00     0.032 C 
HETATM   13  N1  UNL     1      -7.158  49.247 -20.904  1.00  0.00    -0.271 N 
ATOM     14  H1  UNL     1      -7.780  48.635 -21.433  1.00  0.00     0.194 HD
HETATM   15  C24 UNL     1      -5.012  50.443 -20.468  1.00  0.00     0.060 C 
HETATM   16  C25 UNL     1      -4.022  51.113 -21.411  1.00  0.00     0.020 C 
HETATM   17  C26 UNL     1      -3.190  50.115 -22.263  1.00  0.00    -0.016 C 
HETATM   18  C27 UNL     1      -2.225  49.350 -21.313  1.00  0.00     0.020 C 
HETATM   19  C28 UNL     1      -2.301  50.888 -23.331  1.00  0.00     0.002 C 
HETATM   20  C29 UNL     1      -2.839  52.223 -23.870  1.00  0.00     0.007 C 
HETATM   21  C30 UNL     1      -1.783  53.037 -24.643  1.00  0.00     0.014 C 
HETATM   22  C31 UNL     1      -0.645  52.213 -25.319  1.00  0.00     0.003 C 
HETATM   23  C32 UNL     1       0.590  52.187 -24.390  1.00  0.00     0.020 C 
ENDROOT
BRANCH   3  24
HETATM   24  O1  UNL     1      -0.249  54.216 -26.711  1.00  0.00    -0.377 OA
HETATM   25  H2  UNL     1       0.553  54.472 -26.224  1.00  0.00     0.211 HD
ENDBRANCH   3  24
BRANCH  13  26
HETATM   26  O2  UNL     1      -7.510  49.892 -19.708  1.00  0.00    -0.271 OA
BRANCH  26  27
HETATM   27  C13 UNL     1      -7.579  48.926 -18.670  1.00  0.00     0.303 C 
BRANCH  27  28
HETATM   28  C14 UNL     1      -8.851  48.093 -18.796  1.00  0.00     0.244 C 
HETATM   29  O3  UNL     1      -9.774  48.349 -19.566  1.00  0.00    -0.271 OA
HETATM   30  N2  UNL     1      -8.876  47.006 -17.948  1.00  0.00    -0.346 N 
HETATM   31  H16 UNL     1      -8.050  46.750 -17.411  1.00  0.00     0.163 HD
BRANCH  30  32
HETATM   32  C15 UNL     1      -9.997  46.074 -17.877  1.00  0.00     0.180 C 
BRANCH  32  33
HETATM   33  C16 UNL     1     -11.159  46.853 -17.218  1.00  0.00     0.241 C 
HETATM   34  O4  UNL     1     -10.978  47.582 -16.238  1.00  0.00    -0.271 OA
HETATM   35  N3  UNL     1     -12.393  46.680 -17.807  1.00  0.00    -0.353 N 
HETATM   36  H18 UNL     1     -12.469  46.083 -18.621  1.00  0.00     0.163 HD
BRANCH  35  37
HETATM   37  C17 UNL     1     -13.612  47.266 -17.247  1.00  0.00     0.103 C 
BRANCH  37  38
HETATM   38  C18 UNL     1     -14.611  47.647 -18.358  1.00  0.00     0.096 C 
BRANCH  38  39
HETATM   39  S1  UNL     1     -15.319  49.314 -18.133  1.00  0.00    -0.180 SA
HETATM   40  H22 UNL     1     -16.192  49.247 -19.146  1.00  0.00     0.101 HD
ENDBRANCH  38  39
ENDBRANCH  37  38
BRANCH  37  41
HETATM   41  C19 UNL     1     -14.284  46.279 -16.288  1.00  0.00     0.136 C 
BRANCH  41  42
HETATM   42  C20 UNL     1     -13.969  44.845 -16.617  1.00  0.00     0.141 C 
HETATM   43  O5  UNL     1     -13.122  44.144 -16.093  1.00  0.00    -0.650 OA
BRANCH  42  44
HETATM   44  O6  UNL     1     -14.694  44.381 -17.657  1.00  0.00    -0.776 OA
HETATM   45  H25 UNL     1     -14.364  43.464 -17.789  1.00  0.00     0.167 HD
ENDBRANCH  42  44
ENDBRANCH  41  42
ENDBRANCH  37  41
ENDBRANCH  35  37
ENDBRANCH  32  33
BRANCH  32  46
HETATM   46  C21 UNL     1     -10.308  45.499 -19.277  1.00  0.00     0.009 C 
HETATM   47  C22 UNL     1     -11.414  44.438 -19.258  1.00  0.00     0.012 C 
HETATM   48  C23 UNL     1      -9.070  44.950 -19.988  1.00  0.00     0.012 C 
ENDBRANCH  32  46
ENDBRANCH  30  32
ENDBRANCH  27  28
ENDBRANCH  26  27
ENDBRANCH  13  26
TORSDOF 13
ENDMDL
MODEL 4
REMARK minimizedAffinity -7.46090698
REMARK CNNscore 0.293129623
REMARK CNNaffinity 6.40625525
REMARK  13 active torsions:
REMARK  status: ('A' for Active; 'I' for Inactive)
REMARK    1  A    between atoms: C3_3  and  O1_4 
REMARK    2  A    between atoms: N1_14  and  O2_16 
REMARK    3  A    between atoms: O2_16  and  C13_17 
REMARK    4  A    between atoms: C13_17  and  C14_18 
REMARK       I    between atoms: C14_18  and  N2_20 
REMARK    5  A    between atoms: N2_20  and  C15_21 
REMARK    6  A    between atoms: C15_21  and  C16_22 
REMARK    7  A    between atoms: C15_21  and  C21_32 
REMARK       I    between atoms: C16_22  and  N3_24 
REMARK    8  A    between atoms: N3_24  and  C17_25 
REMARK    9  A    between atoms: C17_25  and  C18_26 
REMARK   10  A    between atoms: C17_25  and  C19_28 
REMARK   11  A    between atoms: C18_26  and  S1_27 
REMARK   12  A    between atoms: C19_28  and  C20_29 
REMARK   13  A    between atoms: C20_29  and  O6_31 
ROOT
HETATM    1  C1  UNL     1       1.973  51.850 -27.400  1.00  0.00     0.015 C 
HETATM    2  C2  UNL     1       0.905  52.218 -26.995  1.00  0.00    -0.078 C 
HETATM    3  C3  UNL     1      -0.408  52.691 -26.492  1.00  0.00     0.128 C 
HETATM    4  C4  UNL     1      -1.528  52.178 -27.408  1.00  0.00     0.052 C 
HETATM    5  C5  UNL     1      -2.111  50.941 -26.716  1.00  0.00     0.010 C 
HETATM    6  C6  UNL     1      -1.270  50.702 -25.439  1.00  0.00     0.002 C 
HETATM    7  C7  UNL     1      -1.955  49.913 -24.284  1.00  0.00    -0.004 C 
HETATM    8  C8  UNL     1      -3.041  48.965 -24.825  1.00  0.00     0.010 C 
HETATM    9  C9  UNL     1      -3.648  48.108 -23.733  1.00  0.00     0.035 C 
HETATM   10  C10 UNL     1      -4.265  48.969 -22.663  1.00  0.00    -0.069 C 
HETATM   11  C11 UNL     1      -5.525  48.728 -22.256  1.00  0.00     0.030 C 
HETATM   12  C12 UNL     1      -6.113  49.416 -21.076  1.00  0.00     0.032 C 
HETATM   13  N1  UNL     1      -7.339  49.120 -20.749  1.00  0.00    -0.271 N 
ATOM     14  H1  UNL     1      -7.941  48.492 -21.281  1.00  0.00     0.194 HD
HETATM   15  C24 UNL     1      -5.219  50.355 -20.290  1.00  0.00     0.060 C 
HETATM   16  C25 UNL     1      -4.222  51.026 -21.223  1.00  0.00     0.020 C 
HETATM   17  C26 UNL     1      -3.359  50.029 -22.045  1.00  0.00    -0.016 C 
HETATM   18  C27 UNL     1      -2.400  49.292 -21.067  1.00  0.00     0.020 C 
HETATM   19  C28 UNL     1      -2.461  50.801 -23.107  1.00  0.00     0.002 C 
HETATM   20  C29 UNL     1      -3.009  52.120 -23.675  1.00  0.00     0.007 C 
HETATM   21  C30 UNL     1      -1.950  52.939 -24.439  1.00  0.00     0.014 C 
HETATM   22  C31 UNL     1      -0.787  52.123 -25.083  1.00  0.00     0.003 C 
HETATM   23  C32 UNL     1       0.430  52.128 -24.130  1.00  0.00     0.020 C 
ENDROOT
BRANCH   3  24
HETATM   24  O1  UNL     1      -0.395  54.113 -26.495  1.00  0.00    -0.377 OA
HETATM   25  H2  UNL     1       0.394  54.387 -25.996  1.00  0.00     0.211 HD
ENDBRANCH   3  24
BRANCH  13  26
HETATM   26  O2  UNL     1      -7.722  49.777 -19.569  1.00  0.00    -0.271 OA
BRANCH  26  27
HETATM   27  C13 UNL     1      -7.669  48.851 -18.494  1.00  0.00     0.303 C 
BRANCH  27  28
HETATM   28  C14 UNL     1      -8.865  47.904 -18.539  1.00  0.00     0.244 C 
HETATM   29  O3  UNL     1      -8.981  46.974 -19.333  1.00  0.00    -0.271 OA
HETATM   30  N2  UNL     1      -9.825  48.194 -17.593  1.00  0.00    -0.346 N 
HETATM   31  H16 UNL     1      -9.647  48.890 -16.872  1.00  0.00     0.163 HD
BRANCH  30  32
HETATM   32  C15 UNL     1     -11.065  47.437 -17.456  1.00  0.00     0.180 C 
BRANCH  32  33
HETATM   33  C16 UNL     1     -11.698  47.397 -18.866  1.00  0.00     0.241 C 
HETATM   34  O4  UNL     1     -12.104  48.421 -19.425  1.00  0.00    -0.271 OA
HETATM   35  N3  UNL     1     -11.768  46.147 -19.445  1.00  0.00    -0.353 N 
HETATM   36  H18 UNL     1     -11.399  45.352 -18.941  1.00  0.00     0.163 HD
BRANCH  35  37
HETATM   37  C17 UNL     1     -12.429  45.922 -20.732  1.00  0.00     0.103 C 
BRANCH  37  38
HETATM   38  C18 UNL     1     -13.963  45.994 -20.592  1.00  0.00     0.096 C 
BRANCH  38  39
HETATM   39  S1  UNL     1     -14.719  47.225 -21.706  1.00  0.00    -0.180 SA
HETATM   40  H22 UNL     1     -15.967  47.112 -21.234  1.00  0.00     0.101 HD
ENDBRANCH  38  39
ENDBRANCH  37  38
BRANCH  37  41
HETATM   41  C19 UNL     1     -11.970  46.965 -21.755  1.00  0.00     0.136 C 
BRANCH  41  42
HETATM   42  C20 UNL     1     -11.203  46.358 -22.898  1.00  0.00     0.141 C 
HETATM   43  O5  UNL     1     -10.470  45.386 -22.852  1.00  0.00    -0.650 OA
BRANCH  42  44
HETATM   44  O6  UNL     1     -11.336  47.061 -24.043  1.00  0.00    -0.776 OA
HETATM   45  H25 UNL     1     -10.761  46.586 -24.684  1.00  0.00     0.167 HD
ENDBRANCH  42  44
ENDBRANCH  41  42
ENDBRANCH  37  41
ENDBRANCH  35  37
ENDBRANCH  32  33
BRANCH  32  46
HETATM   46  C21 UNL     1     -10.783  46.053 -16.828  1.00  0.00     0.009 C 
HETATM   47  C22 UNL     1     -12.027  45.416 -16.199  1.00  0.00     0.012 C 
HETATM   48  C23 UNL     1      -9.639  46.077 -15.812  1.00  0.00     0.012 C 
ENDBRANCH  32  46
ENDBRANCH  30  32
ENDBRANCH  27  28
ENDBRANCH  26  27
ENDBRANCH  13  26
TORSDOF 13
ENDMDL
MODEL 5
REMARK minimizedAffinity -8.49968052
REMARK CNNscore 0.282459795
REMARK CNNaffinity 6.73269224
REMARK  13 active torsions:
REMARK  status: ('A' for Active; 'I' for Inactive)
REMARK    1  A    between atoms: C3_3  and  O1_4 
REMARK    2  A    between atoms: N1_14  and  O2_16 
REMARK    3  A    between atoms: O2_16  and  C13_17 
REMARK    4  A    between atoms: C13_17  and  C14_18 
REMARK       I    between atoms: C14_18  and  N2_20 
REMARK    5  A    between atoms: N2_20  and  C15_21 
REMARK    6  A    between atoms: C15_21  and  C16_22 
REMARK    7  A    between atoms: C15_21  and  C21_32 
REMARK       I    between atoms: C16_22  and  N3_24 
REMARK    8  A    between atoms: N3_24  and  C17_25 
REMARK    9  A    between atoms: C17_25  and  C18_26 
REMARK   10  A    between atoms: C17_25  and  C19_28 
REMARK   11  A    between atoms: C18_26  and  S1_27 
REMARK   12  A    between atoms: C19_28  and  C20_29 
REMARK   13  A    between atoms: C20_29  and  O6_31 
ROOT
HETATM    1  C1  UNL     1       1.753  51.937 -28.261  1.00  0.00     0.015 C 
HETATM    2  C2  UNL     1       0.827  52.345 -27.616  1.00  0.00    -0.078 C 
HETATM    3  C3  UNL     1      -0.305  52.865 -26.811  1.00  0.00     0.128 C 
HETATM    4  C4  UNL     1      -1.567  52.938 -27.682  1.00  0.00     0.052 C 
HETATM    5  C5  UNL     1      -2.382  51.680 -27.360  1.00  0.00     0.010 C 
HETATM    6  C6  UNL     1      -1.545  50.847 -26.359  1.00  0.00     0.002 C 
HETATM    7  C7  UNL     1      -2.325  49.858 -25.444  1.00  0.00    -0.004 C 
HETATM    8  C8  UNL     1      -3.634  49.396 -26.111  1.00  0.00     0.010 C 
HETATM    9  C9  UNL     1      -4.359  48.352 -25.287  1.00  0.00     0.035 C 
HETATM   10  C10 UNL     1      -4.691  48.889 -23.921  1.00  0.00    -0.069 C 
HETATM   11  C11 UNL     1      -5.946  48.778 -23.447  1.00  0.00     0.030 C 
HETATM   12  C12 UNL     1      -6.285  49.112 -22.038  1.00  0.00     0.032 C 
HETATM   13  N1  UNL     1      -7.523  48.972 -21.661  1.00  0.00    -0.271 N 
ATOM     14  H1  UNL     1      -8.287  48.704 -22.282  1.00  0.00     0.194 HD
HETATM   15  C24 UNL     1      -5.149  49.519 -21.118  1.00  0.00     0.060 C 
HETATM   16  C25 UNL     1      -4.080  50.260 -21.907  1.00  0.00     0.020 C 
HETATM   17  C26 UNL     1      -3.527  49.463 -23.120  1.00  0.00    -0.016 C 
HETATM   18  C27 UNL     1      -2.711  48.255 -22.578  1.00  0.00     0.020 C 
HETATM   19  C28 UNL     1      -2.538  50.361 -23.984  1.00  0.00     0.002 C 
HETATM   20  C29 UNL     1      -2.794  51.876 -24.008  1.00  0.00     0.007 C 
HETATM   21  C30 UNL     1      -1.621  52.682 -24.600  1.00  0.00     0.014 C 
HETATM   22  C31 UNL     1      -0.722  51.928 -25.627  1.00  0.00     0.003 C 
HETATM   23  C32 UNL     1       0.517  51.356 -24.902  1.00  0.00     0.020 C 
ENDROOT
BRANCH   3  24
HETATM   24  O1  UNL     1       0.041  54.164 -26.350  1.00  0.00    -0.377 OA
HETATM   25  H2  UNL     1       0.900  54.083 -25.902  1.00  0.00     0.211 HD
ENDBRANCH   3  24
BRANCH  13  26
HETATM   26  O2  UNL     1      -7.671  49.237 -20.290  1.00  0.00    -0.271 OA
BRANCH  26  27
HETATM   27  C13 UNL     1      -8.099  48.051 -19.639  1.00  0.00     0.303 C 
BRANCH  27  28
HETATM   28  C14 UNL     1      -8.969  48.384 -18.431  1.00  0.00     0.244 C 
HETATM   29  O3  UNL     1      -9.046  49.499 -17.919  1.00  0.00    -0.271 OA
HETATM   30  N2  UNL     1      -9.673  47.301 -17.951  1.00  0.00    -0.346 N 
HETATM   31  H16 UNL     1      -9.685  46.422 -18.466  1.00  0.00     0.163 HD
BRANCH  30  32
HETATM   32  C15 UNL     1     -10.558  47.372 -16.792  1.00  0.00     0.180 C 
BRANCH  32  33
HETATM   33  C16 UNL     1     -11.995  47.231 -17.344  1.00  0.00     0.241 C 
HETATM   34  O4  UNL     1     -12.972  47.678 -16.735  1.00  0.00    -0.271 OA
HETATM   35  N3  UNL     1     -12.099  46.584 -18.557  1.00  0.00    -0.353 N 
HETATM   36  H18 UNL     1     -11.257  46.259 -19.014  1.00  0.00     0.163 HD
BRANCH  35  37
HETATM   37  C17 UNL     1     -13.394  46.279 -19.168  1.00  0.00     0.103 C 
BRANCH  37  38
HETATM   38  C18 UNL     1     -14.081  45.093 -18.461  1.00  0.00     0.096 C 
BRANCH  38  39
HETATM   39  S1  UNL     1     -14.772  43.875 -19.631  1.00  0.00    -0.180 SA
HETATM   40  H22 UNL     1     -15.374  43.107 -18.714  1.00  0.00     0.101 HD
ENDBRANCH  38  39
ENDBRANCH  37  38
BRANCH  37  41
HETATM   41  C19 UNL     1     -14.314  47.502 -19.100  1.00  0.00     0.136 C 
BRANCH  41  42
HETATM   42  C20 UNL     1     -14.031  48.501 -20.189  1.00  0.00     0.141 C 
HETATM   43  O5  UNL     1     -13.548  49.612 -20.054  1.00  0.00    -0.650 OA
BRANCH  42  44
HETATM   44  O6  UNL     1     -14.446  48.079 -21.402  1.00  0.00    -0.776 OA
HETATM   45  H25 UNL     1     -14.241  48.832 -22.001  1.00  0.00     0.167 HD
ENDBRANCH  42  44
ENDBRANCH  41  42
ENDBRANCH  37  41
ENDBRANCH  35  37
ENDBRANCH  32  33
BRANCH  32  46
HETATM   46  C21 UNL     1     -10.155  46.311 -15.743  1.00  0.00     0.009 C 
HETATM   47  C22 UNL     1      -8.975  45.442 -16.192  1.00  0.00     0.012 C 
HETATM   48  C23 UNL     1     -11.322  45.422 -15.310  1.00  0.00     0.012 C 
ENDBRANCH  32  46
ENDBRANCH  30  32
ENDBRANCH  27  28
ENDBRANCH  26  27
ENDBRANCH  13  26
TORSDOF 13
ENDMDL
MODEL 6
REMARK minimizedAffinity -7.53369761
REMARK CNNscore 0.280293763
REMARK CNNaffinity 6.18669891
REMARK  13 active torsions:
REMARK  status: ('A' for Active; 'I' for Inactive)
REMARK    1  A    between atoms: C3_3  and  O1_4 
REMARK    2  A    between atoms: N1_14  and  O2_16 
REMARK    3  A    between atoms: O2_16  and  C13_17 
REMARK    4  A    between atoms: C13_17  and  C14_18 
REMARK       I    between atoms: C14_18  and  N2_20 
REMARK    5  A    between atoms: N2_20  and  C15_21 
REMARK    6  A    between atoms: C15_21  and  C16_22 
REMARK    7  A    between atoms: C15_21  and  C21_32 
REMARK       I    between atoms: C16_22  and  N3_24 
REMARK    8  A    between atoms: N3_24  and  C17_25 
REMARK    9  A    between atoms: C17_25  and  C18_26 
REMARK   10  A    between atoms: C17_25  and  C19_28 
REMARK   11  A    between atoms: C18_26  and  S1_27 
REMARK   12  A    between atoms: C19_28  and  C20_29 
REMARK   13  A    between atoms: C20_29  and  O6_31 
ROOT
HETATM    1  C1  UNL     1       0.610  52.605 -25.718  1.00  0.00     0.015 C 
HETATM    2  C2  UNL     1      -0.548  52.304 -25.810  1.00  0.00    -0.078 C 
HETATM    3  C3  UNL     1      -1.984  51.950 -25.931  1.00  0.00     0.128 C 
HETATM    4  C4  UNL     1      -2.123  50.586 -26.623  1.00  0.00     0.052 C 
HETATM    5  C5  UNL     1      -2.332  49.560 -25.504  1.00  0.00     0.010 C 
HETATM    6  C6  UNL     1      -2.235  50.329 -24.164  1.00  0.00     0.002 C 
HETATM    7  C7  UNL     1      -2.953  49.696 -22.936  1.00  0.00    -0.004 C 
HETATM    8  C8  UNL     1      -3.055  48.166 -23.078  1.00  0.00     0.010 C 
HETATM    9  C9  UNL     1      -3.655  47.516 -21.848  1.00  0.00     0.035 C 
HETATM   10  C10 UNL     1      -5.033  48.057 -21.579  1.00  0.00    -0.069 C 
HETATM   11  C11 UNL     1      -6.056  47.206 -21.376  1.00  0.00     0.030 C 
HETATM   12  C12 UNL     1      -7.389  47.678 -20.917  1.00  0.00     0.032 C 
HETATM   13  N1  UNL     1      -8.322  46.787 -20.741  1.00  0.00    -0.271 N 
ATOM     14  H1  UNL     1      -8.218  45.794 -20.953  1.00  0.00     0.194 HD
HETATM   15  C24 UNL     1      -7.546  49.155 -20.610  1.00  0.00     0.060 C 
HETATM   16  C25 UNL     1      -6.653  49.975 -21.529  1.00  0.00     0.020 C 
HETATM   17  C26 UNL     1      -5.153  49.573 -21.473  1.00  0.00    -0.016 C 
HETATM   18  C27 UNL     1      -4.593  49.976 -20.079  1.00  0.00     0.020 C 
HETATM   19  C28 UNL     1      -4.315  50.360 -22.572  1.00  0.00     0.002 C 
HETATM   20  C29 UNL     1      -5.041  50.757 -23.868  1.00  0.00     0.007 C 
HETATM   21  C30 UNL     1      -4.254  51.773 -24.719  1.00  0.00     0.014 C 
HETATM   22  C31 UNL     1      -2.703  51.747 -24.555  1.00  0.00     0.003 C 
HETATM   23  C32 UNL     1      -2.277  52.827 -23.535  1.00  0.00     0.020 C 
ENDROOT
BRANCH   3  24
HETATM   24  O1  UNL     1      -2.621  52.954 -26.709  1.00  0.00    -0.377 OA
HETATM   25  H2  UNL     1      -2.410  53.808 -26.293  1.00  0.00     0.211 HD
ENDBRANCH   3  24
BRANCH  13  26
HETATM   26  O2  UNL     1      -9.490  47.368 -20.223  1.00  0.00    -0.271 OA
BRANCH  26  27
HETATM   27  C13 UNL     1     -10.591  46.523 -20.520  1.00  0.00     0.303 C 
BRANCH  27  28
HETATM   28  C14 UNL     1     -11.891  47.322 -20.542  1.00  0.00     0.244 C 
HETATM   29  O3  UNL     1     -12.080  48.357 -19.905  1.00  0.00    -0.271 OA
HETATM   30  N2  UNL     1     -12.858  46.767 -21.353  1.00  0.00    -0.346 N 
HETATM   31  H16 UNL     1     -12.634  45.981 -21.961  1.00  0.00     0.163 HD
BRANCH  30  32
HETATM   32  C15 UNL     1     -14.188  47.344 -21.521  1.00  0.00     0.180 C 
BRANCH  32  33
HETATM   33  C16 UNL     1     -14.580  47.090 -22.994  1.00  0.00     0.241 C 
HETATM   34  O4  UNL     1     -15.251  47.903 -23.637  1.00  0.00    -0.271 OA
HETATM   35  N3  UNL     1     -14.122  45.905 -23.530  1.00  0.00    -0.353 N 
HETATM   36  H18 UNL     1     -13.560  45.291 -22.955  1.00  0.00     0.163 HD
BRANCH  35  37
HETATM   37  C17 UNL     1     -14.489  45.467 -24.878  1.00  0.00     0.103 C 
BRANCH  37  38
HETATM   38  C18 UNL     1     -15.735  46.218 -25.390  1.00  0.00     0.096 C 
BRANCH  38  39
HETATM   39  S1  UNL     1     -17.275  45.264 -25.175  1.00  0.00    -0.180 SA
HETATM   40  H22 UNL     1     -18.077  46.121 -25.821  1.00  0.00     0.101 HD
ENDBRANCH  38  39
ENDBRANCH  37  38
BRANCH  37  41
HETATM   41  C19 UNL     1     -13.328  45.704 -25.848  1.00  0.00     0.136 C 
BRANCH  41  42
HETATM   42  C20 UNL     1     -12.217  46.513 -25.236  1.00  0.00     0.141 C 
HETATM   43  O5  UNL     1     -12.062  47.719 -25.312  1.00  0.00    -0.650 OA
BRANCH  42  44
HETATM   44  O6  UNL     1     -11.298  45.744 -24.614  1.00  0.00    -0.776 OA
HETATM   45  H25 UNL     1     -10.620  46.385 -24.302  1.00  0.00     0.167 HD
ENDBRANCH  42  44
ENDBRANCH  41  42
ENDBRANCH  37  41
ENDBRANCH  35  37
ENDBRANCH  32  33
BRANCH  32  46
HETATM   46  C21 UNL     1     -15.164  46.756 -20.476  1.00  0.00     0.009 C 
HETATM   47  C22 UNL     1     -15.426  47.705 -19.301  1.00  0.00     0.012 C 
HETATM   48  C23 UNL     1     -14.728  45.386 -19.952  1.00  0.00     0.012 C 
ENDBRANCH  32  46
ENDBRANCH  30  32
ENDBRANCH  27  28
ENDBRANCH  26  27
ENDBRANCH  13  26
TORSDOF 13
ENDMDL
MODEL 7
REMARK minimizedAffinity -8.57222843
REMARK CNNscore 0.256351173
REMARK CNNaffinity 6.47967911
REMARK  13 active torsions:
REMARK  status: ('A' for Active; 'I' for Inactive)
REMARK    1  A    between atoms: C3_3  and  O1_4 
REMARK    2  A    between atoms: N1_14  and  O2_16 
REMARK    3  A    between atoms: O2_16  and  C13_17 
REMARK    4  A    between atoms: C13_17  and  C14_18 
REMARK       I    between atoms: C14_18  and  N2_20 
REMARK    5  A    between atoms: N2_20  and  C15_21 
REMARK    6  A    between atoms: C15_21  and  C16_22 
REMARK    7  A    between atoms: C15_21  and  C21_32 
REMARK       I    between atoms: C16_22  and  N3_24 
REMARK    8  A    between atoms: N3_24  and  C17_25 
REMARK    9  A    between atoms: C17_25  and  C18_26 
REMARK   10  A    between atoms: C17_25  and  C19_28 
REMARK   11  A    between atoms: C18_26  and  S1_27 
REMARK   12  A    between atoms: C19_28  and  C20_29 
REMARK   13  A    between atoms: C20_29  and  O6_31 
ROOT
HETATM    1  C1  UNL     1      -1.535  50.997 -14.950  1.00  0.00     0.015 C 
HETATM    2  C2  UNL     1      -1.627  50.142 -15.786  1.00  0.00    -0.078 C 
HETATM    3  C3  UNL     1      -1.724  49.077 -16.814  1.00  0.00     0.128 C 
HETATM    4  C4  UNL     1      -3.109  48.418 -16.748  1.00  0.00     0.052 C 
HETATM    5  C5  UNL     1      -3.944  49.068 -17.856  1.00  0.00     0.010 C 
HETATM    6  C6  UNL     1      -3.057  50.157 -18.508  1.00  0.00     0.002 C 
HETATM    7  C7  UNL     1      -3.402  50.562 -19.971  1.00  0.00    -0.004 C 
HETATM    8  C8  UNL     1      -4.893  50.329 -20.277  1.00  0.00     0.010 C 
HETATM    9  C9  UNL     1      -5.277  50.815 -21.659  1.00  0.00     0.035 C 
HETATM   10  C10 UNL     1      -4.466  50.112 -22.714  1.00  0.00    -0.069 C 
HETATM   11  C11 UNL     1      -5.085  49.545 -23.765  1.00  0.00     0.030 C 
HETATM   12  C12 UNL     1      -4.327  49.010 -24.928  1.00  0.00     0.032 C 
HETATM   13  N1  UNL     1      -5.007  48.481 -25.905  1.00  0.00    -0.271 N 
ATOM     14  H1  UNL     1      -6.020  48.356 -25.901  1.00  0.00     0.194 HD
HETATM   15  C24 UNL     1      -2.822  49.189 -24.929  1.00  0.00     0.060 C 
HETATM   16  C25 UNL     1      -2.290  49.137 -23.504  1.00  0.00     0.020 C 
HETATM   17  C26 UNL     1      -2.951  50.168 -22.548  1.00  0.00    -0.016 C 
HETATM   18  C27 UNL     1      -2.500  51.593 -22.980  1.00  0.00     0.020 C 
HETATM   19  C28 UNL     1      -2.462  49.945 -21.051  1.00  0.00     0.002 C 
HETATM   20  C29 UNL     1      -2.091  48.513 -20.632  1.00  0.00     0.007 C 
HETATM   21  C30 UNL     1      -1.341  48.448 -19.287  1.00  0.00     0.014 C 
HETATM   22  C31 UNL     1      -1.632  49.608 -18.285  1.00  0.00     0.003 C 
HETATM   23  C32 UNL     1      -0.538  50.690 -18.423  1.00  0.00     0.020 C 
ENDROOT
BRANCH   3  24
HETATM   24  O1  UNL     1      -0.716  48.112 -16.545  1.00  0.00    -0.377 OA
HETATM   25  H2  UNL     1       0.127  48.594 -16.487  1.00  0.00     0.211 HD
ENDBRANCH   3  24
BRANCH  13  26
HETATM   26  O2  UNL     1      -4.166  48.106 -26.964  1.00  0.00    -0.271 OA
BRANCH  26  27
HETATM   27  C13 UNL     1      -4.439  48.938 -28.081  1.00  0.00     0.303 C 
BRANCH  27  28
HETATM   28  C14 UNL     1      -5.258  48.184 -29.125  1.00  0.00     0.244 C 
HETATM   29  O3  UNL     1      -4.788  47.374 -29.922  1.00  0.00    -0.271 OA
HETATM   30  N2  UNL     1      -6.599  48.501 -29.099  1.00  0.00    -0.346 N 
HETATM   31  H16 UNL     1      -6.979  49.080 -28.353  1.00  0.00     0.163 HD
BRANCH  30  32
HETATM   32  C15 UNL     1      -7.576  47.920 -30.015  1.00  0.00     0.180 C 
BRANCH  32  33
HETATM   33  C16 UNL     1      -8.803  47.550 -29.150  1.00  0.00     0.241 C 
HETATM   34  O4  UNL     1      -8.694  46.860 -28.130  1.00  0.00    -0.271 OA
HETATM   35  N3  UNL     1     -10.009  48.047 -29.594  1.00  0.00    -0.353 N 
HETATM   36  H18 UNL     1     -10.026  48.622 -30.426  1.00  0.00     0.163 HD
BRANCH  35  37
HETATM   37  C17 UNL     1     -11.278  47.706 -28.947  1.00  0.00     0.103 C 
BRANCH  37  38
HETATM   38  C18 UNL     1     -12.098  46.724 -29.808  1.00  0.00     0.096 C 
BRANCH  38  39
HETATM   39  S1  UNL     1     -11.054  45.534 -30.715  1.00  0.00    -0.180 SA
HETATM   40  H22 UNL     1     -12.043  44.969 -31.419  1.00  0.00     0.101 HD
ENDBRANCH  38  39
ENDBRANCH  37  38
BRANCH  37  41
HETATM   41  C19 UNL     1     -11.022  47.075 -27.576  1.00  0.00     0.136 C 
BRANCH  41  42
HETATM   42  C20 UNL     1     -11.484  47.948 -26.441  1.00  0.00     0.141 C 
HETATM   43  O5  UNL     1     -12.281  47.651 -25.568  1.00  0.00    -0.650 OA
BRANCH  42  44
HETATM   44  O6  UNL     1     -10.974  49.196 -26.505  1.00  0.00    -0.776 OA
HETATM   45  H25 UNL     1     -11.384  49.663 -25.742  1.00  0.00     0.167 HD
ENDBRANCH  42  44
ENDBRANCH  41  42
ENDBRANCH  37  41
ENDBRANCH  35  37
ENDBRANCH  32  33
BRANCH  32  46
HETATM   46  C21 UNL     1      -7.868  48.895 -31.178  1.00  0.00     0.009 C 
HETATM   47  C22 UNL     1      -8.772  50.064 -30.767  1.00  0.00     0.012 C 
HETATM   48  C23 UNL     1      -8.444  48.200 -32.413  1.00  0.00     0.012 C 
ENDBRANCH  32  46
ENDBRANCH  30  32
ENDBRANCH  27  28
ENDBRANCH  26  27
ENDBRANCH  13  26
TORSDOF 13
ENDMDL
MODEL 8
REMARK minimizedAffinity -7.53760576
REMARK CNNscore 0.231120601
REMARK CNNaffinity 6.26121712
REMARK  13 active torsions:
REMARK  status: ('A' for Active; 'I' for Inactive)
REMARK    1  A    between atoms: C3_3  and  O1_4 
REMARK    2  A    between atoms: N1_14  and  O2_16 
REMARK    3  A    between atoms: O2_16  and  C13_17 
REMARK    4  A    between atoms: C13_17  and  C14_18 
REMARK       I    between atoms: C14_18  and  N2_20 
REMARK    5  A    between atoms: N2_20  and  C15_21 
REMARK    6  A    between atoms: C15_21  and  C16_22 
REMARK    7  A    between atoms: C15_21  and  C21_32 
REMARK       I    between atoms: C16_22  and  N3_24 
REMARK    8  A    between atoms: N3_24  and  C17_25 
REMARK    9  A    between atoms: C17_25  and  C18_26 
REMARK   10  A    between atoms: C17_25  and  C19_28 
REMARK   11  A    between atoms: C18_26  and  S1_27 
REMARK   12  A    between atoms: C19_28  and  C20_29 
REMARK   13  A    between atoms: C20_29  and  O6_31 
ROOT
HETATM    1  C1  UNL     1      -0.683  54.361 -27.986  1.00  0.00     0.015 C 
HETATM    2  C2  UNL     1      -0.793  53.231 -27.598  1.00  0.00    -0.078 C 
HETATM    3  C3  UNL     1      -0.941  51.830 -27.134  1.00  0.00     0.128 C 
HETATM    4  C4  UNL     1       0.430  51.274 -26.724  1.00  0.00     0.052 C 
HETATM    5  C5  UNL     1       0.500  51.396 -25.198  1.00  0.00     0.010 C 
HETATM    6  C6  UNL     1      -0.804  52.094 -24.742  1.00  0.00     0.002 C 
HETATM    7  C7  UNL     1      -1.264  51.838 -23.276  1.00  0.00    -0.004 C 
HETATM    8  C8  UNL     1      -0.065  51.509 -22.366  1.00  0.00     0.010 C 
HETATM    9  C9  UNL     1      -0.472  51.361 -20.915  1.00  0.00     0.035 C 
HETATM   10  C10 UNL     1      -1.495  50.269 -20.759  1.00  0.00    -0.069 C 
HETATM   11  C11 UNL     1      -1.314  49.311 -19.830  1.00  0.00     0.030 C 
HETATM   12  C12 UNL     1      -2.377  48.325 -19.501  1.00  0.00     0.032 C 
HETATM   13  N1  UNL     1      -2.118  47.435 -18.586  1.00  0.00    -0.271 N 
ATOM     14  H1  UNL     1      -1.216  47.332 -18.121  1.00  0.00     0.194 HD
HETATM   15  C24 UNL     1      -3.715  48.474 -20.198  1.00  0.00     0.060 C 
HETATM   16  C25 UNL     1      -3.513  49.031 -21.599  1.00  0.00     0.020 C 
HETATM   17  C26 UNL     1      -2.738  50.378 -21.636  1.00  0.00    -0.016 C 
HETATM   18  C27 UNL     1      -3.641  51.477 -21.007  1.00  0.00     0.020 C 
HETATM   19  C28 UNL     1      -2.427  50.811 -23.134  1.00  0.00     0.002 C 
HETATM   20  C29 UNL     1      -2.237  49.693 -24.172  1.00  0.00     0.007 C 
HETATM   21  C30 UNL     1      -2.256  50.202 -25.626  1.00  0.00     0.014 C 
HETATM   22  C31 UNL     1      -1.808  51.681 -25.839  1.00  0.00     0.003 C 
HETATM   23  C32 UNL     1      -3.055  52.592 -25.891  1.00  0.00     0.020 C 
ENDROOT
BRANCH   3  24
HETATM   24  O1  UNL     1      -1.472  51.064 -28.207  1.00  0.00    -0.377 OA
HETATM   25  H2  UNL     1      -2.279  51.518 -28.504  1.00  0.00     0.211 HD
ENDBRANCH   3  24
BRANCH  13  26
HETATM   26  O2  UNL     1      -3.242  46.636 -18.322  1.00  0.00    -0.271 OA
BRANCH  26  27
HETATM   27  C13 UNL     1      -3.216  45.511 -19.187  1.00  0.00     0.303 C 
BRANCH  27  28
HETATM   28  C14 UNL     1      -4.634  45.064 -19.530  1.00  0.00     0.244 C 
HETATM   29  O3  UNL     1      -5.549  44.975 -18.713  1.00  0.00    -0.271 OA
HETATM   30  N2  UNL     1      -4.802  44.756 -20.863  1.00  0.00    -0.346 N 
HETATM   31  H16 UNL     1      -4.064  44.954 -21.536  1.00  0.00     0.163 HD
BRANCH  30  32
HETATM   32  C15 UNL     1      -6.066  44.288 -21.423  1.00  0.00     0.180 C 
BRANCH  32  33
HETATM   33  C16 UNL     1      -6.622  43.255 -20.416  1.00  0.00     0.241 C 
HETATM   34  O4  UNL     1      -7.776  43.329 -19.980  1.00  0.00    -0.271 OA
HETATM   35  N3  UNL     1      -5.745  42.256 -20.052  1.00  0.00    -0.353 N 
HETATM   36  H18 UNL     1      -4.820  42.243 -20.461  1.00  0.00     0.163 HD
BRANCH  35  37
HETATM   37  C17 UNL     1      -6.080  41.259 -19.033  1.00  0.00     0.103 C 
BRANCH  37  38
HETATM   38  C18 UNL     1      -6.398  39.892 -19.672  1.00  0.00     0.096 C 
BRANCH  38  39
HETATM   39  S1  UNL     1      -6.063  39.852 -21.465  1.00  0.00    -0.180 SA
HETATM   40  H22 UNL     1      -6.559  38.628 -21.686  1.00  0.00     0.101 HD
ENDBRANCH  38  39
ENDBRANCH  37  38
BRANCH  37  41
HETATM   41  C19 UNL     1      -4.918  41.093 -18.049  1.00  0.00     0.136 C 
BRANCH  41  42
HETATM   42  C20 UNL     1      -3.606  40.836 -18.739  1.00  0.00     0.141 C 
HETATM   43  O5  UNL     1      -3.035  39.766 -18.848  1.00  0.00    -0.650 OA
BRANCH  42  44
HETATM   44  O6  UNL     1      -3.031  41.968 -19.198  1.00  0.00    -0.776 OA
HETATM   45  H25 UNL     1      -2.178  41.665 -19.581  1.00  0.00     0.167 HD
ENDBRANCH  42  44
ENDBRANCH  41  42
ENDBRANCH  37  41
ENDBRANCH  35  37
ENDBRANCH  32  33
BRANCH  32  46
HETATM   46  C21 UNL     1      -7.000  45.485 -21.713  1.00  0.00     0.009 C 
HETATM   47  C22 UNL     1      -6.301  46.620 -22.471  1.00  0.00     0.012 C 
HETATM   48  C23 UNL     1      -7.676  46.036 -20.456  1.00  0.00     0.012 C 
ENDBRANCH  32  46
ENDBRANCH  30  32
ENDBRANCH  27  28
ENDBRANCH  26  27
ENDBRANCH  13  26
TORSDOF 13
ENDMDL
MODEL 9
REMARK minimizedAffinity -7.87781954
REMARK CNNscore 0.197632715
REMARK CNNaffinity 6.59373903
REMARK  13 active torsions:
REMARK  status: ('A' for Active; 'I' for Inactive)
REMARK    1  A    between atoms: C3_3  and  O1_4 
REMARK    2  A    between atoms: N1_14  and  O2_16 
REMARK    3  A    between atoms: O2_16  and  C13_17 
REMARK    4  A    between atoms: C13_17  and  C14_18 
REMARK       I    between atoms: C14_18  and  N2_20 
REMARK    5  A    between atoms: N2_20  and  C15_21 
REMARK    6  A    between atoms: C15_21  and  C16_22 
REMARK    7  A    between atoms: C15_21  and  C21_32 
REMARK       I    between atoms: C16_22  and  N3_24 
REMARK    8  A    between atoms: N3_24  and  C17_25 
REMARK    9  A    between atoms: C17_25  and  C18_26 
REMARK   10  A    between atoms: C17_25  and  C19_28 
REMARK   11  A    between atoms: C18_26  and  S1_27 
REMARK   12  A    between atoms: C19_28  and  C20_29 
REMARK   13  A    between atoms: C20_29  and  O6_31 
ROOT
HETATM    1  C1  UNL     1       1.919  52.012 -27.884  1.00  0.00     0.015 C 
HETATM    2  C2  UNL     1       0.895  52.376 -27.375  1.00  0.00    -0.078 C 
HETATM    3  C3  UNL     1      -0.361  52.841 -26.738  1.00  0.00     0.128 C 
HETATM    4  C4  UNL     1      -1.501  52.823 -27.767  1.00  0.00     0.052 C 
HETATM    5  C5  UNL     1      -2.277  51.524 -27.520  1.00  0.00     0.010 C 
HETATM    6  C6  UNL     1      -1.533  50.762 -26.397  1.00  0.00     0.002 C 
HETATM    7  C7  UNL     1      -2.368  49.745 -25.565  1.00  0.00    -0.004 C 
HETATM    8  C8  UNL     1      -3.550  49.193 -26.384  1.00  0.00     0.010 C 
HETATM    9  C9  UNL     1      -4.315  48.122 -25.634  1.00  0.00     0.035 C 
HETATM   10  C10 UNL     1      -4.854  48.664 -24.337  1.00  0.00    -0.069 C 
HETATM   11  C11 UNL     1      -6.151  48.487 -24.027  1.00  0.00     0.030 C 
HETATM   12  C12 UNL     1      -6.690  48.826 -22.683  1.00  0.00     0.032 C 
HETATM   13  N1  UNL     1      -7.958  48.619 -22.467  1.00  0.00    -0.271 N 
ATOM     14  H1  UNL     1      -8.617  48.294 -23.174  1.00  0.00     0.194 HD
HETATM   15  C24 UNL     1      -5.710  49.317 -21.635  1.00  0.00     0.060 C 
HETATM   16  C25 UNL     1      -4.592  50.107 -22.298  1.00  0.00     0.020 C 
HETATM   17  C26 UNL     1      -3.839  49.322 -23.408  1.00  0.00    -0.016 C 
HETATM   18  C27 UNL     1      -3.033  48.175 -22.732  1.00  0.00     0.020 C 
HETATM   19  C28 UNL     1      -2.798  50.261 -24.159  1.00  0.00     0.002 C 
HETATM   20  C29 UNL     1      -3.135  51.758 -24.257  1.00  0.00     0.007 C 
HETATM   21  C30 UNL     1      -1.943  52.622 -24.712  1.00  0.00     0.014 C 
HETATM   22  C31 UNL     1      -0.876  51.903 -25.594  1.00  0.00     0.003 C 
HETATM   23  C32 UNL     1       0.288  51.421 -24.699  1.00  0.00     0.020 C 
ENDROOT
BRANCH   3  24
HETATM   24  O1  UNL     1      -0.153  54.167 -26.271  1.00  0.00    -0.377 OA
HETATM   25  H2  UNL     1       0.643  54.147 -25.713  1.00  0.00     0.211 HD
ENDBRANCH   3  24
BRANCH  13  26
HETATM   26  O2  UNL     1      -8.299  48.901 -21.134  1.00  0.00    -0.271 OA
BRANCH  26  27
HETATM   27  C13 UNL     1      -8.492  47.676 -20.444  1.00  0.00     0.303 C 
BRANCH  27  28
HETATM   28  C14 UNL     1      -9.358  46.726 -21.268  1.00  0.00     0.244 C 
HETATM   29  O3  UNL     1      -8.922  45.954 -22.119  1.00  0.00    -0.271 OA
HETATM   30  N2  UNL     1     -10.700  46.815 -20.969  1.00  0.00    -0.346 N 
HETATM   31  H16 UNL     1     -11.018  47.371 -20.178  1.00  0.00     0.163 HD
BRANCH  30  32
HETATM   32  C15 UNL     1     -11.723  46.017 -21.639  1.00  0.00     0.180 C 
BRANCH  32  33
HETATM   33  C16 UNL     1     -12.878  45.865 -20.623  1.00  0.00     0.241 C 
HETATM   34  O4  UNL     1     -13.556  44.835 -20.560  1.00  0.00    -0.271 OA
HETATM   35  N3  UNL     1     -13.085  46.951 -19.799  1.00  0.00    -0.353 N 
HETATM   36  H18 UNL     1     -12.480  47.757 -19.889  1.00  0.00     0.163 HD
BRANCH  35  37
HETATM   37  C17 UNL     1     -14.200  47.009 -18.852  1.00  0.00     0.103 C 
BRANCH  37  38
HETATM   38  C18 UNL     1     -14.123  45.858 -17.828  1.00  0.00     0.096 C 
BRANCH  38  39
HETATM   39  S1  UNL     1     -12.808  46.101 -16.587  1.00  0.00    -0.180 SA
HETATM   40  H22 UNL     1     -12.942  44.911 -15.988  1.00  0.00     0.101 HD
ENDBRANCH  38  39
ENDBRANCH  37  38
BRANCH  37  41
HETATM   41  C19 UNL     1     -14.195  48.345 -18.105  1.00  0.00     0.136 C 
BRANCH  41  42
HETATM   42  C20 UNL     1     -15.558  48.978 -18.040  1.00  0.00     0.141 C 
HETATM   43  O5  UNL     1     -16.603  48.508 -18.453  1.00  0.00    -0.650 OA
BRANCH  42  44
HETATM   44  O6  UNL     1     -15.527  50.224 -17.521  1.00  0.00    -0.776 OA
HETATM   45  H25 UNL     1     -16.460  50.530 -17.575  1.00  0.00     0.167 HD
ENDBRANCH  42  44
ENDBRANCH  41  42
ENDBRANCH  37  41
ENDBRANCH  35  37
ENDBRANCH  32  33
BRANCH  32  46
HETATM   46  C21 UNL     1     -12.118  46.670 -22.983  1.00  0.00     0.009 C 
HETATM   47  C22 UNL     1     -13.604  47.038 -23.057  1.00  0.00     0.012 C 
HETATM   48  C23 UNL     1     -11.729  45.825 -24.198  1.00  0.00     0.012 C 
ENDBRANCH  32  46
ENDBRANCH  30  32
ENDBRANCH  27  28
ENDBRANCH  26  27
ENDBRANCH  13  26
TORSDOF 13
ENDMDL
