MODEL 1
REMARK minimizedAffinity -9.43399906
REMARK  6 active torsions:
REMARK  status: ('A' for Active; 'I' for Inactive)
REMARK    1  A    between atoms: C2_2  and  C30_31 
REMARK    2  A    between atoms: C3_3  and  C4_4 
REMARK    3  A    between atoms: C4_4  and  C5_5 
REMARK    4  A    between atoms: C5_5  and  C6_6 
REMARK    5  A    between atoms: C6_6  and  C8_8 
REMARK    6  A    between atoms: C30_31  and  O2_32 
ROOT
HETATM    1  C8  UNL     1      -1.893  50.570 -21.784  1.00  0.00    -0.002 C 
HETATM    2  C9  UNL     1      -1.470  52.056 -21.994  1.00  0.00     0.007 C 
HETATM    3  C10 UNL     1      -0.807  52.541 -20.691  1.00  0.00     0.015 C 
HETATM    4  C11 UNL     1      -1.157  51.460 -19.651  1.00  0.00    -0.013 C 
HETATM    5  C12 UNL     1      -2.591  51.804 -19.138  1.00  0.00     0.021 C 
HETATM    6  C13 UNL     1      -0.276  51.347 -18.411  1.00  0.00    -0.070 C 
HETATM    7  C14 UNL     1       0.342  52.407 -17.856  1.00  0.00    -0.022 C 
HETATM    8  C15 UNL     1       1.150  52.357 -16.590  1.00  0.00     0.034 C 
HETATM    9  C16 UNL     1       1.402  50.926 -16.059  1.00  0.00     0.013 C 
HETATM   10  C17 UNL     1       2.151  50.887 -14.683  1.00  0.00     0.018 C 
HETATM   11  C18 UNL     1       1.546  51.754 -13.568  1.00  0.00     0.023 C 
HETATM   12  C19 UNL     1       3.606  51.380 -14.888  1.00  0.00     0.023 C 
HETATM   13  C20 UNL     1       2.210  49.441 -14.170  1.00  0.00     0.135 C 
HETATM   14  O1  UNL     1       3.217  48.968 -13.636  1.00  0.00    -0.297 OA
HETATM   15  C21 UNL     1       0.947  48.624 -14.247  1.00  0.00     0.080 C 
HETATM   16  C22 UNL     1       0.415  48.616 -15.670  1.00  0.00     0.017 C 
HETATM   17  C23 UNL     1       0.114  50.032 -16.219  1.00  0.00    -0.031 C 
HETATM   18  C24 UNL     1      -1.131  50.596 -15.491  1.00  0.00     0.016 C 
HETATM   19  C25 UNL     1      -0.160  49.954 -17.778  1.00  0.00     0.024 C 
HETATM   20  C26 UNL     1      -1.309  49.009 -18.197  1.00  0.00     0.010 C 
HETATM   21  C27 UNL     1      -1.602  48.960 -19.715  1.00  0.00     0.011 C 
HETATM   22  C28 UNL     1      -1.058  50.159 -20.525  1.00  0.00    -0.029 C 
HETATM   23  C29 UNL     1       0.400  49.841 -20.990  1.00  0.00     0.016 C 
ENDROOT
BRANCH   1  24
HETATM   24  C6  UNL     1      -1.788  49.734 -23.097  1.00  0.00    -0.014 C 
HETATM   25  C7  UNL     1      -2.954  48.748 -23.238  1.00  0.00     0.010 C 
BRANCH  24  26
HETATM   26  C5  UNL     1      -1.739  50.679 -24.332  1.00  0.00     0.008 C 
BRANCH  26  27
HETATM   27  C4  UNL     1      -0.326  51.151 -24.703  1.00  0.00     0.028 C 
BRANCH  27  28
HETATM   28  C3  UNL     1      -0.215  51.452 -26.174  1.00  0.00    -0.022 C 
HETATM   29  C2  UNL     1       0.919  51.544 -26.898  1.00  0.00    -0.064 C 
HETATM   30  C1  UNL     1       0.867  51.780 -28.384  1.00  0.00     0.045 C 
BRANCH  29  31
HETATM   31  C30 UNL     1       2.304  51.407 -26.322  1.00  0.00     0.197 C 
BRANCH  31  32
HETATM   32  O2  UNL     1       3.273  51.436 -27.362  1.00  0.00    -0.397 OA
HETATM   33  H48 UNL     1       2.810  51.666 -28.186  1.00  0.00     0.209 HD
ENDBRANCH  31  32
ENDBRANCH  29  31
ENDBRANCH  27  28
ENDBRANCH  26  27
ENDBRANCH  24  26
ENDBRANCH   1  24
TORSDOF 6
ENDMDL
MODEL 2
REMARK minimizedAffinity -9.33594227
REMARK  6 active torsions:
REMARK  status: ('A' for Active; 'I' for Inactive)
REMARK    1  A    between atoms: C2_2  and  C30_31 
REMARK    2  A    between atoms: C3_3  and  C4_4 
REMARK    3  A    between atoms: C4_4  and  C5_5 
REMARK    4  A    between atoms: C5_5  and  C6_6 
REMARK    5  A    between atoms: C6_6  and  C8_8 
REMARK    6  A    between atoms: C30_31  and  O2_32 
ROOT
HETATM    1  C8  UNL     1      -2.395  49.580 -21.266  1.00  0.00    -0.002 C 
HETATM    2  C9  UNL     1      -2.013  50.996 -21.796  1.00  0.00     0.007 C 
HETATM    3  C10 UNL     1      -1.227  51.715 -20.682  1.00  0.00     0.015 C 
HETATM    4  C11 UNL     1      -1.458  50.854 -19.427  1.00  0.00    -0.013 C 
HETATM    5  C12 UNL     1      -2.837  51.300 -18.845  1.00  0.00     0.021 C 
HETATM    6  C13 UNL     1      -0.455  50.972 -18.283  1.00  0.00    -0.070 C 
HETATM    7  C14 UNL     1       0.203  52.114 -18.005  1.00  0.00    -0.022 C 
HETATM    8  C15 UNL     1       1.135  52.299 -16.841  1.00  0.00     0.034 C 
HETATM    9  C16 UNL     1       1.456  50.993 -16.077  1.00  0.00     0.013 C 
HETATM   10  C17 UNL     1       2.341  51.210 -14.801  1.00  0.00     0.018 C 
HETATM   11  C18 UNL     1       1.842  52.278 -13.815  1.00  0.00     0.023 C 
HETATM   12  C19 UNL     1       3.762  51.645 -15.242  1.00  0.00     0.023 C 
HETATM   13  C20 UNL     1       2.469  49.888 -14.032  1.00  0.00     0.135 C 
HETATM   14  O1  UNL     1       3.530  49.518 -13.523  1.00  0.00    -0.297 OA
HETATM   15  C21 UNL     1       1.214  49.081 -13.824  1.00  0.00     0.080 C 
HETATM   16  C22 UNL     1       0.542  48.806 -15.159  1.00  0.00     0.017 C 
HETATM   17  C23 UNL     1       0.170  50.094 -15.933  1.00  0.00    -0.031 C 
HETATM   18  C24 UNL     1      -1.002  50.795 -15.202  1.00  0.00     0.016 C 
HETATM   19  C25 UNL     1      -0.259  49.724 -17.413  1.00  0.00     0.024 C 
HETATM   20  C26 UNL     1      -1.433  48.725 -17.526  1.00  0.00     0.010 C 
HETATM   21  C27 UNL     1      -1.877  48.391 -18.970  1.00  0.00     0.011 C 
HETATM   22  C28 UNL     1      -1.432  49.410 -20.043  1.00  0.00    -0.029 C 
HETATM   23  C29 UNL     1      -0.025  48.999 -20.585  1.00  0.00     0.016 C 
ENDROOT
BRANCH   1  24
HETATM   24  C6  UNL     1      -2.412  48.510 -22.401  1.00  0.00    -0.014 C 
HETATM   25  C7  UNL     1      -2.678  47.103 -21.851  1.00  0.00     0.010 C 
BRANCH  24  26
HETATM   26  C5  UNL     1      -3.486  48.874 -23.466  1.00  0.00     0.008 C 
BRANCH  26  27
HETATM   27  C4  UNL     1      -2.908  49.203 -24.849  1.00  0.00     0.028 C 
BRANCH  27  28
HETATM   28  C3  UNL     1      -3.699  48.544 -25.947  1.00  0.00    -0.022 C 
HETATM   29  C2  UNL     1      -3.852  48.985 -27.213  1.00  0.00    -0.064 C 
HETATM   30  C1  UNL     1      -4.618  48.174 -28.224  1.00  0.00     0.045 C 
BRANCH  29  31
HETATM   31  C30 UNL     1      -3.279  50.277 -27.732  1.00  0.00     0.197 C 
BRANCH  31  32
HETATM   32  O2  UNL     1      -3.575  50.423 -29.116  1.00  0.00    -0.397 OA
HETATM   33  H48 UNL     1      -4.188  49.708 -29.360  1.00  0.00     0.209 HD
ENDBRANCH  31  32
ENDBRANCH  29  31
ENDBRANCH  27  28
ENDBRANCH  26  27
ENDBRANCH  24  26
ENDBRANCH   1  24
TORSDOF 6
ENDMDL
MODEL 3
REMARK minimizedAffinity -9.26218796
REMARK  6 active torsions:
REMARK  status: ('A' for Active; 'I' for Inactive)
REMARK    1  A    between atoms: C2_2  and  C30_31 
REMARK    2  A    between atoms: C3_3  and  C4_4 
REMARK    3  A    between atoms: C4_4  and  C5_5 
REMARK    4  A    between atoms: C5_5  and  C6_6 
REMARK    5  A    between atoms: C6_6  and  C8_8 
REMARK    6  A    between atoms: C30_31  and  O2_32 
ROOT
HETATM    1  C8  UNL     1      -0.828  52.083 -21.176  1.00  0.00    -0.002 C 
HETATM    2  C9  UNL     1      -0.220  51.105 -20.124  1.00  0.00     0.007 C 
HETATM    3  C10 UNL     1      -1.259  49.998 -19.863  1.00  0.00     0.015 C 
HETATM    4  C11 UNL     1      -2.560  50.528 -20.495  1.00  0.00    -0.013 C 
HETATM    5  C12 UNL     1      -3.198  51.480 -19.434  1.00  0.00     0.021 C 
HETATM    6  C13 UNL     1      -3.640  49.516 -20.864  1.00  0.00    -0.070 C 
HETATM    7  C14 UNL     1      -3.836  48.374 -20.178  1.00  0.00    -0.022 C 
HETATM    8  C15 UNL     1      -4.938  47.391 -20.454  1.00  0.00     0.034 C 
HETATM    9  C16 UNL     1      -5.735  47.685 -21.746  1.00  0.00     0.013 C 
HETATM   10  C17 UNL     1      -6.951  46.721 -21.971  1.00  0.00     0.018 C 
HETATM   11  C18 UNL     1      -7.919  46.578 -20.786  1.00  0.00     0.023 C 
HETATM   12  C19 UNL     1      -6.415  45.299 -22.279  1.00  0.00     0.023 C 
HETATM   13  C20 UNL     1      -7.765  47.191 -23.185  1.00  0.00     0.135 C 
HETATM   14  O1  UNL     1      -8.229  46.407 -24.015  1.00  0.00    -0.297 OA
HETATM   15  C21 UNL     1      -8.074  48.662 -23.286  1.00  0.00     0.080 C 
HETATM   16  C22 UNL     1      -6.790  49.472 -23.215  1.00  0.00     0.017 C 
HETATM   17  C23 UNL     1      -5.987  49.232 -21.913  1.00  0.00    -0.031 C 
HETATM   18  C24 UNL     1      -6.752  49.871 -20.728  1.00  0.00     0.016 C 
HETATM   19  C25 UNL     1      -4.549  49.886 -22.045  1.00  0.00     0.024 C 
HETATM   20  C26 UNL     1      -4.540  51.399 -22.355  1.00  0.00     0.010 C 
HETATM   21  C27 UNL     1      -3.138  52.046 -22.447  1.00  0.00     0.011 C 
HETATM   22  C28 UNL     1      -2.001  51.241 -21.778  1.00  0.00    -0.029 C 
HETATM   23  C29 UNL     1      -1.400  50.244 -22.821  1.00  0.00     0.016 C 
ENDROOT
BRANCH   1  24
HETATM   24  C6  UNL     1       0.260  52.689 -22.116  1.00  0.00    -0.014 C 
HETATM   25  C7  UNL     1       1.668  52.219 -21.733  1.00  0.00     0.010 C 
BRANCH  24  26
HETATM   26  C5  UNL     1      -0.040  52.315 -23.596  1.00  0.00     0.008 C 
BRANCH  26  27
HETATM   27  C4  UNL     1       0.540  53.299 -24.620  1.00  0.00     0.028 C 
BRANCH  27  28
HETATM   28  C3  UNL     1       0.272  52.847 -26.031  1.00  0.00    -0.022 C 
HETATM   29  C2  UNL     1       1.040  52.029 -26.780  1.00  0.00    -0.064 C 
HETATM   30  C1  UNL     1       0.601  51.607 -28.156  1.00  0.00     0.045 C 
BRANCH  29  31
HETATM   31  C30 UNL     1       2.359  51.460 -26.327  1.00  0.00     0.197 C 
BRANCH  31  32
HETATM   32  O2  UNL     1       3.297  51.488 -27.395  1.00  0.00    -0.397 OA
HETATM   33  H48 UNL     1       2.894  51.988 -28.125  1.00  0.00     0.209 HD
ENDBRANCH  31  32
ENDBRANCH  29  31
ENDBRANCH  27  28
ENDBRANCH  26  27
ENDBRANCH  24  26
ENDBRANCH   1  24
TORSDOF 6
ENDMDL
MODEL 4
REMARK minimizedAffinity -9.10730839
REMARK  6 active torsions:
REMARK  status: ('A' for Active; 'I' for Inactive)
REMARK    1  A    between atoms: C2_2  and  C30_31 
REMARK    2  A    between atoms: C3_3  and  C4_4 
REMARK    3  A    between atoms: C4_4  and  C5_5 
REMARK    4  A    between atoms: C5_5  and  C6_6 
REMARK    5  A    between atoms: C6_6  and  C8_8 
REMARK    6  A    between atoms: C30_31  and  O2_32 
ROOT
HETATM    1  C8  UNL     1      -1.822  51.447 -23.280  1.00  0.00    -0.002 C 
HETATM    2  C9  UNL     1      -2.807  52.545 -23.786  1.00  0.00     0.007 C 
HETATM    3  C10 UNL     1      -4.240  52.024 -23.564  1.00  0.00     0.015 C 
HETATM    4  C11 UNL     1      -4.065  50.525 -23.258  1.00  0.00    -0.013 C 
HETATM    5  C12 UNL     1      -3.941  49.813 -24.641  1.00  0.00     0.021 C 
HETATM    6  C13 UNL     1      -5.188  49.812 -22.511  1.00  0.00    -0.070 C 
HETATM    7  C14 UNL     1      -6.484  50.159 -22.635  1.00  0.00    -0.022 C 
HETATM    8  C15 UNL     1      -7.628  49.434 -21.985  1.00  0.00     0.034 C 
HETATM    9  C16 UNL     1      -7.192  48.352 -20.970  1.00  0.00     0.013 C 
HETATM   10  C17 UNL     1      -8.386  47.526 -20.377  1.00  0.00     0.018 C 
HETATM   11  C18 UNL     1      -9.351  46.915 -21.405  1.00  0.00     0.023 C 
HETATM   12  C19 UNL     1      -9.235  48.451 -19.468  1.00  0.00     0.023 C 
HETATM   13  C20 UNL     1      -7.841  46.383 -19.509  1.00  0.00     0.135 C 
HETATM   14  O1  UNL     1      -8.351  46.069 -18.431  1.00  0.00    -0.297 OA
HETATM   15  C21 UNL     1      -6.701  45.571 -20.066  1.00  0.00     0.080 C 
HETATM   16  C22 UNL     1      -5.549  46.483 -20.452  1.00  0.00     0.017 C 
HETATM   17  C23 UNL     1      -5.941  47.554 -21.499  1.00  0.00    -0.031 C 
HETATM   18  C24 UNL     1      -6.176  46.858 -22.862  1.00  0.00     0.016 C 
HETATM   19  C25 UNL     1      -4.778  48.623 -21.631  1.00  0.00     0.024 C 
HETATM   20  C26 UNL     1      -3.395  48.048 -22.010  1.00  0.00     0.010 C 
HETATM   21  C27 UNL     1      -2.268  49.094 -22.175  1.00  0.00     0.011 C 
HETATM   22  C28 UNL     1      -2.750  50.545 -22.399  1.00  0.00    -0.029 C 
HETATM   23  C29 UNL     1      -2.933  51.242 -21.012  1.00  0.00     0.016 C 
ENDROOT
BRANCH   1  24
HETATM   24  C6  UNL     1      -0.521  52.056 -22.671  1.00  0.00    -0.014 C 
HETATM   25  C7  UNL     1      -0.050  51.274 -21.439  1.00  0.00     0.010 C 
BRANCH  24  26
HETATM   26  C5  UNL     1       0.608  52.089 -23.742  1.00  0.00     0.008 C 
BRANCH  26  27
HETATM   27  C4  UNL     1       0.544  53.301 -24.680  1.00  0.00     0.028 C 
BRANCH  27  28
HETATM   28  C3  UNL     1       0.293  52.883 -26.104  1.00  0.00    -0.022 C 
HETATM   29  C2  UNL     1       1.072  52.086 -26.864  1.00  0.00    -0.064 C 
HETATM   30  C1  UNL     1       0.650  51.695 -28.255  1.00  0.00     0.045 C 
BRANCH  29  31
HETATM   31  C30 UNL     1       2.389  51.511 -26.412  1.00  0.00     0.197 C 
BRANCH  31  32
HETATM   32  O2  UNL     1       3.335  51.560 -27.472  1.00  0.00    -0.397 OA
HETATM   33  H48 UNL     1       2.937  52.072 -28.196  1.00  0.00     0.209 HD
ENDBRANCH  31  32
ENDBRANCH  29  31
ENDBRANCH  27  28
ENDBRANCH  26  27
ENDBRANCH  24  26
ENDBRANCH   1  24
TORSDOF 6
ENDMDL
MODEL 5
REMARK minimizedAffinity -8.8646946
REMARK  6 active torsions:
REMARK  status: ('A' for Active; 'I' for Inactive)
REMARK    1  A    between atoms: C2_2  and  C30_31 
REMARK    2  A    between atoms: C3_3  and  C4_4 
REMARK    3  A    between atoms: C4_4  and  C5_5 
REMARK    4  A    between atoms: C5_5  and  C6_6 
REMARK    5  A    between atoms: C6_6  and  C8_8 
REMARK    6  A    between atoms: C30_31  and  O2_32 
ROOT
HETATM    1  C8  UNL     1      -2.344  50.760 -22.887  1.00  0.00    -0.002 C 
HETATM    2  C9  UNL     1      -1.446  49.733 -22.132  1.00  0.00     0.007 C 
HETATM    3  C10 UNL     1      -2.329  48.525 -21.761  1.00  0.00     0.015 C 
HETATM    4  C11 UNL     1      -3.771  49.012 -21.998  1.00  0.00    -0.013 C 
HETATM    5  C12 UNL     1      -4.178  49.799 -20.713  1.00  0.00     0.021 C 
HETATM    6  C13 UNL     1      -4.855  47.960 -22.215  1.00  0.00    -0.070 C 
HETATM    7  C14 UNL     1      -4.815  46.742 -21.640  1.00  0.00    -0.022 C 
HETATM    8  C15 UNL     1      -5.899  45.708 -21.758  1.00  0.00     0.034 C 
HETATM    9  C16 UNL     1      -7.003  46.065 -22.779  1.00  0.00     0.013 C 
HETATM   10  C17 UNL     1      -8.184  45.035 -22.818  1.00  0.00     0.018 C 
HETATM   11  C18 UNL     1      -8.822  44.698 -21.461  1.00  0.00     0.023 C 
HETATM   12  C19 UNL     1      -7.666  43.699 -23.409  1.00  0.00     0.023 C 
HETATM   13  C20 UNL     1      -9.295  45.559 -23.739  1.00  0.00     0.135 C 
HETATM   14  O1  UNL     1      -9.907  44.828 -24.521  1.00  0.00    -0.297 OA
HETATM   15  C21 UNL     1      -9.696  47.004 -23.591  1.00  0.00     0.080 C 
HETATM   16  C22 UNL     1      -8.479  47.902 -23.734  1.00  0.00     0.017 C 
HETATM   17  C23 UNL     1      -7.369  47.597 -22.700  1.00  0.00    -0.031 C 
HETATM   18  C24 UNL     1      -7.851  48.050 -21.300  1.00  0.00     0.016 C 
HETATM   19  C25 UNL     1      -6.044  48.372 -23.093  1.00  0.00     0.024 C 
HETATM   20  C26 UNL     1      -6.192  49.905 -23.218  1.00  0.00     0.010 C 
HETATM   21  C27 UNL     1      -4.891  50.667 -23.566  1.00  0.00     0.011 C 
HETATM   22  C28 UNL     1      -3.584  49.891 -23.286  1.00  0.00    -0.029 C 
HETATM   23  C29 UNL     1      -3.206  49.055 -24.551  1.00  0.00     0.016 C 
ENDROOT
BRANCH   1  24
HETATM   24  C6  UNL     1      -1.555  51.542 -23.982  1.00  0.00    -0.014 C 
HETATM   25  C7  UNL     1      -2.313  52.791 -24.446  1.00  0.00     0.010 C 
BRANCH  24  26
HETATM   26  C5  UNL     1      -0.149  51.942 -23.448  1.00  0.00     0.008 C 
BRANCH  26  27
HETATM   27  C4  UNL     1       0.650  52.839 -24.402  1.00  0.00     0.028 C 
BRANCH  27  28
HETATM   28  C3  UNL     1       0.339  52.526 -25.842  1.00  0.00    -0.022 C 
HETATM   29  C2  UNL     1       1.115  51.844 -26.709  1.00  0.00    -0.064 C 
HETATM   30  C1  UNL     1       0.634  51.546 -28.104  1.00  0.00     0.045 C 
BRANCH  29  31
HETATM   31  C30 UNL     1       2.486  51.314 -26.380  1.00  0.00     0.197 C 
BRANCH  31  32
HETATM   32  O2  UNL     1       3.366  51.513 -27.479  1.00  0.00    -0.397 OA
HETATM   33  H48 UNL     1       2.898  52.061 -28.132  1.00  0.00     0.209 HD
ENDBRANCH  31  32
ENDBRANCH  29  31
ENDBRANCH  27  28
ENDBRANCH  26  27
ENDBRANCH  24  26
ENDBRANCH   1  24
TORSDOF 6
ENDMDL
MODEL 6
REMARK minimizedAffinity -8.78865623
REMARK  6 active torsions:
REMARK  status: ('A' for Active; 'I' for Inactive)
REMARK    1  A    between atoms: C2_2  and  C30_31 
REMARK    2  A    between atoms: C3_3  and  C4_4 
REMARK    3  A    between atoms: C4_4  and  C5_5 
REMARK    4  A    between atoms: C5_5  and  C6_6 
REMARK    5  A    between atoms: C6_6  and  C8_8 
REMARK    6  A    between atoms: C30_31  and  O2_32 
ROOT
HETATM    1  C8  UNL     1      -1.267  50.655 -22.628  1.00  0.00    -0.002 C 
HETATM    2  C9  UNL     1      -1.644  50.126 -24.045  1.00  0.00     0.007 C 
HETATM    3  C10 UNL     1      -2.872  49.209 -23.890  1.00  0.00     0.015 C 
HETATM    4  C11 UNL     1      -2.975  48.952 -22.375  1.00  0.00    -0.013 C 
HETATM    5  C12 UNL     1      -1.977  47.793 -22.065  1.00  0.00     0.021 C 
HETATM    6  C13 UNL     1      -4.325  48.514 -21.813  1.00  0.00    -0.070 C 
HETATM    7  C14 UNL     1      -5.202  47.774 -22.517  1.00  0.00    -0.022 C 
HETATM    8  C15 UNL     1      -6.503  47.251 -21.976  1.00  0.00     0.034 C 
HETATM    9  C16 UNL     1      -6.875  47.806 -20.582  1.00  0.00     0.013 C 
HETATM   10  C17 UNL     1      -8.177  47.174 -19.978  1.00  0.00     0.018 C 
HETATM   11  C18 UNL     1      -8.226  45.638 -19.955  1.00  0.00     0.023 C 
HETATM   12  C19 UNL     1      -9.396  47.644 -20.811  1.00  0.00     0.023 C 
HETATM   13  C20 UNL     1      -8.369  47.669 -18.537  1.00  0.00     0.135 C 
HETATM   14  O1  UNL     1      -9.473  47.987 -18.088  1.00  0.00    -0.297 OA
HETATM   15  C21 UNL     1      -7.164  47.663 -17.634  1.00  0.00     0.080 C 
HETATM   16  C22 UNL     1      -6.028  48.447 -18.272  1.00  0.00     0.017 C 
HETATM   17  C23 UNL     1      -5.604  47.892 -19.653  1.00  0.00    -0.031 C 
HETATM   18  C24 UNL     1      -4.887  46.535 -19.449  1.00  0.00     0.016 C 
HETATM   19  C25 UNL     1      -4.627  48.918 -20.364  1.00  0.00     0.024 C 
HETATM   20  C26 UNL     1      -3.353  49.275 -19.564  1.00  0.00     0.010 C 
HETATM   21  C27 UNL     1      -2.381  50.248 -20.272  1.00  0.00     0.011 C 
HETATM   22  C28 UNL     1      -2.563  50.356 -21.803  1.00  0.00    -0.029 C 
HETATM   23  C29 UNL     1      -3.608  51.476 -22.114  1.00  0.00     0.016 C 
ENDROOT
BRANCH   1  24
HETATM   24  C6  UNL     1      -0.687  52.103 -22.672  1.00  0.00    -0.014 C 
HETATM   25  C7  UNL     1      -0.209  52.566 -21.291  1.00  0.00     0.010 C 
BRANCH  24  26
HETATM   26  C5  UNL     1       0.485  52.181 -23.693  1.00  0.00     0.008 C 
BRANCH  26  27
HETATM   27  C4  UNL     1       0.385  53.359 -24.671  1.00  0.00     0.028 C 
BRANCH  27  28
HETATM   28  C3  UNL     1       0.175  52.885 -26.084  1.00  0.00    -0.022 C 
HETATM   29  C2  UNL     1       1.003  52.103 -26.808  1.00  0.00    -0.064 C 
HETATM   30  C1  UNL     1       0.621  51.650 -28.191  1.00  0.00     0.045 C 
BRANCH  29  31
HETATM   31  C30 UNL     1       2.338  51.606 -26.319  1.00  0.00     0.197 C 
BRANCH  31  32
HETATM   32  O2  UNL     1       3.262  51.542 -27.398  1.00  0.00    -0.397 OA
HETATM   33  H48 UNL     1       2.840  51.958 -28.169  1.00  0.00     0.209 HD
ENDBRANCH  31  32
ENDBRANCH  29  31
ENDBRANCH  27  28
ENDBRANCH  26  27
ENDBRANCH  24  26
ENDBRANCH   1  24
TORSDOF 6
ENDMDL
MODEL 7
REMARK minimizedAffinity -8.77669334
REMARK  6 active torsions:
REMARK  status: ('A' for Active; 'I' for Inactive)
REMARK    1  A    between atoms: C2_2  and  C30_31 
REMARK    2  A    between atoms: C3_3  and  C4_4 
REMARK    3  A    between atoms: C4_4  and  C5_5 
REMARK    4  A    between atoms: C5_5  and  C6_6 
REMARK    5  A    between atoms: C6_6  and  C8_8 
REMARK    6  A    between atoms: C30_31  and  O2_32 
ROOT
HETATM    1  C8  UNL     1      -1.300  51.086 -22.871  1.00  0.00    -0.002 C 
HETATM    2  C9  UNL     1      -2.598  51.652 -23.525  1.00  0.00     0.007 C 
HETATM    3  C10 UNL     1      -3.784  50.818 -23.004  1.00  0.00     0.015 C 
HETATM    4  C11 UNL     1      -3.134  49.590 -22.339  1.00  0.00    -0.013 C 
HETATM    5  C12 UNL     1      -2.836  48.582 -23.493  1.00  0.00     0.021 C 
HETATM    6  C13 UNL     1      -3.948  48.822 -21.302  1.00  0.00    -0.070 C 
HETATM    7  C14 UNL     1      -5.290  48.721 -21.356  1.00  0.00    -0.022 C 
HETATM    8  C15 UNL     1      -6.123  47.908 -20.407  1.00  0.00     0.034 C 
HETATM    9  C16 UNL     1      -5.335  47.341 -19.204  1.00  0.00     0.013 C 
HETATM   10  C17 UNL     1      -6.185  46.405 -18.277  1.00  0.00     0.018 C 
HETATM   11  C18 UNL     1      -6.939  45.269 -18.985  1.00  0.00     0.023 C 
HETATM   12  C19 UNL     1      -7.254  47.258 -17.546  1.00  0.00     0.023 C 
HETATM   13  C20 UNL     1      -5.278  45.772 -17.212  1.00  0.00     0.135 C 
HETATM   14  O1  UNL     1      -5.627  45.643 -16.037  1.00  0.00    -0.297 OA
HETATM   15  C21 UNL     1      -3.958  45.209 -17.671  1.00  0.00     0.080 C 
HETATM   16  C22 UNL     1      -3.167  46.270 -18.417  1.00  0.00     0.017 C 
HETATM   17  C23 UNL     1      -3.912  46.831 -19.653  1.00  0.00    -0.031 C 
HETATM   18  C24 UNL     1      -3.959  45.737 -20.748  1.00  0.00     0.016 C 
HETATM   19  C25 UNL     1      -3.153  48.111 -20.198  1.00  0.00     0.024 C 
HETATM   20  C26 UNL     1      -1.672  47.886 -20.577  1.00  0.00     0.010 C 
HETATM   21  C27 UNL     1      -0.941  49.126 -21.145  1.00  0.00     0.011 C 
HETATM   22  C28 UNL     1      -1.865  50.242 -21.680  1.00  0.00    -0.029 C 
HETATM   23  C29 UNL     1      -2.215  51.220 -20.513  1.00  0.00     0.016 C 
ENDROOT
BRANCH   1  24
HETATM   24  C6  UNL     1      -0.240  52.199 -22.604  1.00  0.00    -0.014 C 
HETATM   25  C7  UNL     1       0.533  51.947 -21.305  1.00  0.00     0.010 C 
BRANCH  24  26
HETATM   26  C5  UNL     1       0.750  52.295 -23.801  1.00  0.00     0.008 C 
BRANCH  26  27
HETATM   27  C4  UNL     1       0.439  53.435 -24.780  1.00  0.00     0.028 C 
BRANCH  27  28
HETATM   28  C3  UNL     1       0.217  52.916 -26.176  1.00  0.00    -0.022 C 
HETATM   29  C2  UNL     1       1.067  52.167 -26.907  1.00  0.00    -0.064 C 
HETATM   30  C1  UNL     1       0.671  51.659 -28.268  1.00  0.00     0.045 C 
BRANCH  29  31
HETATM   31  C30 UNL     1       2.442  51.759 -26.448  1.00  0.00     0.197 C 
BRANCH  31  32
HETATM   32  O2  UNL     1       3.285  51.529 -27.571  1.00  0.00    -0.397 OA
HETATM   33  H48 UNL     1       2.800  51.816 -28.363  1.00  0.00     0.209 HD
ENDBRANCH  31  32
ENDBRANCH  29  31
ENDBRANCH  27  28
ENDBRANCH  26  27
ENDBRANCH  24  26
ENDBRANCH   1  24
TORSDOF 6
ENDMDL
MODEL 8
REMARK minimizedAffinity -8.77254963
REMARK  6 active torsions:
REMARK  status: ('A' for Active; 'I' for Inactive)
REMARK    1  A    between atoms: C2_2  and  C30_31 
REMARK    2  A    between atoms: C3_3  and  C4_4 
REMARK    3  A    between atoms: C4_4  and  C5_5 
REMARK    4  A    between atoms: C5_5  and  C6_6 
REMARK    5  A    between atoms: C6_6  and  C8_8 
REMARK    6  A    between atoms: C30_31  and  O2_32 
ROOT
HETATM    1  C8  UNL     1      -3.240  48.867 -18.848  1.00  0.00    -0.002 C 
HETATM    2  C9  UNL     1      -4.041  47.814 -19.673  1.00  0.00     0.007 C 
HETATM    3  C10 UNL     1      -3.869  48.161 -21.164  1.00  0.00     0.015 C 
HETATM    4  C11 UNL     1      -3.268  49.579 -21.166  1.00  0.00    -0.013 C 
HETATM    5  C12 UNL     1      -4.472  50.558 -21.001  1.00  0.00     0.021 C 
HETATM    6  C13 UNL     1      -2.515  50.035 -22.412  1.00  0.00    -0.070 C 
HETATM    7  C14 UNL     1      -2.832  49.614 -23.652  1.00  0.00    -0.022 C 
HETATM    8  C15 UNL     1      -2.174  50.100 -24.912  1.00  0.00     0.034 C 
HETATM    9  C16 UNL     1      -0.934  50.991 -24.672  1.00  0.00     0.013 C 
HETATM   10  C17 UNL     1      -0.318  51.582 -25.987  1.00  0.00     0.018 C 
HETATM   11  C18 UNL     1      -1.302  52.304 -26.921  1.00  0.00     0.023 C 
HETATM   12  C19 UNL     1       0.309  50.429 -26.811  1.00  0.00     0.023 C 
HETATM   13  C20 UNL     1       0.801  52.572 -25.633  1.00  0.00     0.135 C 
HETATM   14  O1  UNL     1       1.863  52.623 -26.259  1.00  0.00    -0.297 OA
HETATM   15  C21 UNL     1       0.525  53.569 -24.538  1.00  0.00     0.080 C 
HETATM   16  C22 UNL     1       0.091  52.849 -23.272  1.00  0.00     0.017 C 
HETATM   17  C23 UNL     1      -1.174  51.978 -23.468  1.00  0.00    -0.031 C 
HETATM   18  C24 UNL     1      -2.397  52.909 -23.658  1.00  0.00     0.016 C 
HETATM   19  C25 UNL     1      -1.389  51.056 -22.197  1.00  0.00     0.024 C 
HETATM   20  C26 UNL     1      -1.512  51.807 -20.852  1.00  0.00     0.010 C 
HETATM   21  C27 UNL     1      -1.759  50.910 -19.616  1.00  0.00     0.011 C 
HETATM   22  C28 UNL     1      -2.301  49.497 -19.931  1.00  0.00    -0.029 C 
HETATM   23  C29 UNL     1      -1.097  48.527 -20.156  1.00  0.00     0.016 C 
ENDROOT
BRANCH   1  24
HETATM   24  C6  UNL     1      -2.631  48.259 -17.546  1.00  0.00    -0.014 C 
HETATM   25  C7  UNL     1      -2.892  46.752 -17.447  1.00  0.00     0.010 C 
BRANCH  24  26
HETATM   26  C5  UNL     1      -1.101  48.537 -17.488  1.00  0.00     0.008 C 
BRANCH  26  27
HETATM   27  C4  UNL     1      -0.674  49.440 -16.324  1.00  0.00     0.028 C 
BRANCH  27  28
HETATM   28  C3  UNL     1       0.381  50.427 -16.751  1.00  0.00    -0.022 C 
HETATM   29  C2  UNL     1       1.008  51.331 -15.971  1.00  0.00    -0.064 C 
HETATM   30  C1  UNL     1       2.099  52.204 -16.529  1.00  0.00     0.045 C 
BRANCH  29  31
HETATM   31  C30 UNL     1       0.707  51.540 -14.510  1.00  0.00     0.197 C 
BRANCH  31  32
HETATM   32  O2  UNL     1       0.766  52.925 -14.192  1.00  0.00    -0.397 OA
HETATM   33  H48 UNL     1       0.863  53.413 -15.027  1.00  0.00     0.209 HD
ENDBRANCH  31  32
ENDBRANCH  29  31
ENDBRANCH  27  28
ENDBRANCH  26  27
ENDBRANCH  24  26
ENDBRANCH   1  24
TORSDOF 6
ENDMDL
MODEL 9
REMARK minimizedAffinity -8.69028664
REMARK  6 active torsions:
REMARK  status: ('A' for Active; 'I' for Inactive)
REMARK    1  A    between atoms: C2_2  and  C30_31 
REMARK    2  A    between atoms: C3_3  and  C4_4 
REMARK    3  A    between atoms: C4_4  and  C5_5 
REMARK    4  A    between atoms: C5_5  and  C6_6 
REMARK    5  A    between atoms: C6_6  and  C8_8 
REMARK    6  A    between atoms: C30_31  and  O2_32 
ROOT
HETATM    1  C8  UNL     1      -4.428  47.792 -20.906  1.00  0.00    -0.002 C 
HETATM    2  C9  UNL     1      -5.292  47.245 -22.083  1.00  0.00     0.007 C 
HETATM    3  C10 UNL     1      -4.870  47.997 -23.360  1.00  0.00     0.015 C 
HETATM    4  C11 UNL     1      -4.029  49.183 -22.853  1.00  0.00    -0.013 C 
HETATM    5  C12 UNL     1      -5.049  50.293 -22.447  1.00  0.00     0.021 C 
HETATM    6  C13 UNL     1      -3.052  49.836 -23.826  1.00  0.00    -0.070 C 
HETATM    7  C14 UNL     1      -3.277  49.901 -25.152  1.00  0.00    -0.022 C 
HETATM    8  C15 UNL     1      -2.386  50.605 -26.135  1.00  0.00     0.034 C 
HETATM    9  C16 UNL     1      -1.047  51.092 -25.535  1.00  0.00     0.013 C 
HETATM   10  C17 UNL     1      -0.170  51.921 -26.537  1.00  0.00     0.018 C 
HETATM   11  C18 UNL     1      -0.880  53.089 -27.238  1.00  0.00     0.023 C 
HETATM   12  C19 UNL     1       0.341  50.978 -27.656  1.00  0.00     0.023 C 
HETATM   13  C20 UNL     1       1.053  52.489 -25.803  1.00  0.00     0.135 C 
HETATM   14  O1  UNL     1       2.178  52.507 -26.308  1.00  0.00    -0.297 OA
HETATM   15  C21 UNL     1       0.822  53.128 -24.459  1.00  0.00     0.080 C 
HETATM   16  C22 UNL     1       0.106  52.158 -23.535  1.00  0.00     0.017 C 
HETATM   17  C23 UNL     1      -1.259  51.680 -24.088  1.00  0.00    -0.031 C 
HETATM   18  C24 UNL     1      -2.260  52.861 -24.036  1.00  0.00     0.016 C 
HETATM   19  C25 UNL     1      -1.799  50.474 -23.213  1.00  0.00     0.024 C 
HETATM   20  C26 UNL     1      -1.957  50.775 -21.705  1.00  0.00     0.010 C 
HETATM   21  C27 UNL     1      -2.518  49.610 -20.856  1.00  0.00     0.011 C 
HETATM   22  C28 UNL     1      -3.260  48.516 -21.656  1.00  0.00    -0.029 C 
HETATM   23  C29 UNL     1      -2.231  47.433 -22.115  1.00  0.00     0.016 C 
ENDROOT
BRANCH   1  24
HETATM   24  C6  UNL     1      -4.111  46.693 -19.845  1.00  0.00    -0.014 C 
HETATM   25  C7  UNL     1      -4.085  45.293 -20.468  1.00  0.00     0.010 C 
BRANCH  24  26
HETATM   26  C5  UNL     1      -2.750  46.991 -19.153  1.00  0.00     0.008 C 
BRANCH  26  27
HETATM   27  C4  UNL     1      -2.868  47.849 -17.886  1.00  0.00     0.028 C 
BRANCH  27  28
HETATM   28  C3  UNL     1      -1.597  48.611 -17.618  1.00  0.00    -0.022 C 
HETATM   29  C2  UNL     1      -1.491  49.887 -17.192  1.00  0.00    -0.064 C 
HETATM   30  C1  UNL     1      -0.145  50.491 -16.896  1.00  0.00     0.045 C 
BRANCH  29  31
HETATM   31  C30 UNL     1      -2.666  50.800 -16.959  1.00  0.00     0.197 C 
BRANCH  31  32
HETATM   32  O2  UNL     1      -2.869  51.636 -18.091  1.00  0.00    -0.397 OA
HETATM   33  H48 UNL     1      -2.275  51.324 -18.795  1.00  0.00     0.209 HD
ENDBRANCH  31  32
ENDBRANCH  29  31
ENDBRANCH  27  28
ENDBRANCH  26  27
ENDBRANCH  24  26
ENDBRANCH   1  24
TORSDOF 6
ENDMDL
