MODEL 1
REMARK minimizedAffinity -9.4746685
REMARK  7 active torsions:
REMARK  status: ('A' for Active; 'I' for Inactive)
REMARK    1  A    between atoms: C2_2  and  C30_32 
REMARK    2  A    between atoms: C3_3  and  C4_4 
REMARK    3  A    between atoms: C4_4  and  O1_5 
REMARK    4  A    between atoms: C4_4  and  C5_6 
REMARK    5  A    between atoms: C5_6  and  C6_7 
REMARK    6  A    between atoms: C6_7  and  C8_9 
REMARK    7  A    between atoms: C30_32  and  O4_34 
ROOT
HETATM    1  C8  UNL     1      -6.324   7.308  14.182  1.00  0.00    -0.002 C 
HETATM    2  C9  UNL     1      -6.200   8.627  15.003  1.00  0.00     0.007 C 
HETATM    3  C10 UNL     1      -4.707   8.995  15.071  1.00  0.00     0.015 C 
HETATM    4  C11 UNL     1      -4.032   8.087  14.026  1.00  0.00    -0.013 C 
HETATM    5  C12 UNL     1      -4.208   8.805  12.652  1.00  0.00     0.021 C 
HETATM    6  C13 UNL     1      -2.542   7.810  14.170  1.00  0.00    -0.070 C 
HETATM    7  C14 UNL     1      -1.698   8.605  14.851  1.00  0.00    -0.022 C 
HETATM    8  C15 UNL     1      -0.222   8.340  14.879  1.00  0.00     0.034 C 
HETATM    9  C16 UNL     1       0.214   7.864  13.485  1.00  0.00     0.013 C 
HETATM   10  C17 UNL     1       1.755   7.885  13.235  1.00  0.00     0.018 C 
HETATM   11  C18 UNL     1       2.215   9.321  12.906  1.00  0.00     0.023 C 
HETATM   12  C19 UNL     1       2.582   7.399  14.440  1.00  0.00     0.023 C 
HETATM   13  C20 UNL     1       2.083   7.033  12.001  1.00  0.00     0.135 C 
HETATM   14  O2  UNL     1       3.210   6.573  11.807  1.00  0.00    -0.297 OA
HETATM   15  C21 UNL     1       0.999   6.858  10.957  1.00  0.00     0.080 C 
HETATM   16  C22 UNL     1      -0.373   6.467  11.516  1.00  0.00     0.017 C 
HETATM   17  C23 UNL     1      -0.507   6.534  13.061  1.00  0.00    -0.031 C 
HETATM   18  C24 UNL     1       0.155   5.260  13.655  1.00  0.00     0.016 C 
HETATM   19  C25 UNL     1      -2.022   6.501  13.569  1.00  0.00     0.024 C 
HETATM   20  C26 UNL     1      -3.019   5.818  12.603  1.00  0.00     0.010 C 
HETATM   21  C27 UNL     1      -4.493   5.772  13.069  1.00  0.00     0.011 C 
HETATM   22  C28 UNL     1      -4.856   6.759  14.200  1.00  0.00    -0.029 C 
HETATM   23  C29 UNL     1      -4.611   6.055  15.573  1.00  0.00     0.016 C 
ENDROOT
BRANCH   1  24
HETATM   24  C6  UNL     1      -7.501   6.413  14.684  1.00  0.00    -0.011 C 
HETATM   25  C7  UNL     1      -7.060   5.465  15.804  1.00  0.00     0.010 C 
BRANCH  24  26
HETATM   26  C5  UNL     1      -8.097   5.596  13.499  1.00  0.00     0.040 C 
BRANCH  26  27
HETATM   27  C4  UNL     1      -7.748   4.096  13.498  1.00  0.00     0.142 C 
BRANCH  27  28
HETATM   28  C3  UNL     1      -6.605   3.811  12.565  1.00  0.00     0.018 C 
HETATM   29  C2  UNL     1      -6.232   2.622  12.046  1.00  0.00     0.010 C 
HETATM   30  C1  UNL     1      -6.893   1.299  12.283  1.00  0.00     0.055 C 
BRANCH  29  31
HETATM   31  C30 UNL     1      -5.047   2.645  11.149  1.00  0.00     0.171 C 
HETATM   32  O3  UNL     1      -3.892   2.416  11.460  1.00  0.00    -0.646 OA
BRANCH  31  33
HETATM   33  O4  UNL     1      -5.371   2.948   9.882  1.00  0.00    -0.773 OA
HETATM   34  H46 UNL     1      -4.511   2.929   9.414  1.00  0.00     0.167 HD
ENDBRANCH  31  33
ENDBRANCH  29  31
ENDBRANCH  27  28
BRANCH  27  35
HETATM   35  O1  UNL     1      -8.865   3.336  13.052  1.00  0.00    -0.392 OA
HETATM   36  H6  UNL     1      -9.071   3.611  12.143  1.00  0.00     0.210 HD
ENDBRANCH  27  35
ENDBRANCH  26  27
ENDBRANCH  24  26
ENDBRANCH   1  24
TORSDOF 7
ENDMDL
MODEL 2
REMARK minimizedAffinity -9.28503132
REMARK  7 active torsions:
REMARK  status: ('A' for Active; 'I' for Inactive)
REMARK    1  A    between atoms: C2_2  and  C30_32 
REMARK    2  A    between atoms: C3_3  and  C4_4 
REMARK    3  A    between atoms: C4_4  and  O1_5 
REMARK    4  A    between atoms: C4_4  and  C5_6 
REMARK    5  A    between atoms: C5_6  and  C6_7 
REMARK    6  A    between atoms: C6_7  and  C8_9 
REMARK    7  A    between atoms: C30_32  and  O4_34 
ROOT
HETATM    1  C8  UNL     1      -1.366   5.548  11.766  1.00  0.00    -0.002 C 
HETATM    2  C9  UNL     1      -2.050   6.570  12.724  1.00  0.00     0.007 C 
HETATM    3  C10 UNL     1      -0.984   7.598  13.145  1.00  0.00     0.015 C 
HETATM    4  C11 UNL     1       0.194   7.359  12.181  1.00  0.00    -0.013 C 
HETATM    5  C12 UNL     1      -0.145   8.153  10.881  1.00  0.00     0.021 C 
HETATM    6  C13 UNL     1       1.578   7.822  12.610  1.00  0.00    -0.070 C 
HETATM    7  C14 UNL     1       1.793   8.777  13.533  1.00  0.00    -0.022 C 
HETATM    8  C15 UNL     1       3.175   9.266  13.848  1.00  0.00     0.034 C 
HETATM    9  C16 UNL     1       3.973   9.347  12.538  1.00  0.00     0.013 C 
HETATM   10  C17 UNL     1       5.300  10.165  12.625  1.00  0.00     0.018 C 
HETATM   11  C18 UNL     1       4.992  11.677  12.549  1.00  0.00     0.023 C 
HETATM   12  C19 UNL     1       6.092   9.920  13.923  1.00  0.00     0.023 C 
HETATM   13  C20 UNL     1       6.180   9.843  11.409  1.00  0.00     0.135 C 
HETATM   14  O2  UNL     1       7.396  10.040  11.415  1.00  0.00    -0.297 OA
HETATM   15  C21 UNL     1       5.490   9.370  10.146  1.00  0.00     0.080 C 
HETATM   16  C22 UNL     1       4.456   8.258  10.358  1.00  0.00     0.017 C 
HETATM   17  C23 UNL     1       4.105   7.947  11.837  1.00  0.00    -0.031 C 
HETATM   18  C24 UNL     1       5.244   7.070  12.426  1.00  0.00     0.016 C 
HETATM   19  C25 UNL     1       2.773   7.080  12.005  1.00  0.00     0.024 C 
HETATM   20  C26 UNL     1       2.408   6.202  10.784  1.00  0.00     0.010 C 
HETATM   21  C27 UNL     1       1.124   5.353  10.918  1.00  0.00     0.011 C 
HETATM   22  C28 UNL     1       0.157   5.793  12.040  1.00  0.00    -0.029 C 
HETATM   23  C29 UNL     1       0.547   5.045  13.354  1.00  0.00     0.016 C 
ENDROOT
BRANCH   1  24
HETATM   24  C6  UNL     1      -1.966   4.114  11.911  1.00  0.00    -0.011 C 
HETATM   25  C7  UNL     1      -1.818   3.299  10.622  1.00  0.00     0.010 C 
BRANCH  24  26
HETATM   26  C5  UNL     1      -3.468   4.199  12.318  1.00  0.00     0.040 C 
BRANCH  26  27
HETATM   27  C4  UNL     1      -4.411   3.265  11.537  1.00  0.00     0.142 C 
BRANCH  27  28
HETATM   28  C3  UNL     1      -5.754   3.176  12.204  1.00  0.00     0.018 C 
HETATM   29  C2  UNL     1      -6.364   4.102  12.973  1.00  0.00     0.010 C 
HETATM   30  C1  UNL     1      -5.829   5.455  13.332  1.00  0.00     0.055 C 
BRANCH  29  31
HETATM   31  C30 UNL     1      -7.701   3.730  13.505  1.00  0.00     0.171 C 
HETATM   32  O3  UNL     1      -8.605   3.191  12.891  1.00  0.00    -0.646 OA
BRANCH  31  33
HETATM   33  O4  UNL     1      -7.842   4.045  14.802  1.00  0.00    -0.773 OA
HETATM   34  H46 UNL     1      -8.752   3.750  15.012  1.00  0.00     0.167 HD
ENDBRANCH  31  33
ENDBRANCH  29  31
ENDBRANCH  27  28
BRANCH  27  35
HETATM   35  O1  UNL     1      -3.867   1.951  11.492  1.00  0.00    -0.392 OA
HETATM   36  H6  UNL     1      -3.790   1.627  12.405  1.00  0.00     0.210 HD
ENDBRANCH  27  35
ENDBRANCH  26  27
ENDBRANCH  24  26
ENDBRANCH   1  24
TORSDOF 7
ENDMDL
MODEL 3
REMARK minimizedAffinity -9.25341702
REMARK  7 active torsions:
REMARK  status: ('A' for Active; 'I' for Inactive)
REMARK    1  A    between atoms: C2_2  and  C30_32 
REMARK    2  A    between atoms: C3_3  and  C4_4 
REMARK    3  A    between atoms: C4_4  and  O1_5 
REMARK    4  A    between atoms: C4_4  and  C5_6 
REMARK    5  A    between atoms: C5_6  and  C6_7 
REMARK    6  A    between atoms: C6_7  and  C8_9 
REMARK    7  A    between atoms: C30_32  and  O4_34 
ROOT
HETATM    1  C8  UNL     1       1.322   7.059  13.232  1.00  0.00    -0.002 C 
HETATM    2  C9  UNL     1       0.530   7.969  14.219  1.00  0.00     0.007 C 
HETATM    3  C10 UNL     1      -0.943   7.524  14.183  1.00  0.00     0.015 C 
HETATM    4  C11 UNL     1      -0.926   6.172  13.444  1.00  0.00    -0.013 C 
HETATM    5  C12 UNL     1      -0.566   5.099  14.517  1.00  0.00     0.021 C 
HETATM    6  C13 UNL     1      -2.214   5.697  12.786  1.00  0.00    -0.070 C 
HETATM    7  C14 UNL     1      -3.438   6.124  13.146  1.00  0.00    -0.022 C 
HETATM    8  C15 UNL     1      -4.680   5.550  12.533  1.00  0.00     0.034 C 
HETATM    9  C16 UNL     1      -4.478   4.039  12.348  1.00  0.00     0.013 C 
HETATM   10  C17 UNL     1      -5.783   3.232  12.059  1.00  0.00     0.018 C 
HETATM   11  C18 UNL     1      -6.551   2.984  13.376  1.00  0.00     0.023 C 
HETATM   12  C19 UNL     1      -6.746   3.941  11.089  1.00  0.00     0.023 C 
HETATM   13  C20 UNL     1      -5.414   1.847  11.507  1.00  0.00     0.135 C 
HETATM   14  O2  UNL     1      -6.214   1.172  10.855  1.00  0.00    -0.297 OA
HETATM   15  C21 UNL     1      -4.062   1.278  11.880  1.00  0.00     0.080 C 
HETATM   16  C22 UNL     1      -2.886   2.245  11.700  1.00  0.00     0.017 C 
HETATM   17  C23 UNL     1      -3.275   3.715  11.391  1.00  0.00    -0.031 C 
HETATM   18  C24 UNL     1      -3.645   3.806   9.886  1.00  0.00     0.016 C 
HETATM   19  C25 UNL     1      -2.071   4.746  11.595  1.00  0.00     0.024 C 
HETATM   20  C26 UNL     1      -0.657   4.134  11.452  1.00  0.00     0.010 C 
HETATM   21  C27 UNL     1       0.528   5.109  11.644  1.00  0.00     0.011 C 
HETATM   22  C28 UNL     1       0.181   6.433  12.358  1.00  0.00    -0.029 C 
HETATM   23  C29 UNL     1      -0.245   7.482  11.281  1.00  0.00     0.016 C 
ENDROOT
BRANCH   1  24
HETATM   24  C6  UNL     1       2.502   7.820  12.549  1.00  0.00    -0.011 C 
HETATM   25  C7  UNL     1       2.850   9.116  13.290  1.00  0.00     0.010 C 
BRANCH  24  26
HETATM   26  C5  UNL     1       2.152   8.133  11.064  1.00  0.00     0.040 C 
BRANCH  26  27
HETATM   27  C4  UNL     1       3.284   7.866  10.055  1.00  0.00     0.142 C 
BRANCH  27  28
HETATM   28  C3  UNL     1       3.608   6.401   9.985  1.00  0.00     0.018 C 
HETATM   29  C2  UNL     1       3.340   5.536   8.983  1.00  0.00     0.010 C 
HETATM   30  C1  UNL     1       2.653   5.856   7.690  1.00  0.00     0.055 C 
BRANCH  29  31
HETATM   31  C30 UNL     1       3.780   4.133   9.198  1.00  0.00     0.171 C 
HETATM   32  O3  UNL     1       4.731   3.580   8.675  1.00  0.00    -0.646 OA
BRANCH  31  33
HETATM   33  O4  UNL     1       3.003   3.482  10.078  1.00  0.00    -0.773 OA
HETATM   34  H46 UNL     1       3.402   2.589  10.118  1.00  0.00     0.167 HD
ENDBRANCH  31  33
ENDBRANCH  29  31
ENDBRANCH  27  28
BRANCH  27  35
HETATM   35  O1  UNL     1       4.466   8.548  10.458  1.00  0.00    -0.392 OA
HETATM   36  H6  UNL     1       4.731   8.200  11.326  1.00  0.00     0.210 HD
ENDBRANCH  27  35
ENDBRANCH  26  27
ENDBRANCH  24  26
ENDBRANCH   1  24
TORSDOF 7
ENDMDL
MODEL 4
REMARK minimizedAffinity -9.23644066
REMARK  7 active torsions:
REMARK  status: ('A' for Active; 'I' for Inactive)
REMARK    1  A    between atoms: C2_2  and  C30_32 
REMARK    2  A    between atoms: C3_3  and  C4_4 
REMARK    3  A    between atoms: C4_4  and  O1_5 
REMARK    4  A    between atoms: C4_4  and  C5_6 
REMARK    5  A    between atoms: C5_6  and  C6_7 
REMARK    6  A    between atoms: C6_7  and  C8_9 
REMARK    7  A    between atoms: C30_32  and  O4_34 
ROOT
HETATM    1  C8  UNL     1      -5.228   5.526  14.435  1.00  0.00    -0.002 C 
HETATM    2  C9  UNL     1      -4.759   6.521  15.539  1.00  0.00     0.007 C 
HETATM    3  C10 UNL     1      -5.947   7.442  15.871  1.00  0.00     0.015 C 
HETATM    4  C11 UNL     1      -7.163   6.767  15.209  1.00  0.00    -0.013 C 
HETATM    5  C12 UNL     1      -7.651   5.677  16.214  1.00  0.00     0.021 C 
HETATM    6  C13 UNL     1      -8.379   7.627  14.895  1.00  0.00    -0.070 C 
HETATM    7  C14 UNL     1      -8.650   8.791  15.514  1.00  0.00    -0.022 C 
HETATM    8  C15 UNL     1      -9.914   9.550  15.237  1.00  0.00     0.034 C 
HETATM    9  C16 UNL     1     -11.062   8.543  15.076  1.00  0.00     0.013 C 
HETATM   10  C17 UNL     1     -12.493   9.162  15.139  1.00  0.00     0.018 C 
HETATM   11  C18 UNL     1     -12.896   9.410  16.609  1.00  0.00     0.023 C 
HETATM   12  C19 UNL     1     -12.619  10.503  14.392  1.00  0.00     0.023 C 
HETATM   13  C20 UNL     1     -13.509   8.157  14.577  1.00  0.00     0.135 C 
HETATM   14  O2  UNL     1     -14.614   8.510  14.162  1.00  0.00    -0.297 OA
HETATM   15  C21 UNL     1     -13.156   6.685  14.646  1.00  0.00     0.080 C 
HETATM   16  C22 UNL     1     -11.746   6.340  14.152  1.00  0.00     0.017 C 
HETATM   17  C23 UNL     1     -10.820   7.555  13.879  1.00  0.00    -0.031 C 
HETATM   18  C24 UNL     1     -11.211   8.155  12.500  1.00  0.00     0.016 C 
HETATM   19  C25 UNL     1      -9.277   7.160  13.747  1.00  0.00     0.024 C 
HETATM   20  C26 UNL     1      -9.013   5.702  13.302  1.00  0.00     0.010 C 
HETATM   21  C27 UNL     1      -7.528   5.292  13.166  1.00  0.00     0.011 C 
HETATM   22  C28 UNL     1      -6.522   6.218  13.883  1.00  0.00    -0.029 C 
HETATM   23  C29 UNL     1      -6.091   7.346  12.892  1.00  0.00     0.016 C 
ENDROOT
BRANCH   1  24
HETATM   24  C6  UNL     1      -4.070   5.141  13.461  1.00  0.00    -0.011 C 
HETATM   25  C7  UNL     1      -3.228   6.359  13.065  1.00  0.00     0.010 C 
BRANCH  24  26
HETATM   26  C5  UNL     1      -4.646   4.456  12.185  1.00  0.00     0.040 C 
BRANCH  26  27
HETATM   27  C4  UNL     1      -4.732   2.920  12.251  1.00  0.00     0.142 C 
BRANCH  27  28
HETATM   28  C3  UNL     1      -3.393   2.294  11.978  1.00  0.00     0.018 C 
HETATM   29  C2  UNL     1      -2.499   2.625  11.022  1.00  0.00     0.010 C 
HETATM   30  C1  UNL     1      -2.643   3.717  10.008  1.00  0.00     0.055 C 
BRANCH  29  31
HETATM   31  C30 UNL     1      -1.251   1.818  10.990  1.00  0.00     0.171 C 
HETATM   32  O3  UNL     1      -0.128   2.202  11.265  1.00  0.00    -0.646 OA
BRANCH  31  33
HETATM   33  O4  UNL     1      -1.473   0.547  10.621  1.00  0.00    -0.773 OA
HETATM   34  H46 UNL     1      -0.581   0.143  10.642  1.00  0.00     0.167 HD
ENDBRANCH  31  33
ENDBRANCH  29  31
ENDBRANCH  27  28
BRANCH  27  35
HETATM   35  O1  UNL     1      -5.639   2.440  11.265  1.00  0.00    -0.392 OA
HETATM   36  H6  UNL     1      -5.297   2.698  10.393  1.00  0.00     0.210 HD
ENDBRANCH  27  35
ENDBRANCH  26  27
ENDBRANCH  24  26
ENDBRANCH   1  24
TORSDOF 7
ENDMDL
MODEL 5
REMARK minimizedAffinity -9.16208458
REMARK  7 active torsions:
REMARK  status: ('A' for Active; 'I' for Inactive)
REMARK    1  A    between atoms: C2_2  and  C30_32 
REMARK    2  A    between atoms: C3_3  and  C4_4 
REMARK    3  A    between atoms: C4_4  and  O1_5 
REMARK    4  A    between atoms: C4_4  and  C5_6 
REMARK    5  A    between atoms: C5_6  and  C6_7 
REMARK    6  A    between atoms: C6_7  and  C8_9 
REMARK    7  A    between atoms: C30_32  and  O4_34 
ROOT
HETATM    1  C8  UNL     1      -2.042   6.498  12.692  1.00  0.00    -0.002 C 
HETATM    2  C9  UNL     1      -2.070   7.219  14.074  1.00  0.00     0.007 C 
HETATM    3  C10 UNL     1      -0.658   7.770  14.342  1.00  0.00     0.015 C 
HETATM    4  C11 UNL     1       0.070   7.655  12.989  1.00  0.00    -0.013 C 
HETATM    5  C12 UNL     1      -0.335   8.922  12.173  1.00  0.00     0.021 C 
HETATM    6  C13 UNL     1       1.592   7.623  12.993  1.00  0.00    -0.070 C 
HETATM    7  C14 UNL     1       2.346   8.105  13.997  1.00  0.00    -0.022 C 
HETATM    8  C15 UNL     1       3.842   8.140  13.907  1.00  0.00     0.034 C 
HETATM    9  C16 UNL     1       4.235   8.522  12.473  1.00  0.00     0.013 C 
HETATM   10  C17 UNL     1       5.726   8.949  12.290  1.00  0.00     0.018 C 
HETATM   11  C18 UNL     1       5.914  10.412  12.748  1.00  0.00     0.023 C 
HETATM   12  C19 UNL     1       6.718   8.083  13.089  1.00  0.00     0.023 C 
HETATM   13  C20 UNL     1       6.088   8.914  10.799  1.00  0.00     0.135 C 
HETATM   14  O2  UNL     1       7.256   8.832  10.414  1.00  0.00    -0.297 OA
HETATM   15  C21 UNL     1       4.967   9.094   9.797  1.00  0.00     0.080 C 
HETATM   16  C22 UNL     1       3.728   8.229  10.058  1.00  0.00     0.017 C 
HETATM   17  C23 UNL     1       3.712   7.482  11.418  1.00  0.00    -0.031 C 
HETATM   18  C24 UNL     1       4.622   6.229  11.287  1.00  0.00     0.016 C 
HETATM   19  C25 UNL     1       2.270   6.918  11.816  1.00  0.00     0.024 C 
HETATM   20  C26 UNL     1       1.324   6.646  10.622  1.00  0.00     0.010 C 
HETATM   21  C27 UNL     1      -0.078   6.101  10.977  1.00  0.00     0.011 C 
HETATM   22  C28 UNL     1      -0.507   6.296  12.448  1.00  0.00    -0.029 C 
HETATM   23  C29 UNL     1      -0.037   5.054  13.272  1.00  0.00     0.016 C 
ENDROOT
BRANCH   1  24
HETATM   24  C6  UNL     1      -3.009   5.273  12.649  1.00  0.00    -0.011 C 
HETATM   25  C7  UNL     1      -3.188   4.637  14.031  1.00  0.00     0.010 C 
BRANCH  24  26
HETATM   26  C5  UNL     1      -2.484   4.210  11.638  1.00  0.00     0.040 C 
BRANCH  26  27
HETATM   27  C4  UNL     1      -3.552   3.246  11.090  1.00  0.00     0.142 C 
BRANCH  27  28
HETATM   28  C3  UNL     1      -4.875   3.466  11.767  1.00  0.00     0.018 C 
HETATM   29  C2  UNL     1      -5.954   2.656  11.768  1.00  0.00     0.010 C 
HETATM   30  C1  UNL     1      -6.071   1.326  11.089  1.00  0.00     0.055 C 
BRANCH  29  31
HETATM   31  C30 UNL     1      -7.135   3.144  12.529  1.00  0.00     0.171 C 
HETATM   32  O3  UNL     1      -8.070   2.475  12.930  1.00  0.00    -0.646 OA
BRANCH  31  33
HETATM   33  O4  UNL     1      -7.082   4.464  12.764  1.00  0.00    -0.773 OA
HETATM   34  H46 UNL     1      -7.907   4.642  13.260  1.00  0.00     0.167 HD
ENDBRANCH  31  33
ENDBRANCH  29  31
ENDBRANCH  27  28
BRANCH  27  35
HETATM   35  O1  UNL     1      -3.164   1.899  11.335  1.00  0.00    -0.392 OA
HETATM   36  H6  UNL     1      -3.096   1.778  12.298  1.00  0.00     0.210 HD
ENDBRANCH  27  35
ENDBRANCH  26  27
ENDBRANCH  24  26
ENDBRANCH   1  24
TORSDOF 7
ENDMDL
MODEL 6
REMARK minimizedAffinity -9.10552311
REMARK  7 active torsions:
REMARK  status: ('A' for Active; 'I' for Inactive)
REMARK    1  A    between atoms: C2_2  and  C30_32 
REMARK    2  A    between atoms: C3_3  and  C4_4 
REMARK    3  A    between atoms: C4_4  and  O1_5 
REMARK    4  A    between atoms: C4_4  and  C5_6 
REMARK    5  A    between atoms: C5_6  and  C6_7 
REMARK    6  A    between atoms: C6_7  and  C8_9 
REMARK    7  A    between atoms: C30_32  and  O4_34 
ROOT
HETATM    1  C8  UNL     1      -6.639   7.039  14.159  1.00  0.00    -0.002 C 
HETATM    2  C9  UNL     1      -6.566   8.381  14.949  1.00  0.00     0.007 C 
HETATM    3  C10 UNL     1      -5.085   8.791  15.034  1.00  0.00     0.015 C 
HETATM    4  C11 UNL     1      -4.366   7.877  14.024  1.00  0.00    -0.013 C 
HETATM    5  C12 UNL     1      -4.537   8.556  12.630  1.00  0.00     0.021 C 
HETATM    6  C13 UNL     1      -2.872   7.645  14.201  1.00  0.00    -0.070 C 
HETATM    7  C14 UNL     1      -2.063   8.479  14.877  1.00  0.00    -0.022 C 
HETATM    8  C15 UNL     1      -0.581   8.257  14.938  1.00  0.00     0.034 C 
HETATM    9  C16 UNL     1      -0.107   7.759  13.565  1.00  0.00     0.013 C 
HETATM   10  C17 UNL     1       1.437   7.816  13.342  1.00  0.00     0.018 C 
HETATM   11  C18 UNL     1       1.865   9.257  12.985  1.00  0.00     0.023 C 
HETATM   12  C19 UNL     1       2.255   7.383  14.572  1.00  0.00     0.023 C 
HETATM   13  C20 UNL     1       1.811   6.945  12.135  1.00  0.00     0.135 C 
HETATM   14  O2  UNL     1       2.954   6.512  11.973  1.00  0.00    -0.297 OA
HETATM   15  C21 UNL     1       0.752   6.715  11.077  1.00  0.00     0.080 C 
HETATM   16  C22 UNL     1      -0.619   6.299  11.621  1.00  0.00     0.017 C 
HETATM   17  C23 UNL     1      -0.783   6.400  13.161  1.00  0.00    -0.031 C 
HETATM   18  C24 UNL     1      -0.098   5.160  13.798  1.00  0.00     0.016 C 
HETATM   19  C25 UNL     1      -2.306   6.337  13.643  1.00  0.00     0.024 C 
HETATM   20  C26 UNL     1      -3.266   5.603  12.676  1.00  0.00     0.010 C 
HETATM   21  C27 UNL     1      -4.746   5.527  13.117  1.00  0.00     0.011 C 
HETATM   22  C28 UNL     1      -5.157   6.531  14.216  1.00  0.00    -0.029 C 
HETATM   23  C29 UNL     1      -4.918   5.868  15.610  1.00  0.00     0.016 C 
ENDROOT
BRANCH   1  24
HETATM   24  C6  UNL     1      -7.800   6.124  14.661  1.00  0.00    -0.011 C 
HETATM   25  C7  UNL     1      -7.415   4.641  14.625  1.00  0.00     0.010 C 
BRANCH  24  26
HETATM   26  C5  UNL     1      -9.080   6.362  13.806  1.00  0.00     0.040 C 
BRANCH  26  27
HETATM   27  C4  UNL     1     -10.286   6.929  14.579  1.00  0.00     0.142 C 
BRANCH  27  28
HETATM   28  C3  UNL     1     -10.900   8.087  13.844  1.00  0.00     0.018 C 
HETATM   29  C2  UNL     1     -12.109   8.147  13.247  1.00  0.00     0.010 C 
HETATM   30  C1  UNL     1     -13.131   7.053  13.193  1.00  0.00     0.055 C 
BRANCH  29  31
HETATM   31  C30 UNL     1     -12.447   9.435  12.588  1.00  0.00     0.171 C 
HETATM   32  O3  UNL     1     -13.240  10.271  12.984  1.00  0.00    -0.646 OA
BRANCH  31  33
HETATM   33  O4  UNL     1     -11.758   9.625  11.452  1.00  0.00    -0.773 OA
HETATM   34  H46 UNL     1     -12.077  10.494  11.132  1.00  0.00     0.167 HD
ENDBRANCH  31  33
ENDBRANCH  29  31
ENDBRANCH  27  28
BRANCH  27  35
HETATM   35  O1  UNL     1      -9.869   7.403  15.853  1.00  0.00    -0.392 OA
HETATM   36  H6  UNL     1      -9.223   8.116  15.711  1.00  0.00     0.210 HD
ENDBRANCH  27  35
ENDBRANCH  26  27
ENDBRANCH  24  26
ENDBRANCH   1  24
TORSDOF 7
ENDMDL
MODEL 7
REMARK minimizedAffinity -9.10080051
REMARK  7 active torsions:
REMARK  status: ('A' for Active; 'I' for Inactive)
REMARK    1  A    between atoms: C2_2  and  C30_32 
REMARK    2  A    between atoms: C3_3  and  C4_4 
REMARK    3  A    between atoms: C4_4  and  O1_5 
REMARK    4  A    between atoms: C4_4  and  C5_6 
REMARK    5  A    between atoms: C5_6  and  C6_7 
REMARK    6  A    between atoms: C6_7  and  C8_9 
REMARK    7  A    between atoms: C30_32  and  O4_34 
ROOT
HETATM    1  C8  UNL     1       0.337   7.686  13.431  1.00  0.00    -0.002 C 
HETATM    2  C9  UNL     1       0.335   6.953  12.055  1.00  0.00     0.007 C 
HETATM    3  C10 UNL     1      -1.074   6.370  11.841  1.00  0.00     0.015 C 
HETATM    4  C11 UNL     1      -1.945   7.045  12.917  1.00  0.00    -0.013 C 
HETATM    5  C12 UNL     1      -2.363   8.428  12.328  1.00  0.00     0.021 C 
HETATM    6  C13 UNL     1      -3.237   6.355  13.332  1.00  0.00    -0.070 C 
HETATM    7  C14 UNL     1      -3.885   5.461  12.564  1.00  0.00    -0.022 C 
HETATM    8  C15 UNL     1      -5.206   4.884  12.978  1.00  0.00     0.034 C 
HETATM    9  C16 UNL     1      -6.038   5.995  13.636  1.00  0.00     0.013 C 
HETATM   10  C17 UNL     1      -7.555   5.670  13.803  1.00  0.00     0.018 C 
HETATM   11  C18 UNL     1      -8.291   5.892  12.463  1.00  0.00     0.023 C 
HETATM   12  C19 UNL     1      -7.831   4.222  14.247  1.00  0.00     0.023 C 
HETATM   13  C20 UNL     1      -8.181   6.650  14.805  1.00  0.00     0.135 C 
HETATM   14  O2  UNL     1      -9.231   6.395  15.397  1.00  0.00    -0.297 OA
HETATM   15  C21 UNL     1      -7.522   8.004  14.971  1.00  0.00     0.080 C 
HETATM   16  C22 UNL     1      -6.001   7.959  15.158  1.00  0.00     0.017 C 
HETATM   17  C23 UNL     1      -5.341   6.574  14.920  1.00  0.00    -0.031 C 
HETATM   18  C24 UNL     1      -5.574   5.709  16.189  1.00  0.00     0.016 C 
HETATM   19  C25 UNL     1      -3.755   6.649  14.742  1.00  0.00     0.024 C 
HETATM   20  C26 UNL     1      -3.080   7.871  15.412  1.00  0.00     0.010 C 
HETATM   21  C27 UNL     1      -1.545   7.969  15.256  1.00  0.00     0.011 C 
HETATM   22  C28 UNL     1      -0.942   7.106  14.126  1.00  0.00    -0.029 C 
HETATM   23  C29 UNL     1      -0.590   5.699  14.709  1.00  0.00     0.016 C 
ENDROOT
BRANCH   1  24
HETATM   24  C6  UNL     1       1.724   7.595  14.143  1.00  0.00    -0.011 C 
HETATM   25  C7  UNL     1       1.607   7.823  15.654  1.00  0.00     0.010 C 
BRANCH  24  26
HETATM   26  C5  UNL     1       2.714   8.626  13.524  1.00  0.00     0.040 C 
BRANCH  26  27
HETATM   27  C4  UNL     1       4.030   8.031  12.990  1.00  0.00     0.142 C 
BRANCH  27  28
HETATM   28  C3  UNL     1       3.761   6.925  12.009  1.00  0.00     0.018 C 
HETATM   29  C2  UNL     1       3.873   6.959  10.664  1.00  0.00     0.010 C 
HETATM   30  C1  UNL     1       4.309   8.129   9.836  1.00  0.00     0.055 C 
BRANCH  29  31
HETATM   31  C30 UNL     1       3.532   5.702   9.949  1.00  0.00     0.171 C 
HETATM   32  O3  UNL     1       2.451   5.404   9.474  1.00  0.00    -0.646 OA
BRANCH  31  33
HETATM   33  O4  UNL     1       4.580   4.869   9.851  1.00  0.00    -0.773 OA
HETATM   34  H46 UNL     1       4.216   4.098   9.369  1.00  0.00     0.167 HD
ENDBRANCH  31  33
ENDBRANCH  29  31
ENDBRANCH  27  28
BRANCH  27  35
HETATM   35  O1  UNL     1       4.786   7.479  14.061  1.00  0.00    -0.392 OA
HETATM   36  H6  UNL     1       4.259   6.768  14.463  1.00  0.00     0.210 HD
ENDBRANCH  27  35
ENDBRANCH  26  27
ENDBRANCH  24  26
ENDBRANCH   1  24
TORSDOF 7
ENDMDL
MODEL 8
REMARK minimizedAffinity -9.09312534
REMARK  7 active torsions:
REMARK  status: ('A' for Active; 'I' for Inactive)
REMARK    1  A    between atoms: C2_2  and  C30_32 
REMARK    2  A    between atoms: C3_3  and  C4_4 
REMARK    3  A    between atoms: C4_4  and  O1_5 
REMARK    4  A    between atoms: C4_4  and  C5_6 
REMARK    5  A    between atoms: C5_6  and  C6_7 
REMARK    6  A    between atoms: C6_7  and  C8_9 
REMARK    7  A    between atoms: C30_32  and  O4_34 
ROOT
HETATM    1  C8  UNL     1      -2.371   6.114  13.056  1.00  0.00    -0.002 C 
HETATM    2  C9  UNL     1      -2.205   5.111  11.874  1.00  0.00     0.007 C 
HETATM    3  C10 UNL     1      -0.753   5.218  11.373  1.00  0.00     0.015 C 
HETATM    4  C11 UNL     1      -0.020   6.019  12.465  1.00  0.00    -0.013 C 
HETATM    5  C12 UNL     1       0.373   4.986  13.568  1.00  0.00     0.021 C 
HETATM    6  C13 UNL     1       1.265   6.741  12.086  1.00  0.00    -0.070 C 
HETATM    7  C14 UNL     1       2.028   6.402  11.031  1.00  0.00    -0.022 C 
HETATM    8  C15 UNL     1       3.336   7.082  10.759  1.00  0.00     0.034 C 
HETATM    9  C16 UNL     1       4.043   7.333  12.099  1.00  0.00     0.013 C 
HETATM   10  C17 UNL     1       5.555   7.703  11.986  1.00  0.00     0.018 C 
HETATM   11  C18 UNL     1       6.395   6.426  11.764  1.00  0.00     0.023 C 
HETATM   12  C19 UNL     1       5.869   8.670  10.830  1.00  0.00     0.023 C 
HETATM   13  C20 UNL     1       6.033   8.308  13.314  1.00  0.00     0.135 C 
HETATM   14  O2  UNL     1       7.039   9.017  13.383  1.00  0.00    -0.297 OA
HETATM   15  C21 UNL     1       5.289   7.918  14.574  1.00  0.00     0.080 C 
HETATM   16  C22 UNL     1       3.762   8.012  14.473  1.00  0.00     0.017 C 
HETATM   17  C23 UNL     1       3.204   8.263  13.047  1.00  0.00    -0.031 C 
HETATM   18  C24 UNL     1       3.369   9.774  12.728  1.00  0.00     0.016 C 
HETATM   19  C25 UNL     1       1.638   7.971  12.918  1.00  0.00     0.024 C 
HETATM   20  C26 UNL     1       0.840   8.096  14.238  1.00  0.00     0.010 C 
HETATM   21  C27 UNL     1      -0.678   7.818  14.143  1.00  0.00     0.011 C 
HETATM   22  C28 UNL     1      -1.129   7.053  12.880  1.00  0.00    -0.029 C 
HETATM   23  C29 UNL     1      -1.454   8.093  11.759  1.00  0.00     0.016 C 
ENDROOT
BRANCH   1  24
HETATM   24  C6  UNL     1      -3.809   6.719  13.115  1.00  0.00    -0.011 C 
HETATM   25  C7  UNL     1      -3.783   8.227  13.385  1.00  0.00     0.010 C 
BRANCH  24  26
HETATM   26  C5  UNL     1      -4.652   5.997  14.208  1.00  0.00     0.040 C 
BRANCH  26  27
HETATM   27  C4  UNL     1      -5.924   5.297  13.697  1.00  0.00     0.142 C 
BRANCH  27  28
HETATM   28  C3  UNL     1      -5.587   4.244  12.679  1.00  0.00     0.018 C 
HETATM   29  C2  UNL     1      -6.309   3.156  12.337  1.00  0.00     0.010 C 
HETATM   30  C1  UNL     1      -7.637   2.754  12.901  1.00  0.00     0.055 C 
BRANCH  29  31
HETATM   31  C30 UNL     1      -5.715   2.282  11.291  1.00  0.00     0.171 C 
HETATM   32  O3  UNL     1      -5.645   1.066  11.311  1.00  0.00    -0.646 OA
BRANCH  31  33
HETATM   33  O4  UNL     1      -5.241   2.982  10.248  1.00  0.00    -0.773 OA
HETATM   34  H46 UNL     1      -4.886   2.292   9.651  1.00  0.00     0.167 HD
ENDBRANCH  31  33
ENDBRANCH  29  31
ENDBRANCH  27  28
BRANCH  27  35
HETATM   35  O1  UNL     1      -6.781   6.242  13.068  1.00  0.00    -0.392 OA
HETATM   36  H6  UNL     1      -6.305   6.620  12.309  1.00  0.00     0.210 HD
ENDBRANCH  27  35
ENDBRANCH  26  27
ENDBRANCH  24  26
ENDBRANCH   1  24
TORSDOF 7
ENDMDL
MODEL 9
REMARK minimizedAffinity -8.98727036
REMARK  7 active torsions:
REMARK  status: ('A' for Active; 'I' for Inactive)
REMARK    1  A    between atoms: C2_2  and  C30_32 
REMARK    2  A    between atoms: C3_3  and  C4_4 
REMARK    3  A    between atoms: C4_4  and  O1_5 
REMARK    4  A    between atoms: C4_4  and  C5_6 
REMARK    5  A    between atoms: C5_6  and  C6_7 
REMARK    6  A    between atoms: C6_7  and  C8_9 
REMARK    7  A    between atoms: C30_32  and  O4_34 
ROOT
HETATM    1  C8  UNL     1      -2.331   7.183  13.545  1.00  0.00    -0.002 C 
HETATM    2  C9  UNL     1      -2.411   6.128  12.401  1.00  0.00     0.007 C 
HETATM    3  C10 UNL     1      -1.002   5.986  11.798  1.00  0.00     0.015 C 
HETATM    4  C11 UNL     1      -0.073   6.697  12.801  1.00  0.00    -0.013 C 
HETATM    5  C12 UNL     1       0.234   5.653  13.919  1.00  0.00     0.021 C 
HETATM    6  C13 UNL     1       1.277   7.193  12.302  1.00  0.00    -0.070 C 
HETATM    7  C14 UNL     1       1.897   6.703  11.214  1.00  0.00    -0.022 C 
HETATM    8  C15 UNL     1       3.271   7.157  10.823  1.00  0.00     0.034 C 
HETATM    9  C16 UNL     1       4.106   7.337  12.099  1.00  0.00     0.013 C 
HETATM   10  C17 UNL     1       5.645   7.460  11.867  1.00  0.00     0.018 C 
HETATM   11  C18 UNL     1       6.256   6.059  11.646  1.00  0.00     0.023 C 
HETATM   12  C19 UNL     1       6.018   8.325  10.649  1.00  0.00     0.023 C 
HETATM   13  C20 UNL     1       6.308   8.025  13.131  1.00  0.00     0.135 C 
HETATM   14  O2  UNL     1       7.414   8.568  13.098  1.00  0.00    -0.297 OA
HETATM   15  C21 UNL     1       5.608   7.800  14.455  1.00  0.00     0.080 C 
HETATM   16  C22 UNL     1       4.112   8.131  14.454  1.00  0.00     0.017 C 
HETATM   17  C23 UNL     1       3.495   8.420  13.060  1.00  0.00    -0.031 C 
HETATM   18  C24 UNL     1       3.868   9.875  12.663  1.00  0.00     0.016 C 
HETATM   19  C25 UNL     1       1.897   8.376  13.051  1.00  0.00     0.024 C 
HETATM   20  C26 UNL     1       1.229   8.670  14.416  1.00  0.00     0.010 C 
HETATM   21  C27 UNL     1      -0.317   8.633  14.437  1.00  0.00     0.011 C 
HETATM   22  C28 UNL     1      -0.974   7.908  13.243  1.00  0.00    -0.029 C 
HETATM   23  C29 UNL     1      -1.216   8.947  12.102  1.00  0.00     0.016 C 
ENDROOT
BRANCH   1  24
HETATM   24  C6  UNL     1      -3.648   8.010  13.675  1.00  0.00    -0.011 C 
HETATM   25  C7  UNL     1      -3.768   8.683  15.047  1.00  0.00     0.010 C 
BRANCH  24  26
HETATM   26  C5  UNL     1      -4.884   7.096  13.421  1.00  0.00     0.040 C 
BRANCH  26  27
HETATM   27  C4  UNL     1      -5.121   6.008  14.484  1.00  0.00     0.142 C 
BRANCH  27  28
HETATM   28  C3  UNL     1      -6.296   5.145  14.118  1.00  0.00     0.018 C 
HETATM   29  C2  UNL     1      -6.333   4.118  13.242  1.00  0.00     0.010 C 
HETATM   30  C1  UNL     1      -5.187   3.596  12.432  1.00  0.00     0.055 C 
BRANCH  29  31
HETATM   31  C30 UNL     1      -7.650   3.447  13.082  1.00  0.00     0.171 C 
HETATM   32  O3  UNL     1      -7.843   2.262  12.876  1.00  0.00    -0.646 OA
BRANCH  31  33
HETATM   33  O4  UNL     1      -8.678   4.301  13.199  1.00  0.00    -0.773 OA
HETATM   34  H46 UNL     1      -9.465   3.733  13.072  1.00  0.00     0.167 HD
ENDBRANCH  31  33
ENDBRANCH  29  31
ENDBRANCH  27  28
BRANCH  27  35
HETATM   35  O1  UNL     1      -5.405   6.608  15.742  1.00  0.00    -0.392 OA
HETATM   36  H6  UNL     1      -6.217   7.135  15.646  1.00  0.00     0.210 HD
ENDBRANCH  27  35
ENDBRANCH  26  27
ENDBRANCH  24  26
ENDBRANCH   1  24
TORSDOF 7
ENDMDL
