MODEL 1
REMARK minimizedAffinity -10.0274315
REMARK  4 active torsions:
REMARK  status: ('A' for Active; 'I' for Inactive)
REMARK    1  A    between atoms: C3_4  and  C4_5 
REMARK       I    between atoms: N3_16  and  C13_17 
REMARK    2  A    between atoms: C13_17  and  C14_19 
REMARK    3  A    between atoms: C14_19  and  C15_20 
REMARK    4  A    between atoms: C15_20  and  C16_21 
ROOT
HETATM    1  C4  UNL     1      -0.005  50.597 -16.693  1.00  0.00    -0.020 A 
HETATM    2  C5  UNL     1      -0.516  49.297 -16.504  1.00  0.00     0.014 A 
HETATM    3  C6  UNL     1      -1.598  48.822 -17.259  1.00  0.00     0.027 A 
HETATM    4  C7  UNL     1      -2.173  49.660 -18.200  1.00  0.00     0.048 A 
HETATM    5  N2  UNL     1      -3.292  49.300 -18.974  1.00  0.00    -0.227 NA
HETATM    6  C8  UNL     1      -3.140  48.365 -19.986  1.00  0.00     0.202 C 
HETATM    7  O1  UNL     1      -2.230  47.551 -20.095  1.00  0.00    -0.280 OA
HETATM    8  C9  UNL     1      -4.229  48.494 -21.020  1.00  0.00     0.102 C 
HETATM    9  C10 UNL     1      -3.962  49.357 -22.263  1.00  0.00     0.001 C 
HETATM   10  C11 UNL     1      -2.961  48.778 -23.262  1.00  0.00     0.025 C 
HETATM   11  C12 UNL     1      -3.184  49.416 -24.643  1.00  0.00     0.126 C 
HETATM   12  N3  UNL     1      -3.364  50.878 -24.620  1.00  0.00    -0.352 N 
HETATM   13  C13 UNL     1      -3.166  51.678 -25.751  1.00  0.00     0.220 C 
HETATM   14  O2  UNL     1      -3.596  52.829 -25.819  1.00  0.00    -0.273 OA
HETATM   15  C22 UNL     1      -4.190  51.445 -23.536  1.00  0.00     0.130 C 
HETATM   16  C23 UNL     1      -3.752  50.897 -22.145  1.00  0.00     0.010 C 
HETATM   17  C24 UNL     1      -2.333  51.516 -21.922  1.00  0.00     0.033 C 
HETATM   18  C25 UNL     1      -1.505  51.175 -20.696  1.00  0.00     0.176 C 
HETATM   19  O3  UNL     1      -2.137  51.655 -19.496  1.00  0.00    -0.349 OA
HETATM   20  C26 UNL     1      -1.639  50.930 -18.434  1.00  0.00     0.091 A 
HETATM   21  C27 UNL     1      -0.580  51.417 -17.675  1.00  0.00     0.051 A 
HETATM   22  H7  UNL     1      -3.788  50.125 -19.301  1.00  0.00     0.136 HD
ENDROOT
BRANCH  13  23
HETATM   23  C14 UNL     1      -2.369  51.065 -26.891  1.00  0.00     0.107 C 
BRANCH  23  24
HETATM   24  C15 UNL     1      -1.169  50.265 -26.379  1.00  0.00     0.047 C 
BRANCH  24  25
HETATM   25  C16 UNL     1       0.135  50.883 -26.830  1.00  0.00    -0.058 A 
HETATM   26  C17 UNL     1       1.289  50.761 -26.042  1.00  0.00     0.007 A 
HETATM   27  C18 UNL     1       2.498  51.313 -26.469  1.00  0.00     0.001 A 
HETATM   28  C19 UNL     1       2.566  51.990 -27.687  1.00  0.00     0.000 A 
HETATM   29  C20 UNL     1       1.425  52.116 -28.478  1.00  0.00     0.001 A 
HETATM   30  C21 UNL     1       0.214  51.563 -28.054  1.00  0.00     0.007 A 
ENDBRANCH  24  25
ENDBRANCH  23  24
ENDBRANCH  13  23
BRANCH   1  31
HETATM   31  C3  UNL     1       1.107  51.066 -15.878  1.00  0.00     0.008 A 
HETATM   32  C2  UNL     1       1.505  50.526 -14.672  1.00  0.00     0.123 A 
HETATM   33  N1  UNL     1       2.582  51.256 -14.256  1.00  0.00    -0.307 N 
HETATM   34  C1  UNL     1       3.346  51.065 -13.047  1.00  0.00     0.177 C 
HETATM   35  N4  UNL     1       2.924  52.238 -15.107  1.00  0.00    -0.310 N 
HETATM   36  C28 UNL     1       2.025  52.125 -16.088  1.00  0.00     0.120 A 
ATOM     37  H4  UNL     1       3.688  52.909 -15.024  1.00  0.00     0.186 HD
ENDBRANCH   1  31
TORSDOF 4
ENDMDL
MODEL 2
REMARK minimizedAffinity -9.70765972
REMARK  4 active torsions:
REMARK  status: ('A' for Active; 'I' for Inactive)
REMARK    1  A    between atoms: C3_4  and  C4_5 
REMARK       I    between atoms: N3_16  and  C13_17 
REMARK    2  A    between atoms: C13_17  and  C14_19 
REMARK    3  A    between atoms: C14_19  and  C15_20 
REMARK    4  A    between atoms: C15_20  and  C16_21 
ROOT
HETATM    1  C4  UNL     1      -1.184  51.852 -23.714  1.00  0.00    -0.020 A 
HETATM    2  C5  UNL     1      -2.515  51.388 -23.696  1.00  0.00     0.014 A 
HETATM    3  C6  UNL     1      -2.984  50.556 -22.670  1.00  0.00     0.027 A 
HETATM    4  C7  UNL     1      -2.108  50.182 -21.663  1.00  0.00     0.048 A 
HETATM    5  N2  UNL     1      -2.463  49.311 -20.615  1.00  0.00    -0.227 NA
HETATM    6  C8  UNL     1      -3.317  49.763 -19.623  1.00  0.00     0.202 C 
HETATM    7  O1  UNL     1      -4.081  50.719 -19.698  1.00  0.00    -0.280 OA
HETATM    8  C9  UNL     1      -3.165  48.957 -18.359  1.00  0.00     0.102 C 
HETATM    9  C10 UNL     1      -2.208  49.469 -17.272  1.00  0.00     0.001 C 
HETATM   10  C11 UNL     1      -2.671  50.718 -16.524  1.00  0.00     0.025 C 
HETATM   11  C12 UNL     1      -1.951  50.805 -15.168  1.00  0.00     0.126 C 
HETATM   12  N3  UNL     1      -0.503  50.538 -15.228  1.00  0.00    -0.352 N 
HETATM   13  C13 UNL     1       0.381  50.960 -14.229  1.00  0.00     0.220 C 
HETATM   14  O2  UNL     1       1.515  50.493 -14.120  1.00  0.00    -0.273 OA
HETATM   15  C22 UNL     1      -0.048  49.439 -16.102  1.00  0.00     0.130 C 
HETATM   16  C23 UNL     1      -0.672  49.553 -17.525  1.00  0.00     0.010 C 
HETATM   17  C24 UNL     1      -0.008  50.833 -18.129  1.00  0.00     0.033 C 
HETATM   18  C25 UNL     1      -0.397  51.352 -19.502  1.00  0.00     0.176 C 
HETATM   19  O3  UNL     1      -0.029  50.417 -20.532  1.00  0.00    -0.349 OA
HETATM   20  C26 UNL     1      -0.803  50.680 -21.642  1.00  0.00     0.091 A 
HETATM   21  C27 UNL     1      -0.324  51.488 -22.666  1.00  0.00     0.051 A 
HETATM   22  H7  UNL     1      -1.639  48.862 -20.222  1.00  0.00     0.136 HD
ENDROOT
BRANCH  13  23
HETATM   23  C14 UNL     1      -0.116  52.049 -13.292  1.00  0.00     0.107 C 
BRANCH  23  24
HETATM   24  C15 UNL     1      -0.667  51.467 -11.988  1.00  0.00     0.047 C 
BRANCH  24  25
HETATM   25  C16 UNL     1      -1.779  52.326 -11.430  1.00  0.00    -0.058 A 
HETATM   26  C17 UNL     1      -1.493  53.575 -10.860  1.00  0.00     0.007 A 
HETATM   27  C18 UNL     1      -2.522  54.378 -10.364  1.00  0.00     0.001 A 
HETATM   28  C19 UNL     1      -3.845  53.941 -10.434  1.00  0.00     0.000 A 
HETATM   29  C20 UNL     1      -4.140  52.701 -10.999  1.00  0.00     0.001 A 
HETATM   30  C21 UNL     1      -3.112  51.896 -11.498  1.00  0.00     0.007 A 
ENDBRANCH  24  25
ENDBRANCH  23  24
ENDBRANCH  13  23
BRANCH   1  31
HETATM   31  C3  UNL     1      -0.724  52.699 -24.805  1.00  0.00     0.008 A 
HETATM   32  C2  UNL     1      -1.009  52.513 -26.143  1.00  0.00     0.123 A 
HETATM   33  N1  UNL     1      -0.393  53.529 -26.816  1.00  0.00    -0.307 N 
HETATM   34  C1  UNL     1      -0.407  53.762 -28.240  1.00  0.00     0.177 C 
HETATM   35  N4  UNL     1       0.276  54.375 -26.014  1.00  0.00    -0.310 N 
HETATM   36  C28 UNL     1       0.079  53.867 -24.795  1.00  0.00     0.120 A 
ATOM     37  H4  UNL     1       0.807  55.207 -26.274  1.00  0.00     0.186 HD
ENDBRANCH   1  31
TORSDOF 4
ENDMDL
MODEL 3
REMARK minimizedAffinity -9.25602627
REMARK  4 active torsions:
REMARK  status: ('A' for Active; 'I' for Inactive)
REMARK    1  A    between atoms: C3_4  and  C4_5 
REMARK       I    between atoms: N3_16  and  C13_17 
REMARK    2  A    between atoms: C13_17  and  C14_19 
REMARK    3  A    between atoms: C14_19  and  C15_20 
REMARK    4  A    between atoms: C15_20  and  C16_21 
ROOT
HETATM    1  C4  UNL     1      -1.086  51.793 -23.742  1.00  0.00    -0.020 A 
HETATM    2  C5  UNL     1      -2.369  51.209 -23.767  1.00  0.00     0.014 A 
HETATM    3  C6  UNL     1      -2.800  50.352 -22.745  1.00  0.00     0.027 A 
HETATM    4  C7  UNL     1      -1.935  50.074 -21.699  1.00  0.00     0.048 A 
HETATM    5  N2  UNL     1      -2.250  49.190 -20.650  1.00  0.00    -0.227 NA
HETATM    6  C8  UNL     1      -3.182  49.576 -19.699  1.00  0.00     0.202 C 
HETATM    7  O1  UNL     1      -4.026  50.456 -19.822  1.00  0.00    -0.280 OA
HETATM    8  C9  UNL     1      -3.007  48.805 -18.416  1.00  0.00     0.102 C 
HETATM    9  C10 UNL     1      -2.145  49.419 -17.302  1.00  0.00     0.001 C 
HETATM   10  C11 UNL     1      -2.750  50.631 -16.596  1.00  0.00     0.025 C 
HETATM   11  C12 UNL     1      -2.095  50.803 -15.215  1.00  0.00     0.126 C 
HETATM   12  N3  UNL     1      -0.627  50.669 -15.214  1.00  0.00    -0.352 N 
HETATM   13  C13 UNL     1       0.174  51.185 -14.190  1.00  0.00     0.220 C 
HETATM   14  O2  UNL     1       1.340  50.825 -14.029  1.00  0.00    -0.273 OA
HETATM   15  C22 UNL     1      -0.040  49.604 -16.050  1.00  0.00     0.130 C 
HETATM   16  C23 UNL     1      -0.614  49.639 -17.498  1.00  0.00     0.010 C 
HETATM   17  C24 UNL     1      -0.046  50.967 -18.099  1.00  0.00     0.033 C 
HETATM   18  C25 UNL     1      -0.425  51.428 -19.495  1.00  0.00     0.176 C 
HETATM   19  O3  UNL     1       0.068  50.516 -20.492  1.00  0.00    -0.349 OA
HETATM   20  C26 UNL     1      -0.682  50.691 -21.636  1.00  0.00     0.091 A 
HETATM   21  C27 UNL     1      -0.239  51.525 -22.656  1.00  0.00     0.051 A 
HETATM   22  H7  UNL     1      -1.406  48.825 -20.218  1.00  0.00     0.136 HD
ENDROOT
BRANCH  13  23
HETATM   23  C14 UNL     1      -0.458  52.237 -13.292  1.00  0.00     0.107 C 
BRANCH  23  24
HETATM   24  C15 UNL     1      -0.052  52.052 -11.828  1.00  0.00     0.047 C 
BRANCH  24  25
HETATM   25  C16 UNL     1      -0.287  53.314 -11.029  1.00  0.00    -0.058 A 
HETATM   26  C17 UNL     1      -1.588  53.799 -10.835  1.00  0.00     0.007 A 
HETATM   27  C18 UNL     1      -1.806  54.953 -10.079  1.00  0.00     0.001 A 
HETATM   28  C19 UNL     1      -0.728  55.631  -9.511  1.00  0.00     0.000 A 
HETATM   29  C20 UNL     1       0.570  55.156  -9.698  1.00  0.00     0.001 A 
HETATM   30  C21 UNL     1       0.791  54.000 -10.452  1.00  0.00     0.007 A 
ENDBRANCH  24  25
ENDBRANCH  23  24
ENDBRANCH  13  23
BRANCH   1  31
HETATM   31  C3  UNL     1      -0.662  52.663 -24.830  1.00  0.00     0.008 A 
HETATM   32  C2  UNL     1      -0.915  52.456 -26.171  1.00  0.00     0.123 A 
HETATM   33  N1  UNL     1      -0.351  53.505 -26.840  1.00  0.00    -0.307 N 
HETATM   34  C1  UNL     1      -0.358  53.732 -28.264  1.00  0.00     0.177 C 
HETATM   35  N4  UNL     1       0.252  54.393 -26.031  1.00  0.00    -0.310 N 
HETATM   36  C28 UNL     1       0.068  53.877 -24.813  1.00  0.00     0.120 A 
ATOM     37  H4  UNL     1       0.736  55.254 -26.286  1.00  0.00     0.186 HD
ENDBRANCH   1  31
TORSDOF 4
ENDMDL
MODEL 4
REMARK minimizedAffinity -9.24552917
REMARK  4 active torsions:
REMARK  status: ('A' for Active; 'I' for Inactive)
REMARK    1  A    between atoms: C3_4  and  C4_5 
REMARK       I    between atoms: N3_16  and  C13_17 
REMARK    2  A    between atoms: C13_17  and  C14_19 
REMARK    3  A    between atoms: C14_19  and  C15_20 
REMARK    4  A    between atoms: C15_20  and  C16_21 
ROOT
HETATM    1  C4  UNL     1      -0.171  49.911 -16.267  1.00  0.00    -0.020 A 
HETATM    2  C5  UNL     1      -1.499  50.109 -15.836  1.00  0.00     0.014 A 
HETATM    3  C6  UNL     1      -2.458  50.697 -16.673  1.00  0.00     0.027 A 
HETATM    4  C7  UNL     1      -2.077  51.095 -17.944  1.00  0.00     0.048 A 
HETATM    5  N2  UNL     1      -2.947  51.739 -18.844  1.00  0.00    -0.227 NA
HETATM    6  C8  UNL     1      -3.962  51.009 -19.441  1.00  0.00     0.202 C 
HETATM    7  O1  UNL     1      -4.423  49.944 -19.046  1.00  0.00    -0.280 OA
HETATM    8  C9  UNL     1      -4.426  51.658 -20.720  1.00  0.00     0.102 C 
HETATM    9  C10 UNL     1      -3.800  51.199 -22.046  1.00  0.00     0.001 C 
HETATM   10  C11 UNL     1      -4.198  49.798 -22.509  1.00  0.00     0.025 C 
HETATM   11  C12 UNL     1      -3.974  49.674 -24.025  1.00  0.00     0.126 C 
HETATM   12  N3  UNL     1      -2.688  50.215 -24.499  1.00  0.00    -0.352 N 
HETATM   13  C13 UNL     1      -2.120  49.841 -25.722  1.00  0.00     0.220 C 
HETATM   14  O2  UNL     1      -1.223  50.496 -26.253  1.00  0.00    -0.273 OA
HETATM   15  C22 UNL     1      -2.223  51.484 -23.907  1.00  0.00     0.130 C 
HETATM   16  C23 UNL     1      -2.291  51.441 -22.351  1.00  0.00     0.010 C 
HETATM   17  C24 UNL     1      -1.195  50.398 -21.952  1.00  0.00     0.033 C 
HETATM   18  C25 UNL     1      -0.975  49.998 -20.504  1.00  0.00     0.176 C 
HETATM   19  O3  UNL     1      -0.501  51.112 -19.727  1.00  0.00    -0.349 OA
HETATM   20  C26 UNL     1      -0.778  50.854 -18.401  1.00  0.00     0.091 A 
HETATM   21  C27 UNL     1       0.183  50.291 -17.570  1.00  0.00     0.051 A 
HETATM   22  H7  UNL     1      -2.425  52.281 -19.529  1.00  0.00     0.136 HD
ENDROOT
BRANCH  13  23
HETATM   23  C14 UNL     1      -2.648  48.565 -26.359  1.00  0.00     0.107 C 
BRANCH  23  24
HETATM   24  C15 UNL     1      -3.420  48.852 -27.649  1.00  0.00     0.047 C 
BRANCH  24  25
HETATM   25  C16 UNL     1      -4.802  48.243 -27.609  1.00  0.00    -0.058 A 
HETATM   26  C17 UNL     1      -5.431  47.830 -28.792  1.00  0.00     0.007 A 
HETATM   27  C18 UNL     1      -6.699  47.247 -28.753  1.00  0.00     0.001 A 
HETATM   28  C19 UNL     1      -7.350  47.071 -27.531  1.00  0.00     0.000 A 
HETATM   29  C20 UNL     1      -6.733  47.477 -26.349  1.00  0.00     0.001 A 
HETATM   30  C21 UNL     1      -5.463  48.059 -26.385  1.00  0.00     0.007 A 
ENDBRANCH  24  25
ENDBRANCH  23  24
ENDBRANCH  13  23
BRANCH   1  31
HETATM   31  C3  UNL     1       0.805  49.316 -15.365  1.00  0.00     0.008 A 
HETATM   32  C2  UNL     1       1.726  50.008 -14.606  1.00  0.00     0.123 A 
HETATM   33  N1  UNL     1       2.433  49.074 -13.904  1.00  0.00    -0.307 N 
HETATM   34  C1  UNL     1       3.505  49.316 -12.970  1.00  0.00     0.177 C 
HETATM   35  N4  UNL     1       2.038  47.812 -14.146  1.00  0.00    -0.310 N 
HETATM   36  C28 UNL     1       1.055  47.960 -15.036  1.00  0.00     0.120 A 
ATOM     37  H4  UNL     1       2.403  46.948 -13.745  1.00  0.00     0.186 HD
ENDBRANCH   1  31
TORSDOF 4
ENDMDL
MODEL 5
REMARK minimizedAffinity -8.94879913
REMARK  4 active torsions:
REMARK  status: ('A' for Active; 'I' for Inactive)
REMARK    1  A    between atoms: C3_4  and  C4_5 
REMARK       I    between atoms: N3_16  and  C13_17 
REMARK    2  A    between atoms: C13_17  and  C14_19 
REMARK    3  A    between atoms: C14_19  and  C15_20 
REMARK    4  A    between atoms: C15_20  and  C16_21 
ROOT
HETATM    1  C4  UNL     1      -1.864  51.320 -21.041  1.00  0.00    -0.020 A 
HETATM    2  C5  UNL     1      -3.169  51.203 -20.519  1.00  0.00     0.014 A 
HETATM    3  C6  UNL     1      -3.401  50.638 -19.257  1.00  0.00     0.027 A 
HETATM    4  C7  UNL     1      -2.318  50.182 -18.522  1.00  0.00     0.048 A 
HETATM    5  N2  UNL     1      -2.446  49.555 -17.268  1.00  0.00    -0.227 NA
HETATM    6  C8  UNL     1      -2.798  50.317 -16.166  1.00  0.00     0.202 C 
HETATM    7  O1  UNL     1      -3.342  51.415 -16.182  1.00  0.00    -0.280 OA
HETATM    8  C9  UNL     1      -2.373  49.652 -14.881  1.00  0.00     0.102 C 
HETATM    9  C10 UNL     1      -1.017  50.038 -14.269  1.00  0.00     0.001 C 
HETATM   10  C11 UNL     1      -0.943  51.442 -13.670  1.00  0.00     0.025 C 
HETATM   11  C12 UNL     1       0.207  51.508 -12.652  1.00  0.00     0.126 C 
HETATM   12  N3  UNL     1       1.464  50.889 -13.108  1.00  0.00    -0.352 N 
HETATM   13  C13 UNL     1       2.703  51.196 -12.537  1.00  0.00     0.220 C 
HETATM   14  O2  UNL     1       3.692  50.480 -12.699  1.00  0.00    -0.273 OA
HETATM   15  C22 UNL     1       1.366  49.617 -13.849  1.00  0.00     0.130 C 
HETATM   16  C23 UNL     1       0.320  49.711 -15.000  1.00  0.00     0.010 C 
HETATM   17  C24 UNL     1       0.964  50.709 -16.018  1.00  0.00     0.033 C 
HETATM   18  C25 UNL     1       0.229  51.142 -17.273  1.00  0.00     0.176 C 
HETATM   19  O3  UNL     1       0.029  50.030 -18.165  1.00  0.00    -0.349 OA
HETATM   20  C26 UNL     1      -1.017  50.343 -19.006  1.00  0.00     0.091 A 
HETATM   21  C27 UNL     1      -0.780  50.882 -20.265  1.00  0.00     0.051 A 
HETATM   22  H7  UNL     1      -1.639  48.967 -17.073  1.00  0.00     0.136 HD
ENDROOT
BRANCH  13  23
HETATM   23  C14 UNL     1       2.782  52.476 -11.720  1.00  0.00     0.107 C 
BRANCH  23  24
HETATM   24  C15 UNL     1       3.226  52.205 -10.281  1.00  0.00     0.047 C 
BRANCH  24  25
HETATM   25  C16 UNL     1       4.453  53.012  -9.924  1.00  0.00    -0.058 A 
HETATM   26  C17 UNL     1       4.468  54.402 -10.108  1.00  0.00     0.007 A 
HETATM   27  C18 UNL     1       5.594  55.150  -9.759  1.00  0.00     0.001 A 
HETATM   28  C19 UNL     1       6.714  54.517  -9.221  1.00  0.00     0.000 A 
HETATM   29  C20 UNL     1       6.710  53.135  -9.033  1.00  0.00     0.001 A 
HETATM   30  C21 UNL     1       5.584  52.384  -9.380  1.00  0.00     0.007 A 
ENDBRANCH  24  25
ENDBRANCH  23  24
ENDBRANCH  13  23
BRANCH   1  31
HETATM   31  C3  UNL     1      -1.660  51.893 -22.364  1.00  0.00     0.008 A 
HETATM   32  C2  UNL     1      -0.436  52.126 -22.959  1.00  0.00     0.123 A 
HETATM   33  N1  UNL     1      -0.698  52.660 -24.189  1.00  0.00    -0.307 N 
HETATM   34  C1  UNL     1       0.266  53.065 -25.183  1.00  0.00     0.177 C 
HETATM   35  N4  UNL     1      -2.010  52.791 -24.448  1.00  0.00    -0.310 N 
HETATM   36  C28 UNL     1      -2.592  52.331 -23.337  1.00  0.00     0.120 A 
ATOM     37  H4  UNL     1      -2.455  53.155 -25.290  1.00  0.00     0.186 HD
ENDBRANCH   1  31
TORSDOF 4
ENDMDL
MODEL 6
REMARK minimizedAffinity -8.87370396
REMARK  4 active torsions:
REMARK  status: ('A' for Active; 'I' for Inactive)
REMARK    1  A    between atoms: C3_4  and  C4_5 
REMARK       I    between atoms: N3_16  and  C13_17 
REMARK    2  A    between atoms: C13_17  and  C14_19 
REMARK    3  A    between atoms: C14_19  and  C15_20 
REMARK    4  A    between atoms: C15_20  and  C16_21 
ROOT
HETATM    1  C4  UNL     1      -7.594  47.743 -30.000  1.00  0.00    -0.020 A 
HETATM    2  C5  UNL     1      -8.922  48.006 -29.607  1.00  0.00     0.014 A 
HETATM    3  C6  UNL     1      -9.316  47.917 -28.264  1.00  0.00     0.027 A 
HETATM    4  C7  UNL     1      -8.374  47.554 -27.316  1.00  0.00     0.048 A 
HETATM    5  N2  UNL     1      -8.676  47.388 -25.951  1.00  0.00    -0.227 NA
HETATM    6  C8  UNL     1      -8.937  48.507 -25.177  1.00  0.00     0.202 C 
HETATM    7  O1  UNL     1      -9.269  49.614 -25.584  1.00  0.00    -0.280 OA
HETATM    8  C9  UNL     1      -8.705  48.228 -23.714  1.00  0.00     0.102 C 
HETATM    9  C10 UNL     1      -7.334  48.570 -23.110  1.00  0.00     0.001 C 
HETATM   10  C11 UNL     1      -7.034  50.061 -22.964  1.00  0.00     0.025 C 
HETATM   11  C12 UNL     1      -5.943  50.265 -21.899  1.00  0.00     0.126 C 
HETATM   12  N3  UNL     1      -4.800  49.342 -22.010  1.00  0.00    -0.352 N 
HETATM   13  C13 UNL     1      -3.555  49.615 -21.434  1.00  0.00     0.220 C 
HETATM   14  O2  UNL     1      -2.707  48.738 -21.265  1.00  0.00    -0.273 OA
HETATM   15  C22 UNL     1      -5.092  47.932 -22.334  1.00  0.00     0.130 C 
HETATM   16  C23 UNL     1      -6.045  47.820 -23.562  1.00  0.00     0.010 C 
HETATM   17  C24 UNL     1      -5.179  48.326 -24.762  1.00  0.00     0.033 C 
HETATM   18  C25 UNL     1      -5.759  48.447 -26.160  1.00  0.00     0.176 C 
HETATM   19  O3  UNL     1      -6.115  47.155 -26.685  1.00  0.00    -0.349 OA
HETATM   20  C26 UNL     1      -7.043  47.345 -27.687  1.00  0.00     0.091 A 
HETATM   21  C27 UNL     1      -6.649  47.410 -29.018  1.00  0.00     0.051 A 
HETATM   22  H7  UNL     1      -8.001  46.773 -25.502  1.00  0.00     0.136 HD
ENDROOT
BRANCH  13  23
HETATM   23  C14 UNL     1      -3.284  51.059 -21.043  1.00  0.00     0.107 C 
BRANCH  23  24
HETATM   24  C15 UNL     1      -2.193  51.164 -19.975  1.00  0.00     0.047 C 
BRANCH  24  25
HETATM   25  C16 UNL     1      -0.980  51.898 -20.499  1.00  0.00    -0.058 A 
HETATM   26  C17 UNL     1      -0.657  51.852 -21.863  1.00  0.00     0.007 A 
HETATM   27  C18 UNL     1       0.451  52.548 -22.351  1.00  0.00     0.001 A 
HETATM   28  C19 UNL     1       1.244  53.297 -21.482  1.00  0.00     0.000 A 
HETATM   29  C20 UNL     1       0.931  53.350 -20.124  1.00  0.00     0.001 A 
HETATM   30  C21 UNL     1      -0.178  52.656 -19.633  1.00  0.00     0.007 A 
ENDBRANCH  24  25
ENDBRANCH  23  24
ENDBRANCH  13  23
BRANCH   1  31
HETATM   31  C3  UNL     1      -7.223  47.825 -31.405  1.00  0.00     0.008 A 
HETATM   32  C2  UNL     1      -5.933  47.819 -31.898  1.00  0.00     0.123 A 
HETATM   33  N1  UNL     1      -6.036  47.904 -33.258  1.00  0.00    -0.307 N 
HETATM   34  C1  UNL     1      -4.954  47.927 -34.211  1.00  0.00     0.177 C 
HETATM   35  N4  UNL     1      -7.306  47.960 -33.696  1.00  0.00    -0.310 N 
HETATM   36  C28 UNL     1      -8.024  47.918 -32.571  1.00  0.00     0.120 A 
ATOM     37  H4  UNL     1      -7.640  48.021 -34.657  1.00  0.00     0.186 HD
ENDBRANCH   1  31
TORSDOF 4
ENDMDL
MODEL 7
REMARK minimizedAffinity -8.8576746
REMARK  4 active torsions:
REMARK  status: ('A' for Active; 'I' for Inactive)
REMARK    1  A    between atoms: C3_4  and  C4_5 
REMARK       I    between atoms: N3_16  and  C13_17 
REMARK    2  A    between atoms: C13_17  and  C14_19 
REMARK    3  A    between atoms: C14_19  and  C15_20 
REMARK    4  A    between atoms: C15_20  and  C16_21 
ROOT
HETATM    1  C4  UNL     1     -11.433  47.303 -38.003  1.00  0.00    -0.020 A 
HETATM    2  C5  UNL     1     -12.516  46.744 -37.296  1.00  0.00     0.014 A 
HETATM    3  C6  UNL     1     -12.313  45.957 -36.153  1.00  0.00     0.027 A 
HETATM    4  C7  UNL     1     -11.016  45.726 -35.726  1.00  0.00     0.048 A 
HETATM    5  N2  UNL     1     -10.700  44.911 -34.622  1.00  0.00    -0.227 NA
HETATM    6  C8  UNL     1     -10.976  45.370 -33.344  1.00  0.00     0.202 C 
HETATM    7  O1  UNL     1     -11.766  46.257 -33.044  1.00  0.00    -0.280 OA
HETATM    8  C9  UNL     1     -10.123  44.673 -32.315  1.00  0.00     0.102 C 
HETATM    9  C10 UNL     1      -8.805  45.335 -31.883  1.00  0.00     0.001 C 
HETATM   10  C11 UNL     1      -8.952  46.598 -31.036  1.00  0.00     0.025 C 
HETATM   11  C12 UNL     1      -7.657  46.839 -30.242  1.00  0.00     0.126 C 
HETATM   12  N3  UNL     1      -6.420  46.677 -31.026  1.00  0.00    -0.352 N 
HETATM   13  C13 UNL     1      -5.201  47.238 -30.630  1.00  0.00     0.220 C 
HETATM   14  O2  UNL     1      -4.127  46.866 -31.103  1.00  0.00    -0.273 OA
HETATM   15  C22 UNL     1      -6.361  45.554 -31.981  1.00  0.00     0.130 C 
HETATM   16  C23 UNL     1      -7.627  45.514 -32.888  1.00  0.00     0.010 C 
HETATM   17  C24 UNL     1      -7.495  46.793 -33.779  1.00  0.00     0.033 C 
HETATM   18  C25 UNL     1      -8.576  47.178 -34.773  1.00  0.00     0.176 C 
HETATM   19  O3  UNL     1      -8.686  46.199 -35.822  1.00  0.00    -0.349 OA
HETATM   20  C26 UNL     1      -9.937  46.320 -36.388  1.00  0.00     0.091 A 
HETATM   21  C27 UNL     1     -10.129  47.084 -37.533  1.00  0.00     0.051 A 
HETATM   22  H7  UNL     1      -9.750  44.556 -34.694  1.00  0.00     0.136 HD
ENDROOT
BRANCH  13  23
HETATM   23  C14 UNL     1      -5.264  48.352 -29.598  1.00  0.00     0.107 C 
BRANCH  23  24
HETATM   24  C15 UNL     1      -5.806  47.855 -28.256  1.00  0.00     0.047 C 
BRANCH  24  25
HETATM   25  C16 UNL     1      -4.849  48.166 -27.128  1.00  0.00    -0.058 A 
HETATM   26  C17 UNL     1      -3.491  48.395 -27.391  1.00  0.00     0.007 A 
HETATM   27  C18 UNL     1      -2.612  48.704 -26.352  1.00  0.00     0.001 A 
HETATM   28  C19 UNL     1      -3.081  48.789 -25.041  1.00  0.00     0.000 A 
HETATM   29  C20 UNL     1      -4.430  48.564 -24.769  1.00  0.00     0.001 A 
HETATM   30  C21 UNL     1      -5.313  48.257 -25.807  1.00  0.00     0.007 A 
ENDBRANCH  24  25
ENDBRANCH  23  24
ENDBRANCH  13  23
BRANCH   1  31
HETATM   31  C3  UNL     1     -11.677  48.099 -39.198  1.00  0.00     0.008 A 
HETATM   32  C2  UNL     1     -10.923  48.068 -40.354  1.00  0.00     0.123 A 
HETATM   33  N1  UNL     1     -11.500  48.955 -41.218  1.00  0.00    -0.307 N 
HETATM   34  C1  UNL     1     -11.068  49.267 -42.558  1.00  0.00     0.177 C 
HETATM   35  N4  UNL     1     -12.585  49.566 -40.713  1.00  0.00    -0.310 N 
HETATM   36  C28 UNL     1     -12.688  49.050 -39.485  1.00  0.00     0.120 A 
ATOM     37  H4  UNL     1     -13.186  50.258 -41.160  1.00  0.00     0.186 HD
ENDBRANCH   1  31
TORSDOF 4
ENDMDL
MODEL 8
REMARK minimizedAffinity -8.81711197
REMARK  4 active torsions:
REMARK  status: ('A' for Active; 'I' for Inactive)
REMARK    1  A    between atoms: C3_4  and  C4_5 
REMARK       I    between atoms: N3_16  and  C13_17 
REMARK    2  A    between atoms: C13_17  and  C14_19 
REMARK    3  A    between atoms: C14_19  and  C15_20 
REMARK    4  A    between atoms: C15_20  and  C16_21 
ROOT
HETATM    1  C4  UNL     1      -2.150  50.853 -14.589  1.00  0.00    -0.020 A 
HETATM    2  C5  UNL     1      -1.083  49.941 -14.716  1.00  0.00     0.014 A 
HETATM    3  C6  UNL     1      -0.970  49.101 -15.833  1.00  0.00     0.027 A 
HETATM    4  C7  UNL     1      -1.939  49.173 -16.821  1.00  0.00     0.048 A 
HETATM    5  N2  UNL     1      -1.948  48.341 -17.956  1.00  0.00    -0.227 NA
HETATM    6  C8  UNL     1      -1.004  48.547 -18.950  1.00  0.00     0.202 C 
HETATM    7  O1  UNL     1       0.059  49.146 -18.833  1.00  0.00    -0.280 OA
HETATM    8  C9  UNL     1      -1.464  47.981 -20.269  1.00  0.00     0.102 C 
HETATM    9  C10 UNL     1      -2.184  48.912 -21.256  1.00  0.00     0.001 C 
HETATM   10  C11 UNL     1      -1.307  49.973 -21.918  1.00  0.00     0.025 C 
HETATM   11  C12 UNL     1      -1.968  50.450 -23.221  1.00  0.00     0.126 C 
HETATM   12  N3  UNL     1      -3.412  50.725 -23.109  1.00  0.00    -0.352 N 
HETATM   13  C13 UNL     1      -4.096  51.537 -24.020  1.00  0.00     0.220 C 
HETATM   14  O2  UNL     1      -5.323  51.528 -24.110  1.00  0.00    -0.273 OA
HETATM   15  C22 UNL     1      -4.223  49.786 -22.310  1.00  0.00     0.130 C 
HETATM   16  C23 UNL     1      -3.577  49.523 -20.917  1.00  0.00     0.010 C 
HETATM   17  C24 UNL     1      -3.713  50.891 -20.171  1.00  0.00     0.033 C 
HETATM   18  C25 UNL     1      -3.137  51.094 -18.781  1.00  0.00     0.176 C 
HETATM   19  O3  UNL     1      -3.806  50.260 -17.818  1.00  0.00    -0.349 OA
HETATM   20  C26 UNL     1      -2.971  50.112 -16.731  1.00  0.00     0.091 A 
HETATM   21  C27 UNL     1      -3.101  50.934 -15.617  1.00  0.00     0.051 A 
HETATM   22  H7  UNL     1      -2.885  48.265 -18.343  1.00  0.00     0.136 HD
ENDROOT
BRANCH  13  23
HETATM   23  C14 UNL     1      -3.249  52.456 -24.886  1.00  0.00     0.107 C 
BRANCH  23  24
HETATM   24  C15 UNL     1      -3.122  51.931 -26.317  1.00  0.00     0.047 C 
BRANCH  24  25
HETATM   25  C16 UNL     1      -1.683  51.941 -26.781  1.00  0.00    -0.058 A 
HETATM   26  C17 UNL     1      -0.798  50.932 -26.373  1.00  0.00     0.007 A 
HETATM   27  C18 UNL     1       0.525  50.930 -26.818  1.00  0.00     0.001 A 
HETATM   28  C19 UNL     1       0.976  51.934 -27.674  1.00  0.00     0.000 A 
HETATM   29  C20 UNL     1       0.105  52.941 -28.086  1.00  0.00     0.001 A 
HETATM   30  C21 UNL     1      -1.221  52.945 -27.644  1.00  0.00     0.007 A 
ENDBRANCH  24  25
ENDBRANCH  23  24
ENDBRANCH  13  23
BRANCH   1  31
HETATM   31  C3  UNL     1      -2.247  51.697 -13.406  1.00  0.00     0.008 A 
HETATM   32  C2  UNL     1      -3.401  52.290 -12.934  1.00  0.00     0.123 A 
HETATM   33  N1  UNL     1      -3.051  52.981 -11.809  1.00  0.00    -0.307 N 
HETATM   34  C1  UNL     1      -3.920  53.760 -10.962  1.00  0.00     0.177 C 
HETATM   35  N4  UNL     1      -1.746  52.881 -11.504  1.00  0.00    -0.310 N 
HETATM   36  C28 UNL     1      -1.259  52.107 -12.477  1.00  0.00     0.120 A 
ATOM     37  H4  UNL     1      -1.246  53.297 -10.718  1.00  0.00     0.186 HD
ENDBRANCH   1  31
TORSDOF 4
ENDMDL
MODEL 9
REMARK minimizedAffinity -8.81327057
REMARK  4 active torsions:
REMARK  status: ('A' for Active; 'I' for Inactive)
REMARK    1  A    between atoms: C3_4  and  C4_5 
REMARK       I    between atoms: N3_16  and  C13_17 
REMARK    2  A    between atoms: C13_17  and  C14_19 
REMARK    3  A    between atoms: C14_19  and  C15_20 
REMARK    4  A    between atoms: C15_20  and  C16_21 
ROOT
HETATM    1  C4  UNL     1      -1.122  50.901 -19.714  1.00  0.00    -0.020 A 
HETATM    2  C5  UNL     1      -2.446  50.690 -19.277  1.00  0.00     0.014 A 
HETATM    3  C6  UNL     1      -2.729  50.349 -17.946  1.00  0.00     0.027 A 
HETATM    4  C7  UNL     1      -1.676  50.211 -17.056  1.00  0.00     0.048 A 
HETATM    5  N2  UNL     1      -1.847  49.824 -15.713  1.00  0.00    -0.227 NA
HETATM    6  C8  UNL     1      -2.409  50.720 -14.819  1.00  0.00     0.202 C 
HETATM    7  O1  UNL     1      -3.090  51.700 -15.099  1.00  0.00    -0.280 OA
HETATM    8  C9  UNL     1      -2.032  50.387 -13.398  1.00  0.00     0.102 C 
HETATM    9  C10 UNL     1      -0.811  51.083 -12.779  1.00  0.00     0.001 C 
HETATM   10  C11 UNL     1      -0.986  52.570 -12.476  1.00  0.00     0.025 C 
HETATM   11  C12 UNL     1       0.034  53.003 -11.410  1.00  0.00     0.126 C 
HETATM   12  N3  UNL     1       1.403  52.505 -11.636  1.00  0.00    -0.352 N 
HETATM   13  C13 UNL     1       2.525  53.099 -11.050  1.00  0.00     0.220 C 
HETATM   14  O2  UNL     1       3.612  52.524 -10.989  1.00  0.00    -0.273 OA
HETATM   15  C22 UNL     1       1.552  51.115 -12.107  1.00  0.00     0.130 C 
HETATM   16  C23 UNL     1       0.626  50.828 -13.327  1.00  0.00     0.010 C 
HETATM   17  C24 UNL     1       1.232  51.698 -14.477  1.00  0.00     0.033 C 
HETATM   18  C25 UNL     1       0.578  51.767 -15.845  1.00  0.00     0.176 C 
HETATM   19  O3  UNL     1       0.621  50.487 -16.503  1.00  0.00    -0.349 OA
HETATM   20  C26 UNL     1      -0.366  50.471 -17.466  1.00  0.00     0.091 A 
HETATM   21  C27 UNL     1      -0.075  50.789 -18.787  1.00  0.00     0.051 A 
HETATM   22  H7  UNL     1      -0.993  49.413 -15.343  1.00  0.00     0.136 HD
ENDROOT
BRANCH  13  23
HETATM   23  C14 UNL     1       2.348  54.509 -10.509  1.00  0.00     0.107 C 
BRANCH  23  24
HETATM   24  C15 UNL     1       3.526  55.413 -10.881  1.00  0.00     0.047 C 
BRANCH  24  25
HETATM   25  C16 UNL     1       4.456  55.615  -9.707  1.00  0.00    -0.058 A 
HETATM   26  C17 UNL     1       5.743  55.058  -9.716  1.00  0.00     0.007 A 
HETATM   27  C18 UNL     1       6.610  55.263  -8.641  1.00  0.00     0.001 A 
HETATM   28  C19 UNL     1       6.200  56.026  -7.548  1.00  0.00     0.000 A 
HETATM   29  C20 UNL     1       4.922  56.584  -7.529  1.00  0.00     0.001 A 
HETATM   30  C21 UNL     1       4.053  56.383  -8.604  1.00  0.00     0.007 A 
ENDBRANCH  24  25
ENDBRANCH  23  24
ENDBRANCH  13  23
BRANCH   1  31
HETATM   31  C3  UNL     1      -0.862  51.234 -21.107  1.00  0.00     0.008 A 
HETATM   32  C2  UNL     1      -0.115  52.307 -21.551  1.00  0.00     0.123 A 
HETATM   33  N1  UNL     1      -0.117  52.244 -22.916  1.00  0.00    -0.307 N 
HETATM   34  C1  UNL     1       0.535  53.150 -23.828  1.00  0.00     0.177 C 
HETATM   35  N4  UNL     1      -0.811  51.201 -23.402  1.00  0.00    -0.310 N 
HETATM   36  C28 UNL     1      -1.267  50.593 -22.304  1.00  0.00     0.120 A 
ATOM     37  H4  UNL     1      -0.955  50.936 -24.377  1.00  0.00     0.186 HD
ENDBRANCH   1  31
TORSDOF 4
ENDMDL
