MODEL 1
REMARK minimizedAffinity -8.2869339
REMARK  6 active torsions:
REMARK  status: ('A' for Active; 'I' for Inactive)
REMARK    1  A    between atoms: C9_10  and  C10_11 
REMARK    2  A    between atoms: C11_13  and  O3_14 
REMARK    3  A    between atoms: C12_15  and  C13_16 
REMARK    4  A    between atoms: C14_18  and  O5_19 
REMARK    5  A    between atoms: C16_21  and  C17_22 
REMARK    6  A    between atoms: C17_22  and  C18_23 
ROOT
HETATM    1  C1  UNL     1      -3.233  51.682 -26.009  1.00  0.00     0.043 C 
HETATM    2  C2  UNL     1      -2.029  50.867 -25.635  1.00  0.00    -0.087 C 
HETATM    3  C3  UNL     1      -2.044  49.543 -25.387  1.00  0.00    -0.024 C 
HETATM    4  C4  UNL     1      -3.211  48.618 -25.253  1.00  0.00     0.030 C 
HETATM    5  C5  UNL     1      -3.960  48.637 -23.904  1.00  0.00     0.042 C 
HETATM    6  C6  UNL     1      -3.192  48.852 -22.551  1.00  0.00     0.069 C 
HETATM    7  C7  UNL     1      -1.963  47.916 -22.470  1.00  0.00     0.047 C 
HETATM    8  O1  UNL     1      -4.117  48.302 -21.556  1.00  0.00    -0.338 OA
HETATM    9  C8  UNL     1      -3.766  48.585 -20.263  1.00  0.00     0.095 A 
HETATM   10  C9  UNL     1      -3.780  47.580 -19.291  1.00  0.00     0.070 A 
HETATM   11  C11 UNL     1      -3.467  47.894 -17.960  1.00  0.00     0.097 A 
HETATM   12  C12 UNL     1      -3.181  49.219 -17.608  1.00  0.00     0.069 A 
HETATM   13  C14 UNL     1      -3.209  50.225 -18.589  1.00  0.00     0.091 A 
HETATM   14  C15 UNL     1      -3.481  49.909 -19.925  1.00  0.00     0.015 A 
HETATM   15  C16 UNL     1      -3.627  50.945 -21.020  1.00  0.00     0.032 C 
HETATM   16  C21 UNL     1      -2.929  50.415 -22.304  1.00  0.00     0.034 C 
HETATM   17  C22 UNL     1      -1.461  50.835 -22.530  1.00  0.00     0.006 A 
HETATM   18  C23 UNL     1      -1.271  52.278 -22.996  1.00  0.00    -0.001 A 
HETATM   19  C24 UNL     1      -0.690  52.666 -24.336  1.00  0.00     0.010 C 
HETATM   20  C25 UNL     1      -0.720  51.623 -25.467  1.00  0.00     0.034 C 
HETATM   21  C26 UNL     1      -0.450  51.757 -21.828  1.00  0.00    -0.039 A 
HETATM   22  C27 UNL     1      -0.677  52.373 -20.474  1.00  0.00     0.015 C 
HETATM   23  C28 UNL     1       1.009  51.400 -22.043  1.00  0.00     0.015 C 
ENDROOT
BRANCH  15  24
HETATM   24  C17 UNL     1      -5.157  51.211 -21.203  1.00  0.00     0.014 C 
BRANCH  24  25
HETATM   25  C18 UNL     1      -6.118  50.002 -21.157  1.00  0.00    -0.022 C 
HETATM   26  C19 UNL     1      -7.007  49.883 -22.387  1.00  0.00     0.009 C 
HETATM   27  C20 UNL     1      -6.951  49.951 -19.876  1.00  0.00     0.009 C 
ENDBRANCH  24  25
ENDBRANCH  15  24
BRANCH  13  28
HETATM   28  O5  UNL     1      -3.008  51.546 -18.278  1.00  0.00    -0.359 OA
HETATM   29  H15 UNL     1      -2.823  51.615 -17.313  1.00  0.00     0.217 HD
ENDBRANCH  13  28
BRANCH  10  30
HETATM   30  C10 UNL     1      -4.119  46.199 -19.683  1.00  0.00     0.275 C 
HETATM   31  O2  UNL     1      -3.500  45.643 -20.588  1.00  0.00    -0.301 OA
ENDBRANCH  10  30
BRANCH  12  32
HETATM   32  C13 UNL     1      -2.878  49.549 -16.201  1.00  0.00     0.275 C 
HETATM   33  O4  UNL     1      -3.271  50.606 -15.711  1.00  0.00    -0.301 OA
ENDBRANCH  12  32
BRANCH  11  34
HETATM   34  O3  UNL     1      -3.446  46.934 -16.979  1.00  0.00    -0.359 OA
HETATM   35  H13 UNL     1      -3.678  46.064 -17.382  1.00  0.00     0.217 HD
ENDBRANCH  11  34
TORSDOF 6
ENDMDL
MODEL 2
REMARK minimizedAffinity -7.71729183
REMARK  6 active torsions:
REMARK  status: ('A' for Active; 'I' for Inactive)
REMARK    1  A    between atoms: C9_10  and  C10_11 
REMARK    2  A    between atoms: C11_13  and  O3_14 
REMARK    3  A    between atoms: C12_15  and  C13_16 
REMARK    4  A    between atoms: C14_18  and  O5_19 
REMARK    5  A    between atoms: C16_21  and  C17_22 
REMARK    6  A    between atoms: C17_22  and  C18_23 
ROOT
HETATM    1  C1  UNL     1      -0.089  50.149 -18.943  1.00  0.00     0.043 C 
HETATM    2  C2  UNL     1      -0.812  51.351 -19.477  1.00  0.00    -0.087 C 
HETATM    3  C3  UNL     1      -2.135  51.572 -19.349  1.00  0.00    -0.024 C 
HETATM    4  C4  UNL     1      -3.200  50.661 -18.830  1.00  0.00     0.030 C 
HETATM    5  C5  UNL     1      -3.718  49.576 -19.798  1.00  0.00     0.042 C 
HETATM    6  C6  UNL     1      -3.849  49.857 -21.338  1.00  0.00     0.069 C 
HETATM    7  C7  UNL     1      -4.588  51.193 -21.585  1.00  0.00     0.047 C 
HETATM    8  O1  UNL     1      -4.809  48.840 -21.777  1.00  0.00    -0.338 OA
HETATM    9  C8  UNL     1      -4.914  48.734 -23.139  1.00  0.00     0.095 A 
HETATM   10  C9  UNL     1      -6.171  48.676 -23.748  1.00  0.00     0.070 A 
HETATM   11  C11 UNL     1      -6.264  48.517 -25.139  1.00  0.00     0.097 A 
HETATM   12  C12 UNL     1      -5.098  48.378 -25.901  1.00  0.00     0.069 A 
HETATM   13  C14 UNL     1      -3.842  48.399 -25.269  1.00  0.00     0.091 A 
HETATM   14  C15 UNL     1      -3.744  48.598 -23.887  1.00  0.00     0.015 A 
HETATM   15  C16 UNL     1      -2.440  48.535 -23.120  1.00  0.00     0.032 C 
HETATM   16  C21 UNL     1      -2.429  49.671 -22.060  1.00  0.00     0.034 C 
HETATM   17  C22 UNL     1      -1.766  51.005 -22.466  1.00  0.00     0.006 A 
HETATM   18  C23 UNL     1      -0.239  50.981 -22.488  1.00  0.00    -0.001 A 
HETATM   19  C24 UNL     1       0.634  51.814 -21.578  1.00  0.00     0.010 C 
HETATM   20  C25 UNL     1       0.017  52.348 -20.272  1.00  0.00     0.034 C 
HETATM   21  C26 UNL     1      -0.994  51.534 -23.686  1.00  0.00    -0.039 A 
HETATM   22  C27 UNL     1      -0.884  50.796 -24.992  1.00  0.00     0.015 C 
HETATM   23  C28 UNL     1      -1.064  53.036 -23.895  1.00  0.00     0.015 C 
ENDROOT
BRANCH  15  24
HETATM   24  C17 UNL     1      -2.336  47.101 -22.504  1.00  0.00     0.014 C 
BRANCH  24  25
HETATM   25  C18 UNL     1      -1.663  46.949 -21.123  1.00  0.00    -0.022 C 
HETATM   26  C19 UNL     1      -2.635  47.056 -19.956  1.00  0.00     0.009 C 
HETATM   27  C20 UNL     1      -0.476  47.892 -20.930  1.00  0.00     0.009 C 
ENDBRANCH  24  25
ENDBRANCH  15  24
BRANCH  13  28
HETATM   28  O5  UNL     1      -2.678  48.193 -25.965  1.00  0.00    -0.359 OA
HETATM   29  H15 UNL     1      -2.899  48.075 -26.917  1.00  0.00     0.217 HD
ENDBRANCH  13  28
BRANCH  10  30
HETATM   30  C10 UNL     1      -7.384  48.790 -22.917  1.00  0.00     0.275 C 
HETATM   31  O2  UNL     1      -7.969  49.867 -22.820  1.00  0.00    -0.301 OA
ENDBRANCH  10  30
BRANCH  12  32
HETATM   32  C13 UNL     1      -5.201  48.185 -27.362  1.00  0.00     0.275 C 
HETATM   33  O4  UNL     1      -4.269  48.501 -28.099  1.00  0.00    -0.301 OA
ENDBRANCH  12  32
BRANCH  11  34
HETATM   34  O3  UNL     1      -7.477  48.479 -25.780  1.00  0.00    -0.359 OA
HETATM   35  H13 UNL     1      -8.193  48.578 -25.109  1.00  0.00     0.217 HD
ENDBRANCH  11  34
TORSDOF 6
ENDMDL
MODEL 3
REMARK minimizedAffinity -7.16926527
REMARK  6 active torsions:
REMARK  status: ('A' for Active; 'I' for Inactive)
REMARK    1  A    between atoms: C9_10  and  C10_11 
REMARK    2  A    between atoms: C11_13  and  O3_14 
REMARK    3  A    between atoms: C12_15  and  C13_16 
REMARK    4  A    between atoms: C14_18  and  O5_19 
REMARK    5  A    between atoms: C16_21  and  C17_22 
REMARK    6  A    between atoms: C17_22  and  C18_23 
ROOT
HETATM    1  C1  UNL     1       5.501  69.100 -41.177  1.00  0.00     0.043 C 
HETATM    2  C2  UNL     1       4.591  69.815 -40.221  1.00  0.00    -0.087 C 
HETATM    3  C3  UNL     1       5.006  70.547 -39.168  1.00  0.00    -0.024 C 
HETATM    4  C4  UNL     1       6.380  70.695 -38.600  1.00  0.00     0.030 C 
HETATM    5  C5  UNL     1       6.884  69.550 -37.696  1.00  0.00     0.042 C 
HETATM    6  C6  UNL     1       5.906  68.780 -36.739  1.00  0.00     0.069 C 
HETATM    7  C7  UNL     1       5.055  69.776 -35.918  1.00  0.00     0.047 C 
HETATM    8  O1  UNL     1       6.812  68.192 -35.747  1.00  0.00    -0.338 OA
HETATM    9  C8  UNL     1       6.209  67.275 -34.927  1.00  0.00     0.095 A 
HETATM   10  C9  UNL     1       6.416  67.319 -33.545  1.00  0.00     0.070 A 
HETATM   11  C11 UNL     1       5.834  66.343 -32.723  1.00  0.00     0.097 A 
HETATM   12  C12 UNL     1       5.082  65.310 -33.296  1.00  0.00     0.069 A 
HETATM   13  C14 UNL     1       4.915  65.258 -34.691  1.00  0.00     0.091 A 
HETATM   14  C15 UNL     1       5.460  66.252 -35.511  1.00  0.00     0.015 A 
HETATM   15  C16 UNL     1       5.410  66.214 -37.024  1.00  0.00     0.032 C 
HETATM   16  C21 UNL     1       5.113  67.646 -37.550  1.00  0.00     0.034 C 
HETATM   17  C22 UNL     1       3.636  68.003 -37.819  1.00  0.00     0.006 A 
HETATM   18  C23 UNL     1       3.050  67.391 -39.090  1.00  0.00    -0.001 A 
HETATM   19  C24 UNL     1       2.567  68.197 -40.274  1.00  0.00     0.010 C 
HETATM   20  C25 UNL     1       3.097  69.633 -40.436  1.00  0.00     0.034 C 
HETATM   21  C26 UNL     1       2.289  67.259 -37.781  1.00  0.00    -0.039 A 
HETATM   22  C27 UNL     1       2.109  65.882 -37.204  1.00  0.00     0.015 C 
HETATM   23  C28 UNL     1       1.074  68.134 -37.533  1.00  0.00     0.015 C 
ENDROOT
BRANCH  15  24
HETATM   24  C17 UNL     1       6.778  65.637 -37.517  1.00  0.00     0.014 C 
BRANCH  24  25
HETATM   25  C18 UNL     1       7.861  65.327 -36.461  1.00  0.00    -0.022 C 
HETATM   26  C19 UNL     1       9.228  65.905 -36.803  1.00  0.00     0.009 C 
HETATM   27  C20 UNL     1       7.967  63.838 -36.133  1.00  0.00     0.009 C 
ENDBRANCH  24  25
ENDBRANCH  15  24
BRANCH  13  28
HETATM   28  O5  UNL     1       4.250  64.226 -35.302  1.00  0.00    -0.359 OA
HETATM   29  H15 UNL     1       3.919  63.611 -34.607  1.00  0.00     0.217 HD
ENDBRANCH  13  28
BRANCH  10  30
HETATM   30  C10 UNL     1       7.241  68.398 -32.971  1.00  0.00     0.275 C 
HETATM   31  O2  UNL     1       7.907  68.196 -31.957  1.00  0.00    -0.301 OA
ENDBRANCH  10  30
BRANCH  12  32
HETATM   32  C13 UNL     1       4.492  64.270 -32.429  1.00  0.00     0.275 C 
HETATM   33  O4  UNL     1       3.753  64.583 -31.497  1.00  0.00    -0.301 OA
ENDBRANCH  12  32
BRANCH  11  34
HETATM   34  O3  UNL     1       5.992  66.362 -31.359  1.00  0.00    -0.359 OA
HETATM   35  H13 UNL     1       6.551  67.137 -31.116  1.00  0.00     0.217 HD
ENDBRANCH  11  34
TORSDOF 6
ENDMDL
MODEL 4
REMARK minimizedAffinity -6.9715538
REMARK  6 active torsions:
REMARK  status: ('A' for Active; 'I' for Inactive)
REMARK    1  A    between atoms: C9_10  and  C10_11 
REMARK    2  A    between atoms: C11_13  and  O3_14 
REMARK    3  A    between atoms: C12_15  and  C13_16 
REMARK    4  A    between atoms: C14_18  and  O5_19 
REMARK    5  A    between atoms: C16_21  and  C17_22 
REMARK    6  A    between atoms: C17_22  and  C18_23 
ROOT
HETATM    1  C1  UNL     1      -4.117  51.594 -24.747  1.00  0.00     0.043 C 
HETATM    2  C2  UNL     1      -2.830  50.853 -24.525  1.00  0.00    -0.087 C 
HETATM    3  C3  UNL     1      -2.696  49.513 -24.578  1.00  0.00    -0.024 C 
HETATM    4  C4  UNL     1      -3.750  48.460 -24.691  1.00  0.00     0.030 C 
HETATM    5  C5  UNL     1      -4.506  48.092 -23.397  1.00  0.00     0.042 C 
HETATM    6  C6  UNL     1      -3.778  48.082 -22.006  1.00  0.00     0.069 C 
HETATM    7  C7  UNL     1      -2.451  47.292 -22.094  1.00  0.00     0.047 C 
HETATM    8  O1  UNL     1      -4.642  47.224 -21.189  1.00  0.00    -0.338 OA
HETATM    9  C8  UNL     1      -4.335  47.245 -19.854  1.00  0.00     0.095 A 
HETATM   10  C9  UNL     1      -4.241  46.052 -19.132  1.00  0.00     0.070 A 
HETATM   11  C11 UNL     1      -3.977  46.092 -17.755  1.00  0.00     0.097 A 
HETATM   12  C12 UNL     1      -3.847  47.327 -17.107  1.00  0.00     0.069 A 
HETATM   13  C14 UNL     1      -3.982  48.518 -17.841  1.00  0.00     0.091 A 
HETATM   14  C15 UNL     1      -4.206  48.483 -19.222  1.00  0.00     0.015 A 
HETATM   15  C16 UNL     1      -4.462  49.716 -20.063  1.00  0.00     0.032 C 
HETATM   16  C21 UNL     1      -3.698  49.568 -21.409  1.00  0.00     0.034 C 
HETATM   17  C22 UNL     1      -2.286  50.187 -21.487  1.00  0.00     0.006 A 
HETATM   18  C23 UNL     1      -2.259  51.709 -21.614  1.00  0.00    -0.001 A 
HETATM   19  C24 UNL     1      -1.716  52.450 -22.814  1.00  0.00     0.010 C 
HETATM   20  C25 UNL     1      -1.618  51.691 -24.149  1.00  0.00     0.034 C 
HETATM   21  C26 UNL     1      -1.392  51.033 -20.565  1.00  0.00    -0.039 A 
HETATM   22  C27 UNL     1      -1.699  51.300 -19.116  1.00  0.00     0.015 C 
HETATM   23  C28 UNL     1       0.100  50.896 -20.805  1.00  0.00     0.015 C 
ENDROOT
BRANCH  15  24
HETATM   24  C17 UNL     1      -6.011  49.846 -20.233  1.00  0.00     0.014 C 
BRANCH  24  25
HETATM   25  C18 UNL     1      -6.901  48.705 -19.694  1.00  0.00    -0.022 C 
HETATM   26  C19 UNL     1      -7.882  48.160 -20.723  1.00  0.00     0.009 C 
HETATM   27  C20 UNL     1      -7.622  49.073 -18.397  1.00  0.00     0.009 C 
ENDBRANCH  24  25
ENDBRANCH  15  24
BRANCH  13  28
HETATM   28  O5  UNL     1      -3.936  49.749 -17.237  1.00  0.00    -0.359 OA
HETATM   29  H15 UNL     1      -3.768  49.620 -16.275  1.00  0.00     0.217 HD
ENDBRANCH  13  28
BRANCH  10  30
HETATM   30  C10 UNL     1      -4.417  44.766 -19.832  1.00  0.00     0.275 C 
HETATM   31  O2  UNL     1      -3.814  43.766 -19.449  1.00  0.00    -0.301 OA
ENDBRANCH  10  30
BRANCH  12  32
HETATM   32  C13 UNL     1      -3.593  47.364 -15.653  1.00  0.00     0.275 C 
HETATM   33  O4  UNL     1      -2.655  48.018 -15.201  1.00  0.00    -0.301 OA
ENDBRANCH  12  32
BRANCH  11  34
HETATM   34  O3  UNL     1      -3.853  44.944 -17.011  1.00  0.00    -0.359 OA
HETATM   35  H13 UNL     1      -3.981  44.167 -17.605  1.00  0.00     0.217 HD
ENDBRANCH  11  34
TORSDOF 6
ENDMDL
MODEL 5
REMARK minimizedAffinity -6.95357466
REMARK  6 active torsions:
REMARK  status: ('A' for Active; 'I' for Inactive)
REMARK    1  A    between atoms: C9_10  and  C10_11 
REMARK    2  A    between atoms: C11_13  and  O3_14 
REMARK    3  A    between atoms: C12_15  and  C13_16 
REMARK    4  A    between atoms: C14_18  and  O5_19 
REMARK    5  A    between atoms: C16_21  and  C17_22 
REMARK    6  A    between atoms: C17_22  and  C18_23 
ROOT
HETATM    1  C1  UNL     1     -11.022  44.836 -25.841  1.00  0.00     0.043 C 
HETATM    2  C2  UNL     1      -9.945  43.946 -26.389  1.00  0.00    -0.087 C 
HETATM    3  C3  UNL     1      -8.651  44.297 -26.520  1.00  0.00    -0.024 C 
HETATM    4  C4  UNL     1      -8.010  45.634 -26.334  1.00  0.00     0.030 C 
HETATM    5  C5  UNL     1      -8.152  46.640 -27.496  1.00  0.00     0.042 C 
HETATM    6  C6  UNL     1      -8.143  46.161 -28.991  1.00  0.00     0.069 C 
HETATM    7  C7  UNL     1      -6.952  45.209 -29.249  1.00  0.00     0.047 C 
HETATM    8  O1  UNL     1      -7.784  47.378 -29.725  1.00  0.00    -0.338 OA
HETATM    9  C8  UNL     1      -7.937  47.268 -31.081  1.00  0.00     0.095 A 
HETATM   10  C9  UNL     1      -6.929  47.710 -31.944  1.00  0.00     0.070 A 
HETATM   11  C11 UNL     1      -7.121  47.638 -33.332  1.00  0.00     0.097 A 
HETATM   12  C12 UNL     1      -8.334  47.161 -33.842  1.00  0.00     0.069 A 
HETATM   13  C14 UNL     1      -9.352  46.757 -32.962  1.00  0.00     0.091 A 
HETATM   14  C15 UNL     1      -9.151  46.789 -31.577  1.00  0.00     0.015 A 
HETATM   15  C16 UNL     1     -10.228  46.466 -30.563  1.00  0.00     0.032 C 
HETATM   16  C21 UNL     1      -9.598  45.632 -29.413  1.00  0.00     0.034 C 
HETATM   17  C22 UNL     1      -9.683  44.095 -29.531  1.00  0.00     0.006 A 
HETATM   18  C23 UNL     1     -11.059  43.505 -29.234  1.00  0.00    -0.001 A 
HETATM   19  C24 UNL     1     -11.351  42.573 -28.080  1.00  0.00     0.010 C 
HETATM   20  C25 UNL     1     -10.379  42.575 -26.886  1.00  0.00     0.034 C 
HETATM   21  C26 UNL     1     -10.329  43.091 -30.500  1.00  0.00    -0.039 A 
HETATM   22  C27 UNL     1     -10.934  43.474 -31.823  1.00  0.00     0.015 C 
HETATM   23  C28 UNL     1      -9.658  41.731 -30.564  1.00  0.00     0.015 C 
ENDROOT
BRANCH  15  24
HETATM   24  C17 UNL     1     -10.839  47.826 -30.090  1.00  0.00     0.014 C 
BRANCH  24  25
HETATM   25  C18 UNL     1     -12.075  47.787 -29.166  1.00  0.00    -0.022 C 
HETATM   26  C19 UNL     1     -11.740  47.972 -27.692  1.00  0.00     0.009 C 
HETATM   27  C20 UNL     1     -12.938  46.543 -29.375  1.00  0.00     0.009 C 
ENDBRANCH  24  25
ENDBRANCH  15  24
BRANCH  13  28
HETATM   28  O5  UNL     1     -10.582  46.352 -33.414  1.00  0.00    -0.359 OA
HETATM   29  H15 UNL     1     -10.576  46.374 -34.399  1.00  0.00     0.217 HD
ENDBRANCH  13  28
BRANCH  10  30
HETATM   30  C10 UNL     1      -5.674  48.241 -31.379  1.00  0.00     0.275 C 
HETATM   31  O2  UNL     1      -4.608  48.061 -31.963  1.00  0.00    -0.301 OA
ENDBRANCH  10  30
BRANCH  12  32
HETATM   32  C13 UNL     1      -8.540  47.111 -35.304  1.00  0.00     0.275 C 
HETATM   33  O4  UNL     1      -9.159  46.179 -35.813  1.00  0.00    -0.301 OA
ENDBRANCH  12  32
BRANCH  11  34
HETATM   34  O3  UNL     1      -6.148  48.039 -34.215  1.00  0.00    -0.359 OA
HETATM   35  H13 UNL     1      -5.367  48.356 -33.703  1.00  0.00     0.217 HD
ENDBRANCH  11  34
TORSDOF 6
ENDMDL
MODEL 6
REMARK minimizedAffinity -6.94424295
REMARK  6 active torsions:
REMARK  status: ('A' for Active; 'I' for Inactive)
REMARK    1  A    between atoms: C9_10  and  C10_11 
REMARK    2  A    between atoms: C11_13  and  O3_14 
REMARK    3  A    between atoms: C12_15  and  C13_16 
REMARK    4  A    between atoms: C14_18  and  O5_19 
REMARK    5  A    between atoms: C16_21  and  C17_22 
REMARK    6  A    between atoms: C17_22  and  C18_23 
ROOT
HETATM    1  C1  UNL     1      12.421  63.469 -12.396  1.00  0.00     0.043 C 
HETATM    2  C2  UNL     1      12.526  64.948 -12.623  1.00  0.00    -0.087 C 
HETATM    3  C3  UNL     1      12.040  65.890 -11.790  1.00  0.00    -0.024 C 
HETATM    4  C4  UNL     1      11.171  65.730 -10.585  1.00  0.00     0.030 C 
HETATM    5  C5  UNL     1       9.664  65.519 -10.839  1.00  0.00     0.042 C 
HETATM    6  C6  UNL     1       8.933  66.236 -12.029  1.00  0.00     0.069 C 
HETATM    7  C7  UNL     1       9.273  67.745 -12.046  1.00  0.00     0.047 C 
HETATM    8  O1  UNL     1       7.525  66.200 -11.621  1.00  0.00    -0.338 OA
HETATM    9  C8  UNL     1       6.654  66.567 -12.613  1.00  0.00     0.095 A 
HETATM   10  C9  UNL     1       5.619  67.468 -12.347  1.00  0.00     0.070 A 
HETATM   11  C11 UNL     1       4.705  67.795 -13.359  1.00  0.00     0.097 A 
HETATM   12  C12 UNL     1       4.812  67.187 -14.616  1.00  0.00     0.069 A 
HETATM   13  C14 UNL     1       5.835  66.254 -14.856  1.00  0.00     0.091 A 
HETATM   14  C15 UNL     1       6.774  65.955 -13.862  1.00  0.00     0.015 A 
HETATM   15  C16 UNL     1       7.842  64.891 -14.008  1.00  0.00     0.032 C 
HETATM   16  C21 UNL     1       9.166  65.426 -13.394  1.00  0.00     0.034 C 
HETATM   17  C22 UNL     1      10.158  66.114 -14.355  1.00  0.00     0.006 A 
HETATM   18  C23 UNL     1      10.937  65.163 -15.262  1.00  0.00    -0.001 A 
HETATM   19  C24 UNL     1      12.437  64.985 -15.213  1.00  0.00     0.010 C 
HETATM   20  C25 UNL     1      13.174  65.395 -13.925  1.00  0.00     0.034 C 
HETATM   21  C26 UNL     1      10.241  66.369 -15.870  1.00  0.00    -0.039 A 
HETATM   22  C27 UNL     1       9.104  66.121 -16.824  1.00  0.00     0.015 C 
HETATM   23  C28 UNL     1      11.062  67.577 -16.280  1.00  0.00     0.015 C 
ENDROOT
BRANCH  15  24
HETATM   24  C17 UNL     1       7.305  63.599 -13.309  1.00  0.00     0.014 C 
BRANCH  24  25
HETATM   25  C18 UNL     1       5.813  63.242 -13.484  1.00  0.00    -0.022 C 
HETATM   26  C19 UNL     1       5.154  62.735 -12.209  1.00  0.00     0.009 C 
HETATM   27  C20 UNL     1       5.561  62.281 -14.646  1.00  0.00     0.009 C 
ENDBRANCH  24  25
ENDBRANCH  15  24
BRANCH  13  28
HETATM   28  O5  UNL     1       5.935  65.579 -16.046  1.00  0.00    -0.359 OA
HETATM   29  H15 UNL     1       5.220  65.894 -16.645  1.00  0.00     0.217 HD
ENDBRANCH  13  28
BRANCH  10  30
HETATM   30  C10 UNL     1       5.509  68.067 -11.004  1.00  0.00     0.275 C 
HETATM   31  O2  UNL     1       4.460  67.973 -10.369  1.00  0.00    -0.301 OA
ENDBRANCH  10  30
BRANCH  12  32
HETATM   32  C13 UNL     1       3.832  67.516 -15.670  1.00  0.00     0.275 C 
HETATM   33  O4  UNL     1       2.634  67.593 -15.404  1.00  0.00    -0.301 OA
ENDBRANCH  12  32
BRANCH  11  34
HETATM   34  O3  UNL     1       3.687  68.693 -13.148  1.00  0.00    -0.359 OA
HETATM   35  H13 UNL     1       3.741  69.020 -12.219  1.00  0.00     0.217 HD
ENDBRANCH  11  34
TORSDOF 6
ENDMDL
MODEL 7
REMARK minimizedAffinity -6.86000872
REMARK  6 active torsions:
REMARK  status: ('A' for Active; 'I' for Inactive)
REMARK    1  A    between atoms: C9_10  and  C10_11 
REMARK    2  A    between atoms: C11_13  and  O3_14 
REMARK    3  A    between atoms: C12_15  and  C13_16 
REMARK    4  A    between atoms: C14_18  and  O5_19 
REMARK    5  A    between atoms: C16_21  and  C17_22 
REMARK    6  A    between atoms: C17_22  and  C18_23 
ROOT
HETATM    1  C1  UNL     1      -2.551  49.595  -8.851  1.00  0.00     0.043 C 
HETATM    2  C2  UNL     1      -3.035  50.905  -9.400  1.00  0.00    -0.087 C 
HETATM    3  C3  UNL     1      -3.772  51.043 -10.520  1.00  0.00    -0.024 C 
HETATM    4  C4  UNL     1      -4.136  50.019 -11.545  1.00  0.00     0.030 C 
HETATM    5  C5  UNL     1      -3.055  49.666 -12.589  1.00  0.00     0.042 C 
HETATM    6  C6  UNL     1      -2.070  50.758 -13.138  1.00  0.00     0.069 C 
HETATM    7  C7  UNL     1      -2.848  52.020 -13.578  1.00  0.00     0.047 C 
HETATM    8  O1  UNL     1      -1.604  50.176 -14.400  1.00  0.00    -0.338 OA
HETATM    9  C8  UNL     1      -0.549  50.847 -14.960  1.00  0.00     0.095 A 
HETATM   10  C9  UNL     1      -0.555  51.163 -16.322  1.00  0.00     0.070 A 
HETATM   11  C11 UNL     1       0.554  51.805 -16.892  1.00  0.00     0.097 A 
HETATM   12  C12 UNL     1       1.674  52.090 -16.102  1.00  0.00     0.069 A 
HETATM   13  C14 UNL     1       1.680  51.732 -14.742  1.00  0.00     0.091 A 
HETATM   14  C15 UNL     1       0.560  51.127 -14.160  1.00  0.00     0.015 A 
HETATM   15  C16 UNL     1       0.525  50.622 -12.733  1.00  0.00     0.032 C 
HETATM   16  C21 UNL     1      -0.856  50.976 -12.113  1.00  0.00     0.034 C 
HETATM   17  C22 UNL     1      -0.951  52.297 -11.319  1.00  0.00     0.006 A 
HETATM   18  C23 UNL     1      -0.312  52.260  -9.933  1.00  0.00    -0.001 A 
HETATM   19  C24 UNL     1      -1.080  52.428  -8.641  1.00  0.00     0.010 C 
HETATM   20  C25 UNL     1      -2.595  52.159  -8.660  1.00  0.00     0.034 C 
HETATM   21  C26 UNL     1       0.026  53.400 -10.878  1.00  0.00    -0.039 A 
HETATM   22  C27 UNL     1       1.443  53.511 -11.373  1.00  0.00     0.015 C 
HETATM   23  C28 UNL     1      -0.597  54.766 -10.654  1.00  0.00     0.015 C 
ENDROOT
BRANCH  15  24
HETATM   24  C17 UNL     1       0.815  49.086 -12.780  1.00  0.00     0.014 C 
BRANCH  24  25
HETATM   25  C18 UNL     1       1.630  48.534 -13.970  1.00  0.00    -0.022 C 
HETATM   26  C19 UNL     1       1.015  47.295 -14.607  1.00  0.00     0.009 C 
HETATM   27  C20 UNL     1       3.100  48.296 -13.627  1.00  0.00     0.009 C 
ENDBRANCH  24  25
ENDBRANCH  15  24
BRANCH  13  28
HETATM   28  O5  UNL     1       2.782  51.925 -13.948  1.00  0.00    -0.359 OA
HETATM   29  H15 UNL     1       3.483  52.360 -14.485  1.00  0.00     0.217 HD
ENDBRANCH  13  28
BRANCH  10  30
HETATM   30  C10 UNL     1      -1.734  50.820 -17.139  1.00  0.00     0.275 C 
HETATM   31  O2  UNL     1      -2.177  51.625 -17.955  1.00  0.00    -0.301 OA
ENDBRANCH  10  30
BRANCH  12  32
HETATM   32  C13 UNL     1       2.849  52.744 -16.712  1.00  0.00     0.275 C 
HETATM   33  O4  UNL     1       3.983  52.480 -16.317  1.00  0.00    -0.301 OA
ENDBRANCH  12  32
BRANCH  11  34
HETATM   34  O3  UNL     1       0.580  52.155 -18.220  1.00  0.00    -0.359 OA
HETATM   35  H13 UNL     1      -0.270  51.878 -18.637  1.00  0.00     0.217 HD
ENDBRANCH  11  34
TORSDOF 6
ENDMDL
MODEL 8
REMARK minimizedAffinity -6.76358175
REMARK  6 active torsions:
REMARK  status: ('A' for Active; 'I' for Inactive)
REMARK    1  A    between atoms: C9_10  and  C10_11 
REMARK    2  A    between atoms: C11_13  and  O3_14 
REMARK    3  A    between atoms: C12_15  and  C13_16 
REMARK    4  A    between atoms: C14_18  and  O5_19 
REMARK    5  A    between atoms: C16_21  and  C17_22 
REMARK    6  A    between atoms: C17_22  and  C18_23 
ROOT
HETATM    1  C1  UNL     1       1.167  51.111 -21.488  1.00  0.00     0.043 C 
HETATM    2  C2  UNL     1       0.172  52.192 -21.794  1.00  0.00    -0.087 C 
HETATM    3  C3  UNL     1      -0.810  52.591 -20.962  1.00  0.00    -0.024 C 
HETATM    4  C4  UNL     1      -1.255  51.991 -19.668  1.00  0.00     0.030 C 
HETATM    5  C5  UNL     1      -2.164  50.747 -19.755  1.00  0.00     0.042 C 
HETATM    6  C6  UNL     1      -3.232  50.601 -20.897  1.00  0.00     0.069 C 
HETATM    7  C7  UNL     1      -4.076  51.891 -21.020  1.00  0.00     0.047 C 
HETATM    8  O1  UNL     1      -4.172  49.619 -20.345  1.00  0.00    -0.338 OA
HETATM    9  C8  UNL     1      -5.078  49.151 -21.259  1.00  0.00     0.095 A 
HETATM   10  C9  UNL     1      -6.435  49.072 -20.931  1.00  0.00     0.070 A 
HETATM   11  C11 UNL     1      -7.345  48.543 -21.858  1.00  0.00     0.097 A 
HETATM   12  C12 UNL     1      -6.882  48.062 -23.089  1.00  0.00     0.069 A 
HETATM   13  C14 UNL     1      -5.510  48.113 -23.389  1.00  0.00     0.091 A 
HETATM   14  C15 UNL     1      -4.604  48.677 -22.483  1.00  0.00     0.015 A 
HETATM   15  C16 UNL     1      -3.104  48.679 -22.687  1.00  0.00     0.032 C 
HETATM   16  C21 UNL     1      -2.541  50.057 -22.238  1.00  0.00     0.034 C 
HETATM   17  C22 UNL     1      -2.379  51.138 -23.328  1.00  0.00     0.006 A 
HETATM   18  C23 UNL     1      -1.189  50.932 -24.263  1.00  0.00    -0.001 A 
HETATM   19  C24 UNL     1      -0.014  51.878 -24.361  1.00  0.00     0.010 C 
HETATM   20  C25 UNL     1       0.254  52.823 -23.176  1.00  0.00     0.034 C 
HETATM   21  C26 UNL     1      -2.561  51.213 -24.854  1.00  0.00    -0.039 A 
HETATM   22  C27 UNL     1      -3.212  50.132 -25.673  1.00  0.00     0.015 C 
HETATM   23  C28 UNL     1      -2.869  52.594 -25.402  1.00  0.00     0.015 C 
ENDROOT
BRANCH  15  24
HETATM   24  C17 UNL     1      -2.526  47.473 -21.877  1.00  0.00     0.014 C 
BRANCH  24  25
HETATM   25  C18 UNL     1      -3.380  46.888 -20.731  1.00  0.00    -0.022 C 
HETATM   26  C19 UNL     1      -2.701  46.955 -19.370  1.00  0.00     0.009 C 
HETATM   27  C20 UNL     1      -3.880  45.473 -21.021  1.00  0.00     0.009 C 
ENDBRANCH  24  25
ENDBRANCH  15  24
BRANCH  13  28
HETATM   28  O5  UNL     1      -5.002  47.588 -24.550  1.00  0.00    -0.359 OA
HETATM   29  H15 UNL     1      -5.749  47.235 -25.086  1.00  0.00     0.217 HD
ENDBRANCH  13  28
BRANCH  10  30
HETATM   30  C10 UNL     1      -6.890  49.554 -19.614  1.00  0.00     0.275 C 
HETATM   31  O2  UNL     1      -7.807  48.981 -19.028  1.00  0.00    -0.301 OA
ENDBRANCH  10  30
BRANCH  12  32
HETATM   32  C13 UNL     1      -7.841  47.483 -24.052  1.00  0.00     0.275 C 
HETATM   33  O4  UNL     1      -7.637  46.373 -24.542  1.00  0.00    -0.301 OA
ENDBRANCH  12  32
BRANCH  11  34
HETATM   34  O3  UNL     1      -8.689  48.469 -21.587  1.00  0.00    -0.359 OA
HETATM   35  H13 UNL     1      -8.851  48.833 -20.685  1.00  0.00     0.217 HD
ENDBRANCH  11  34
TORSDOF 6
ENDMDL
MODEL 9
REMARK minimizedAffinity -6.74975872
REMARK  6 active torsions:
REMARK  status: ('A' for Active; 'I' for Inactive)
REMARK    1  A    between atoms: C9_10  and  C10_11 
REMARK    2  A    between atoms: C11_13  and  O3_14 
REMARK    3  A    between atoms: C12_15  and  C13_16 
REMARK    4  A    between atoms: C14_18  and  O5_19 
REMARK    5  A    between atoms: C16_21  and  C17_22 
REMARK    6  A    between atoms: C17_22  and  C18_23 
ROOT
HETATM    1  C1  UNL     1       3.029  67.635 -16.447  1.00  0.00     0.043 C 
HETATM    2  C2  UNL     1       3.889  68.719 -15.864  1.00  0.00    -0.087 C 
HETATM    3  C3  UNL     1       4.998  69.216 -16.445  1.00  0.00    -0.024 C 
HETATM    4  C4  UNL     1       5.725  68.739 -17.661  1.00  0.00     0.030 C 
HETATM    5  C5  UNL     1       6.656  67.522 -17.480  1.00  0.00     0.042 C 
HETATM    6  C6  UNL     1       7.477  67.317 -16.157  1.00  0.00     0.069 C 
HETATM    7  C7  UNL     1       8.215  68.619 -15.768  1.00  0.00     0.047 C 
HETATM    8  O1  UNL     1       8.555  66.415 -16.574  1.00  0.00    -0.338 OA
HETATM    9  C8  UNL     1       9.279  65.902 -15.531  1.00  0.00     0.095 A 
HETATM   10  C9  UNL     1      10.676  65.894 -15.577  1.00  0.00     0.070 A 
HETATM   11  C11 UNL     1      11.404  65.320 -14.524  1.00  0.00     0.097 A 
HETATM   12  C12 UNL     1      10.725  64.726 -13.453  1.00  0.00     0.069 A 
HETATM   13  C14 UNL     1       9.319  64.708 -13.440  1.00  0.00     0.091 A 
HETATM   14  C15 UNL     1       8.590  65.315 -14.469  1.00  0.00     0.015 A 
HETATM   15  C16 UNL     1       7.081  65.252 -14.578  1.00  0.00     0.032 C 
HETATM   16  C21 UNL     1       6.555  66.643 -15.030  1.00  0.00     0.034 C 
HETATM   17  C22 UNL     1       6.124  67.625 -13.920  1.00  0.00     0.006 A 
HETATM   18  C23 UNL     1       4.780  67.306 -13.268  1.00  0.00    -0.001 A 
HETATM   19  C24 UNL     1       3.566  68.202 -13.344  1.00  0.00     0.010 C 
HETATM   20  C25 UNL     1       3.498  69.232 -14.487  1.00  0.00     0.034 C 
HETATM   21  C26 UNL     1       5.989  67.581 -12.389  1.00  0.00    -0.039 A 
HETATM   22  C27 UNL     1       6.512  66.457 -11.535  1.00  0.00     0.015 C 
HETATM   23  C28 UNL     1       6.113  68.921 -11.688  1.00  0.00     0.015 C 
ENDROOT
BRANCH  15  24
HETATM   24  C17 UNL     1       6.738  64.098 -15.576  1.00  0.00     0.014 C 
BRANCH  24  25
HETATM   25  C18 UNL     1       5.518  63.204 -15.266  1.00  0.00    -0.022 C 
HETATM   26  C19 UNL     1       5.557  62.580 -13.877  1.00  0.00     0.009 C 
HETATM   27  C20 UNL     1       5.271  62.139 -16.334  1.00  0.00     0.009 C 
ENDBRANCH  24  25
ENDBRANCH  15  24
BRANCH  13  28
HETATM   28  O5  UNL     1       8.613  64.073 -12.450  1.00  0.00    -0.359 OA
HETATM   29  H15 UNL     1       9.252  63.701 -11.799  1.00  0.00     0.217 HD
ENDBRANCH  13  28
BRANCH  10  30
HETATM   30  C10 UNL     1      11.365  66.496 -16.734  1.00  0.00     0.275 C 
HETATM   31  O2  UNL     1      11.618  65.816 -17.726  1.00  0.00    -0.301 OA
ENDBRANCH  10  30
BRANCH  12  32
HETATM   32  C13 UNL     1      11.495  64.100 -12.360  1.00  0.00     0.275 C 
HETATM   33  O4  UNL     1      11.159  64.265 -11.188  1.00  0.00    -0.301 OA
ENDBRANCH  12  32
BRANCH  11  34
HETATM   34  O3  UNL     1      12.777  65.311 -14.518  1.00  0.00    -0.359 OA
HETATM   35  H13 UNL     1      13.100  65.754 -15.338  1.00  0.00     0.217 HD
ENDBRANCH  11  34
TORSDOF 6
ENDMDL
