MODEL 1
REMARK minimizedAffinity -8.75502014
REMARK CNNscore 0.387743145
REMARK CNNaffinity 6.82189941
REMARK  10 active torsions:
REMARK  status: ('A' for Active; 'I' for Inactive)
REMARK    1  A    between atoms: C12_14  and  C13_15 
REMARK    2  A    between atoms: C13_15  and  C15_17 
REMARK    3  A    between atoms: C15_17  and  C16_18 
REMARK    4  A    between atoms: C16_18  and  C17_19 
REMARK    5  A    between atoms: C18_20  and  C20_22 
REMARK    6  A    between atoms: C20_22  and  O3_23 
REMARK    7  A    between atoms: C26_29  and  C27_30 
REMARK    8  A    between atoms: C27_30  and  C28_31 
REMARK    9  A    between atoms: C28_31  and  C29_32 
REMARK   10  A    between atoms: C29_32  and  O5_34 
ROOT
HETATM    1  C1  UNL     1       2.527   7.216  11.818  1.00  0.00     0.025 C 
HETATM    2  C2  UNL     1       1.694   6.216  12.130  1.00  0.00     0.015 C 
HETATM    3  C3  UNL     1       1.590   5.018  11.263  1.00  0.00     0.289 C 
HETATM    4  O1  UNL     1       2.338   4.712  10.353  1.00  0.00    -0.260 OA
HETATM    5  O2  UNL     1       0.507   4.306  11.672  1.00  0.00    -0.311 OA
HETATM    6  C4  UNL     1      -0.251   5.066  12.631  1.00  0.00     0.142 C 
HETATM    7  C5  UNL     1      -1.424   5.718  11.907  1.00  0.00     0.039 C 
HETATM    8  C6  UNL     1      -2.263   6.695  12.743  1.00  0.00     0.006 C 
HETATM    9  C7  UNL     1      -1.417   7.635  13.644  1.00  0.00    -0.027 A 
HETATM   10  C8  UNL     1      -2.265   8.571  14.534  1.00  0.00     0.011 C 
HETATM   11  C9  UNL     1      -3.473   7.919  15.221  1.00  0.00     0.011 C 
HETATM   12  C10 UNL     1      -4.340   7.152  14.210  1.00  0.00    -0.032 C 
HETATM   13  C11 UNL     1      -4.903   8.170  13.178  1.00  0.00     0.016 C 
HETATM   14  C12 UNL     1      -5.520   6.297  14.777  1.00  0.00    -0.002 C 
HETATM   15  C21 UNL     1      -5.687   5.174  13.706  1.00  0.00     0.006 C 
HETATM   16  C22 UNL     1      -4.450   5.225  12.787  1.00  0.00     0.011 C 
HETATM   17  C23 UNL     1      -3.410   6.034  13.579  1.00  0.00    -0.032 C 
HETATM   18  C24 UNL     1      -2.791   5.060  14.633  1.00  0.00     0.016 C 
HETATM   19  C25 UNL     1      -0.283   8.409  13.017  1.00  0.00     0.022 A 
HETATM   20  C26 UNL     1       0.081   7.259  13.931  1.00  0.00    -0.021 A 
HETATM   21  C30 UNL     1       0.730   6.039  13.262  1.00  0.00     0.063 C 
ENDROOT
BRANCH  14  22
HETATM   22  C13 UNL     1      -6.879   6.895  15.256  1.00  0.00    -0.014 C 
HETATM   23  C14 UNL     1      -7.151   6.894  16.768  1.00  0.00     0.010 C 
BRANCH  22  24
HETATM   24  C15 UNL     1      -8.123   6.319  14.538  1.00  0.00     0.008 C 
BRANCH  24  25
HETATM   25  C16 UNL     1      -9.486   6.852  15.000  1.00  0.00     0.028 C 
BRANCH  25  26
HETATM   26  C17 UNL     1     -10.136   7.772  14.003  1.00  0.00    -0.022 C 
HETATM   27  C18 UNL     1     -11.433   7.801  13.629  1.00  0.00    -0.064 C 
HETATM   28  C19 UNL     1     -12.492   6.897  14.203  1.00  0.00     0.045 C 
BRANCH  27  29
HETATM   29  C20 UNL     1     -11.973   8.751  12.580  1.00  0.00     0.197 C 
BRANCH  29  30
HETATM   30  O3  UNL     1     -13.382   8.650  12.437  1.00  0.00    -0.397 OA
HETATM   31  H29 UNL     1     -13.561   7.739  12.155  1.00  0.00     0.209 HD
ENDBRANCH  29  30
ENDBRANCH  27  29
ENDBRANCH  25  26
ENDBRANCH  24  25
ENDBRANCH  22  24
ENDBRANCH  14  22
BRANCH  20  32
HETATM   32  C27 UNL     1       0.616   7.515  15.348  1.00  0.00     0.021 C 
BRANCH  32  33
HETATM   33  C28 UNL     1       1.782   8.499  15.428  1.00  0.00     0.111 C 
BRANCH  33  34
HETATM   34  C29 UNL     1       3.137   7.879  15.635  1.00  0.00     0.139 C 
HETATM   35  O4  UNL     1       4.179   8.496  15.787  1.00  0.00    -0.650 OA
BRANCH  34  36
HETATM   36  O5  UNL     1       3.123   6.539  15.736  1.00  0.00    -0.776 OA
HETATM   37  H43 UNL     1       4.058   6.306  15.922  1.00  0.00     0.167 HD
ENDBRANCH  34  36
ENDBRANCH  33  34
ENDBRANCH  32  33
ENDBRANCH  20  32
TORSDOF 10
ENDMDL
MODEL 2
REMARK minimizedAffinity -8.14825058
REMARK CNNscore 0.23127073
REMARK CNNaffinity 6.67270851
REMARK  10 active torsions:
REMARK  status: ('A' for Active; 'I' for Inactive)
REMARK    1  A    between atoms: C12_14  and  C13_15 
REMARK    2  A    between atoms: C13_15  and  C15_17 
REMARK    3  A    between atoms: C15_17  and  C16_18 
REMARK    4  A    between atoms: C16_18  and  C17_19 
REMARK    5  A    between atoms: C18_20  and  C20_22 
REMARK    6  A    between atoms: C20_22  and  O3_23 
REMARK    7  A    between atoms: C26_29  and  C27_30 
REMARK    8  A    between atoms: C27_30  and  C28_31 
REMARK    9  A    between atoms: C28_31  and  C29_32 
REMARK   10  A    between atoms: C29_32  and  O5_34 
ROOT
HETATM    1  C1  UNL     1       1.280   7.387  15.169  1.00  0.00     0.025 C 
HETATM    2  C2  UNL     1       0.271   8.216  14.874  1.00  0.00     0.015 C 
HETATM    3  C3  UNL     1       0.166   9.543  15.526  1.00  0.00     0.289 C 
HETATM    4  O1  UNL     1       1.022  10.097  16.190  1.00  0.00    -0.260 OA
HETATM    5  O2  UNL     1      -1.064  10.047  15.240  1.00  0.00    -0.311 OA
HETATM    6  C4  UNL     1      -1.875   9.040  14.607  1.00  0.00     0.142 C 
HETATM    7  C5  UNL     1      -2.787   8.426  15.664  1.00  0.00     0.039 C 
HETATM    8  C6  UNL     1      -3.624   7.223  15.204  1.00  0.00     0.006 C 
HETATM    9  C7  UNL     1      -2.840   6.217  14.319  1.00  0.00    -0.027 A 
HETATM   10  C8  UNL     1      -3.701   5.043  13.802  1.00  0.00     0.011 C 
HETATM   11  C9  UNL     1      -5.096   5.420  13.285  1.00  0.00     0.011 C 
HETATM   12  C10 UNL     1      -5.855   6.278  14.311  1.00  0.00    -0.032 C 
HETATM   13  C11 UNL     1      -6.065   5.429  15.597  1.00  0.00     0.016 C 
HETATM   14  C12 UNL     1      -7.229   6.880  13.869  1.00  0.00    -0.002 C 
HETATM   15  C21 UNL     1      -7.346   8.168  14.742  1.00  0.00     0.006 C 
HETATM   16  C22 UNL     1      -5.963   8.424  15.373  1.00  0.00     0.011 C 
HETATM   17  C23 UNL     1      -4.989   7.587  14.529  1.00  0.00    -0.032 C 
HETATM   18  C24 UNL     1      -4.723   8.394  13.217  1.00  0.00     0.016 C 
HETATM   19  C25 UNL     1      -1.511   5.701  14.814  1.00  0.00     0.022 A 
HETATM   20  C26 UNL     1      -1.491   6.681  13.661  1.00  0.00    -0.021 A 
HETATM   21  C30 UNL     1      -0.904   8.068  13.959  1.00  0.00     0.063 C 
ENDROOT
BRANCH  14  22
HETATM   22  C13 UNL     1      -8.557   6.064  13.798  1.00  0.00    -0.014 C 
HETATM   23  C14 UNL     1      -8.562   4.810  12.909  1.00  0.00     0.010 C 
BRANCH  22  24
HETATM   24  C15 UNL     1      -9.810   6.904  13.460  1.00  0.00     0.008 C 
BRANCH  24  25
HETATM   25  C16 UNL     1     -10.895   6.980  14.543  1.00  0.00     0.028 C 
BRANCH  25  26
HETATM   26  C17 UNL     1     -12.268   6.632  14.039  1.00  0.00    -0.022 C 
HETATM   27  C18 UNL     1     -13.114   7.416  13.335  1.00  0.00    -0.064 C 
HETATM   28  C19 UNL     1     -12.786   8.818  12.893  1.00  0.00     0.045 C 
BRANCH  27  29
HETATM   29  C20 UNL     1     -14.499   6.971  12.911  1.00  0.00     0.197 C 
BRANCH  29  30
HETATM   30  O3  UNL     1     -15.053   7.818  11.915  1.00  0.00    -0.397 OA
HETATM   31  H29 UNL     1     -15.117   8.701  12.315  1.00  0.00     0.209 HD
ENDBRANCH  29  30
ENDBRANCH  27  29
ENDBRANCH  25  26
ENDBRANCH  24  25
ENDBRANCH  22  24
ENDBRANCH  14  22
BRANCH  20  32
HETATM   32  C27 UNL     1      -1.203   6.209  12.228  1.00  0.00     0.021 C 
BRANCH  32  33
HETATM   33  C28 UNL     1      -0.233   5.033  12.120  1.00  0.00     0.111 C 
BRANCH  33  34
HETATM   34  C29 UNL     1      -0.791   3.792  11.479  1.00  0.00     0.139 C 
HETATM   35  O4  UNL     1      -1.881   3.708  10.937  1.00  0.00    -0.650 OA
BRANCH  34  36
HETATM   36  O5  UNL     1       0.057   2.750  11.459  1.00  0.00    -0.776 OA
HETATM   37  H43 UNL     1      -0.432   2.057  10.966  1.00  0.00     0.167 HD
ENDBRANCH  34  36
ENDBRANCH  33  34
ENDBRANCH  32  33
ENDBRANCH  20  32
TORSDOF 10
ENDMDL
MODEL 3
REMARK minimizedAffinity -7.9185791
REMARK CNNscore 0.224921629
REMARK CNNaffinity 6.69728994
REMARK  10 active torsions:
REMARK  status: ('A' for Active; 'I' for Inactive)
REMARK    1  A    between atoms: C12_14  and  C13_15 
REMARK    2  A    between atoms: C13_15  and  C15_17 
REMARK    3  A    between atoms: C15_17  and  C16_18 
REMARK    4  A    between atoms: C16_18  and  C17_19 
REMARK    5  A    between atoms: C18_20  and  C20_22 
REMARK    6  A    between atoms: C20_22  and  O3_23 
REMARK    7  A    between atoms: C26_29  and  C27_30 
REMARK    8  A    between atoms: C27_30  and  C28_31 
REMARK    9  A    between atoms: C28_31  and  C29_32 
REMARK   10  A    between atoms: C29_32  and  O5_34 
ROOT
HETATM    1  C1  UNL     1       2.522   4.482  10.545  1.00  0.00     0.025 C 
HETATM    2  C2  UNL     1       1.966   5.686  10.365  1.00  0.00     0.015 C 
HETATM    3  C3  UNL     1       2.778   6.832   9.890  1.00  0.00     0.289 C 
HETATM    4  O1  UNL     1       3.905   6.785   9.433  1.00  0.00    -0.260 OA
HETATM    5  O2  UNL     1       2.032   7.958  10.045  1.00  0.00    -0.311 OA
HETATM    6  C4  UNL     1       0.840   7.662  10.796  1.00  0.00     0.142 C 
HETATM    7  C5  UNL     1       1.075   8.070  12.246  1.00  0.00     0.039 C 
HETATM    8  C6  UNL     1      -0.038   7.690  13.234  1.00  0.00     0.006 C 
HETATM    9  C7  UNL     1      -0.607   6.262  13.016  1.00  0.00    -0.027 A 
HETATM   10  C8  UNL     1      -1.773   5.906  13.966  1.00  0.00     0.011 C 
HETATM   11  C9  UNL     1      -2.825   7.005  14.167  1.00  0.00     0.011 C 
HETATM   12  C10 UNL     1      -2.166   8.342  14.546  1.00  0.00    -0.032 C 
HETATM   13  C11 UNL     1      -1.438   8.158  15.909  1.00  0.00     0.016 C 
HETATM   14  C12 UNL     1      -3.089   9.601  14.627  1.00  0.00    -0.002 C 
HETATM   15  C21 UNL     1      -2.112  10.774  14.305  1.00  0.00     0.006 C 
HETATM   16  C22 UNL     1      -0.813  10.155  13.751  1.00  0.00     0.011 C 
HETATM   17  C23 UNL     1      -1.207   8.726  13.344  1.00  0.00    -0.032 C 
HETATM   18  C24 UNL     1      -1.937   8.836  11.966  1.00  0.00     0.016 C 
HETATM   19  C25 UNL     1       0.357   5.104  12.930  1.00  0.00     0.022 A 
HETATM   20  C26 UNL     1      -0.327   5.536  11.651  1.00  0.00    -0.021 A 
HETATM   21  C30 UNL     1       0.571   6.182  10.585  1.00  0.00     0.063 C 
ENDROOT
BRANCH  14  22
HETATM   22  C13 UNL     1      -4.042   9.908  15.824  1.00  0.00    -0.014 C 
HETATM   23  C14 UNL     1      -3.510   9.618  17.236  1.00  0.00     0.010 C 
BRANCH  22  24
HETATM   24  C15 UNL     1      -5.452   9.285  15.698  1.00  0.00     0.008 C 
BRANCH  24  25
HETATM   25  C16 UNL     1      -5.509   7.773  15.438  1.00  0.00     0.028 C 
BRANCH  25  26
HETATM   26  C17 UNL     1      -6.553   7.379  14.430  1.00  0.00    -0.022 C 
HETATM   27  C18 UNL     1      -7.566   6.501  14.588  1.00  0.00    -0.064 C 
HETATM   28  C19 UNL     1      -7.846   5.766  15.873  1.00  0.00     0.045 C 
BRANCH  27  29
HETATM   29  C20 UNL     1      -8.541   6.151  13.482  1.00  0.00     0.197 C 
BRANCH  29  30
HETATM   30  O3  UNL     1      -9.887   6.151  13.933  1.00  0.00    -0.397 OA
HETATM   31  H29 UNL     1      -9.942   5.472  14.625  1.00  0.00     0.209 HD
ENDBRANCH  29  30
ENDBRANCH  27  29
ENDBRANCH  25  26
ENDBRANCH  24  25
ENDBRANCH  22  24
ENDBRANCH  14  22
BRANCH  20  32
HETATM   32  C27 UNL     1      -1.466   4.704  11.044  1.00  0.00     0.021 C 
BRANCH  32  33
HETATM   33  C28 UNL     1      -1.737   3.375  11.747  1.00  0.00     0.111 C 
BRANCH  33  34
HETATM   34  C29 UNL     1      -1.100   2.168  11.115  1.00  0.00     0.139 C 
HETATM   35  O4  UNL     1       0.100   1.966  11.034  1.00  0.00    -0.650 OA
BRANCH  34  36
HETATM   36  O5  UNL     1      -1.973   1.235  10.700  1.00  0.00    -0.776 OA
HETATM   37  H43 UNL     1      -1.403   0.506  10.373  1.00  0.00     0.167 HD
ENDBRANCH  34  36
ENDBRANCH  33  34
ENDBRANCH  32  33
ENDBRANCH  20  32
TORSDOF 10
ENDMDL
MODEL 4
REMARK minimizedAffinity -8.70764542
REMARK CNNscore 0.223668024
REMARK CNNaffinity 6.53327608
REMARK  10 active torsions:
REMARK  status: ('A' for Active; 'I' for Inactive)
REMARK    1  A    between atoms: C12_14  and  C13_15 
REMARK    2  A    between atoms: C13_15  and  C15_17 
REMARK    3  A    between atoms: C15_17  and  C16_18 
REMARK    4  A    between atoms: C16_18  and  C17_19 
REMARK    5  A    between atoms: C18_20  and  C20_22 
REMARK    6  A    between atoms: C20_22  and  O3_23 
REMARK    7  A    between atoms: C26_29  and  C27_30 
REMARK    8  A    between atoms: C27_30  and  C28_31 
REMARK    9  A    between atoms: C28_31  and  C29_32 
REMARK   10  A    between atoms: C29_32  and  O5_34 
ROOT
HETATM    1  C1  UNL     1       3.229   7.767  10.840  1.00  0.00     0.025 C 
HETATM    2  C2  UNL     1       2.506   6.713  11.236  1.00  0.00     0.015 C 
HETATM    3  C3  UNL     1       2.417   5.497  10.392  1.00  0.00     0.289 C 
HETATM    4  O1  UNL     1       3.102   5.233   9.421  1.00  0.00    -0.260 OA
HETATM    5  O2  UNL     1       1.432   4.712  10.903  1.00  0.00    -0.311 OA
HETATM    6  C4  UNL     1       0.707   5.427  11.921  1.00  0.00     0.142 C 
HETATM    7  C5  UNL     1      -0.572   5.977  11.300  1.00  0.00     0.039 C 
HETATM    8  C6  UNL     1      -1.406   6.902  12.199  1.00  0.00     0.006 C 
HETATM    9  C7  UNL     1      -0.557   7.916  13.011  1.00  0.00    -0.027 A 
HETATM   10  C8  UNL     1      -1.391   8.800  13.966  1.00  0.00     0.011 C 
HETATM   11  C9  UNL     1      -2.479   8.070  14.765  1.00  0.00     0.011 C 
HETATM   12  C10 UNL     1      -3.372   7.223  13.843  1.00  0.00    -0.032 C 
HETATM   13  C11 UNL     1      -4.101   8.180  12.857  1.00  0.00     0.016 C 
HETATM   14  C12 UNL     1      -4.427   6.291  14.522  1.00  0.00    -0.002 C 
HETATM   15  C21 UNL     1      -4.603   5.142  13.481  1.00  0.00     0.006 C 
HETATM   16  C22 UNL     1      -3.460   5.272  12.454  1.00  0.00     0.011 C 
HETATM   17  C23 UNL     1      -2.419   6.169  13.141  1.00  0.00    -0.032 C 
HETATM   18  C24 UNL     1      -1.636   5.261  14.144  1.00  0.00     0.016 C 
HETATM   19  C25 UNL     1       0.454   8.764  12.278  1.00  0.00     0.022 A 
HETATM   20  C26 UNL     1       0.986   7.659  13.165  1.00  0.00    -0.021 A 
HETATM   21  C30 UNL     1       1.664   6.481  12.451  1.00  0.00     0.063 C 
ENDROOT
BRANCH  14  22
HETATM   22  C13 UNL     1      -5.780   6.792  15.117  1.00  0.00    -0.014 C 
HETATM   23  C14 UNL     1      -6.409   5.948  16.236  1.00  0.00     0.010 C 
BRANCH  22  24
HETATM   24  C15 UNL     1      -6.872   7.093  14.064  1.00  0.00     0.008 C 
BRANCH  24  25
HETATM   25  C16 UNL     1      -7.808   5.933  13.699  1.00  0.00     0.028 C 
BRANCH  25  26
HETATM   26  C17 UNL     1      -9.265   6.300  13.757  1.00  0.00    -0.022 C 
HETATM   27  C18 UNL     1      -9.848   7.256  14.511  1.00  0.00    -0.064 C 
HETATM   28  C19 UNL     1      -9.089   8.175  15.433  1.00  0.00     0.045 C 
BRANCH  27  29
HETATM   29  C20 UNL     1     -11.341   7.513  14.518  1.00  0.00     0.197 C 
BRANCH  29  30
HETATM   30  O3  UNL     1     -12.089   6.327  14.740  1.00  0.00    -0.397 OA
HETATM   31  H29 UNL     1     -11.878   5.731  14.003  1.00  0.00     0.209 HD
ENDBRANCH  29  30
ENDBRANCH  27  29
ENDBRANCH  25  26
ENDBRANCH  24  25
ENDBRANCH  22  24
ENDBRANCH  14  22
BRANCH  20  32
HETATM   32  C27 UNL     1       1.624   7.977  14.526  1.00  0.00     0.021 C 
BRANCH  32  33
HETATM   33  C28 UNL     1       3.090   8.401  14.466  1.00  0.00     0.111 C 
BRANCH  33  34
HETATM   34  C29 UNL     1       4.018   7.650  15.381  1.00  0.00     0.139 C 
HETATM   35  O4  UNL     1       5.121   8.033  15.735  1.00  0.00    -0.650 OA
BRANCH  34  36
HETATM   36  O5  UNL     1       3.503   6.514  15.882  1.00  0.00    -0.776 OA
HETATM   37  H43 UNL     1       4.200   6.186  16.489  1.00  0.00     0.167 HD
ENDBRANCH  34  36
ENDBRANCH  33  34
ENDBRANCH  32  33
ENDBRANCH  20  32
TORSDOF 10
ENDMDL
MODEL 5
REMARK minimizedAffinity -9.18218422
REMARK CNNscore 0.212696016
REMARK CNNaffinity 6.56067228
REMARK  10 active torsions:
REMARK  status: ('A' for Active; 'I' for Inactive)
REMARK    1  A    between atoms: C12_14  and  C13_15 
REMARK    2  A    between atoms: C13_15  and  C15_17 
REMARK    3  A    between atoms: C15_17  and  C16_18 
REMARK    4  A    between atoms: C16_18  and  C17_19 
REMARK    5  A    between atoms: C18_20  and  C20_22 
REMARK    6  A    between atoms: C20_22  and  O3_23 
REMARK    7  A    between atoms: C26_29  and  C27_30 
REMARK    8  A    between atoms: C27_30  and  C28_31 
REMARK    9  A    between atoms: C28_31  and  C29_32 
REMARK   10  A    between atoms: C29_32  and  O5_34 
ROOT
HETATM    1  C1  UNL     1       3.862   7.721   9.894  1.00  0.00     0.025 C 
HETATM    2  C2  UNL     1       3.207   6.696  10.451  1.00  0.00     0.015 C 
HETATM    3  C3  UNL     1       3.035   5.420   9.716  1.00  0.00     0.289 C 
HETATM    4  O1  UNL     1       3.602   5.087   8.692  1.00  0.00    -0.260 OA
HETATM    5  O2  UNL     1       2.129   4.669  10.399  1.00  0.00    -0.311 OA
HETATM    6  C4  UNL     1       1.521   5.456  11.440  1.00  0.00     0.142 C 
HETATM    7  C5  UNL     1       0.169   5.950  10.938  1.00  0.00     0.039 C 
HETATM    8  C6  UNL     1      -0.564   6.935  11.861  1.00  0.00     0.006 C 
HETATM    9  C7  UNL     1       0.361   8.012  12.488  1.00  0.00    -0.027 A 
HETATM   10  C8  UNL     1      -0.366   8.961  13.468  1.00  0.00     0.011 C 
HETATM   11  C9  UNL     1      -1.340   8.287  14.444  1.00  0.00     0.011 C 
HETATM   12  C10 UNL     1      -2.324   7.369  13.701  1.00  0.00    -0.032 C 
HETATM   13  C11 UNL     1      -3.180   8.245  12.742  1.00  0.00     0.016 C 
HETATM   14  C12 UNL     1      -3.277   6.484  14.569  1.00  0.00    -0.002 C 
HETATM   15  C21 UNL     1      -3.560   5.259  13.645  1.00  0.00     0.006 C 
HETATM   16  C22 UNL     1      -2.550   5.318  12.481  1.00  0.00     0.011 C 
HETATM   17  C23 UNL     1      -1.447   6.270  12.970  1.00  0.00    -0.032 C 
HETATM   18  C24 UNL     1      -0.537   5.444  13.935  1.00  0.00     0.016 C 
HETATM   19  C25 UNL     1       1.265   8.808  11.578  1.00  0.00     0.022 A 
HETATM   20  C26 UNL     1       1.914   7.776  12.474  1.00  0.00    -0.021 A 
HETATM   21  C30 UNL     1       2.519   6.552  11.772  1.00  0.00     0.063 C 
ENDROOT
BRANCH  14  22
HETATM   22  C13 UNL     1      -4.557   7.021  15.284  1.00  0.00    -0.014 C 
HETATM   23  C14 UNL     1      -5.534   5.979  15.849  1.00  0.00     0.010 C 
BRANCH  22  24
HETATM   24  C15 UNL     1      -5.367   8.050  14.461  1.00  0.00     0.008 C 
BRANCH  24  25
HETATM   25  C16 UNL     1      -6.725   7.579  13.924  1.00  0.00     0.028 C 
BRANCH  25  26
HETATM   26  C17 UNL     1      -6.705   6.167  13.406  1.00  0.00    -0.022 C 
HETATM   27  C18 UNL     1      -7.759   5.404  13.045  1.00  0.00    -0.064 C 
HETATM   28  C19 UNL     1      -9.188   5.880  13.072  1.00  0.00     0.045 C 
BRANCH  27  29
HETATM   29  C20 UNL     1      -7.622   3.971  12.571  1.00  0.00     0.197 C 
BRANCH  29  30
HETATM   30  O3  UNL     1      -8.729   3.170  12.958  1.00  0.00    -0.397 OA
HETATM   31  H29 UNL     1      -8.743   3.178  13.929  1.00  0.00     0.209 HD
ENDBRANCH  29  30
ENDBRANCH  27  29
ENDBRANCH  25  26
ENDBRANCH  24  25
ENDBRANCH  22  24
ENDBRANCH  14  22
BRANCH  20  32
HETATM   32  C27 UNL     1       2.706   8.198  13.721  1.00  0.00     0.021 C 
BRANCH  32  33
HETATM   33  C28 UNL     1       2.704   7.180  14.859  1.00  0.00     0.111 C 
BRANCH  33  34
HETATM   34  C29 UNL     1       2.108   7.659  16.154  1.00  0.00     0.139 C 
HETATM   35  O4  UNL     1       2.436   8.672  16.749  1.00  0.00    -0.650 OA
BRANCH  34  36
HETATM   36  O5  UNL     1       1.079   6.916  16.598  1.00  0.00    -0.776 OA
HETATM   37  H43 UNL     1       0.777   7.389  17.403  1.00  0.00     0.167 HD
ENDBRANCH  34  36
ENDBRANCH  33  34
ENDBRANCH  32  33
ENDBRANCH  20  32
TORSDOF 10
ENDMDL
MODEL 6
REMARK minimizedAffinity -8.36407089
REMARK CNNscore 0.202379346
REMARK CNNaffinity 6.20161867
REMARK  10 active torsions:
REMARK  status: ('A' for Active; 'I' for Inactive)
REMARK    1  A    between atoms: C12_14  and  C13_15 
REMARK    2  A    between atoms: C13_15  and  C15_17 
REMARK    3  A    between atoms: C15_17  and  C16_18 
REMARK    4  A    between atoms: C16_18  and  C17_19 
REMARK    5  A    between atoms: C18_20  and  C20_22 
REMARK    6  A    between atoms: C20_22  and  O3_23 
REMARK    7  A    between atoms: C26_29  and  C27_30 
REMARK    8  A    between atoms: C27_30  and  C28_31 
REMARK    9  A    between atoms: C28_31  and  C29_32 
REMARK   10  A    between atoms: C29_32  and  O5_34 
ROOT
HETATM    1  C1  UNL     1       6.471   9.710  11.845  1.00  0.00     0.025 C 
HETATM    2  C2  UNL     1       5.865   8.519  11.916  1.00  0.00     0.015 C 
HETATM    3  C3  UNL     1       6.222   7.431  10.976  1.00  0.00     0.289 C 
HETATM    4  O1  UNL     1       7.180   7.403  10.225  1.00  0.00    -0.260 OA
HETATM    5  O2  UNL     1       5.289   6.450  11.106  1.00  0.00    -0.311 OA
HETATM    6  C4  UNL     1       4.202   6.909  11.931  1.00  0.00     0.142 C 
HETATM    7  C5  UNL     1       3.063   7.351  11.018  1.00  0.00     0.039 C 
HETATM    8  C6  UNL     1       1.868   8.015  11.718  1.00  0.00     0.006 C 
HETATM    9  C7  UNL     1       2.273   9.019  12.830  1.00  0.00    -0.027 A 
HETATM   10  C8  UNL     1       1.070   9.635  13.579  1.00  0.00     0.011 C 
HETATM   11  C9  UNL     1      -0.048   8.655  13.959  1.00  0.00     0.011 C 
HETATM   12  C10 UNL     1      -0.495   7.824  12.745  1.00  0.00    -0.032 C 
HETATM   13  C11 UNL     1      -1.086   8.793  11.681  1.00  0.00     0.016 C 
HETATM   14  C12 UNL     1      -1.514   6.666  13.001  1.00  0.00    -0.002 C 
HETATM   15  C21 UNL     1      -1.196   5.658  11.853  1.00  0.00     0.006 C 
HETATM   16  C22 UNL     1       0.141   6.089  11.217  1.00  0.00     0.011 C 
HETATM   17  C23 UNL     1       0.782   7.023  12.256  1.00  0.00    -0.032 C 
HETATM   18  C24 UNL     1       1.411   6.107  13.355  1.00  0.00     0.016 C 
HETATM   19  C25 UNL     1       3.280  10.095  12.502  1.00  0.00     0.022 A 
HETATM   20  C26 UNL     1       3.737   8.966  13.401  1.00  0.00    -0.021 A 
HETATM   21  C30 UNL     1       4.779   8.006  12.809  1.00  0.00     0.063 C 
ENDROOT
BRANCH  14  22
HETATM   22  C13 UNL     1      -3.044   6.884  13.221  1.00  0.00    -0.014 C 
HETATM   23  C14 UNL     1      -3.460   8.012  14.176  1.00  0.00     0.010 C 
BRANCH  22  24
HETATM   24  C15 UNL     1      -3.824   5.606  13.608  1.00  0.00     0.008 C 
BRANCH  24  25
HETATM   25  C16 UNL     1      -4.494   4.840  12.459  1.00  0.00     0.028 C 
BRANCH  25  26
HETATM   26  C17 UNL     1      -5.737   4.104  12.875  1.00  0.00    -0.022 C 
HETATM   27  C18 UNL     1      -6.295   3.024  12.289  1.00  0.00    -0.064 C 
HETATM   28  C19 UNL     1      -5.713   2.329  11.086  1.00  0.00     0.045 C 
BRANCH  27  29
HETATM   29  C20 UNL     1      -7.580   2.385  12.775  1.00  0.00     0.197 C 
BRANCH  29  30
HETATM   30  O3  UNL     1      -8.606   3.342  12.992  1.00  0.00    -0.397 OA
HETATM   31  H29 UNL     1      -8.276   3.943  13.680  1.00  0.00     0.209 HD
ENDBRANCH  29  30
ENDBRANCH  27  29
ENDBRANCH  25  26
ENDBRANCH  24  25
ENDBRANCH  22  24
ENDBRANCH  14  22
BRANCH  20  32
HETATM   32  C27 UNL     1       3.916   9.181  14.911  1.00  0.00     0.021 C 
BRANCH  32  33
HETATM   33  C28 UNL     1       2.689   9.737  15.632  1.00  0.00     0.111 C 
BRANCH  33  34
HETATM   34  C29 UNL     1       2.277   8.993  16.872  1.00  0.00     0.139 C 
HETATM   35  O4  UNL     1       2.208   9.473  17.992  1.00  0.00    -0.650 OA
BRANCH  34  36
HETATM   36  O5  UNL     1       1.884   7.727  16.654  1.00  0.00    -0.776 OA
HETATM   37  H43 UNL     1       1.600   7.411  17.539  1.00  0.00     0.167 HD
ENDBRANCH  34  36
ENDBRANCH  33  34
ENDBRANCH  32  33
ENDBRANCH  20  32
TORSDOF 10
ENDMDL
MODEL 7
REMARK minimizedAffinity -8.41354656
REMARK CNNscore 0.198935196
REMARK CNNaffinity 6.69739771
REMARK  10 active torsions:
REMARK  status: ('A' for Active; 'I' for Inactive)
REMARK    1  A    between atoms: C12_14  and  C13_15 
REMARK    2  A    between atoms: C13_15  and  C15_17 
REMARK    3  A    between atoms: C15_17  and  C16_18 
REMARK    4  A    between atoms: C16_18  and  C17_19 
REMARK    5  A    between atoms: C18_20  and  C20_22 
REMARK    6  A    between atoms: C20_22  and  O3_23 
REMARK    7  A    between atoms: C26_29  and  C27_30 
REMARK    8  A    between atoms: C27_30  and  C28_31 
REMARK    9  A    between atoms: C28_31  and  C29_32 
REMARK   10  A    between atoms: C29_32  and  O5_34 
ROOT
HETATM    1  C1  UNL     1       3.338   7.849  13.755  1.00  0.00     0.025 C 
HETATM    2  C2  UNL     1       2.344   8.743  13.806  1.00  0.00     0.015 C 
HETATM    3  C3  UNL     1       2.461   9.958  14.648  1.00  0.00     0.289 C 
HETATM    4  O1  UNL     1       3.470  10.378  15.183  1.00  0.00    -0.260 OA
HETATM    5  O2  UNL     1       1.232  10.537  14.710  1.00  0.00    -0.311 OA
HETATM    6  C4  UNL     1       0.245   9.664  14.131  1.00  0.00     0.142 C 
HETATM    7  C5  UNL     1      -0.462   8.924  15.261  1.00  0.00     0.039 C 
HETATM    8  C6  UNL     1      -1.450   7.831  14.827  1.00  0.00     0.006 C 
HETATM    9  C7  UNL     1      -0.934   6.949  13.659  1.00  0.00    -0.027 A 
HETATM   10  C8  UNL     1      -1.956   5.894  13.178  1.00  0.00     0.011 C 
HETATM   11  C9  UNL     1      -3.402   6.388  13.035  1.00  0.00     0.011 C 
HETATM   12  C10 UNL     1      -3.874   7.102  14.312  1.00  0.00    -0.032 C 
HETATM   13  C11 UNL     1      -3.863   6.073  15.479  1.00  0.00     0.016 C 
HETATM   14  C12 UNL     1      -5.269   7.807  14.268  1.00  0.00    -0.002 C 
HETATM   15  C21 UNL     1      -5.120   8.949  15.321  1.00  0.00     0.006 C 
HETATM   16  C22 UNL     1      -3.623   9.064  15.667  1.00  0.00     0.011 C 
HETATM   17  C23 UNL     1      -2.901   8.335  14.522  1.00  0.00    -0.032 C 
HETATM   18  C24 UNL     1      -2.866   9.324  13.313  1.00  0.00     0.016 C 
HETATM   19  C25 UNL     1       0.434   6.322  13.775  1.00  0.00     0.022 A 
HETATM   20  C26 UNL     1       0.274   7.466  12.797  1.00  0.00    -0.021 A 
HETATM   21  C30 UNL     1       0.996   8.773  13.156  1.00  0.00     0.063 C 
ENDROOT
BRANCH  14  22
HETATM   22  C13 UNL     1      -6.631   7.051  14.371  1.00  0.00    -0.014 C 
HETATM   23  C14 UNL     1      -7.020   6.491  15.748  1.00  0.00     0.010 C 
BRANCH  22  24
HETATM   24  C15 UNL     1      -6.827   5.934  13.319  1.00  0.00     0.008 C 
BRANCH  24  25
HETATM   25  C16 UNL     1      -6.911   4.498  13.855  1.00  0.00     0.028 C 
BRANCH  25  26
HETATM   26  C17 UNL     1      -6.862   3.454  12.775  1.00  0.00    -0.022 C 
HETATM   27  C18 UNL     1      -5.772   2.963  12.148  1.00  0.00    -0.064 C 
HETATM   28  C19 UNL     1      -4.360   3.378  12.470  1.00  0.00     0.045 C 
BRANCH  27  29
HETATM   29  C20 UNL     1      -5.846   1.932  11.039  1.00  0.00     0.197 C 
BRANCH  29  30
HETATM   30  O3  UNL     1      -6.759   0.887  11.337  1.00  0.00    -0.397 OA
HETATM   31  H29 UNL     1      -6.426   0.457  12.141  1.00  0.00     0.209 HD
ENDBRANCH  29  30
ENDBRANCH  27  29
ENDBRANCH  25  26
ENDBRANCH  24  25
ENDBRANCH  22  24
ENDBRANCH  14  22
BRANCH  20  32
HETATM   32  C27 UNL     1       0.225   7.210  11.283  1.00  0.00     0.021 C 
BRANCH  32  33
HETATM   33  C28 UNL     1      -0.127   8.431  10.435  1.00  0.00     0.111 C 
BRANCH  33  34
HETATM   34  C29 UNL     1       0.232   8.331   8.978  1.00  0.00     0.139 C 
HETATM   35  O4  UNL     1      -0.556   8.414   8.051  1.00  0.00    -0.650 OA
BRANCH  34  36
HETATM   36  O5  UNL     1       1.551   8.226   8.739  1.00  0.00    -0.776 OA
HETATM   37  H43 UNL     1       1.614   8.230   7.760  1.00  0.00     0.167 HD
ENDBRANCH  34  36
ENDBRANCH  33  34
ENDBRANCH  32  33
ENDBRANCH  20  32
TORSDOF 10
ENDMDL
MODEL 8
REMARK minimizedAffinity -7.30997801
REMARK CNNscore 0.178030804
REMARK CNNaffinity 6.47540045
REMARK  10 active torsions:
REMARK  status: ('A' for Active; 'I' for Inactive)
REMARK    1  A    between atoms: C12_14  and  C13_15 
REMARK    2  A    between atoms: C13_15  and  C15_17 
REMARK    3  A    between atoms: C15_17  and  C16_18 
REMARK    4  A    between atoms: C16_18  and  C17_19 
REMARK    5  A    between atoms: C18_20  and  C20_22 
REMARK    6  A    between atoms: C20_22  and  O3_23 
REMARK    7  A    between atoms: C26_29  and  C27_30 
REMARK    8  A    between atoms: C27_30  and  C28_31 
REMARK    9  A    between atoms: C28_31  and  C29_32 
REMARK   10  A    between atoms: C29_32  and  O5_34 
ROOT
HETATM    1  C1  UNL     1      -7.403   6.233  12.763  1.00  0.00     0.025 C 
HETATM    2  C2  UNL     1      -6.847   6.253  13.980  1.00  0.00     0.015 C 
HETATM    3  C3  UNL     1      -7.692   6.272  15.198  1.00  0.00     0.289 C 
HETATM    4  O1  UNL     1      -8.890   6.071  15.256  1.00  0.00    -0.260 OA
HETATM    5  O2  UNL     1      -6.883   6.548  16.257  1.00  0.00    -0.311 OA
HETATM    6  C4  UNL     1      -5.573   6.925  15.793  1.00  0.00     0.142 C 
HETATM    7  C5  UNL     1      -5.480   8.446  15.808  1.00  0.00     0.039 C 
HETATM    8  C6  UNL     1      -4.202   9.042  15.200  1.00  0.00     0.006 C 
HETATM    9  C7  UNL     1      -3.752   8.349  13.886  1.00  0.00    -0.027 A 
HETATM   10  C8  UNL     1      -2.428   8.904  13.312  1.00  0.00     0.011 C 
HETATM   11  C9  UNL     1      -1.312   9.150  14.337  1.00  0.00     0.011 C 
HETATM   12  C10 UNL     1      -1.820   9.991  15.520  1.00  0.00    -0.032 C 
HETATM   13  C11 UNL     1      -2.252  11.384  14.979  1.00  0.00     0.016 C 
HETATM   14  C12 UNL     1      -0.849  10.192  16.729  1.00  0.00    -0.002 C 
HETATM   15  C21 UNL     1      -1.821  10.398  17.931  1.00  0.00     0.006 C 
HETATM   16  C22 UNL     1      -3.232   9.995  17.458  1.00  0.00     0.011 C 
HETATM   17  C23 UNL     1      -2.993   9.161  16.189  1.00  0.00    -0.032 C 
HETATM   18  C24 UNL     1      -2.565   7.734  16.663  1.00  0.00     0.016 C 
HETATM   19  C25 UNL     1      -4.761   8.177  12.777  1.00  0.00     0.022 A 
HETATM   20  C26 UNL     1      -4.343   6.936  13.535  1.00  0.00    -0.021 A 
HETATM   21  C30 UNL     1      -5.417   6.289  14.422  1.00  0.00     0.063 C 
ENDROOT
BRANCH  14  22
HETATM   22  C13 UNL     1       0.347  11.195  16.728  1.00  0.00    -0.014 C 
HETATM   23  C14 UNL     1       1.106  11.381  15.405  1.00  0.00     0.010 C 
BRANCH  22  24
HETATM   24  C15 UNL     1       1.383  10.960  17.853  1.00  0.00     0.008 C 
BRANCH  24  25
HETATM   25  C16 UNL     1       1.069  11.595  19.214  1.00  0.00     0.028 C 
BRANCH  25  26
HETATM   26  C17 UNL     1       1.259  10.654  20.371  1.00  0.00    -0.022 C 
HETATM   27  C18 UNL     1       2.408  10.357  21.015  1.00  0.00    -0.064 C 
HETATM   28  C19 UNL     1       3.740  10.976  20.683  1.00  0.00     0.045 C 
BRANCH  27  29
HETATM   29  C20 UNL     1       2.488   9.357  22.151  1.00  0.00     0.197 C 
BRANCH  29  30
HETATM   30  O3  UNL     1       1.600   8.264  21.969  1.00  0.00    -0.397 OA
HETATM   31  H29 UNL     1       0.706   8.643  21.948  1.00  0.00     0.209 HD
ENDBRANCH  29  30
ENDBRANCH  27  29
ENDBRANCH  25  26
ENDBRANCH  24  25
ENDBRANCH  22  24
ENDBRANCH  14  22
BRANCH  20  32
HETATM   32  C27 UNL     1      -3.393   5.907  12.905  1.00  0.00     0.021 C 
BRANCH  32  33
HETATM   33  C28 UNL     1      -4.063   4.617  12.434  1.00  0.00     0.111 C 
BRANCH  33  34
HETATM   34  C29 UNL     1      -3.125   3.498  12.070  1.00  0.00     0.139 C 
HETATM   35  O4  UNL     1      -3.375   2.308  12.172  1.00  0.00    -0.650 OA
BRANCH  34  36
HETATM   36  O5  UNL     1      -1.970   3.903  11.515  1.00  0.00    -0.776 OA
HETATM   37  H43 UNL     1      -1.510   3.066  11.291  1.00  0.00     0.167 HD
ENDBRANCH  34  36
ENDBRANCH  33  34
ENDBRANCH  32  33
ENDBRANCH  20  32
TORSDOF 10
ENDMDL
MODEL 9
REMARK minimizedAffinity -6.8495121
REMARK CNNscore 0.170153737
REMARK CNNaffinity 5.88672495
REMARK  10 active torsions:
REMARK  status: ('A' for Active; 'I' for Inactive)
REMARK    1  A    between atoms: C12_14  and  C13_15 
REMARK    2  A    between atoms: C13_15  and  C15_17 
REMARK    3  A    between atoms: C15_17  and  C16_18 
REMARK    4  A    between atoms: C16_18  and  C17_19 
REMARK    5  A    between atoms: C18_20  and  C20_22 
REMARK    6  A    between atoms: C20_22  and  O3_23 
REMARK    7  A    between atoms: C26_29  and  C27_30 
REMARK    8  A    between atoms: C27_30  and  C28_31 
REMARK    9  A    between atoms: C28_31  and  C29_32 
REMARK   10  A    between atoms: C29_32  and  O5_34 
ROOT
HETATM    1  C1  UNL     1       1.680   5.577  10.447  1.00  0.00     0.025 C 
HETATM    2  C2  UNL     1       0.811   6.593  10.517  1.00  0.00     0.015 C 
HETATM    3  C3  UNL     1       0.883   7.718   9.555  1.00  0.00     0.289 C 
HETATM    4  O1  UNL     1       1.541   7.760   8.532  1.00  0.00    -0.260 OA
HETATM    5  O2  UNL     1       0.068   8.705  10.013  1.00  0.00    -0.311 OA
HETATM    6  C4  UNL     1      -0.388   8.392  11.342  1.00  0.00     0.142 C 
HETATM    7  C5  UNL     1       0.474   9.160  12.336  1.00  0.00     0.039 C 
HETATM    8  C6  UNL     1       0.233   8.836  13.818  1.00  0.00     0.006 C 
HETATM    9  C7  UNL     1       0.054   7.321  14.106  1.00  0.00    -0.027 A 
HETATM   10  C8  UNL     1      -0.256   7.002  15.586  1.00  0.00     0.011 C 
HETATM   11  C9  UNL     1      -1.282   7.921  16.262  1.00  0.00     0.011 C 
HETATM   12  C10 UNL     1      -0.920   9.402  16.060  1.00  0.00    -0.032 C 
HETATM   13  C11 UNL     1       0.449   9.668  16.750  1.00  0.00     0.016 C 
HETATM   14  C12 UNL     1      -1.953  10.469  16.549  1.00  0.00    -0.002 C 
HETATM   15  C21 UNL     1      -1.675  11.684  15.611  1.00  0.00     0.006 C 
HETATM   16  C22 UNL     1      -0.776  11.184  14.462  1.00  0.00     0.011 C 
HETATM   17  C23 UNL     1      -0.919   9.654  14.495  1.00  0.00    -0.032 C 
HETATM   18  C24 UNL     1      -2.277   9.314  13.801  1.00  0.00     0.016 C 
HETATM   19  C25 UNL     1       1.089   6.357  13.578  1.00  0.00     0.022 A 
HETATM   20  C26 UNL     1      -0.267   6.357  12.907  1.00  0.00    -0.021 A 
HETATM   21  C30 UNL     1      -0.311   6.880  11.465  1.00  0.00     0.063 C 
ENDROOT
BRANCH  14  22
HETATM   22  C13 UNL     1      -2.142  10.878  18.043  1.00  0.00    -0.014 C 
HETATM   23  C14 UNL     1      -2.993   9.948  18.922  1.00  0.00     0.010 C 
BRANCH  22  24
HETATM   24  C15 UNL     1      -2.634  12.329  18.254  1.00  0.00     0.008 C 
BRANCH  24  25
HETATM   25  C16 UNL     1      -4.153  12.529  18.349  1.00  0.00     0.028 C 
BRANCH  25  26
HETATM   26  C17 UNL     1      -4.622  12.897  19.729  1.00  0.00    -0.022 C 
HETATM   27  C18 UNL     1      -5.774  13.509  20.075  1.00  0.00    -0.064 C 
HETATM   28  C19 UNL     1      -6.841  13.909  19.089  1.00  0.00     0.045 C 
BRANCH  27  29
HETATM   29  C20 UNL     1      -6.127  13.869  21.504  1.00  0.00     0.197 C 
BRANCH  29  30
HETATM   30  O3  UNL     1      -7.499  14.203  21.652  1.00  0.00    -0.397 OA
HETATM   31  H29 UNL     1      -7.652  14.979  21.087  1.00  0.00     0.209 HD
ENDBRANCH  29  30
ENDBRANCH  27  29
ENDBRANCH  25  26
ENDBRANCH  24  25
ENDBRANCH  22  24
ENDBRANCH  14  22
BRANCH  20  32
HETATM   32  C27 UNL     1      -1.273   5.224  13.160  1.00  0.00     0.021 C 
BRANCH  32  33
HETATM   33  C28 UNL     1      -2.705   5.525  12.720  1.00  0.00     0.111 C 
BRANCH  33  34
HETATM   34  C29 UNL     1      -3.635   4.343  12.696  1.00  0.00     0.139 C 
HETATM   35  O4  UNL     1      -4.819   4.372  12.991  1.00  0.00    -0.650 OA
BRANCH  34  36
HETATM   36  O5  UNL     1      -3.082   3.212  12.225  1.00  0.00    -0.776 OA
HETATM   37  H43 UNL     1      -3.824   2.570  12.223  1.00  0.00     0.167 HD
ENDBRANCH  34  36
ENDBRANCH  33  34
ENDBRANCH  32  33
ENDBRANCH  20  32
TORSDOF 10
ENDMDL
