MODEL 1
REMARK minimizedAffinity -7.03968716
REMARK CNNscore 0.682982981
REMARK CNNaffinity 5.88190985
REMARK  5 active torsions:
REMARK  status: ('A' for Active; 'I' for Inactive)
REMARK    1  A    between atoms: C2_2  and  C4_4 
REMARK    2  A    between atoms: C7_7  and  C8_8 
REMARK    3  A    between atoms: C8_8  and  O2_10 
REMARK    4  A    between atoms: C11_13  and  C12_14 
REMARK    5  A    between atoms: C12_14  and  O4_16 
ROOT
HETATM    1  C4  UNL     1     -16.689  45.799 -22.854  1.00  0.00     0.019 C 
HETATM    2  C5  UNL     1     -17.283  44.385 -22.828  1.00  0.00     0.011 C 
HETATM    3  C6  UNL     1     -18.157  44.262 -24.080  1.00  0.00     0.021 C 
HETATM    4  C7  UNL     1     -17.936  45.535 -24.921  1.00  0.00     0.050 C 
HETATM    5  C9  UNL     1     -17.815  45.213 -26.419  1.00  0.00     0.022 C 
HETATM    6  C10 UNL     1     -16.537  44.506 -26.903  1.00  0.00     0.023 C 
HETATM    7  C11 UNL     1     -15.231  44.664 -26.035  1.00  0.00     0.057 C 
HETATM    8  C13 UNL     1     -15.426  46.030 -25.302  1.00  0.00     0.011 C 
HETATM    9  C14 UNL     1     -14.118  46.619 -24.827  1.00  0.00     0.007 C 
HETATM   10  C15 UNL     1     -13.235  46.967 -26.022  1.00  0.00     0.006 C 
HETATM   11  C16 UNL     1     -13.373  46.084 -27.313  1.00  0.00     0.003 C 
HETATM   12  C17 UNL     1     -12.035  46.186 -28.195  1.00  0.00    -0.035 C 
HETATM   13  C18 UNL     1     -12.329  45.668 -29.626  1.00  0.00     0.016 C 
HETATM   14  C19 UNL     1     -11.583  47.673 -28.349  1.00  0.00     0.017 C 
HETATM   15  C20 UNL     1     -10.236  47.847 -29.042  1.00  0.00     0.080 C 
HETATM   16  C21 UNL     1      -9.156  47.018 -28.385  1.00  0.00     0.135 C 
HETATM   17  O5  UNL     1      -8.052  47.520 -28.162  1.00  0.00    -0.297 OA
HETATM   18  C22 UNL     1      -9.453  45.530 -28.112  1.00  0.00     0.017 C 
HETATM   19  C23 UNL     1      -9.260  44.751 -29.419  1.00  0.00     0.023 C 
HETATM   20  C24 UNL     1      -8.384  45.011 -27.116  1.00  0.00     0.023 C 
HETATM   21  C25 UNL     1     -10.877  45.418 -27.460  1.00  0.00     0.009 C 
HETATM   22  C26 UNL     1     -11.297  43.988 -27.071  1.00  0.00     0.007 C 
HETATM   23  C27 UNL     1     -12.614  43.937 -26.269  1.00  0.00     0.011 C 
HETATM   24  C28 UNL     1     -13.847  44.614 -26.959  1.00  0.00    -0.022 C 
HETATM   25  C29 UNL     1     -14.159  43.723 -28.199  1.00  0.00     0.017 C 
HETATM   26  C30 UNL     1     -16.657  46.211 -24.354  1.00  0.00     0.018 C 
ENDROOT
BRANCH   4  27
HETATM   27  C8  UNL     1     -19.133  46.494 -24.769  1.00  0.00     0.149 C 
HETATM   28  O1  UNL     1     -19.090  47.718 -24.771  1.00  0.00    -0.649 OA
BRANCH  27  29
HETATM   29  O2  UNL     1     -20.322  45.881 -24.592  1.00  0.00    -0.776 OA
HETATM   30  H11 UNL     1     -20.955  46.625 -24.508  1.00  0.00     0.167 HD
ENDBRANCH  27  29
ENDBRANCH   4  27
BRANCH   1  31
HETATM   31  C2  UNL     1     -15.515  46.129 -21.951  1.00  0.00    -0.088 C 
HETATM   32  C1  UNL     1     -15.067  47.368 -21.686  1.00  0.00     0.014 C 
HETATM   33  C3  UNL     1     -14.743  44.939 -21.432  1.00  0.00     0.043 C 
ENDBRANCH   1  31
BRANCH   7  34
HETATM   34  C12 UNL     1     -15.159  43.447 -25.108  1.00  0.00     0.149 C 
HETATM   35  O3  UNL     1     -15.746  42.385 -25.249  1.00  0.00    -0.649 OA
BRANCH  34  36
HETATM   36  O4  UNL     1     -14.284  43.566 -24.099  1.00  0.00    -0.776 OA
HETATM   37  H16 UNL     1     -14.310  42.691 -23.661  1.00  0.00     0.167 HD
ENDBRANCH  34  36
ENDBRANCH   7  34
TORSDOF 5
ENDMDL
MODEL 2
REMARK minimizedAffinity -6.56074429
REMARK CNNscore 0.326610267
REMARK CNNaffinity 5.51099062
REMARK  5 active torsions:
REMARK  status: ('A' for Active; 'I' for Inactive)
REMARK    1  A    between atoms: C2_2  and  C4_4 
REMARK    2  A    between atoms: C7_7  and  C8_8 
REMARK    3  A    between atoms: C8_8  and  O2_10 
REMARK    4  A    between atoms: C11_13  and  C12_14 
REMARK    5  A    between atoms: C12_14  and  O4_16 
ROOT
HETATM    1  C4  UNL     1       9.723  55.855  -3.744  1.00  0.00     0.019 C 
HETATM    2  C5  UNL     1       9.208  56.539  -2.471  1.00  0.00     0.011 C 
HETATM    3  C6  UNL     1       9.027  58.019  -2.821  1.00  0.00     0.021 C 
HETATM    4  C7  UNL     1       9.268  58.165  -4.337  1.00  0.00     0.050 C 
HETATM    5  C9  UNL     1       8.242  59.108  -4.988  1.00  0.00     0.022 C 
HETATM    6  C10 UNL     1       6.792  58.611  -5.126  1.00  0.00     0.023 C 
HETATM    7  C11 UNL     1       6.545  57.054  -5.157  1.00  0.00     0.057 C 
HETATM    8  C13 UNL     1       7.883  56.469  -5.714  1.00  0.00     0.011 C 
HETATM    9  C14 UNL     1       7.706  55.086  -6.297  1.00  0.00     0.007 C 
HETATM   10  C15 UNL     1       6.795  55.145  -7.520  1.00  0.00     0.006 C 
HETATM   11  C16 UNL     1       5.678  56.248  -7.545  1.00  0.00     0.003 C 
HETATM   12  C17 UNL     1       4.499  55.814  -8.544  1.00  0.00    -0.035 C 
HETATM   13  C18 UNL     1       3.633  57.056  -8.878  1.00  0.00     0.016 C 
HETATM   14  C19 UNL     1       5.080  55.305  -9.902  1.00  0.00     0.017 C 
HETATM   15  C20 UNL     1       4.034  54.728 -10.850  1.00  0.00     0.080 C 
HETATM   16  C21 UNL     1       3.200  53.659 -10.182  1.00  0.00     0.135 C 
HETATM   17  O5  UNL     1       2.964  52.606 -10.780  1.00  0.00    -0.297 OA
HETATM   18  C22 UNL     1       2.586  53.977  -8.805  1.00  0.00     0.017 C 
HETATM   19  C23 UNL     1       1.327  54.828  -9.021  1.00  0.00     0.023 C 
HETATM   20  C24 UNL     1       2.121  52.639  -8.175  1.00  0.00     0.023 C 
HETATM   21  C25 UNL     1       3.695  54.626  -7.902  1.00  0.00     0.009 C 
HETATM   22  C26 UNL     1       3.248  54.949  -6.464  1.00  0.00     0.007 C 
HETATM   23  C27 UNL     1       4.407  55.410  -5.556  1.00  0.00     0.011 C 
HETATM   24  C28 UNL     1       5.222  56.641  -6.080  1.00  0.00    -0.022 C 
HETATM   25  C29 UNL     1       4.230  57.842  -6.016  1.00  0.00     0.017 C 
HETATM   26  C30 UNL     1       9.208  56.728  -4.925  1.00  0.00     0.018 C 
ENDROOT
BRANCH   4  27
HETATM   27  C8  UNL     1      10.658  58.772  -4.604  1.00  0.00     0.149 C 
HETATM   28  O1  UNL     1      11.727  58.366  -4.162  1.00  0.00    -0.649 OA
BRANCH  27  29
HETATM   29  O2  UNL     1      10.648  59.873  -5.385  1.00  0.00    -0.776 OA
HETATM   30  H11 UNL     1      11.595  60.123  -5.443  1.00  0.00     0.167 HD
ENDBRANCH  27  29
ENDBRANCH   4  27
BRANCH   1  31
HETATM   31  C2  UNL     1       9.680  54.342  -3.844  1.00  0.00    -0.088 C 
HETATM   32  C1  UNL     1       8.811  53.548  -3.195  1.00  0.00     0.014 C 
HETATM   33  C3  UNL     1      10.796  53.714  -4.646  1.00  0.00     0.043 C 
ENDBRANCH   1  31
BRANCH   7  34
HETATM   34  C12 UNL     1       6.207  56.626  -3.726  1.00  0.00     0.149 C 
HETATM   35  O3  UNL     1       5.838  57.350  -2.815  1.00  0.00    -0.649 OA
BRANCH  34  36
HETATM   36  O4  UNL     1       6.247  55.302  -3.517  1.00  0.00    -0.776 OA
HETATM   37  H16 UNL     1       5.939  55.201  -2.593  1.00  0.00     0.167 HD
ENDBRANCH  34  36
ENDBRANCH   7  34
TORSDOF 5
ENDMDL
MODEL 3
REMARK minimizedAffinity -6.90174341
REMARK CNNscore 0.296139836
REMARK CNNaffinity 6.14980888
REMARK  5 active torsions:
REMARK  status: ('A' for Active; 'I' for Inactive)
REMARK    1  A    between atoms: C2_2  and  C4_4 
REMARK    2  A    between atoms: C7_7  and  C8_8 
REMARK    3  A    between atoms: C8_8  and  O2_10 
REMARK    4  A    between atoms: C11_13  and  C12_14 
REMARK    5  A    between atoms: C12_14  and  O4_16 
ROOT
HETATM    1  C4  UNL     1      -2.007  49.076 -11.040  1.00  0.00     0.019 C 
HETATM    2  C5  UNL     1      -2.581  49.499 -12.398  1.00  0.00     0.011 C 
HETATM    3  C6  UNL     1      -3.744  50.449 -12.098  1.00  0.00     0.021 C 
HETATM    4  C7  UNL     1      -3.737  50.717 -10.579  1.00  0.00     0.050 C 
HETATM    5  C9  UNL     1      -4.000  52.198 -10.261  1.00  0.00     0.022 C 
HETATM    6  C10 UNL     1      -2.890  53.213 -10.584  1.00  0.00     0.023 C 
HETATM    7  C11 UNL     1      -1.406  52.685 -10.656  1.00  0.00     0.057 C 
HETATM    8  C13 UNL     1      -1.403  51.431  -9.724  1.00  0.00     0.011 C 
HETATM    9  C14 UNL     1      -0.015  51.073  -9.246  1.00  0.00     0.007 C 
HETATM   10  C15 UNL     1       0.539  52.187  -8.361  1.00  0.00     0.006 C 
HETATM   11  C16 UNL     1       0.075  53.657  -8.665  1.00  0.00     0.003 C 
HETATM   12  C17 UNL     1       1.147  54.702  -8.084  1.00  0.00    -0.035 C 
HETATM   13  C18 UNL     1       0.499  56.108  -8.013  1.00  0.00     0.016 C 
HETATM   14  C19 UNL     1       1.551  54.330  -6.622  1.00  0.00     0.017 C 
HETATM   15  C20 UNL     1       2.681  55.181  -6.051  1.00  0.00     0.080 C 
HETATM   16  C21 UNL     1       3.888  55.194  -6.961  1.00  0.00     0.135 C 
HETATM   17  O5  UNL     1       5.015  55.048  -6.481  1.00  0.00    -0.297 OA
HETATM   18  C22 UNL     1       3.663  55.498  -8.455  1.00  0.00     0.017 C 
HETATM   19  C23 UNL     1       3.516  57.016  -8.622  1.00  0.00     0.023 C 
HETATM   20  C24 UNL     1       4.947  55.083  -9.218  1.00  0.00     0.023 C 
HETATM   21  C25 UNL     1       2.450  54.640  -8.961  1.00  0.00     0.009 C 
HETATM   22  C26 UNL     1       2.136  54.790 -10.461  1.00  0.00     0.007 C 
HETATM   23  C27 UNL     1       1.065  53.798 -10.961  1.00  0.00     0.011 C 
HETATM   24  C28 UNL     1      -0.300  53.841 -10.193  1.00  0.00    -0.022 C 
HETATM   25  C29 UNL     1      -0.920  55.228 -10.540  1.00  0.00     0.017 C 
HETATM   26  C30 UNL     1      -2.354  50.235 -10.062  1.00  0.00     0.018 C 
ENDROOT
BRANCH   4  27
HETATM   27  C8  UNL     1      -4.853  49.910  -9.887  1.00  0.00     0.149 C 
HETATM   28  O1  UNL     1      -6.015  49.806 -10.260  1.00  0.00    -0.649 OA
BRANCH  27  29
HETATM   29  O2  UNL     1      -4.474  49.297  -8.746  1.00  0.00    -0.776 OA
HETATM   30  H11 UNL     1      -5.291  48.847  -8.444  1.00  0.00     0.167 HD
ENDBRANCH  27  29
ENDBRANCH   4  27
BRANCH   1  31
HETATM   31  C2  UNL     1      -0.642  48.417 -10.982  1.00  0.00    -0.088 C 
HETATM   32  C1  UNL     1       0.297  48.497 -11.941  1.00  0.00     0.014 C 
HETATM   33  C3  UNL     1      -0.411  47.509  -9.797  1.00  0.00     0.043 C 
ENDBRANCH   1  31
BRANCH   7  34
HETATM   34  C12 UNL     1      -1.107  52.387 -12.128  1.00  0.00     0.149 C 
HETATM   35  O3  UNL     1      -0.212  51.679 -12.562  1.00  0.00    -0.649 OA
BRANCH  34  36
HETATM   36  O4  UNL     1      -1.994  52.901 -12.992  1.00  0.00    -0.776 OA
HETATM   37  H16 UNL     1      -1.700  52.559 -13.861  1.00  0.00     0.167 HD
ENDBRANCH  34  36
ENDBRANCH   7  34
TORSDOF 5
ENDMDL
MODEL 4
REMARK minimizedAffinity -7.28607893
REMARK CNNscore 0.295414627
REMARK CNNaffinity 5.71907759
REMARK  5 active torsions:
REMARK  status: ('A' for Active; 'I' for Inactive)
REMARK    1  A    between atoms: C2_2  and  C4_4 
REMARK    2  A    between atoms: C7_7  and  C8_8 
REMARK    3  A    between atoms: C8_8  and  O2_10 
REMARK    4  A    between atoms: C11_13  and  C12_14 
REMARK    5  A    between atoms: C12_14  and  O4_16 
ROOT
HETATM    1  C4  UNL     1     -11.876  44.185 -25.592  1.00  0.00     0.019 C 
HETATM    2  C5  UNL     1     -13.225  43.874 -26.252  1.00  0.00     0.011 C 
HETATM    3  C6  UNL     1     -13.932  45.219 -26.445  1.00  0.00     0.021 C 
HETATM    4  C7  UNL     1     -12.928  46.324 -26.059  1.00  0.00     0.050 C 
HETATM    5  C9  UNL     1     -12.974  47.503 -27.044  1.00  0.00     0.022 C 
HETATM    6  C10 UNL     1     -12.402  47.286 -28.456  1.00  0.00     0.023 C 
HETATM    7  C11 UNL     1     -11.322  46.155 -28.649  1.00  0.00     0.057 C 
HETATM    8  C13 UNL     1     -10.648  46.029 -27.245  1.00  0.00     0.011 C 
HETATM    9  C14 UNL     1      -9.280  45.391 -27.319  1.00  0.00     0.007 C 
HETATM   10  C15 UNL     1      -8.325  46.286 -28.105  1.00  0.00     0.006 C 
HETATM   11  C16 UNL     1      -8.934  47.174 -29.248  1.00  0.00     0.003 C 
HETATM   12  C17 UNL     1      -7.792  47.564 -30.308  1.00  0.00    -0.035 C 
HETATM   13  C18 UNL     1      -8.287  48.750 -31.175  1.00  0.00     0.016 C 
HETATM   14  C19 UNL     1      -6.502  48.060 -29.579  1.00  0.00     0.017 C 
HETATM   15  C20 UNL     1      -5.316  48.303 -30.506  1.00  0.00     0.080 C 
HETATM   16  C21 UNL     1      -5.022  47.097 -31.368  1.00  0.00     0.135 C 
HETATM   17  O5  UNL     1      -3.856  46.718 -31.510  1.00  0.00    -0.297 OA
HETATM   18  C22 UNL     1      -6.196  46.447 -32.126  1.00  0.00     0.017 C 
HETATM   19  C23 UNL     1      -6.480  47.280 -33.383  1.00  0.00     0.023 C 
HETATM   20  C24 UNL     1      -5.729  45.049 -32.609  1.00  0.00     0.023 C 
HETATM   21  C25 UNL     1      -7.402  46.285 -31.134  1.00  0.00     0.009 C 
HETATM   22  C26 UNL     1      -8.640  45.591 -31.732  1.00  0.00     0.007 C 
HETATM   23  C27 UNL     1      -9.730  45.282 -30.684  1.00  0.00     0.011 C 
HETATM   24  C28 UNL     1     -10.237  46.515 -29.861  1.00  0.00    -0.022 C 
HETATM   25  C29 UNL     1     -10.988  47.412 -30.891  1.00  0.00     0.017 C 
HETATM   26  C30 UNL     1     -11.532  45.643 -26.014  1.00  0.00     0.018 C 
ENDROOT
BRANCH   4  27
HETATM   27  C8  UNL     1     -13.265  46.894 -24.668  1.00  0.00     0.149 C 
HETATM   28  O1  UNL     1     -12.504  46.980 -23.712  1.00  0.00    -0.649 OA
BRANCH  27  29
HETATM   29  O2  UNL     1     -14.544  47.302 -24.526  1.00  0.00    -0.776 OA
HETATM   30  H11 UNL     1     -14.582  47.622 -23.600  1.00  0.00     0.167 HD
ENDBRANCH  27  29
ENDBRANCH   4  27
BRANCH   1  31
HETATM   31  C2  UNL     1     -10.792  43.124 -25.577  1.00  0.00    -0.088 C 
HETATM   32  C1  UNL     1      -9.686  43.156 -24.814  1.00  0.00     0.014 C 
HETATM   33  C3  UNL     1     -10.946  42.027 -26.606  1.00  0.00     0.043 C 
ENDBRANCH   1  31
BRANCH   7  34
HETATM   34  C12 UNL     1     -12.066  44.899 -29.114  1.00  0.00     0.149 C 
HETATM   35  O3  UNL     1     -11.679  43.745 -29.022  1.00  0.00    -0.649 OA
BRANCH  34  36
HETATM   36  O4  UNL     1     -13.301  45.126 -29.584  1.00  0.00    -0.776 OA
HETATM   37  H16 UNL     1     -13.653  44.229 -29.762  1.00  0.00     0.167 HD
ENDBRANCH  34  36
ENDBRANCH   7  34
TORSDOF 5
ENDMDL
MODEL 5
REMARK minimizedAffinity -6.22779369
REMARK CNNscore 0.293446034
REMARK CNNaffinity 6.0354805
REMARK  5 active torsions:
REMARK  status: ('A' for Active; 'I' for Inactive)
REMARK    1  A    between atoms: C2_2  and  C4_4 
REMARK    2  A    between atoms: C7_7  and  C8_8 
REMARK    3  A    between atoms: C8_8  and  O2_10 
REMARK    4  A    between atoms: C11_13  and  C12_14 
REMARK    5  A    between atoms: C12_14  and  O4_16 
ROOT
HETATM    1  C4  UNL     1      -2.360  51.724 -12.196  1.00  0.00     0.019 C 
HETATM    2  C5  UNL     1      -2.070  50.221 -12.094  1.00  0.00     0.011 C 
HETATM    3  C6  UNL     1      -0.613  50.032 -12.529  1.00  0.00     0.021 C 
HETATM    4  C7  UNL     1      -0.005  51.437 -12.716  1.00  0.00     0.050 C 
HETATM    5  C9  UNL     1       1.419  51.521 -12.143  1.00  0.00     0.022 C 
HETATM    6  C10 UNL     1       1.582  51.503 -10.613  1.00  0.00     0.023 C 
HETATM    7  C11 UNL     1       0.363  51.978  -9.735  1.00  0.00     0.057 C 
HETATM    8  C13 UNL     1      -0.417  52.960 -10.666  1.00  0.00     0.011 C 
HETATM    9  C14 UNL     1      -1.307  53.904  -9.890  1.00  0.00     0.007 C 
HETATM   10  C15 UNL     1      -0.459  54.824  -9.016  1.00  0.00     0.006 C 
HETATM   11  C16 UNL     1       0.898  54.259  -8.466  1.00  0.00     0.003 C 
HETATM   12  C17 UNL     1       1.341  55.073  -7.154  1.00  0.00    -0.035 C 
HETATM   13  C18 UNL     1       2.842  54.802  -6.871  1.00  0.00     0.016 C 
HETATM   14  C19 UNL     1       1.208  56.612  -7.384  1.00  0.00     0.017 C 
HETATM   15  C20 UNL     1       1.461  57.453  -6.137  1.00  0.00     0.080 C 
HETATM   16  C21 UNL     1       0.607  57.002  -4.974  1.00  0.00     0.135 C 
HETATM   17  O5  UNL     1       0.025  57.842  -4.282  1.00  0.00    -0.297 OA
HETATM   18  C22 UNL     1       0.583  55.499  -4.635  1.00  0.00     0.017 C 
HETATM   19  C23 UNL     1       1.851  55.163  -3.839  1.00  0.00     0.023 C 
HETATM   20  C24 UNL     1      -0.621  55.247  -3.691  1.00  0.00     0.023 C 
HETATM   21  C25 UNL     1       0.386  54.691  -5.967  1.00  0.00     0.009 C 
HETATM   22  C26 UNL     1       0.281  53.165  -5.785  1.00  0.00     0.007 C 
HETATM   23  C27 UNL     1      -0.098  52.422  -7.084  1.00  0.00     0.011 C 
HETATM   24  C28 UNL     1       0.847  52.683  -8.306  1.00  0.00    -0.022 C 
HETATM   25  C29 UNL     1       2.208  52.032  -7.916  1.00  0.00     0.017 C 
HETATM   26  C30 UNL     1      -0.983  52.427 -12.024  1.00  0.00     0.018 C 
ENDROOT
BRANCH   4  27
HETATM   27  C8  UNL     1       0.099  51.782 -14.214  1.00  0.00     0.149 C 
HETATM   28  O1  UNL     1      -0.376  51.142 -15.144  1.00  0.00    -0.649 OA
BRANCH  27  29
HETATM   29  O2  UNL     1       0.816  52.893 -14.483  1.00  0.00    -0.776 OA
HETATM   30  H11 UNL     1       0.785  52.957 -15.461  1.00  0.00     0.167 HD
ENDBRANCH  27  29
ENDBRANCH   4  27
BRANCH   1  31
HETATM   31  C2  UNL     1      -3.591  52.290 -11.516  1.00  0.00    -0.088 C 
HETATM   32  C1  UNL     1      -3.980  53.576 -11.565  1.00  0.00     0.014 C 
HETATM   33  C3  UNL     1      -4.339  51.328 -10.623  1.00  0.00     0.043 C 
ENDBRANCH   1  31
BRANCH   7  34
HETATM   34  C12 UNL     1      -0.418  50.721  -9.336  1.00  0.00     0.149 C 
HETATM   35  O3  UNL     1       0.001  49.574  -9.324  1.00  0.00    -0.649 OA
BRANCH  34  36
HETATM   36  O4  UNL     1      -1.654  50.957  -8.874  1.00  0.00    -0.776 OA
HETATM   37  H16 UNL     1      -1.975  50.072  -8.601  1.00  0.00     0.167 HD
ENDBRANCH  34  36
ENDBRANCH   7  34
TORSDOF 5
ENDMDL
MODEL 6
REMARK minimizedAffinity -7.13312674
REMARK CNNscore 0.282940269
REMARK CNNaffinity 6.06848717
REMARK  5 active torsions:
REMARK  status: ('A' for Active; 'I' for Inactive)
REMARK    1  A    between atoms: C2_2  and  C4_4 
REMARK    2  A    between atoms: C7_7  and  C8_8 
REMARK    3  A    between atoms: C8_8  and  O2_10 
REMARK    4  A    between atoms: C11_13  and  C12_14 
REMARK    5  A    between atoms: C12_14  and  O4_16 
ROOT
HETATM    1  C4  UNL     1      -1.241  51.944 -12.646  1.00  0.00     0.019 C 
HETATM    2  C5  UNL     1      -0.966  50.434 -12.608  1.00  0.00     0.011 C 
HETATM    3  C6  UNL     1       0.332  50.212 -13.388  1.00  0.00     0.021 C 
HETATM    4  C7  UNL     1       0.905  51.602 -13.731  1.00  0.00     0.050 C 
HETATM    5  C9  UNL     1       2.428  51.656 -13.529  1.00  0.00     0.022 C 
HETATM    6  C10 UNL     1       2.965  51.638 -12.088  1.00  0.00     0.023 C 
HETATM    7  C11 UNL     1       2.011  52.142 -10.938  1.00  0.00     0.057 C 
HETATM    8  C13 UNL     1       1.046  53.139 -11.656  1.00  0.00     0.011 C 
HETATM    9  C14 UNL     1       0.397  54.105 -10.691  1.00  0.00     0.007 C 
HETATM   10  C15 UNL     1       1.454  55.008 -10.061  1.00  0.00     0.006 C 
HETATM   11  C16 UNL     1       2.894  54.413  -9.860  1.00  0.00     0.003 C 
HETATM   12  C17 UNL     1       3.665  55.221  -8.706  1.00  0.00    -0.035 C 
HETATM   13  C18 UNL     1       5.182  54.917  -8.800  1.00  0.00     0.016 C 
HETATM   14  C19 UNL     1       3.511  56.762  -8.908  1.00  0.00     0.017 C 
HETATM   15  C20 UNL     1       4.083  57.601  -7.769  1.00  0.00     0.080 C 
HETATM   16  C21 UNL     1       3.535  57.172  -6.427  1.00  0.00     0.135 C 
HETATM   17  O5  UNL     1       3.161  58.026  -5.620  1.00  0.00    -0.297 OA
HETATM   18  C22 UNL     1       3.564  55.670  -6.081  1.00  0.00     0.017 C 
HETATM   19  C23 UNL     1       4.982  55.307  -5.621  1.00  0.00     0.023 C 
HETATM   20  C24 UNL     1       2.626  55.448  -4.866  1.00  0.00     0.023 C 
HETATM   21  C25 UNL     1       3.025  54.863  -7.316  1.00  0.00     0.009 C 
HETATM   22  C26 UNL     1       2.937  53.341  -7.102  1.00  0.00     0.007 C 
HETATM   23  C27 UNL     1       2.232  52.604  -8.260  1.00  0.00     0.011 C 
HETATM   24  C28 UNL     1       2.850  52.840  -9.680  1.00  0.00    -0.022 C 
HETATM   25  C29 UNL     1       4.251  52.159  -9.634  1.00  0.00     0.017 C 
HETATM   26  C30 UNL     1       0.151  52.616 -12.826  1.00  0.00     0.018 C 
ENDROOT
BRANCH   4  27
HETATM   27  C8  UNL     1       0.642  51.941 -15.211  1.00  0.00     0.149 C 
HETATM   28  O1  UNL     1      -0.022  51.283 -16.002  1.00  0.00    -0.649 OA
BRANCH  27  29
HETATM   29  O2  UNL     1       1.245  53.069 -15.642  1.00  0.00    -0.776 OA
HETATM   30  H11 UNL     1       0.981  53.126 -16.585  1.00  0.00     0.167 HD
ENDBRANCH  27  29
ENDBRANCH   4  27
BRANCH   1  31
HETATM   31  C2  UNL     1      -2.253  52.540 -11.687  1.00  0.00    -0.088 C 
HETATM   32  C1  UNL     1      -3.511  52.097 -11.514  1.00  0.00     0.014 C 
HETATM   33  C3  UNL     1      -1.813  53.803 -10.984  1.00  0.00     0.043 C 
ENDBRANCH   1  31
BRANCH   7  34
HETATM   34  C12 UNL     1       1.328  50.905 -10.348  1.00  0.00     0.149 C 
HETATM   35  O3  UNL     1       1.766  49.765 -10.335  1.00  0.00    -0.649 OA
BRANCH  34  36
HETATM   36  O4  UNL     1       0.174  51.156  -9.712  1.00  0.00    -0.776 OA
HETATM   37  H16 UNL     1      -0.083  50.286  -9.341  1.00  0.00     0.167 HD
ENDBRANCH  34  36
ENDBRANCH   7  34
TORSDOF 5
ENDMDL
MODEL 7
REMARK minimizedAffinity -7.05768013
REMARK CNNscore 0.274728984
REMARK CNNaffinity 6.25578308
REMARK  5 active torsions:
REMARK  status: ('A' for Active; 'I' for Inactive)
REMARK    1  A    between atoms: C2_2  and  C4_4 
REMARK    2  A    between atoms: C7_7  and  C8_8 
REMARK    3  A    between atoms: C8_8  and  O2_10 
REMARK    4  A    between atoms: C11_13  and  C12_14 
REMARK    5  A    between atoms: C12_14  and  O4_16 
ROOT
HETATM    1  C4  UNL     1      -3.080  51.247 -12.552  1.00  0.00     0.019 C 
HETATM    2  C5  UNL     1      -2.938  49.728 -12.392  1.00  0.00     0.011 C 
HETATM    3  C6  UNL     1      -1.872  49.286 -13.399  1.00  0.00     0.021 C 
HETATM    4  C7  UNL     1      -1.271  50.563 -14.020  1.00  0.00     0.050 C 
HETATM    5  C9  UNL     1       0.258  50.465 -14.155  1.00  0.00     0.022 C 
HETATM    6  C10 UNL     1       1.100  50.528 -12.869  1.00  0.00     0.023 C 
HETATM    7  C11 UNL     1       0.476  51.245 -11.612  1.00  0.00     0.057 C 
HETATM    8  C13 UNL     1      -0.533  52.270 -12.221  1.00  0.00     0.011 C 
HETATM    9  C14 UNL     1      -0.863  53.391 -11.263  1.00  0.00     0.007 C 
HETATM   10  C15 UNL     1       0.384  54.227 -10.985  1.00  0.00     0.006 C 
HETATM   11  C16 UNL     1       1.774  53.497 -11.026  1.00  0.00     0.003 C 
HETATM   12  C17 UNL     1       2.852  54.322 -10.168  1.00  0.00    -0.035 C 
HETATM   13  C18 UNL     1       4.277  53.842 -10.546  1.00  0.00     0.016 C 
HETATM   14  C19 UNL     1       2.794  55.844 -10.515  1.00  0.00     0.017 C 
HETATM   15  C20 UNL     1       3.678  56.719  -9.633  1.00  0.00     0.080 C 
HETATM   16  C21 UNL     1       3.408  56.487  -8.164  1.00  0.00     0.135 C 
HETATM   17  O5  UNL     1       3.302  57.453  -7.404  1.00  0.00    -0.297 OA
HETATM   18  C22 UNL     1       3.382  55.033  -7.655  1.00  0.00     0.017 C 
HETATM   19  C23 UNL     1       4.829  54.560  -7.467  1.00  0.00     0.023 C 
HETATM   20  C24 UNL     1       2.724  55.037  -6.250  1.00  0.00     0.023 C 
HETATM   21  C25 UNL     1       2.511  54.175  -8.641  1.00  0.00     0.009 C 
HETATM   22  C26 UNL     1       2.339  52.701  -8.232  1.00  0.00     0.007 C 
HETATM   23  C27 UNL     1       1.331  51.938  -9.117  1.00  0.00     0.011 C 
HETATM   24  C28 UNL     1       1.633  51.964 -10.654  1.00  0.00    -0.022 C 
HETATM   25  C29 UNL     1       2.944  51.138 -10.826  1.00  0.00     0.017 C 
HETATM   26  C30 UNL     1      -1.711  51.738 -13.103  1.00  0.00     0.018 C 
ENDROOT
BRANCH   4  27
HETATM   27  C8  UNL     1      -1.828  50.784 -15.439  1.00  0.00     0.149 C 
HETATM   28  O1  UNL     1      -1.305  50.431 -16.490  1.00  0.00    -0.649 OA
BRANCH  27  29
HETATM   29  O2  UNL     1      -2.994  51.463 -15.484  1.00  0.00    -0.776 OA
HETATM   30  H11 UNL     1      -3.193  51.517 -16.443  1.00  0.00     0.167 HD
ENDBRANCH  27  29
ENDBRANCH   4  27
BRANCH   1  31
HETATM   31  C2  UNL     1      -3.795  52.044 -11.477  1.00  0.00    -0.088 C 
HETATM   32  C1  UNL     1      -4.013  53.370 -11.513  1.00  0.00     0.014 C 
HETATM   33  C3  UNL     1      -4.162  51.269 -10.233  1.00  0.00     0.043 C 
ENDBRANCH   1  31
BRANCH   7  34
HETATM   34  C12 UNL     1      -0.164  50.156 -10.747  1.00  0.00     0.149 C 
HETATM   35  O3  UNL     1       0.084  48.960 -10.775  1.00  0.00    -0.649 OA
BRANCH  34  36
HETATM   36  O4  UNL     1      -1.012  50.612  -9.814  1.00  0.00    -0.776 OA
HETATM   37  H16 UNL     1      -1.266  49.809  -9.314  1.00  0.00     0.167 HD
ENDBRANCH  34  36
ENDBRANCH   7  34
TORSDOF 5
ENDMDL
MODEL 8
REMARK minimizedAffinity -6.33041334
REMARK CNNscore 0.254826933
REMARK CNNaffinity 5.94830656
REMARK  5 active torsions:
REMARK  status: ('A' for Active; 'I' for Inactive)
REMARK    1  A    between atoms: C2_2  and  C4_4 
REMARK    2  A    between atoms: C7_7  and  C8_8 
REMARK    3  A    between atoms: C8_8  and  O2_10 
REMARK    4  A    between atoms: C11_13  and  C12_14 
REMARK    5  A    between atoms: C12_14  and  O4_16 
ROOT
HETATM    1  C4  UNL     1      -0.523  51.399  -9.167  1.00  0.00     0.019 C 
HETATM    2  C5  UNL     1      -0.054  51.143 -10.605  1.00  0.00     0.011 C 
HETATM    3  C6  UNL     1      -0.510  52.351 -11.429  1.00  0.00     0.021 C 
HETATM    4  C7  UNL     1      -1.088  53.387 -10.444  1.00  0.00     0.050 C 
HETATM    5  C9  UNL     1      -0.639  54.816 -10.792  1.00  0.00     0.022 C 
HETATM    6  C10 UNL     1       0.831  55.191 -10.539  1.00  0.00     0.023 C 
HETATM    7  C11 UNL     1       1.627  54.371  -9.453  1.00  0.00     0.057 C 
HETATM    8  C13 UNL     1       0.520  53.864  -8.474  1.00  0.00     0.011 C 
HETATM    9  C14 UNL     1       1.076  53.500  -7.116  1.00  0.00     0.007 C 
HETATM   10  C15 UNL     1       1.633  54.743  -6.428  1.00  0.00     0.006 C 
HETATM   11  C16 UNL     1       2.231  55.875  -7.338  1.00  0.00     0.003 C 
HETATM   12  C17 UNL     1       3.259  56.773  -6.493  1.00  0.00    -0.035 C 
HETATM   13  C18 UNL     1       3.516  58.101  -7.252  1.00  0.00     0.016 C 
HETATM   14  C19 UNL     1       2.648  57.168  -5.111  1.00  0.00     0.017 C 
HETATM   15  C20 UNL     1       3.619  57.891  -4.183  1.00  0.00     0.080 C 
HETATM   16  C21 UNL     1       4.906  57.118  -4.007  1.00  0.00     0.135 C 
HETATM   17  O5  UNL     1       5.390  56.989  -2.879  1.00  0.00    -0.297 OA
HETATM   18  C22 UNL     1       5.623  56.608  -5.273  1.00  0.00     0.017 C 
HETATM   19  C23 UNL     1       6.404  57.776  -5.889  1.00  0.00     0.023 C 
HETATM   20  C24 UNL     1       6.667  55.552  -4.830  1.00  0.00     0.023 C 
HETATM   21  C25 UNL     1       4.558  55.935  -6.210  1.00  0.00     0.009 C 
HETATM   22  C26 UNL     1       5.133  55.319  -7.499  1.00  0.00     0.007 C 
HETATM   23  C27 UNL     1       4.095  54.507  -8.302  1.00  0.00     0.011 C 
HETATM   24  C28 UNL     1       2.794  55.286  -8.696  1.00  0.00    -0.022 C 
HETATM   25  C29 UNL     1       3.260  56.366  -9.720  1.00  0.00     0.017 C 
HETATM   26  C30 UNL     1      -0.619  52.946  -9.029  1.00  0.00     0.018 C 
ENDROOT
BRANCH   4  27
HETATM   27  C8  UNL     1      -2.627  53.380 -10.499  1.00  0.00     0.149 C 
HETATM   28  O1  UNL     1      -3.382  52.824  -9.710  1.00  0.00    -0.649 OA
BRANCH  27  29
HETATM   29  O2  UNL     1      -3.152  54.041 -11.552  1.00  0.00    -0.776 OA
HETATM   30  H11 UNL     1      -4.120  53.930 -11.435  1.00  0.00     0.167 HD
ENDBRANCH  27  29
ENDBRANCH   4  27
BRANCH   1  31
HETATM   31  C2  UNL     1       0.057  50.571  -8.037  1.00  0.00    -0.088 C 
HETATM   32  C1  UNL     1       1.198  49.864  -8.102  1.00  0.00     0.014 C 
HETATM   33  C3  UNL     1      -0.810  50.460  -6.804  1.00  0.00     0.043 C 
ENDBRANCH   1  31
BRANCH   7  34
HETATM   34  C12 UNL     1       2.381  53.262 -10.193  1.00  0.00     0.149 C 
HETATM   35  O3  UNL     1       2.777  52.207  -9.721  1.00  0.00    -0.649 OA
BRANCH  34  36
HETATM   36  O4  UNL     1       2.522  53.467 -11.511  1.00  0.00    -0.776 OA
HETATM   37  H16 UNL     1       2.949  52.647 -11.832  1.00  0.00     0.167 HD
ENDBRANCH  34  36
ENDBRANCH   7  34
TORSDOF 5
ENDMDL
MODEL 9
REMARK minimizedAffinity -6.53407192
REMARK CNNscore 0.249619886
REMARK CNNaffinity 5.75672722
REMARK  5 active torsions:
REMARK  status: ('A' for Active; 'I' for Inactive)
REMARK    1  A    between atoms: C2_2  and  C4_4 
REMARK    2  A    between atoms: C7_7  and  C8_8 
REMARK    3  A    between atoms: C8_8  and  O2_10 
REMARK    4  A    between atoms: C11_13  and  C12_14 
REMARK    5  A    between atoms: C12_14  and  O4_16 
ROOT
HETATM    1  C4  UNL     1      -6.568  47.511 -31.524  1.00  0.00     0.019 C 
HETATM    2  C5  UNL     1      -6.161  47.316 -30.057  1.00  0.00     0.011 C 
HETATM    3  C6  UNL     1      -7.461  47.312 -29.246  1.00  0.00     0.021 C 
HETATM    4  C7  UNL     1      -8.629  47.329 -30.253  1.00  0.00     0.050 C 
HETATM    5  C9  UNL     1      -9.756  46.372 -29.832  1.00  0.00     0.022 C 
HETATM    6  C10 UNL     1      -9.497  44.859 -29.947  1.00  0.00     0.023 C 
HETATM    7  C11 UNL     1      -8.410  44.373 -30.980  1.00  0.00     0.057 C 
HETATM    8  C13 UNL     1      -8.385  45.498 -32.063  1.00  0.00     0.011 C 
HETATM    9  C14 UNL     1      -7.808  45.019 -33.376  1.00  0.00     0.007 C 
HETATM   10  C15 UNL     1      -8.708  43.946 -33.983  1.00  0.00     0.006 C 
HETATM   11  C16 UNL     1      -9.510  43.024 -32.998  1.00  0.00     0.003 C 
HETATM   12  C17 UNL     1      -9.901  41.648 -33.728  1.00  0.00    -0.035 C 
HETATM   13  C18 UNL     1     -11.018  40.943 -32.918  1.00  0.00     0.016 C 
HETATM   14  C19 UNL     1     -10.491  41.920 -35.148  1.00  0.00     0.017 C 
HETATM   15  C20 UNL     1     -10.745  40.661 -35.970  1.00  0.00     0.080 C 
HETATM   16  C21 UNL     1      -9.513  39.789 -36.053  1.00  0.00     0.135 C 
HETATM   17  O5  UNL     1      -9.182  39.301 -37.137  1.00  0.00    -0.297 OA
HETATM   18  C22 UNL     1      -8.772  39.457 -34.742  1.00  0.00     0.017 C 
HETATM   19  C23 UNL     1      -9.529  38.327 -34.032  1.00  0.00     0.023 C 
HETATM   20  C24 UNL     1      -7.376  38.897 -35.119  1.00  0.00     0.023 C 
HETATM   21  C25 UNL     1      -8.603  40.782 -33.917  1.00  0.00     0.009 C 
HETATM   22  C26 UNL     1      -7.823  40.625 -32.598  1.00  0.00     0.007 C 
HETATM   23  C27 UNL     1      -7.515  41.971 -31.909  1.00  0.00     0.011 C 
HETATM   24  C28 UNL     1      -8.761  42.872 -31.610  1.00  0.00    -0.022 C 
HETATM   25  C29 UNL     1      -9.570  42.101 -30.524  1.00  0.00     0.017 C 
HETATM   26  C30 UNL     1      -8.017  46.956 -31.631  1.00  0.00     0.018 C 
ENDROOT
BRANCH   4  27
HETATM   27  C8  UNL     1      -9.250  48.737 -30.331  1.00  0.00     0.149 C 
HETATM   28  O1  UNL     1      -8.700  49.754 -30.736  1.00  0.00    -0.649 OA
BRANCH  27  29
HETATM   29  O2  UNL     1     -10.517  48.815 -29.873  1.00  0.00    -0.776 OA
HETATM   30  H11 UNL     1     -10.746  49.762 -29.989  1.00  0.00     0.167 HD
ENDBRANCH  27  29
ENDBRANCH   4  27
BRANCH   1  31
HETATM   31  C2  UNL     1      -5.560  47.218 -32.619  1.00  0.00    -0.088 C 
HETATM   32  C1  UNL     1      -5.653  47.644 -33.891  1.00  0.00     0.014 C 
HETATM   33  C3  UNL     1      -4.448  46.268 -32.239  1.00  0.00     0.043 C 
ENDBRANCH   1  31
BRANCH   7  34
HETATM   34  C12 UNL     1      -7.100  44.204 -30.204  1.00  0.00     0.149 C 
HETATM   35  O3  UNL     1      -6.976  44.099 -28.994  1.00  0.00    -0.649 OA
BRANCH  34  36
HETATM   36  O4  UNL     1      -6.010  44.073 -30.974  1.00  0.00    -0.776 OA
HETATM   37  H16 UNL     1      -5.288  43.903 -30.333  1.00  0.00     0.167 HD
ENDBRANCH  34  36
ENDBRANCH   7  34
TORSDOF 5
ENDMDL
