MODEL 1
REMARK minimizedAffinity -8.96993351
REMARK  4 active torsions:
REMARK  status: ('A' for Active; 'I' for Inactive)
REMARK    1  A    between atoms: C4_4  and  C5_5 
REMARK    2  A    between atoms: C5_5  and  C6_6 
REMARK    3  A    between atoms: C6_6  and  C7_7 
REMARK    4  A    between atoms: C7_7  and  C9_9 
ROOT
HETATM    1  C9  UNL     1      -5.955   7.533  14.468  1.00  0.00    -0.002 C 
HETATM    2  C10 UNL     1      -5.525   8.350  15.723  1.00  0.00     0.007 C 
HETATM    3  C11 UNL     1      -4.044   8.689  15.561  1.00  0.00     0.015 C 
HETATM    4  C12 UNL     1      -3.489   7.505  14.751  1.00  0.00    -0.013 C 
HETATM    5  C13 UNL     1      -3.342   6.304  15.731  1.00  0.00     0.021 C 
HETATM    6  C14 UNL     1      -2.137   7.689  14.084  1.00  0.00    -0.070 C 
HETATM    7  C15 UNL     1      -1.233   8.609  14.455  1.00  0.00    -0.022 C 
HETATM    8  C16 UNL     1       0.053   8.797  13.716  1.00  0.00     0.034 C 
HETATM    9  C17 UNL     1       0.691   7.505  13.135  1.00  0.00     0.013 C 
HETATM   10  C18 UNL     1       1.625   7.813  11.911  1.00  0.00     0.018 C 
HETATM   11  C19 UNL     1       0.905   8.440  10.703  1.00  0.00     0.023 C 
HETATM   12  C20 UNL     1       2.748   8.793  12.339  1.00  0.00     0.023 C 
HETATM   13  C21 UNL     1       2.297   6.506  11.467  1.00  0.00     0.135 C 
HETATM   14  O1  UNL     1       3.488   6.449  11.128  1.00  0.00    -0.297 OA
HETATM   15  C22 UNL     1       1.473   5.241  11.429  1.00  0.00     0.080 C 
HETATM   16  C23 UNL     1      -0.007   5.476  11.666  1.00  0.00     0.017 C 
HETATM   17  C24 UNL     1      -0.323   6.298  12.941  1.00  0.00    -0.031 C 
HETATM   18  C25 UNL     1      -0.127   5.344  14.161  1.00  0.00     0.016 C 
HETATM   19  C26 UNL     1      -1.817   6.811  12.881  1.00  0.00     0.024 C 
HETATM   20  C27 UNL     1      -2.867   5.703  12.592  1.00  0.00     0.010 C 
HETATM   21  C28 UNL     1      -4.350   6.004  12.917  1.00  0.00     0.011 C 
HETATM   22  C29 UNL     1      -4.604   7.324  13.667  1.00  0.00    -0.029 C 
HETATM   23  C30 UNL     1      -4.610   8.463  12.589  1.00  0.00     0.016 C 
ENDROOT
BRANCH   1  24
HETATM   24  C7  UNL     1      -6.855   6.294  14.780  1.00  0.00    -0.014 C 
HETATM   25  C8  UNL     1      -6.700   5.833  16.240  1.00  0.00     0.010 C 
BRANCH  24  26
HETATM   26  C6  UNL     1      -6.641   5.081  13.828  1.00  0.00     0.008 C 
BRANCH  26  27
HETATM   27  C5  UNL     1      -7.890   4.372  13.271  1.00  0.00     0.028 C 
BRANCH  27  28
HETATM   28  C4  UNL     1      -7.586   3.124  12.492  1.00  0.00    -0.025 C 
HETATM   29  C2  UNL     1      -6.382   2.612  12.161  1.00  0.00    -0.091 C 
HETATM   30  C1  UNL     1      -5.050   3.209  12.522  1.00  0.00     0.042 C 
HETATM   31  C3  UNL     1      -6.289   1.328  11.372  1.00  0.00     0.042 C 
ENDBRANCH  27  28
ENDBRANCH  26  27
ENDBRANCH  24  26
ENDBRANCH   1  24
TORSDOF 4
ENDMDL
MODEL 2
REMARK minimizedAffinity -8.74684715
REMARK  4 active torsions:
REMARK  status: ('A' for Active; 'I' for Inactive)
REMARK    1  A    between atoms: C4_4  and  C5_5 
REMARK    2  A    between atoms: C5_5  and  C6_6 
REMARK    3  A    between atoms: C6_6  and  C7_7 
REMARK    4  A    between atoms: C7_7  and  C9_9 
ROOT
HETATM    1  C9  UNL     1      -3.263   8.914  14.530  1.00  0.00    -0.002 C 
HETATM    2  C10 UNL     1      -2.940   8.044  15.782  1.00  0.00     0.007 C 
HETATM    3  C11 UNL     1      -1.449   7.715  15.736  1.00  0.00     0.015 C 
HETATM    4  C12 UNL     1      -1.134   7.672  14.232  1.00  0.00    -0.013 C 
HETATM    5  C13 UNL     1      -1.682   6.322  13.683  1.00  0.00     0.021 C 
HETATM    6  C14 UNL     1       0.327   7.746  13.822  1.00  0.00    -0.070 C 
HETATM    7  C15 UNL     1       1.353   7.450  14.635  1.00  0.00    -0.022 C 
HETATM    8  C16 UNL     1       2.775   7.612  14.204  1.00  0.00     0.034 C 
HETATM    9  C17 UNL     1       3.065   7.304  12.708  1.00  0.00     0.013 C 
HETATM   10  C18 UNL     1       4.345   8.054  12.195  1.00  0.00     0.018 C 
HETATM   11  C19 UNL     1       4.244   9.589  12.238  1.00  0.00     0.023 C 
HETATM   12  C20 UNL     1       5.573   7.648  13.050  1.00  0.00     0.023 C 
HETATM   13  C21 UNL     1       4.623   7.614  10.750  1.00  0.00     0.135 C 
HETATM   14  O1  UNL     1       5.766   7.387  10.329  1.00  0.00    -0.297 OA
HETATM   15  C22 UNL     1       3.459   7.465   9.799  1.00  0.00     0.080 C 
HETATM   16  C23 UNL     1       2.144   7.965  10.368  1.00  0.00     0.017 C 
HETATM   17  C24 UNL     1       1.793   7.382  11.760  1.00  0.00    -0.031 C 
HETATM   18  C25 UNL     1       1.308   5.916  11.534  1.00  0.00     0.016 C 
HETATM   19  C26 UNL     1       0.643   8.245  12.418  1.00  0.00     0.024 C 
HETATM   20  C27 UNL     1      -0.602   8.456  11.512  1.00  0.00     0.010 C 
HETATM   21  C28 UNL     1      -1.920   8.912  12.182  1.00  0.00     0.011 C 
HETATM   22  C29 UNL     1      -1.901   8.938  13.720  1.00  0.00    -0.029 C 
HETATM   23  C30 UNL     1      -1.221  10.286  14.142  1.00  0.00     0.016 C 
ENDROOT
BRANCH   1  24
HETATM   24  C7  UNL     1      -4.581   8.518  13.790  1.00  0.00    -0.014 C 
HETATM   25  C8  UNL     1      -5.810   8.657  14.706  1.00  0.00     0.010 C 
BRANCH  24  26
HETATM   26  C6  UNL     1      -4.567   7.098  13.154  1.00  0.00     0.008 C 
BRANCH  26  27
HETATM   27  C5  UNL     1      -5.453   6.012  13.793  1.00  0.00     0.028 C 
BRANCH  27  28
HETATM   28  C4  UNL     1      -5.418   4.695  13.070  1.00  0.00    -0.025 C 
HETATM   29  C2  UNL     1      -6.454   3.927  12.671  1.00  0.00    -0.091 C 
HETATM   30  C1  UNL     1      -7.909   4.249  12.873  1.00  0.00     0.042 C 
HETATM   31  C3  UNL     1      -6.204   2.627  11.944  1.00  0.00     0.042 C 
ENDBRANCH  27  28
ENDBRANCH  26  27
ENDBRANCH  24  26
ENDBRANCH   1  24
TORSDOF 4
ENDMDL
MODEL 3
REMARK minimizedAffinity -8.1652689
REMARK  4 active torsions:
REMARK  status: ('A' for Active; 'I' for Inactive)
REMARK    1  A    between atoms: C4_4  and  C5_5 
REMARK    2  A    between atoms: C5_5  and  C6_6 
REMARK    3  A    between atoms: C6_6  and  C7_7 
REMARK    4  A    between atoms: C7_7  and  C9_9 
ROOT
HETATM    1  C9  UNL     1      -1.237  11.554  18.248  1.00  0.00    -0.002 C 
HETATM    2  C10 UNL     1      -2.091  12.727  17.680  1.00  0.00     0.007 C 
HETATM    3  C11 UNL     1      -3.245  12.110  16.892  1.00  0.00     0.015 C 
HETATM    4  C12 UNL     1      -2.658  10.793  16.360  1.00  0.00    -0.013 C 
HETATM    5  C13 UNL     1      -1.730  11.152  15.161  1.00  0.00     0.021 C 
HETATM    6  C14 UNL     1      -3.635   9.746  15.854  1.00  0.00    -0.070 C 
HETATM    7  C15 UNL     1      -4.893  10.014  15.469  1.00  0.00    -0.022 C 
HETATM    8  C16 UNL     1      -5.838   8.935  15.049  1.00  0.00     0.034 C 
HETATM    9  C17 UNL     1      -5.201   7.740  14.286  1.00  0.00     0.013 C 
HETATM   10  C18 UNL     1      -6.058   6.433  14.426  1.00  0.00     0.018 C 
HETATM   11  C19 UNL     1      -6.195   5.913  15.869  1.00  0.00     0.023 C 
HETATM   12  C20 UNL     1      -7.490   6.681  13.887  1.00  0.00     0.023 C 
HETATM   13  C21 UNL     1      -5.423   5.336  13.560  1.00  0.00     0.135 C 
HETATM   14  O1  UNL     1      -6.096   4.550  12.878  1.00  0.00    -0.297 OA
HETATM   15  C22 UNL     1      -3.918   5.199  13.547  1.00  0.00     0.080 C 
HETATM   16  C23 UNL     1      -3.223   6.077  14.571  1.00  0.00     0.017 C 
HETATM   17  C24 UNL     1      -3.638   7.569  14.516  1.00  0.00    -0.031 C 
HETATM   18  C25 UNL     1      -2.928   8.197  13.276  1.00  0.00     0.016 C 
HETATM   19  C26 UNL     1      -3.173   8.295  15.840  1.00  0.00     0.024 C 
HETATM   20  C27 UNL     1      -1.674   8.091  16.194  1.00  0.00     0.010 C 
HETATM   21  C28 UNL     1      -1.025   9.067  17.205  1.00  0.00     0.011 C 
HETATM   22  C29 UNL     1      -1.904  10.259  17.624  1.00  0.00    -0.029 C 
HETATM   23  C30 UNL     1      -2.869   9.739  18.745  1.00  0.00     0.016 C 
ENDROOT
BRANCH   1  24
HETATM   24  C7  UNL     1       0.307  11.754  18.116  1.00  0.00    -0.014 C 
HETATM   25  C8  UNL     1       0.961  10.615  17.313  1.00  0.00     0.010 C 
BRANCH  24  26
HETATM   26  C6  UNL     1       1.056  11.931  19.469  1.00  0.00     0.008 C 
BRANCH  26  27
HETATM   27  C5  UNL     1       1.083  10.736  20.440  1.00  0.00     0.028 C 
BRANCH  27  28
HETATM   28  C4  UNL     1       2.275  10.722  21.355  1.00  0.00    -0.025 C 
HETATM   29  C2  UNL     1       2.695   9.737  22.176  1.00  0.00    -0.091 C 
HETATM   30  C1  UNL     1       2.030   8.398  22.344  1.00  0.00     0.042 C 
HETATM   31  C3  UNL     1       3.935   9.920  23.017  1.00  0.00     0.042 C 
ENDBRANCH  27  28
ENDBRANCH  26  27
ENDBRANCH  24  26
ENDBRANCH   1  24
TORSDOF 4
ENDMDL
MODEL 4
REMARK minimizedAffinity -8.09952927
REMARK  4 active torsions:
REMARK  status: ('A' for Active; 'I' for Inactive)
REMARK    1  A    between atoms: C4_4  and  C5_5 
REMARK    2  A    between atoms: C5_5  and  C6_6 
REMARK    3  A    between atoms: C6_6  and  C7_7 
REMARK    4  A    between atoms: C7_7  and  C9_9 
ROOT
HETATM    1  C9  UNL     1      -5.783   7.698  14.597  1.00  0.00    -0.002 C 
HETATM    2  C10 UNL     1      -5.264   8.546  15.797  1.00  0.00     0.007 C 
HETATM    3  C11 UNL     1      -3.784   8.832  15.545  1.00  0.00     0.015 C 
HETATM    4  C12 UNL     1      -3.307   7.604  14.753  1.00  0.00    -0.013 C 
HETATM    5  C13 UNL     1      -3.144   6.435  15.768  1.00  0.00     0.021 C 
HETATM    6  C14 UNL     1      -1.988   7.722  14.010  1.00  0.00    -0.070 C 
HETATM    7  C15 UNL     1      -1.039   8.627  14.299  1.00  0.00    -0.022 C 
HETATM    8  C16 UNL     1       0.211   8.747  13.487  1.00  0.00     0.034 C 
HETATM    9  C17 UNL     1       0.779   7.416  12.923  1.00  0.00     0.013 C 
HETATM   10  C18 UNL     1       1.656   7.651  11.642  1.00  0.00     0.018 C 
HETATM   11  C19 UNL     1       0.891   8.256  10.450  1.00  0.00     0.023 C 
HETATM   12  C20 UNL     1       2.827   8.610  11.973  1.00  0.00     0.023 C 
HETATM   13  C21 UNL     1       2.265   6.309  11.213  1.00  0.00     0.135 C 
HETATM   14  O1  UNL     1       3.434   6.203  10.815  1.00  0.00    -0.297 OA
HETATM   15  C22 UNL     1       1.403   5.070  11.264  1.00  0.00     0.080 C 
HETATM   16  C23 UNL     1      -0.055   5.358  11.569  1.00  0.00     0.017 C 
HETATM   17  C24 UNL     1      -0.278   6.235  12.828  1.00  0.00    -0.031 C 
HETATM   18  C25 UNL     1      -0.046   5.320  14.070  1.00  0.00     0.016 C 
HETATM   19  C26 UNL     1      -1.757   6.792  12.826  1.00  0.00     0.024 C 
HETATM   20  C27 UNL     1      -2.854   5.707  12.634  1.00  0.00     0.010 C 
HETATM   21  C28 UNL     1      -4.308   6.065  13.024  1.00  0.00     0.011 C 
HETATM   22  C29 UNL     1      -4.484   7.418  13.735  1.00  0.00    -0.029 C 
HETATM   23  C30 UNL     1      -4.513   8.517  12.617  1.00  0.00     0.016 C 
ENDROOT
BRANCH   1  24
HETATM   24  C7  UNL     1      -6.701   6.499  15.001  1.00  0.00    -0.014 C 
HETATM   25  C8  UNL     1      -7.697   6.144  13.884  1.00  0.00     0.010 C 
BRANCH  24  26
HETATM   26  C6  UNL     1      -7.471   6.695  16.339  1.00  0.00     0.008 C 
BRANCH  26  27
HETATM   27  C5  UNL     1      -8.945   7.137  16.265  1.00  0.00     0.028 C 
BRANCH  27  28
HETATM   28  C4  UNL     1      -9.128   8.619  16.094  1.00  0.00    -0.025 C 
HETATM   29  C2  UNL     1      -9.840   9.275  15.154  1.00  0.00    -0.091 C 
HETATM   30  C1  UNL     1     -10.628   8.630  14.047  1.00  0.00     0.042 C 
HETATM   31  C3  UNL     1      -9.905  10.783  15.160  1.00  0.00     0.042 C 
ENDBRANCH  27  28
ENDBRANCH  26  27
ENDBRANCH  24  26
ENDBRANCH   1  24
TORSDOF 4
ENDMDL
MODEL 5
REMARK minimizedAffinity -8.08859539
REMARK  4 active torsions:
REMARK  status: ('A' for Active; 'I' for Inactive)
REMARK    1  A    between atoms: C4_4  and  C5_5 
REMARK    2  A    between atoms: C5_5  and  C6_6 
REMARK    3  A    between atoms: C6_6  and  C7_7 
REMARK    4  A    between atoms: C7_7  and  C9_9 
ROOT
HETATM    1  C9  UNL     1      -2.564   7.283  12.995  1.00  0.00    -0.002 C 
HETATM    2  C10 UNL     1      -4.095   7.572  12.968  1.00  0.00     0.007 C 
HETATM    3  C11 UNL     1      -4.337   8.827  13.806  1.00  0.00     0.015 C 
HETATM    4  C12 UNL     1      -3.227   8.772  14.868  1.00  0.00    -0.013 C 
HETATM    5  C13 UNL     1      -3.649   7.708  15.924  1.00  0.00     0.021 C 
HETATM    6  C14 UNL     1      -2.930  10.050  15.635  1.00  0.00    -0.070 C 
HETATM    7  C15 UNL     1      -3.788  11.076  15.748  1.00  0.00    -0.022 C 
HETATM    8  C16 UNL     1      -3.416  12.341  16.452  1.00  0.00     0.034 C 
HETATM    9  C17 UNL     1      -2.482  12.179  17.683  1.00  0.00     0.013 C 
HETATM   10  C18 UNL     1      -1.664  13.487  17.972  1.00  0.00     0.018 C 
HETATM   11  C19 UNL     1      -0.708  13.904  16.840  1.00  0.00     0.023 C 
HETATM   12  C20 UNL     1      -2.633  14.672  18.216  1.00  0.00     0.023 C 
HETATM   13  C21 UNL     1      -0.852  13.282  19.259  1.00  0.00     0.135 C 
HETATM   14  O1  UNL     1      -0.727  14.167  20.118  1.00  0.00    -0.297 OA
HETATM   15  C22 UNL     1      -0.168  11.954  19.484  1.00  0.00     0.080 C 
HETATM   16  C23 UNL     1      -0.225  11.033  18.280  1.00  0.00     0.017 C 
HETATM   17  C24 UNL     1      -1.650  10.826  17.705  1.00  0.00    -0.031 C 
HETATM   18  C25 UNL     1      -2.396   9.854  18.671  1.00  0.00     0.016 C 
HETATM   19  C26 UNL     1      -1.549  10.194  16.261  1.00  0.00     0.024 C 
HETATM   20  C27 UNL     1      -0.665   8.919  16.176  1.00  0.00     0.010 C 
HETATM   21  C28 UNL     1      -0.826   8.002  14.940  1.00  0.00     0.011 C 
HETATM   22  C29 UNL     1      -1.989   8.365  13.999  1.00  0.00    -0.029 C 
HETATM   23  C30 UNL     1      -1.477   9.522  13.073  1.00  0.00     0.016 C 
ENDROOT
BRANCH   1  24
HETATM   24  C7  UNL     1      -2.193   5.779  13.203  1.00  0.00    -0.014 C 
HETATM   25  C8  UNL     1      -1.429   5.211  11.994  1.00  0.00     0.010 C 
BRANCH  24  26
HETATM   26  C6  UNL     1      -3.400   4.854  13.535  1.00  0.00     0.008 C 
BRANCH  26  27
HETATM   27  C5  UNL     1      -4.182   4.238  12.360  1.00  0.00     0.028 C 
BRANCH  27  28
HETATM   28  C4  UNL     1      -5.594   3.855  12.703  1.00  0.00    -0.025 C 
HETATM   29  C2  UNL     1      -6.308   2.796  12.267  1.00  0.00    -0.091 C 
HETATM   30  C1  UNL     1      -5.814   1.742  11.315  1.00  0.00     0.042 C 
HETATM   31  C3  UNL     1      -7.725   2.583  12.742  1.00  0.00     0.042 C 
ENDBRANCH  27  28
ENDBRANCH  26  27
ENDBRANCH  24  26
ENDBRANCH   1  24
TORSDOF 4
ENDMDL
MODEL 6
REMARK minimizedAffinity -8.0877552
REMARK  4 active torsions:
REMARK  status: ('A' for Active; 'I' for Inactive)
REMARK    1  A    between atoms: C4_4  and  C5_5 
REMARK    2  A    between atoms: C5_5  and  C6_6 
REMARK    3  A    between atoms: C6_6  and  C7_7 
REMARK    4  A    between atoms: C7_7  and  C9_9 
ROOT
HETATM    1  C9  UNL     1      -1.063   6.046  12.934  1.00  0.00    -0.002 C 
HETATM    2  C10 UNL     1      -0.867   6.996  11.715  1.00  0.00     0.007 C 
HETATM    3  C11 UNL     1      -0.818   8.425  12.254  1.00  0.00     0.015 C 
HETATM    4  C12 UNL     1      -1.719   8.373  13.499  1.00  0.00    -0.013 C 
HETATM    5  C13 UNL     1      -3.194   8.367  13.001  1.00  0.00     0.021 C 
HETATM    6  C14 UNL     1      -1.601   9.514  14.495  1.00  0.00    -0.070 C 
HETATM    7  C15 UNL     1      -1.094  10.721  14.200  1.00  0.00    -0.022 C 
HETATM    8  C16 UNL     1      -0.932  11.785  15.237  1.00  0.00     0.034 C 
HETATM    9  C17 UNL     1      -2.032  11.830  16.334  1.00  0.00     0.013 C 
HETATM   10  C18 UNL     1      -1.511  12.492  17.658  1.00  0.00     0.018 C 
HETATM   11  C19 UNL     1      -0.352  11.737  18.334  1.00  0.00     0.023 C 
HETATM   12  C20 UNL     1      -1.017  13.933  17.368  1.00  0.00     0.023 C 
HETATM   13  C21 UNL     1      -2.681  12.596  18.647  1.00  0.00     0.135 C 
HETATM   14  O1  UNL     1      -2.866  13.592  19.361  1.00  0.00    -0.297 OA
HETATM   15  C22 UNL     1      -3.639  11.434  18.765  1.00  0.00     0.080 C 
HETATM   16  C23 UNL     1      -3.194  10.203  17.998  1.00  0.00     0.017 C 
HETATM   17  C24 UNL     1      -2.841  10.474  16.513  1.00  0.00    -0.031 C 
HETATM   18  C25 UNL     1      -4.188  10.648  15.746  1.00  0.00     0.016 C 
HETATM   19  C26 UNL     1      -2.033   9.247  15.931  1.00  0.00     0.024 C 
HETATM   20  C27 UNL     1      -2.709   7.866  16.156  1.00  0.00     0.010 C 
HETATM   21  C28 UNL     1      -2.236   6.674  15.290  1.00  0.00     0.011 C 
HETATM   22  C29 UNL     1      -1.254   7.031  14.160  1.00  0.00    -0.029 C 
HETATM   23  C30 UNL     1       0.170   7.124  14.810  1.00  0.00     0.016 C 
ENDROOT
BRANCH   1  24
HETATM   24  C7  UNL     1      -2.108   4.907  12.704  1.00  0.00    -0.014 C 
HETATM   25  C8  UNL     1      -1.724   4.017  11.508  1.00  0.00     0.010 C 
BRANCH  24  26
HETATM   26  C6  UNL     1      -3.575   5.397  12.535  1.00  0.00     0.008 C 
BRANCH  26  27
HETATM   27  C5  UNL     1      -4.700   4.524  13.124  1.00  0.00     0.028 C 
BRANCH  27  28
HETATM   28  C4  UNL     1      -6.057   5.169  13.080  1.00  0.00    -0.025 C 
HETATM   29  C2  UNL     1      -7.270   4.579  13.127  1.00  0.00    -0.091 C 
HETATM   30  C1  UNL     1      -7.518   3.100  13.241  1.00  0.00     0.042 C 
HETATM   31  C3  UNL     1      -8.526   5.414  13.076  1.00  0.00     0.042 C 
ENDBRANCH  27  28
ENDBRANCH  26  27
ENDBRANCH  24  26
ENDBRANCH   1  24
TORSDOF 4
ENDMDL
MODEL 7
REMARK minimizedAffinity -8.08433723
REMARK  4 active torsions:
REMARK  status: ('A' for Active; 'I' for Inactive)
REMARK    1  A    between atoms: C4_4  and  C5_5 
REMARK    2  A    between atoms: C5_5  and  C6_6 
REMARK    3  A    between atoms: C6_6  and  C7_7 
REMARK    4  A    between atoms: C7_7  and  C9_9 
ROOT
HETATM    1  C9  UNL     1      -4.220   8.635  14.720  1.00  0.00    -0.002 C 
HETATM    2  C10 UNL     1      -3.427   9.708  15.525  1.00  0.00     0.007 C 
HETATM    3  C11 UNL     1      -2.038   9.814  14.898  1.00  0.00     0.015 C 
HETATM    4  C12 UNL     1      -1.775   8.398  14.360  1.00  0.00    -0.013 C 
HETATM    5  C13 UNL     1      -1.407   7.502  15.579  1.00  0.00     0.021 C 
HETATM    6  C14 UNL     1      -0.656   8.233  13.346  1.00  0.00    -0.070 C 
HETATM    7  C15 UNL     1       0.350   9.108  13.186  1.00  0.00    -0.022 C 
HETATM    8  C16 UNL     1       1.385   8.934  12.122  1.00  0.00     0.034 C 
HETATM    9  C17 UNL     1       1.787   7.467  11.805  1.00  0.00     0.013 C 
HETATM   10  C18 UNL     1       2.355   7.318  10.349  1.00  0.00     0.018 C 
HETATM   11  C19 UNL     1       1.352   7.670   9.235  1.00  0.00     0.023 C 
HETATM   12  C20 UNL     1       3.588   8.239  10.167  1.00  0.00     0.023 C 
HETATM   13  C21 UNL     1       2.827   5.870  10.154  1.00  0.00     0.135 C 
HETATM   14  O1  UNL     1       3.874   5.584   9.554  1.00  0.00    -0.297 OA
HETATM   15  C22 UNL     1       1.978   4.748  10.702  1.00  0.00     0.080 C 
HETATM   16  C23 UNL     1       0.632   5.210  11.229  1.00  0.00     0.017 C 
HETATM   17  C24 UNL     1       0.715   6.380  12.242  1.00  0.00    -0.031 C 
HETATM   18  C25 UNL     1       1.206   5.781  13.596  1.00  0.00     0.016 C 
HETATM   19  C26 UNL     1      -0.716   7.029  12.416  1.00  0.00     0.024 C 
HETATM   20  C27 UNL     1      -1.847   6.014  12.745  1.00  0.00     0.010 C 
HETATM   21  C28 UNL     1      -3.168   6.563  13.334  1.00  0.00     0.011 C 
HETATM   22  C29 UNL     1      -3.154   8.058  13.700  1.00  0.00    -0.029 C 
HETATM   23  C30 UNL     1      -3.416   8.851  12.373  1.00  0.00     0.016 C 
ENDROOT
BRANCH   1  24
HETATM   24  C7  UNL     1      -5.043   7.642  15.603  1.00  0.00    -0.014 C 
HETATM   25  C8  UNL     1      -4.487   6.210  15.517  1.00  0.00     0.010 C 
BRANCH  24  26
HETATM   26  C6  UNL     1      -6.571   7.624  15.306  1.00  0.00     0.008 C 
BRANCH  26  27
HETATM   27  C5  UNL     1      -7.188   6.314  14.781  1.00  0.00     0.028 C 
BRANCH  27  28
HETATM   28  C4  UNL     1      -7.872   6.453  13.450  1.00  0.00    -0.025 C 
HETATM   29  C2  UNL     1      -8.292   5.481  12.614  1.00  0.00    -0.091 C 
HETATM   30  C1  UNL     1      -8.157   4.003  12.857  1.00  0.00     0.042 C 
HETATM   31  C3  UNL     1      -8.971   5.834  11.313  1.00  0.00     0.042 C 
ENDBRANCH  27  28
ENDBRANCH  26  27
ENDBRANCH  24  26
ENDBRANCH   1  24
TORSDOF 4
ENDMDL
MODEL 8
REMARK minimizedAffinity -7.98641825
REMARK  4 active torsions:
REMARK  status: ('A' for Active; 'I' for Inactive)
REMARK    1  A    between atoms: C4_4  and  C5_5 
REMARK    2  A    between atoms: C5_5  and  C6_6 
REMARK    3  A    between atoms: C6_6  and  C7_7 
REMARK    4  A    between atoms: C7_7  and  C9_9 
ROOT
HETATM    1  C9  UNL     1      -4.154   6.953  13.785  1.00  0.00    -0.002 C 
HETATM    2  C10 UNL     1      -4.651   8.229  13.041  1.00  0.00     0.007 C 
HETATM    3  C11 UNL     1      -3.560   8.632  12.050  1.00  0.00     0.015 C 
HETATM    4  C12 UNL     1      -2.263   8.168  12.732  1.00  0.00    -0.013 C 
HETATM    5  C13 UNL     1      -1.939   9.194  13.857  1.00  0.00     0.021 C 
HETATM    6  C14 UNL     1      -1.018   8.065  11.867  1.00  0.00    -0.070 C 
HETATM    7  C15 UNL     1      -0.859   8.704  10.697  1.00  0.00    -0.022 C 
HETATM    8  C16 UNL     1       0.357   8.509   9.849  1.00  0.00     0.034 C 
HETATM    9  C17 UNL     1       1.688   8.292  10.620  1.00  0.00     0.013 C 
HETATM   10  C18 UNL     1       2.741   7.509   9.759  1.00  0.00     0.018 C 
HETATM   11  C19 UNL     1       2.310   6.083   9.368  1.00  0.00     0.023 C 
HETATM   12  C20 UNL     1       3.028   8.281   8.446  1.00  0.00     0.023 C 
HETATM   13  C21 UNL     1       4.057   7.432  10.546  1.00  0.00     0.135 C 
HETATM   14  O1  UNL     1       5.165   7.583  10.011  1.00  0.00    -0.297 OA
HETATM   15  C22 UNL     1       4.003   7.150  12.029  1.00  0.00     0.080 C 
HETATM   16  C23 UNL     1       2.616   6.784  12.524  1.00  0.00     0.017 C 
HETATM   17  C24 UNL     1       1.510   7.791  12.117  1.00  0.00    -0.031 C 
HETATM   18  C25 UNL     1       1.670   9.043  13.034  1.00  0.00     0.016 C 
HETATM   19  C26 UNL     1       0.091   7.130  12.332  1.00  0.00     0.024 C 
HETATM   20  C27 UNL     1      -0.128   6.521  13.745  1.00  0.00     0.010 C 
HETATM   21  C28 UNL     1      -1.580   6.231  14.196  1.00  0.00     0.011 C 
HETATM   22  C29 UNL     1      -2.678   6.749  13.249  1.00  0.00    -0.029 C 
HETATM   23  C30 UNL     1      -2.823   5.690  12.102  1.00  0.00     0.016 C 
ENDROOT
BRANCH   1  24
HETATM   24  C7  UNL     1      -4.410   6.963  15.327  1.00  0.00    -0.014 C 
HETATM   25  C8  UNL     1      -3.713   5.783  16.026  1.00  0.00     0.010 C 
BRANCH  24  26
HETATM   26  C6  UNL     1      -5.912   6.994  15.735  1.00  0.00     0.008 C 
BRANCH  26  27
HETATM   27  C5  UNL     1      -6.811   5.836  15.261  1.00  0.00     0.028 C 
BRANCH  27  28
HETATM   28  C4  UNL     1      -7.511   6.103  13.958  1.00  0.00    -0.025 C 
HETATM   29  C2  UNL     1      -8.030   5.215  13.085  1.00  0.00    -0.091 C 
HETATM   30  C1  UNL     1      -8.016   3.720  13.248  1.00  0.00     0.042 C 
HETATM   31  C3  UNL     1      -8.706   5.692  11.822  1.00  0.00     0.042 C 
ENDBRANCH  27  28
ENDBRANCH  26  27
ENDBRANCH  24  26
ENDBRANCH   1  24
TORSDOF 4
ENDMDL
MODEL 9
REMARK minimizedAffinity -7.90033293
REMARK  4 active torsions:
REMARK  status: ('A' for Active; 'I' for Inactive)
REMARK    1  A    between atoms: C4_4  and  C5_5 
REMARK    2  A    between atoms: C5_5  and  C6_6 
REMARK    3  A    between atoms: C6_6  and  C7_7 
REMARK    4  A    between atoms: C7_7  and  C9_9 
ROOT
HETATM    1  C9  UNL     1      -1.092   9.467  13.936  1.00  0.00    -0.002 C 
HETATM    2  C10 UNL     1      -0.135   8.411  14.564  1.00  0.00     0.007 C 
HETATM    3  C11 UNL     1      -0.778   7.039  14.367  1.00  0.00     0.015 C 
HETATM    4  C12 UNL     1      -2.285   7.338  14.393  1.00  0.00    -0.013 C 
HETATM    5  C13 UNL     1      -2.686   7.566  15.880  1.00  0.00     0.021 C 
HETATM    6  C14 UNL     1      -3.219   6.270  13.850  1.00  0.00    -0.070 C 
HETATM    7  C15 UNL     1      -2.890   4.974  13.727  1.00  0.00    -0.022 C 
HETATM    8  C16 UNL     1      -3.822   3.977  13.117  1.00  0.00     0.034 C 
HETATM    9  C17 UNL     1      -5.333   4.206  13.399  1.00  0.00     0.013 C 
HETATM   10  C18 UNL     1      -6.239   3.561  12.291  1.00  0.00     0.018 C 
HETATM   11  C19 UNL     1      -6.037   4.149  10.883  1.00  0.00     0.023 C 
HETATM   12  C20 UNL     1      -5.958   2.039  12.201  1.00  0.00     0.023 C 
HETATM   13  C21 UNL     1      -7.709   3.736  12.698  1.00  0.00     0.135 C 
HETATM   14  O1  UNL     1      -8.554   2.842  12.548  1.00  0.00    -0.297 OA
HETATM   15  C22 UNL     1      -8.147   5.053  13.294  1.00  0.00     0.080 C 
HETATM   16  C23 UNL     1      -7.077   6.128  13.238  1.00  0.00     0.017 C 
HETATM   17  C24 UNL     1      -5.708   5.691  13.819  1.00  0.00    -0.031 C 
HETATM   18  C25 UNL     1      -5.846   5.700  15.373  1.00  0.00     0.016 C 
HETATM   19  C26 UNL     1      -4.592   6.713  13.362  1.00  0.00     0.024 C 
HETATM   20  C27 UNL     1      -4.929   8.204  13.644  1.00  0.00     0.010 C 
HETATM   21  C28 UNL     1      -3.769   9.228  13.624  1.00  0.00     0.011 C 
HETATM   22  C29 UNL     1      -2.360   8.623  13.499  1.00  0.00    -0.029 C 
HETATM   23  C30 UNL     1      -2.126   8.330  11.976  1.00  0.00     0.016 C 
ENDROOT
BRANCH   1  24
HETATM   24  C7  UNL     1      -1.296  10.752  14.803  1.00  0.00    -0.014 C 
HETATM   25  C8  UNL     1      -0.817  10.542  16.250  1.00  0.00     0.010 C 
BRANCH  24  26
HETATM   26  C6  UNL     1      -2.751  11.303  14.812  1.00  0.00     0.008 C 
BRANCH  26  27
HETATM   27  C5  UNL     1      -3.669  10.897  15.981  1.00  0.00     0.028 C 
BRANCH  27  28
HETATM   28  C4  UNL     1      -3.837  11.966  17.023  1.00  0.00    -0.025 C 
HETATM   29  C2  UNL     1      -3.756  11.853  18.365  1.00  0.00    -0.091 C 
HETATM   30  C1  UNL     1      -3.466  10.584  19.118  1.00  0.00     0.042 C 
HETATM   31  C3  UNL     1      -3.952  13.063  19.247  1.00  0.00     0.042 C 
ENDBRANCH  27  28
ENDBRANCH  26  27
ENDBRANCH  24  26
ENDBRANCH   1  24
TORSDOF 4
ENDMDL
