MODEL 1
REMARK minimizedAffinity -7.31954241
REMARK CNNscore 0.569650292
REMARK CNNaffinity 6.730124
REMARK  7 active torsions:
REMARK  status: ('A' for Active; 'I' for Inactive)
REMARK    1  A    between atoms: C2_2  and  C4_4 
REMARK    2  A    between atoms: C7_7  and  O1_9 
REMARK    3  A    between atoms: C9_10  and  C10_11 
REMARK    4  A    between atoms: C11_12  and  C12_13 
REMARK    5  A    between atoms: C14_15  and  C15_16 
REMARK    6  A    between atoms: C24_26  and  C26_28 
REMARK    7  A    between atoms: C29_32  and  O4_34 
ROOT
HETATM    1  C15 UNL     1      -5.026  48.650 -30.105  1.00  0.00     0.149 C 
HETATM    2  C16 UNL     1      -6.523  48.916 -30.221  1.00  0.00     0.054 C 
HETATM    3  C17 UNL     1      -7.168  47.514 -30.284  1.00  0.00     0.050 C 
HETATM    4  C18 UNL     1      -6.187  46.787 -29.324  1.00  0.00     0.272 C 
HETATM    5  O2  UNL     1      -6.435  47.025 -27.941  1.00  0.00    -0.360 OA
HETATM    6  C19 UNL     1      -7.358  46.125 -27.362  1.00  0.00     0.171 C 
HETATM    7  C20 UNL     1      -8.767  46.692 -27.395  1.00  0.00     0.027 C 
HETATM    8  C21 UNL     1      -8.969  47.857 -28.358  1.00  0.00     0.012 C 
HETATM    9  C22 UNL     1      -8.685  47.576 -29.851  1.00  0.00     0.032 C 
HETATM   10  C23 UNL     1      -9.535  46.399 -30.377  1.00  0.00    -0.066 C 
HETATM   11  C24 UNL     1     -10.877  46.440 -30.573  1.00  0.00    -0.021 C 
HETATM   12  C25 UNL     1     -11.704  45.284 -31.062  1.00  0.00     0.052 C 
HETATM   13  C27 UNL     1      -8.728  45.169 -30.714  1.00  0.00     0.038 C 
HETATM   14  C28 UNL     1      -7.650  45.452 -31.759  1.00  0.00     0.042 C 
HETATM   15  C29 UNL     1      -7.098  46.898 -31.746  1.00  0.00     0.067 C 
HETATM   16  C30 UNL     1      -7.839  47.744 -32.807  1.00  0.00     0.047 C 
HETATM   17  O5  UNL     1      -4.878  47.328 -29.571  1.00  0.00    -0.351 OA
ENDROOT
BRANCH   1  18
HETATM   18  C14 UNL     1      -4.339  49.608 -29.172  1.00  0.00     0.011 C 
HETATM   19  C12 UNL     1      -3.733  49.337 -27.997  1.00  0.00    -0.064 C 
HETATM   20  C13 UNL     1      -3.602  47.947 -27.430  1.00  0.00     0.048 C 
BRANCH  19  21
HETATM   21  C11 UNL     1      -3.150  50.447 -27.243  1.00  0.00     0.003 C 
HETATM   22  C10 UNL     1      -1.882  50.537 -26.809  1.00  0.00    -0.018 C 
BRANCH  22  23
HETATM   23  C9  UNL     1      -1.258  51.676 -26.028  1.00  0.00     0.050 C 
HETATM   24  C4  UNL     1      -0.537  51.358 -24.679  1.00  0.00     0.024 C 
HETATM   25  C5  UNL     1       0.430  52.545 -24.534  1.00  0.00     0.013 C 
HETATM   26  C6  UNL     1       0.989  52.716 -25.937  1.00  0.00     0.039 C 
HETATM   27  C7  UNL     1      -0.229  52.529 -26.852  1.00  0.00     0.062 C 
HETATM   28  C8  UNL     1       0.208  51.966 -28.204  1.00  0.00     0.046 C 
BRANCH  24  29
HETATM   29  C2  UNL     1      -1.464  51.125 -23.484  1.00  0.00    -0.088 C 
HETATM   30  C1  UNL     1      -1.952  49.925 -23.118  1.00  0.00     0.014 C 
HETATM   31  C3  UNL     1      -1.887  52.350 -22.712  1.00  0.00     0.043 C 
ENDBRANCH  24  29
BRANCH  27  32
HETATM   32  O1  UNL     1      -0.801  53.819 -27.125  1.00  0.00    -0.390 OA
HETATM   33  H14 UNL     1      -1.053  54.226 -26.279  1.00  0.00     0.210 HD
ENDBRANCH  27  32
ENDBRANCH  22  23
ENDBRANCH  19  21
ENDBRANCH   1  18
BRANCH  15  34
HETATM   34  O4  UNL     1      -5.748  46.817 -32.216  1.00  0.00    -0.389 OA
HETATM   35  H44 UNL     1      -5.749  46.450 -33.118  1.00  0.00     0.210 HD
ENDBRANCH  15  34
BRANCH  11  36
HETATM   36  C26 UNL     1     -11.692  47.668 -30.318  1.00  0.00     0.265 C 
HETATM   37  O3  UNL     1     -12.375  47.841 -29.318  1.00  0.00    -0.302 OA
ENDBRANCH  11  36
TORSDOF 7
ENDMDL
MODEL 2
REMARK minimizedAffinity -9.41307926
REMARK CNNscore 0.373168528
REMARK CNNaffinity 6.93841743
REMARK  7 active torsions:
REMARK  status: ('A' for Active; 'I' for Inactive)
REMARK    1  A    between atoms: C2_2  and  C4_4 
REMARK    2  A    between atoms: C7_7  and  O1_9 
REMARK    3  A    between atoms: C9_10  and  C10_11 
REMARK    4  A    between atoms: C11_12  and  C12_13 
REMARK    5  A    between atoms: C14_15  and  C15_16 
REMARK    6  A    between atoms: C24_26  and  C26_28 
REMARK    7  A    between atoms: C29_32  and  O4_34 
ROOT
HETATM    1  C15 UNL     1       0.254  52.204 -18.940  1.00  0.00     0.149 C 
HETATM    2  C16 UNL     1       0.917  51.006 -18.271  1.00  0.00     0.054 C 
HETATM    3  C17 UNL     1       0.403  51.032 -16.815  1.00  0.00     0.050 C 
HETATM    4  C18 UNL     1      -1.030  51.555 -17.107  1.00  0.00     0.272 C 
HETATM    5  O2  UNL     1      -1.931  50.560 -17.586  1.00  0.00    -0.360 OA
HETATM    6  C19 UNL     1      -2.607  49.859 -16.561  1.00  0.00     0.171 C 
HETATM    7  C20 UNL     1      -1.873  48.579 -16.199  1.00  0.00     0.027 C 
HETATM    8  C21 UNL     1      -0.426  48.510 -16.678  1.00  0.00     0.012 C 
HETATM    9  C22 UNL     1       0.529  49.605 -16.151  1.00  0.00     0.032 C 
HETATM   10  C23 UNL     1       0.561  49.633 -14.608  1.00  0.00    -0.066 C 
HETATM   11  C24 UNL     1       1.125  48.676 -13.828  1.00  0.00    -0.021 C 
HETATM   12  C25 UNL     1       1.132  48.696 -12.324  1.00  0.00     0.052 C 
HETATM   13  C27 UNL     1      -0.060  50.871 -14.008  1.00  0.00     0.038 C 
HETATM   14  C28 UNL     1       0.612  52.152 -14.499  1.00  0.00     0.042 C 
HETATM   15  C29 UNL     1       1.216  52.064 -15.922  1.00  0.00     0.067 C 
HETATM   16  C30 UNL     1       2.725  51.739 -15.823  1.00  0.00     0.047 C 
HETATM   17  O5  UNL     1      -0.920  52.510 -18.175  1.00  0.00    -0.351 OA
ENDROOT
BRANCH   1  18
HETATM   18  C14 UNL     1      -0.173  51.916 -20.352  1.00  0.00     0.011 C 
HETATM   19  C12 UNL     1       0.230  52.529 -21.485  1.00  0.00    -0.064 C 
HETATM   20  C13 UNL     1       1.263  53.625 -21.516  1.00  0.00     0.048 C 
BRANCH  19  21
HETATM   21  C11 UNL     1      -0.349  52.091 -22.756  1.00  0.00     0.003 C 
HETATM   22  C10 UNL     1      -0.199  52.691 -23.948  1.00  0.00    -0.018 C 
BRANCH  22  23
HETATM   23  C9  UNL     1      -0.788  52.254 -25.275  1.00  0.00     0.050 C 
HETATM   24  C4  UNL     1      -0.162  51.025 -26.009  1.00  0.00     0.024 C 
HETATM   25  C5  UNL     1      -1.323  50.543 -26.895  1.00  0.00     0.013 C 
HETATM   26  C6  UNL     1      -2.529  50.636 -25.974  1.00  0.00     0.039 C 
HETATM   27  C7  UNL     1      -2.330  51.961 -25.226  1.00  0.00     0.062 C 
HETATM   28  C8  UNL     1      -2.974  51.888 -23.842  1.00  0.00     0.046 C 
BRANCH  24  29
HETATM   29  C2  UNL     1       1.148  51.306 -26.749  1.00  0.00    -0.088 C 
HETATM   30  C1  UNL     1       2.373  51.190 -26.206  1.00  0.00     0.014 C 
HETATM   31  C3  UNL     1       1.024  51.798 -28.170  1.00  0.00     0.043 C 
ENDBRANCH  24  29
BRANCH  27  32
HETATM   32  O1  UNL     1      -3.027  52.998 -25.935  1.00  0.00    -0.390 OA
HETATM   33  H14 UNL     1      -2.670  53.044 -26.838  1.00  0.00     0.210 HD
ENDBRANCH  27  32
ENDBRANCH  22  23
ENDBRANCH  19  21
ENDBRANCH   1  18
BRANCH  15  34
HETATM   34  O4  UNL     1       1.159  53.387 -16.465  1.00  0.00    -0.389 OA
HETATM   35  H44 UNL     1       1.680  53.984 -15.900  1.00  0.00     0.210 HD
ENDBRANCH  15  34
BRANCH  11  36
HETATM   36  C26 UNL     1       1.813  47.476 -14.395  1.00  0.00     0.265 C 
HETATM   37  O3  UNL     1       3.003  47.234 -14.245  1.00  0.00    -0.302 OA
ENDBRANCH  11  36
TORSDOF 7
ENDMDL
MODEL 3
REMARK minimizedAffinity -7.35803413
REMARK CNNscore 0.37290886
REMARK CNNaffinity 5.80206633
REMARK  7 active torsions:
REMARK  status: ('A' for Active; 'I' for Inactive)
REMARK    1  A    between atoms: C2_2  and  C4_4 
REMARK    2  A    between atoms: C7_7  and  O1_9 
REMARK    3  A    between atoms: C9_10  and  C10_11 
REMARK    4  A    between atoms: C11_12  and  C12_13 
REMARK    5  A    between atoms: C14_15  and  C15_16 
REMARK    6  A    between atoms: C24_26  and  C26_28 
REMARK    7  A    between atoms: C29_32  and  O4_34 
ROOT
HETATM    1  C15 UNL     1     -11.486  47.718 -27.887  1.00  0.00     0.149 C 
HETATM    2  C16 UNL     1     -10.977  47.325 -29.269  1.00  0.00     0.054 C 
HETATM    3  C17 UNL     1      -9.482  46.998 -29.059  1.00  0.00     0.050 C 
HETATM    4  C18 UNL     1      -9.600  46.373 -27.642  1.00  0.00     0.272 C 
HETATM    5  O2  UNL     1     -10.071  45.028 -27.631  1.00  0.00    -0.360 OA
HETATM    6  C19 UNL     1      -9.046  44.062 -27.757  1.00  0.00     0.171 C 
HETATM    7  C20 UNL     1      -8.854  43.657 -29.208  1.00  0.00     0.027 C 
HETATM    8  C21 UNL     1      -9.467  44.610 -30.229  1.00  0.00     0.012 C 
HETATM    9  C22 UNL     1      -8.946  46.066 -30.215  1.00  0.00     0.032 C 
HETATM   10  C23 UNL     1      -7.414  46.120 -30.404  1.00  0.00    -0.066 C 
HETATM   11  C24 UNL     1      -6.766  45.831 -31.560  1.00  0.00    -0.021 C 
HETATM   12  C25 UNL     1      -5.273  45.862 -31.733  1.00  0.00     0.052 C 
HETATM   13  C27 UNL     1      -6.666  46.581 -29.177  1.00  0.00     0.038 C 
HETATM   14  C28 UNL     1      -7.115  47.965 -28.711  1.00  0.00     0.042 C 
HETATM   15  C29 UNL     1      -8.589  48.311 -29.031  1.00  0.00     0.067 C 
HETATM   16  C30 UNL     1      -8.654  49.129 -30.342  1.00  0.00     0.047 C 
HETATM   17  O5  UNL     1     -10.596  47.127 -26.931  1.00  0.00    -0.351 OA
ENDROOT
BRANCH   1  18
HETATM   18  C14 UNL     1     -12.872  47.204 -27.613  1.00  0.00     0.011 C 
HETATM   19  C12 UNL     1     -13.502  46.159 -28.190  1.00  0.00    -0.064 C 
HETATM   20  C13 UNL     1     -12.860  45.266 -29.220  1.00  0.00     0.048 C 
BRANCH  19  21
HETATM   21  C11 UNL     1     -14.873  45.859 -27.777  1.00  0.00     0.003 C 
HETATM   22  C10 UNL     1     -15.338  45.834 -26.517  1.00  0.00    -0.018 C 
BRANCH  22  23
HETATM   23  C9  UNL     1     -16.754  45.528 -26.067  1.00  0.00     0.050 C 
HETATM   24  C4  UNL     1     -17.250  44.046 -26.101  1.00  0.00     0.024 C 
HETATM   25  C5  UNL     1     -18.385  44.056 -25.063  1.00  0.00     0.013 C 
HETATM   26  C6  UNL     1     -17.811  44.880 -23.923  1.00  0.00     0.039 C 
HETATM   27  C7  UNL     1     -17.091  46.041 -24.622  1.00  0.00     0.062 C 
HETATM   28  C8  UNL     1     -15.918  46.526 -23.771  1.00  0.00     0.046 C 
BRANCH  24  29
HETATM   29  C2  UNL     1     -17.639  43.521 -27.485  1.00  0.00    -0.088 C 
HETATM   30  C1  UNL     1     -18.802  43.790 -28.104  1.00  0.00     0.014 C 
HETATM   31  C3  UNL     1     -16.652  42.598 -28.156  1.00  0.00     0.043 C 
ENDBRANCH  24  29
BRANCH  27  32
HETATM   32  O1  UNL     1     -17.998  47.152 -24.720  1.00  0.00    -0.390 OA
HETATM   33  H14 UNL     1     -18.779  46.865 -25.222  1.00  0.00     0.210 HD
ENDBRANCH  27  32
ENDBRANCH  22  23
ENDBRANCH  19  21
ENDBRANCH   1  18
BRANCH  15  34
HETATM   34  O4  UNL     1      -9.021  49.216 -28.010  1.00  0.00    -0.389 OA
HETATM   35  H44 UNL     1      -8.460  50.013 -28.036  1.00  0.00     0.210 HD
ENDBRANCH  15  34
BRANCH  11  36
HETATM   36  C26 UNL     1      -7.486  45.444 -32.813  1.00  0.00     0.265 C 
HETATM   37  O3  UNL     1      -7.572  44.295 -33.225  1.00  0.00    -0.302 OA
ENDBRANCH  11  36
TORSDOF 7
ENDMDL
MODEL 4
REMARK minimizedAffinity -9.38618374
REMARK CNNscore 0.32197237
REMARK CNNaffinity 6.23296356
REMARK  7 active torsions:
REMARK  status: ('A' for Active; 'I' for Inactive)
REMARK    1  A    between atoms: C2_2  and  C4_4 
REMARK    2  A    between atoms: C7_7  and  O1_9 
REMARK    3  A    between atoms: C9_10  and  C10_11 
REMARK    4  A    between atoms: C11_12  and  C12_13 
REMARK    5  A    between atoms: C14_15  and  C15_16 
REMARK    6  A    between atoms: C24_26  and  C26_28 
REMARK    7  A    between atoms: C29_32  and  O4_34 
ROOT
HETATM    1  C15 UNL     1      -1.186  51.487 -21.057  1.00  0.00     0.149 C 
HETATM    2  C16 UNL     1      -2.671  51.150 -21.127  1.00  0.00     0.054 C 
HETATM    3  C17 UNL     1      -2.808  50.223 -22.355  1.00  0.00     0.050 C 
HETATM    4  C18 UNL     1      -1.452  49.480 -22.209  1.00  0.00     0.272 C 
HETATM    5  O2  UNL     1      -1.450  48.452 -21.221  1.00  0.00    -0.360 OA
HETATM    6  C19 UNL     1      -1.866  47.191 -21.707  1.00  0.00     0.171 C 
HETATM    7  C20 UNL     1      -3.352  46.982 -21.477  1.00  0.00     0.027 C 
HETATM    8  C21 UNL     1      -4.142  48.251 -21.172  1.00  0.00     0.012 C 
HETATM    9  C22 UNL     1      -4.121  49.354 -22.255  1.00  0.00     0.032 C 
HETATM   10  C23 UNL     1      -4.624  48.821 -23.615  1.00  0.00    -0.066 C 
HETATM   11  C24 UNL     1      -5.910  48.487 -23.888  1.00  0.00    -0.021 C 
HETATM   12  C25 UNL     1      -6.390  47.945 -25.206  1.00  0.00     0.052 C 
HETATM   13  C27 UNL     1      -3.549  48.741 -24.672  1.00  0.00     0.038 C 
HETATM   14  C28 UNL     1      -2.890  50.095 -24.930  1.00  0.00     0.042 C 
HETATM   15  C29 UNL     1      -2.864  51.048 -23.711  1.00  0.00     0.067 C 
HETATM   16  C30 UNL     1      -4.062  52.022 -23.792  1.00  0.00     0.047 C 
HETATM   17  O5  UNL     1      -0.489  50.444 -21.752  1.00  0.00    -0.351 OA
ENDROOT
BRANCH   1  18
HETATM   18  C14 UNL     1      -0.668  51.533 -19.646  1.00  0.00     0.011 C 
HETATM   19  C12 UNL     1       0.311  52.313 -19.143  1.00  0.00    -0.064 C 
HETATM   20  C13 UNL     1       1.045  53.352 -19.951  1.00  0.00     0.048 C 
BRANCH  19  21
HETATM   21  C11 UNL     1       0.665  52.162 -17.731  1.00  0.00     0.003 C 
HETATM   22  C10 UNL     1       0.649  51.020 -17.024  1.00  0.00    -0.018 C 
BRANCH  22  23
HETATM   23  C9  UNL     1       1.012  50.840 -15.563  1.00  0.00     0.050 C 
HETATM   24  C4  UNL     1       1.872  51.939 -14.861  1.00  0.00     0.024 C 
HETATM   25  C5  UNL     1       1.511  51.742 -13.378  1.00  0.00     0.013 C 
HETATM   26  C6  UNL     1       0.006  51.534 -13.408  1.00  0.00     0.039 C 
HETATM   27  C7  UNL     1      -0.224  50.619 -14.619  1.00  0.00     0.062 C 
HETATM   28  C8  UNL     1      -1.605  50.875 -15.221  1.00  0.00     0.046 C 
BRANCH  24  29
HETATM   29  C2  UNL     1       3.369  51.896 -15.177  1.00  0.00    -0.088 C 
HETATM   30  C1  UNL     1       3.989  52.714 -16.046  1.00  0.00     0.014 C 
HETATM   31  C3  UNL     1       4.170  50.816 -14.492  1.00  0.00     0.043 C 
ENDBRANCH  24  29
BRANCH  27  32
HETATM   32  O1  UNL     1      -0.232  49.254 -14.170  1.00  0.00    -0.390 OA
HETATM   33  H14 UNL     1       0.621  49.069 -13.742  1.00  0.00     0.210 HD
ENDBRANCH  27  32
ENDBRANCH  22  23
ENDBRANCH  19  21
ENDBRANCH   1  18
BRANCH  15  34
HETATM   34  O4  UNL     1      -1.706  51.873 -23.871  1.00  0.00    -0.389 OA
HETATM   35  H44 UNL     1      -1.785  52.372 -24.704  1.00  0.00     0.210 HD
ENDBRANCH  15  34
BRANCH  11  36
HETATM   36  C26 UNL     1      -7.010  48.626 -22.884  1.00  0.00     0.265 C 
HETATM   37  O3  UNL     1      -7.566  49.683 -22.621  1.00  0.00    -0.302 OA
ENDBRANCH  11  36
TORSDOF 7
ENDMDL
MODEL 5
REMARK minimizedAffinity -7.23484278
REMARK CNNscore 0.285357803
REMARK CNNaffinity 6.06157446
REMARK  7 active torsions:
REMARK  status: ('A' for Active; 'I' for Inactive)
REMARK    1  A    between atoms: C2_2  and  C4_4 
REMARK    2  A    between atoms: C7_7  and  O1_9 
REMARK    3  A    between atoms: C9_10  and  C10_11 
REMARK    4  A    between atoms: C11_12  and  C12_13 
REMARK    5  A    between atoms: C14_15  and  C15_16 
REMARK    6  A    between atoms: C24_26  and  C26_28 
REMARK    7  A    between atoms: C29_32  and  O4_34 
ROOT
HETATM    1  C15 UNL     1       0.695  52.383 -12.748  1.00  0.00     0.149 C 
HETATM    2  C16 UNL     1       2.195  52.121 -12.678  1.00  0.00     0.054 C 
HETATM    3  C17 UNL     1       2.440  51.614 -11.239  1.00  0.00     0.050 C 
HETATM    4  C18 UNL     1       1.112  50.827 -11.065  1.00  0.00     0.272 C 
HETATM    5  O2  UNL     1       1.100  49.549 -11.694  1.00  0.00    -0.360 OA
HETATM    6  C19 UNL     1       1.597  48.505 -10.879  1.00  0.00     0.171 C 
HETATM    7  C20 UNL     1       3.077  48.273 -11.132  1.00  0.00     0.027 C 
HETATM    8  C21 UNL     1       3.791  49.410 -11.857  1.00  0.00     0.012 C 
HETATM    9  C22 UNL     1       3.782  50.788 -11.158  1.00  0.00     0.032 C 
HETATM   10  C23 UNL     1       4.382  50.707  -9.737  1.00  0.00    -0.066 C 
HETATM   11  C24 UNL     1       5.695  50.503  -9.461  1.00  0.00    -0.021 C 
HETATM   12  C25 UNL     1       6.270  50.400  -8.076  1.00  0.00     0.052 C 
HETATM   13  C27 UNL     1       3.371  50.924  -8.637  1.00  0.00     0.038 C 
HETATM   14  C28 UNL     1       2.669  52.276  -8.756  1.00  0.00     0.042 C 
HETATM   15  C29 UNL     1       2.534  52.812 -10.201  1.00  0.00     0.067 C 
HETATM   16  C30 UNL     1       3.691  53.795 -10.497  1.00  0.00     0.047 C 
HETATM   17  O5  UNL     1       0.084  51.583 -11.727  1.00  0.00    -0.351 OA
ENDROOT
BRANCH   1  18
HETATM   18  C14 UNL     1       0.099  51.985 -14.070  1.00  0.00     0.011 C 
HETATM   19  C12 UNL     1       0.743  51.677 -15.215  1.00  0.00    -0.064 C 
HETATM   20  C13 UNL     1       2.244  51.635 -15.340  1.00  0.00     0.048 C 
BRANCH  19  21
HETATM   21  C11 UNL     1      -0.057  51.343 -16.394  1.00  0.00     0.003 C 
HETATM   22  C10 UNL     1       0.341  51.417 -17.675  1.00  0.00    -0.018 C 
BRANCH  22  23
HETATM   23  C9  UNL     1      -0.469  51.075 -18.909  1.00  0.00     0.050 C 
HETATM   24  C4  UNL     1       0.249  51.046 -20.296  1.00  0.00     0.024 C 
HETATM   25  C5  UNL     1      -0.661  50.117 -21.119  1.00  0.00     0.013 C 
HETATM   26  C6  UNL     1      -0.984  48.993 -20.148  1.00  0.00     0.039 C 
HETATM   27  C7  UNL     1      -1.236  49.708 -18.813  1.00  0.00     0.062 C 
HETATM   28  C8  UNL     1      -0.870  48.793 -17.646  1.00  0.00     0.046 C 
BRANCH  24  29
HETATM   29  C2  UNL     1       0.515  52.417 -20.922  1.00  0.00    -0.088 C 
HETATM   30  C1  UNL     1       1.144  53.431 -20.301  1.00  0.00     0.014 C 
HETATM   31  C3  UNL     1      -0.024  52.636 -22.314  1.00  0.00     0.043 C 
ENDBRANCH  24  29
BRANCH  27  32
HETATM   32  O1  UNL     1      -2.644  49.968 -18.689  1.00  0.00    -0.390 OA
HETATM   33  H14 UNL     1      -2.921  50.516 -19.443  1.00  0.00     0.210 HD
ENDBRANCH  27  32
ENDBRANCH  22  23
ENDBRANCH  19  21
ENDBRANCH   1  18
BRANCH  15  34
HETATM   34  O4  UNL     1       1.351  53.618 -10.222  1.00  0.00    -0.389 OA
HETATM   35  H44 UNL     1       1.455  54.348  -9.585  1.00  0.00     0.210 HD
ENDBRANCH  15  34
BRANCH  11  36
HETATM   36  C26 UNL     1       6.730  50.358 -10.531  1.00  0.00     0.265 C 
HETATM   37  O3  UNL     1       7.182  49.285 -10.905  1.00  0.00    -0.302 OA
ENDBRANCH  11  36
TORSDOF 7
ENDMDL
MODEL 6
REMARK minimizedAffinity -7.25572205
REMARK CNNscore 0.264764756
REMARK CNNaffinity 5.52419662
REMARK  7 active torsions:
REMARK  status: ('A' for Active; 'I' for Inactive)
REMARK    1  A    between atoms: C2_2  and  C4_4 
REMARK    2  A    between atoms: C7_7  and  O1_9 
REMARK    3  A    between atoms: C9_10  and  C10_11 
REMARK    4  A    between atoms: C11_12  and  C12_13 
REMARK    5  A    between atoms: C14_15  and  C15_16 
REMARK    6  A    between atoms: C24_26  and  C26_28 
REMARK    7  A    between atoms: C29_32  and  O4_34 
ROOT
HETATM    1  C15 UNL     1     -10.173  45.391 -37.519  1.00  0.00     0.149 C 
HETATM    2  C16 UNL     1      -9.920  46.315 -38.704  1.00  0.00     0.054 C 
HETATM    3  C17 UNL     1     -11.272  46.382 -39.448  1.00  0.00     0.050 C 
HETATM    4  C18 UNL     1     -12.200  46.313 -38.204  1.00  0.00     0.272 C 
HETATM    5  O2  UNL     1     -12.332  47.546 -37.502  1.00  0.00    -0.360 OA
HETATM    6  C19 UNL     1     -13.372  48.372 -37.988  1.00  0.00     0.171 C 
HETATM    7  C20 UNL     1     -12.847  49.365 -39.009  1.00  0.00     0.027 C 
HETATM    8  C21 UNL     1     -11.477  49.028 -39.590  1.00  0.00     0.012 C 
HETATM    9  C22 UNL     1     -11.357  47.682 -40.339  1.00  0.00     0.032 C 
HETATM   10  C23 UNL     1     -12.378  47.584 -41.494  1.00  0.00    -0.066 C 
HETATM   11  C24 UNL     1     -12.317  48.303 -42.644  1.00  0.00    -0.021 C 
HETATM   12  C25 UNL     1     -13.327  48.222 -43.755  1.00  0.00     0.052 C 
HETATM   13  C27 UNL     1     -13.461  46.558 -41.264  1.00  0.00     0.038 C 
HETATM   14  C28 UNL     1     -12.893  45.158 -41.040  1.00  0.00     0.042 C 
HETATM   15  C29 UNL     1     -11.488  45.123 -40.392  1.00  0.00     0.067 C 
HETATM   16  C30 UNL     1     -10.414  44.989 -41.497  1.00  0.00     0.047 C 
HETATM   17  O5  UNL     1     -11.585  45.410 -37.269  1.00  0.00    -0.351 OA
ENDROOT
BRANCH   1  18
HETATM   18  C14 UNL     1      -9.473  45.847 -36.270  1.00  0.00     0.011 C 
HETATM   19  C12 UNL     1      -8.842  47.019 -36.049  1.00  0.00    -0.064 C 
HETATM   20  C13 UNL     1      -8.779  48.134 -37.061  1.00  0.00     0.048 C 
BRANCH  19  21
HETATM   21  C11 UNL     1      -8.203  47.231 -34.750  1.00  0.00     0.003 C 
HETATM   22  C10 UNL     1      -8.151  46.353 -33.735  1.00  0.00    -0.018 C 
BRANCH  22  23
HETATM   23  C9  UNL     1      -7.495  46.551 -32.382  1.00  0.00     0.050 C 
HETATM   24  C4  UNL     1      -6.327  47.582 -32.256  1.00  0.00     0.024 C 
HETATM   25  C5  UNL     1      -6.363  47.939 -30.760  1.00  0.00     0.013 C 
HETATM   26  C6  UNL     1      -7.848  48.087 -30.470  1.00  0.00     0.039 C 
HETATM   27  C7  UNL     1      -8.498  46.924 -31.233  1.00  0.00     0.062 C 
HETATM   28  C8  UNL     1      -9.920  47.296 -31.653  1.00  0.00     0.046 C 
BRANCH  24  29
HETATM   29  C2  UNL     1      -4.972  47.098 -32.776  1.00  0.00    -0.088 C 
HETATM   30  C1  UNL     1      -4.290  46.053 -32.273  1.00  0.00     0.014 C 
HETATM   31  C3  UNL     1      -4.357  47.898 -33.897  1.00  0.00     0.043 C 
ENDBRANCH  24  29
BRANCH  27  32
HETATM   32  O1  UNL     1      -8.627  45.804 -30.342  1.00  0.00    -0.390 OA
HETATM   33  H14 UNL     1      -7.740  45.566 -30.021  1.00  0.00     0.210 HD
ENDBRANCH  27  32
ENDBRANCH  22  23
ENDBRANCH  19  21
ENDBRANCH   1  18
BRANCH  15  34
HETATM   34  O4  UNL     1     -11.415  43.897 -39.656  1.00  0.00    -0.389 OA
HETATM   35  H44 UNL     1     -11.536  43.151 -40.271  1.00  0.00     0.210 HD
ENDBRANCH  15  34
BRANCH  11  36
HETATM   36  C26 UNL     1     -11.215  49.272 -42.931  1.00  0.00     0.265 C 
HETATM   37  O3  UNL     1     -11.330  50.486 -42.837  1.00  0.00    -0.302 OA
ENDBRANCH  11  36
TORSDOF 7
ENDMDL
MODEL 7
REMARK minimizedAffinity -7.31593752
REMARK CNNscore 0.263933033
REMARK CNNaffinity 5.38068771
REMARK  7 active torsions:
REMARK  status: ('A' for Active; 'I' for Inactive)
REMARK    1  A    between atoms: C2_2  and  C4_4 
REMARK    2  A    between atoms: C7_7  and  O1_9 
REMARK    3  A    between atoms: C9_10  and  C10_11 
REMARK    4  A    between atoms: C11_12  and  C12_13 
REMARK    5  A    between atoms: C14_15  and  C15_16 
REMARK    6  A    between atoms: C24_26  and  C26_28 
REMARK    7  A    between atoms: C29_32  and  O4_34 
ROOT
HETATM    1  C15 UNL     1     -11.893  46.731 -29.126  1.00  0.00     0.149 C 
HETATM    2  C16 UNL     1     -11.013  45.906 -30.059  1.00  0.00     0.054 C 
HETATM    3  C17 UNL     1      -9.574  46.389 -29.774  1.00  0.00     0.050 C 
HETATM    4  C18 UNL     1      -9.736  46.643 -28.250  1.00  0.00     0.272 C 
HETATM    5  O2  UNL     1      -9.680  45.465 -27.450  1.00  0.00    -0.360 OA
HETATM    6  C19 UNL     1      -8.372  45.105 -27.052  1.00  0.00     0.171 C 
HETATM    7  C20 UNL     1      -7.764  44.104 -28.019  1.00  0.00     0.027 C 
HETATM    8  C21 UNL     1      -8.466  44.006 -29.369  1.00  0.00     0.012 C 
HETATM    9  C22 UNL     1      -8.521  45.299 -30.215  1.00  0.00     0.032 C 
HETATM   10  C23 UNL     1      -7.108  45.864 -30.477  1.00  0.00    -0.066 C 
HETATM   11  C24 UNL     1      -6.184  45.293 -31.291  1.00  0.00    -0.021 C 
HETATM   12  C25 UNL     1      -4.801  45.834 -31.524  1.00  0.00     0.052 C 
HETATM   13  C27 UNL     1      -6.834  47.170 -29.772  1.00  0.00     0.038 C 
HETATM   14  C28 UNL     1      -7.836  48.257 -30.158  1.00  0.00     0.042 C 
HETATM   15  C29 UNL     1      -9.241  47.736 -30.545  1.00  0.00     0.067 C 
HETATM   16  C30 UNL     1      -9.338  47.606 -32.083  1.00  0.00     0.047 C 
HETATM   17  O5  UNL     1     -11.056  47.174 -28.049  1.00  0.00    -0.351 OA
ENDROOT
BRANCH   1  18
HETATM   18  C14 UNL     1     -13.023  45.932 -28.539  1.00  0.00     0.011 C 
HETATM   19  C12 UNL     1     -13.733  46.191 -27.421  1.00  0.00    -0.064 C 
HETATM   20  C13 UNL     1     -13.523  47.414 -26.567  1.00  0.00     0.048 C 
BRANCH  19  21
HETATM   21  C11 UNL     1     -14.780  45.247 -27.028  1.00  0.00     0.003 C 
HETATM   22  C10 UNL     1     -16.104  45.474 -27.042  1.00  0.00    -0.018 C 
BRANCH  22  23
HETATM   23  C9  UNL     1     -17.204  44.511 -26.641  1.00  0.00     0.050 C 
HETATM   24  C4  UNL     1     -18.583  45.091 -26.189  1.00  0.00     0.024 C 
HETATM   25  C5  UNL     1     -19.540  43.918 -26.466  1.00  0.00     0.013 C 
HETATM   26  C6  UNL     1     -19.080  43.402 -27.819  1.00  0.00     0.039 C 
HETATM   27  C7  UNL     1     -17.548  43.439 -27.736  1.00  0.00     0.062 C 
HETATM   28  C8  UNL     1     -16.948  43.656 -29.125  1.00  0.00     0.046 C 
BRANCH  24  29
HETATM   29  C2  UNL     1     -18.622  45.639 -24.761  1.00  0.00    -0.088 C 
HETATM   30  C1  UNL     1     -18.830  44.892 -23.662  1.00  0.00     0.014 C 
HETATM   31  C3  UNL     1     -18.467  47.132 -24.609  1.00  0.00     0.043 C 
ENDBRANCH  24  29
BRANCH  27  32
HETATM   32  O1  UNL     1     -17.080  42.154 -27.296  1.00  0.00    -0.390 OA
HETATM   33  H14 UNL     1     -17.478  41.964 -26.430  1.00  0.00     0.210 HD
ENDBRANCH  27  32
ENDBRANCH  22  23
ENDBRANCH  19  21
ENDBRANCH   1  18
BRANCH  15  34
HETATM   34  O4  UNL     1     -10.164  48.777 -30.205  1.00  0.00    -0.389 OA
HETATM   35  H44 UNL     1      -9.936  49.579 -30.709  1.00  0.00     0.210 HD
ENDBRANCH  15  34
BRANCH  11  36
HETATM   36  C26 UNL     1      -6.453  44.039 -32.060  1.00  0.00     0.265 C 
HETATM   37  O3  UNL     1      -6.017  42.939 -31.749  1.00  0.00    -0.302 OA
ENDBRANCH  11  36
TORSDOF 7
ENDMDL
MODEL 8
REMARK minimizedAffinity -7.41305447
REMARK CNNscore 0.260345936
REMARK CNNaffinity 5.86316252
REMARK  7 active torsions:
REMARK  status: ('A' for Active; 'I' for Inactive)
REMARK    1  A    between atoms: C2_2  and  C4_4 
REMARK    2  A    between atoms: C7_7  and  O1_9 
REMARK    3  A    between atoms: C9_10  and  C10_11 
REMARK    4  A    between atoms: C11_12  and  C12_13 
REMARK    5  A    between atoms: C14_15  and  C15_16 
REMARK    6  A    between atoms: C24_26  and  C26_28 
REMARK    7  A    between atoms: C29_32  and  O4_34 
ROOT
HETATM    1  C15 UNL     1      -0.946  52.604 -12.171  1.00  0.00     0.149 C 
HETATM    2  C16 UNL     1      -0.927  51.149 -11.716  1.00  0.00     0.054 C 
HETATM    3  C17 UNL     1      -1.066  50.327 -13.016  1.00  0.00     0.050 C 
HETATM    4  C18 UNL     1      -0.250  51.265 -13.946  1.00  0.00     0.272 C 
HETATM    5  O2  UNL     1       1.163  51.137 -13.816  1.00  0.00    -0.360 OA
HETATM    6  C19 UNL     1       1.727  50.143 -14.650  1.00  0.00     0.171 C 
HETATM    7  C20 UNL     1       1.849  48.820 -13.915  1.00  0.00     0.027 C 
HETATM    8  C21 UNL     1       1.011  48.709 -12.645  1.00  0.00     0.012 C 
HETATM    9  C22 UNL     1      -0.518  48.861 -12.812  1.00  0.00     0.032 C 
HETATM   10  C23 UNL     1      -1.082  47.836 -13.820  1.00  0.00    -0.066 C 
HETATM   11  C24 UNL     1      -1.174  46.500 -13.597  1.00  0.00    -0.021 C 
HETATM   12  C25 UNL     1      -1.701  45.503 -14.591  1.00  0.00     0.052 C 
HETATM   13  C27 UNL     1      -1.586  48.455 -15.100  1.00  0.00     0.038 C 
HETATM   14  C28 UNL     1      -2.679  49.493 -14.849  1.00  0.00     0.042 C 
HETATM   15  C29 UNL     1      -2.578  50.226 -13.490  1.00  0.00     0.067 C 
HETATM   16  C30 UNL     1      -3.503  49.534 -12.461  1.00  0.00     0.047 C 
HETATM   17  O5  UNL     1      -0.544  52.614 -13.548  1.00  0.00    -0.351 OA
ENDROOT
BRANCH   1  18
HETATM   18  C14 UNL     1       0.014  53.465 -11.400  1.00  0.00     0.011 C 
HETATM   19  C12 UNL     1      -0.265  54.528 -10.615  1.00  0.00    -0.064 C 
HETATM   20  C13 UNL     1      -1.665  55.012 -10.338  1.00  0.00     0.048 C 
BRANCH  19  21
HETATM   21  C11 UNL     1       0.848  55.234  -9.980  1.00  0.00     0.003 C 
HETATM   22  C10 UNL     1       1.314  55.033  -8.737  1.00  0.00    -0.018 C 
BRANCH  22  23
HETATM   23  C9  UNL     1       2.465  55.752  -8.060  1.00  0.00     0.050 C 
HETATM   24  C4  UNL     1       3.417  56.633  -8.930  1.00  0.00     0.024 C 
HETATM   25  C5  UNL     1       3.995  57.614  -7.895  1.00  0.00     0.013 C 
HETATM   26  C6  UNL     1       2.785  57.995  -7.059  1.00  0.00     0.039 C 
HETATM   27  C7  UNL     1       2.029  56.673  -6.865  1.00  0.00     0.062 C 
HETATM   28  C8  UNL     1       0.533  56.937  -6.708  1.00  0.00     0.046 C 
BRANCH  24  29
HETATM   29  C2  UNL     1       4.456  55.860  -9.745  1.00  0.00    -0.088 C 
HETATM   30  C1  UNL     1       4.375  55.635 -11.069  1.00  0.00     0.014 C 
HETATM   31  C3  UNL     1       5.615  55.276  -8.976  1.00  0.00     0.043 C 
ENDBRANCH  24  29
BRANCH  27  32
HETATM   32  O1  UNL     1       2.460  56.074  -5.631  1.00  0.00    -0.390 OA
HETATM   33  H14 UNL     1       3.420  55.930  -5.681  1.00  0.00     0.210 HD
ENDBRANCH  27  32
ENDBRANCH  22  23
ENDBRANCH  19  21
ENDBRANCH   1  18
BRANCH  15  34
HETATM   34  O4  UNL     1      -3.152  51.522 -13.688  1.00  0.00    -0.389 OA
HETATM   35  H44 UNL     1      -4.081  51.418 -13.962  1.00  0.00     0.210 HD
ENDBRANCH  15  34
BRANCH  11  36
HETATM   36  C26 UNL     1      -0.751  45.867 -12.309  1.00  0.00     0.265 C 
HETATM   37  O3  UNL     1       0.291  45.243 -12.163  1.00  0.00    -0.302 OA
ENDBRANCH  11  36
TORSDOF 7
ENDMDL
MODEL 9
REMARK minimizedAffinity -8.04331017
REMARK CNNscore 0.257966727
REMARK CNNaffinity 5.71029663
REMARK  7 active torsions:
REMARK  status: ('A' for Active; 'I' for Inactive)
REMARK    1  A    between atoms: C2_2  and  C4_4 
REMARK    2  A    between atoms: C7_7  and  O1_9 
REMARK    3  A    between atoms: C9_10  and  C10_11 
REMARK    4  A    between atoms: C11_12  and  C12_13 
REMARK    5  A    between atoms: C14_15  and  C15_16 
REMARK    6  A    between atoms: C24_26  and  C26_28 
REMARK    7  A    between atoms: C29_32  and  O4_34 
ROOT
HETATM    1  C15 UNL     1     -10.205  45.668 -37.136  1.00  0.00     0.149 C 
HETATM    2  C16 UNL     1      -9.955  46.563 -38.344  1.00  0.00     0.054 C 
HETATM    3  C17 UNL     1     -11.236  46.441 -39.197  1.00  0.00     0.050 C 
HETATM    4  C18 UNL     1     -12.255  46.319 -38.031  1.00  0.00     0.272 C 
HETATM    5  O2  UNL     1     -12.584  47.558 -37.408  1.00  0.00    -0.360 OA
HETATM    6  C19 UNL     1     -13.663  48.236 -38.019  1.00  0.00     0.171 C 
HETATM    7  C20 UNL     1     -13.166  49.239 -39.045  1.00  0.00     0.027 C 
HETATM    8  C21 UNL     1     -11.722  49.038 -39.494  1.00  0.00     0.012 C 
HETATM    9  C22 UNL     1     -11.388  47.683 -40.159  1.00  0.00     0.032 C 
HETATM   10  C23 UNL     1     -12.287  47.418 -41.387  1.00  0.00    -0.066 C 
HETATM   11  C24 UNL     1     -12.208  48.089 -42.564  1.00  0.00    -0.021 C 
HETATM   12  C25 UNL     1     -13.102  47.844 -43.748  1.00  0.00     0.052 C 
HETATM   13  C27 UNL     1     -13.266  46.286 -41.191  1.00  0.00     0.038 C 
HETATM   14  C28 UNL     1     -12.567  44.971 -40.848  1.00  0.00     0.042 C 
HETATM   15  C29 UNL     1     -11.228  45.126 -40.088  1.00  0.00     0.067 C 
HETATM   16  C30 UNL     1     -10.054  45.070 -41.093  1.00  0.00     0.047 C 
HETATM   17  O5  UNL     1     -11.626  45.535 -37.003  1.00  0.00    -0.351 OA
ENDROOT
BRANCH   1  18
HETATM   18  C14 UNL     1      -9.671  46.255 -35.860  1.00  0.00     0.011 C 
HETATM   19  C12 UNL     1      -8.639  47.111 -35.704  1.00  0.00    -0.064 C 
HETATM   20  C13 UNL     1      -7.848  47.679 -36.854  1.00  0.00     0.048 C 
BRANCH  19  21
HETATM   21  C11 UNL     1      -8.281  47.529 -34.348  1.00  0.00     0.003 C 
HETATM   22  C10 UNL     1      -7.067  47.440 -33.781  1.00  0.00    -0.018 C 
BRANCH  22  23
HETATM   23  C9  UNL     1      -6.675  47.867 -32.380  1.00  0.00     0.050 C 
HETATM   24  C4  UNL     1      -7.552  47.396 -31.176  1.00  0.00     0.024 C 
HETATM   25  C5  UNL     1      -6.565  47.475 -29.999  1.00  0.00     0.013 C 
HETATM   26  C6  UNL     1      -5.284  46.897 -30.575  1.00  0.00     0.039 C 
HETATM   27  C7  UNL     1      -5.201  47.495 -31.986  1.00  0.00     0.062 C 
HETATM   28  C8  UNL     1      -4.457  46.542 -32.921  1.00  0.00     0.046 C 
BRANCH  24  29
HETATM   29  C2  UNL     1      -8.860  48.166 -30.982  1.00  0.00    -0.088 C 
HETATM   30  C1  UNL     1     -10.082  47.605 -30.968  1.00  0.00     0.014 C 
HETATM   31  C3  UNL     1      -8.744  49.665 -30.852  1.00  0.00     0.043 C 
ENDBRANCH  24  29
BRANCH  27  32
HETATM   32  O1  UNL     1      -4.413  48.695 -31.931  1.00  0.00    -0.390 OA
HETATM   33  H14 UNL     1      -4.837  49.310 -31.309  1.00  0.00     0.210 HD
ENDBRANCH  27  32
ENDBRANCH  22  23
ENDBRANCH  19  21
ENDBRANCH   1  18
BRANCH  15  34
HETATM   34  O4  UNL     1     -11.083  43.950 -39.285  1.00  0.00    -0.389 OA
HETATM   35  H44 UNL     1     -11.067  43.169 -39.867  1.00  0.00     0.210 HD
ENDBRANCH  15  34
BRANCH  11  36
HETATM   36  C26 UNL     1     -11.200  49.166 -42.812  1.00  0.00     0.265 C 
HETATM   37  O3  UNL     1     -11.444  50.362 -42.736  1.00  0.00    -0.302 OA
ENDBRANCH  11  36
TORSDOF 7
ENDMDL
