MODEL 1
REMARK minimizedAffinity -7.6079812
REMARK  7 active torsions:
REMARK  status: ('A' for Active; 'I' for Inactive)
REMARK       I    between atoms: C1_2  and  N1_3 
REMARK    1  A    between atoms: C1_2  and  C8_12 
REMARK    2  A    between atoms: N1_3  and  C2_4 
REMARK    3  A    between atoms: C2_4  and  C3_5 
REMARK    4  A    between atoms: C14_19  and  C15_20 
REMARK    5  A    between atoms: C15_20  and  N4_21 
REMARK    6  A    between atoms: C17_23  and  C18_24 
REMARK    7  A    between atoms: C18_24  and  C19_25 
ROOT
HETATM    1  C8  UNL     1      16.930  36.994  17.764  1.00  0.00     0.110 C 
HETATM    2  C9  UNL     1      15.408  37.239  17.794  1.00  0.00     0.287 C 
HETATM    3  N3  UNL     1      14.735  36.422  18.839  1.00  0.00     0.095 N 
HETATM    4  C10 UNL     1      15.483  36.583  20.114  1.00  0.00     0.273 C 
HETATM    5  C11 UNL     1      16.895  35.973  20.016  1.00  0.00     0.036 C 
HETATM    6  C12 UNL     1      17.217  35.688  18.538  1.00  0.00     0.004 C 
HETATM    7  C13 UNL     1      16.240  34.591  18.058  1.00  0.00     0.043 C 
HETATM    8  C14 UNL     1      14.794  34.973  18.460  1.00  0.00     0.242 C 
ENDROOT
BRANCH   8   9
HETATM    9  C15 UNL     1      13.755  34.611  17.383  1.00  0.00     0.181 C 
BRANCH   9  10
HETATM   10  N4  UNL     1      12.396  34.830  17.832  1.00  0.00    -0.283 N 
HETATM   11  C16 UNL     1      11.494  35.734  17.356  1.00  0.00     0.134 A 
HETATM   12  C17 UNL     1      10.375  35.522  18.130  1.00  0.00     0.041 A 
HETATM   13  N5  UNL     1      10.632  34.509  19.018  1.00  0.00    -0.287 N 
HETATM   14  N6  UNL     1      11.874  34.091  18.822  1.00  0.00    -0.020 NA
ATOM     15  H5  UNL     1       9.979  34.142  19.711  1.00  0.00     0.184 HD
BRANCH  12  16
HETATM   16  C18 UNL     1       9.055  36.205  18.105  1.00  0.00     0.064 C 
BRANCH  16  17
HETATM   17  C19 UNL     1       8.465  36.443  19.511  1.00  0.00    -0.009 C 
HETATM   18  C20 UNL     1       7.188  35.601  19.719  1.00  0.00     0.005 C 
HETATM   19  C21 UNL     1       7.470  34.295  20.454  1.00  0.00     0.000 C 
HETATM   20  C22 UNL     1       8.052  34.542  21.846  1.00  0.00     0.000 C 
HETATM   21  C23 UNL     1       8.866  35.832  21.943  1.00  0.00     0.000 C 
HETATM   22  C24 UNL     1       9.516  36.188  20.612  1.00  0.00     0.005 C 
ENDBRANCH  16  17
ENDBRANCH  12  16
ENDBRANCH   9  10
ENDBRANCH   8   9
BRANCH   1  23
HETATM   23  C1  UNL     1      17.480  37.000  16.342  1.00  0.00     0.224 C 
HETATM   24  O1  UNL     1      18.531  37.548  16.030  1.00  0.00    -0.273 OA
HETATM   25  N1  UNL     1      16.667  36.360  15.430  1.00  0.00    -0.356 N 
HETATM   26  H1  UNL     1      15.718  36.135  15.695  1.00  0.00     0.162 HD
BRANCH  25  27
HETATM   27  C2  UNL     1      16.969  36.369  14.014  1.00  0.00     0.162 C 
BRANCH  27  28
HETATM   28  C3  UNL     1      17.184  34.977  13.498  1.00  0.00    -0.025 A 
HETATM   29  C4  UNL     1      16.486  34.496  12.386  1.00  0.00     0.011 A 
HETATM   30  C5  UNL     1      16.696  33.193  11.947  1.00  0.00     0.018 A 
HETATM   31  C6  UNL     1      17.599  32.406  12.642  1.00  0.00     0.087 A 
HETATM   32  N2  UNL     1      18.288  32.830  13.723  1.00  0.00    -0.375 N 
HETATM   33  C7  UNL     1      18.067  34.102  14.123  1.00  0.00     0.096 A 
ATOM     34  H2  UNL     1      18.943  32.221  14.213  1.00  0.00     0.164 HD
ENDBRANCH  27  28
ENDBRANCH  25  27
ENDBRANCH   1  23
TORSDOF 7
ENDMDL
MODEL 2
REMARK minimizedAffinity -7.48656321
REMARK  7 active torsions:
REMARK  status: ('A' for Active; 'I' for Inactive)
REMARK       I    between atoms: C1_2  and  N1_3 
REMARK    1  A    between atoms: C1_2  and  C8_12 
REMARK    2  A    between atoms: N1_3  and  C2_4 
REMARK    3  A    between atoms: C2_4  and  C3_5 
REMARK    4  A    between atoms: C14_19  and  C15_20 
REMARK    5  A    between atoms: C15_20  and  N4_21 
REMARK    6  A    between atoms: C17_23  and  C18_24 
REMARK    7  A    between atoms: C18_24  and  C19_25 
ROOT
HETATM    1  C8  UNL     1      13.370  34.334  20.727  1.00  0.00     0.110 C 
HETATM    2  C9  UNL     1      14.129  34.030  19.420  1.00  0.00     0.287 C 
HETATM    3  N3  UNL     1      15.090  35.110  19.070  1.00  0.00     0.095 N 
HETATM    4  C10 UNL     1      15.898  35.427  20.278  1.00  0.00     0.273 C 
HETATM    5  C11 UNL     1      15.028  36.047  21.389  1.00  0.00     0.036 C 
HETATM    6  C12 UNL     1      13.543  35.838  21.038  1.00  0.00     0.004 C 
HETATM    7  C13 UNL     1      13.254  36.654  19.759  1.00  0.00     0.043 C 
HETATM    8  C14 UNL     1      14.336  36.349  18.693  1.00  0.00     0.242 C 
ENDROOT
BRANCH   8   9
HETATM    9  C15 UNL     1      13.767  36.272  17.265  1.00  0.00     0.181 C 
BRANCH   9  10
HETATM   10  N4  UNL     1      14.764  36.568  16.258  1.00  0.00    -0.283 N 
HETATM   11  C16 UNL     1      15.580  35.692  15.606  1.00  0.00     0.134 A 
HETATM   12  C17 UNL     1      16.324  36.494  14.769  1.00  0.00     0.041 A 
HETATM   13  N5  UNL     1      15.930  37.797  14.932  1.00  0.00    -0.287 N 
HETATM   14  N6  UNL     1      14.969  37.828  15.846  1.00  0.00    -0.020 NA
ATOM     15  H5  UNL     1      16.310  38.603  14.437  1.00  0.00     0.184 HD
BRANCH  12  16
HETATM   16  C18 UNL     1      17.397  36.131  13.807  1.00  0.00     0.064 C 
BRANCH  16  17
HETATM   17  C19 UNL     1      16.921  35.176  12.693  1.00  0.00    -0.009 C 
HETATM   18  C20 UNL     1      17.463  35.622  11.318  1.00  0.00     0.005 C 
HETATM   19  C21 UNL     1      18.729  34.869  10.924  1.00  0.00     0.000 C 
HETATM   20  C22 UNL     1      18.483  33.363  10.820  1.00  0.00     0.000 C 
HETATM   21  C23 UNL     1      17.382  32.862  11.754  1.00  0.00     0.000 C 
HETATM   22  C24 UNL     1      17.285  33.711  13.015  1.00  0.00     0.005 C 
ENDBRANCH  16  17
ENDBRANCH  12  16
ENDBRANCH   9  10
ENDBRANCH   8   9
BRANCH   1  23
HETATM   23  C1  UNL     1      11.916  33.883  20.660  1.00  0.00     0.224 C 
HETATM   24  O1  UNL     1      11.526  32.979  19.931  1.00  0.00    -0.273 OA
HETATM   25  N1  UNL     1      11.070  34.612  21.470  1.00  0.00    -0.356 N 
HETATM   26  H1  UNL     1      11.402  35.482  21.864  1.00  0.00     0.162 HD
BRANCH  25  27
HETATM   27  C2  UNL     1       9.638  34.404  21.447  1.00  0.00     0.162 C 
BRANCH  27  28
HETATM   28  C3  UNL     1       8.982  35.277  20.418  1.00  0.00    -0.025 A 
HETATM   29  C4  UNL     1       7.619  35.166  20.129  1.00  0.00     0.011 A 
HETATM   30  C5  UNL     1       7.048  35.979  19.155  1.00  0.00     0.018 A 
HETATM   31  C6  UNL     1       7.866  36.879  18.493  1.00  0.00     0.087 A 
HETATM   32  N2  UNL     1       9.187  37.014  18.738  1.00  0.00    -0.375 N 
HETATM   33  C7  UNL     1       9.712  36.214  19.693  1.00  0.00     0.096 A 
ATOM     34  H2  UNL     1       9.760  37.686  18.227  1.00  0.00     0.164 HD
ENDBRANCH  27  28
ENDBRANCH  25  27
ENDBRANCH   1  23
TORSDOF 7
ENDMDL
MODEL 3
REMARK minimizedAffinity -7.32426739
REMARK  7 active torsions:
REMARK  status: ('A' for Active; 'I' for Inactive)
REMARK       I    between atoms: C1_2  and  N1_3 
REMARK    1  A    between atoms: C1_2  and  C8_12 
REMARK    2  A    between atoms: N1_3  and  C2_4 
REMARK    3  A    between atoms: C2_4  and  C3_5 
REMARK    4  A    between atoms: C14_19  and  C15_20 
REMARK    5  A    between atoms: C15_20  and  N4_21 
REMARK    6  A    between atoms: C17_23  and  C18_24 
REMARK    7  A    between atoms: C18_24  and  C19_25 
ROOT
HETATM    1  C8  UNL     1      13.312  35.037  19.737  1.00  0.00     0.110 C 
HETATM    2  C9  UNL     1      13.440  35.258  18.216  1.00  0.00     0.287 C 
HETATM    3  N3  UNL     1      14.861  35.286  17.777  1.00  0.00     0.095 N 
HETATM    4  C10 UNL     1      15.556  34.109  18.363  1.00  0.00     0.273 C 
HETATM    5  C11 UNL     1      15.639  34.214  19.898  1.00  0.00     0.036 C 
HETATM    6  C12 UNL     1      14.689  35.327  20.377  1.00  0.00     0.004 C 
HETATM    7  C13 UNL     1      15.231  36.663  19.824  1.00  0.00     0.043 C 
HETATM    8  C14 UNL     1      15.527  36.517  18.311  1.00  0.00     0.242 C 
ENDROOT
BRANCH   8   9
HETATM    9  C15 UNL     1      15.160  37.775  17.502  1.00  0.00     0.181 C 
BRANCH   9  10
HETATM   10  N4  UNL     1      15.755  37.775  16.183  1.00  0.00    -0.283 N 
HETATM   11  C16 UNL     1      16.702  36.927  15.693  1.00  0.00     0.134 A 
HETATM   12  C17 UNL     1      16.908  37.369  14.405  1.00  0.00     0.041 A 
HETATM   13  N5  UNL     1      16.084  38.438  14.163  1.00  0.00    -0.287 N 
HETATM   14  N6  UNL     1      15.379  38.674  15.261  1.00  0.00    -0.020 NA
ATOM     15  H5  UNL     1      16.024  38.961  13.290  1.00  0.00     0.184 HD
BRANCH  12  16
HETATM   16  C18 UNL     1      17.833  36.861  13.359  1.00  0.00     0.064 C 
BRANCH  16  17
HETATM   17  C19 UNL     1      17.162  35.877  12.377  1.00  0.00    -0.009 C 
HETATM   18  C20 UNL     1      17.968  35.777  11.064  1.00  0.00     0.005 C 
HETATM   19  C21 UNL     1      18.911  34.579  11.054  1.00  0.00     0.000 C 
HETATM   20  C22 UNL     1      18.151  33.259  11.193  1.00  0.00     0.000 C 
HETATM   21  C23 UNL     1      16.853  33.386  11.990  1.00  0.00     0.000 C 
HETATM   22  C24 UNL     1      16.939  34.496  13.029  1.00  0.00     0.005 C 
ENDBRANCH  16  17
ENDBRANCH  12  16
ENDBRANCH   9  10
ENDBRANCH   8   9
BRANCH   1  23
HETATM   23  C1  UNL     1      12.171  35.852  20.336  1.00  0.00     0.224 C 
HETATM   24  O1  UNL     1      12.238  37.060  20.531  1.00  0.00    -0.273 OA
HETATM   25  N1  UNL     1      11.068  35.096  20.674  1.00  0.00    -0.356 N 
HETATM   26  H1  UNL     1      11.157  34.090  20.707  1.00  0.00     0.162 HD
BRANCH  25  27
HETATM   27  C2  UNL     1       9.937  35.680  21.364  1.00  0.00     0.162 C 
BRANCH  27  28
HETATM   28  C3  UNL     1       8.657  35.413  20.627  1.00  0.00    -0.025 A 
HETATM   29  C4  UNL     1       8.211  36.261  19.610  1.00  0.00     0.011 A 
HETATM   30  C5  UNL     1       7.009  35.993  18.962  1.00  0.00     0.018 A 
HETATM   31  C6  UNL     1       6.286  34.881  19.358  1.00  0.00     0.087 A 
HETATM   32  N2  UNL     1       6.679  34.040  20.339  1.00  0.00    -0.375 N 
HETATM   33  C7  UNL     1       7.853  34.324  20.947  1.00  0.00     0.096 A 
ATOM     34  H2  UNL     1       6.118  33.232  20.607  1.00  0.00     0.164 HD
ENDBRANCH  27  28
ENDBRANCH  25  27
ENDBRANCH   1  23
TORSDOF 7
ENDMDL
MODEL 4
REMARK minimizedAffinity -7.2778244
REMARK  7 active torsions:
REMARK  status: ('A' for Active; 'I' for Inactive)
REMARK       I    between atoms: C1_2  and  N1_3 
REMARK    1  A    between atoms: C1_2  and  C8_12 
REMARK    2  A    between atoms: N1_3  and  C2_4 
REMARK    3  A    between atoms: C2_4  and  C3_5 
REMARK    4  A    between atoms: C14_19  and  C15_20 
REMARK    5  A    between atoms: C15_20  and  N4_21 
REMARK    6  A    between atoms: C17_23  and  C18_24 
REMARK    7  A    between atoms: C18_24  and  C19_25 
ROOT
HETATM    1  C8  UNL     1      17.236  36.982  15.230  1.00  0.00     0.110 C 
HETATM    2  C9  UNL     1      17.461  36.902  16.753  1.00  0.00     0.287 C 
HETATM    3  N3  UNL     1      17.399  35.501  17.250  1.00  0.00     0.095 N 
HETATM    4  C10 UNL     1      18.261  34.657  16.381  1.00  0.00     0.273 C 
HETATM    5  C11 UNL     1      17.700  34.569  14.949  1.00  0.00     0.036 C 
HETATM    6  C12 UNL     1      16.613  35.645  14.770  1.00  0.00     0.004 C 
HETATM    7  C13 UNL     1      15.446  35.281  15.713  1.00  0.00     0.043 C 
HETATM    8  C14 UNL     1      15.996  34.987  17.130  1.00  0.00     0.242 C 
ENDROOT
BRANCH   8   9
HETATM    9  C15 UNL     1      15.085  35.519  18.252  1.00  0.00     0.181 C 
BRANCH   9  10
HETATM   10  N4  UNL     1      13.686  35.233  18.007  1.00  0.00    -0.283 N 
HETATM   11  C16 UNL     1      12.647  36.113  17.974  1.00  0.00     0.134 A 
HETATM   12  C17 UNL     1      11.552  35.322  17.708  1.00  0.00     0.041 A 
HETATM   13  N5  UNL     1      11.963  34.020  17.580  1.00  0.00    -0.287 N 
HETATM   14  N6  UNL     1      13.276  33.980  17.762  1.00  0.00    -0.020 NA
ATOM     15  H5  UNL     1      11.363  33.221  17.379  1.00  0.00     0.184 HD
BRANCH  12  16
HETATM   16  C18 UNL     1      10.120  35.693  17.561  1.00  0.00     0.064 C 
BRANCH  16  17
HETATM   17  C19 UNL     1       9.537  36.379  18.814  1.00  0.00    -0.009 C 
HETATM   18  C20 UNL     1       8.086  36.841  18.561  1.00  0.00     0.005 C 
HETATM   19  C21 UNL     1       7.061  35.837  19.077  1.00  0.00     0.000 C 
HETATM   20  C22 UNL     1       7.186  35.624  20.586  1.00  0.00     0.000 C 
HETATM   21  C23 UNL     1       8.608  35.821  21.111  1.00  0.00     0.000 C 
HETATM   22  C24 UNL     1       9.649  35.470  20.056  1.00  0.00     0.005 C 
ENDBRANCH  16  17
ENDBRANCH  12  16
ENDBRANCH   9  10
ENDBRANCH   8   9
BRANCH   1  23
HETATM   23  C1  UNL     1      16.419  38.208  14.839  1.00  0.00     0.224 C 
HETATM   24  O1  UNL     1      15.327  38.473  15.329  1.00  0.00    -0.273 OA
HETATM   25  N1  UNL     1      17.007  38.976  13.855  1.00  0.00    -0.356 N 
HETATM   26  H1  UNL     1      17.780  38.590  13.332  1.00  0.00     0.162 HD
BRANCH  25  27
HETATM   27  C2  UNL     1      16.321  40.111  13.274  1.00  0.00     0.162 C 
BRANCH  27  28
HETATM   28  C3  UNL     1      16.728  41.390  13.946  1.00  0.00    -0.025 A 
HETATM   29  C4  UNL     1      17.085  42.520  13.205  1.00  0.00     0.011 A 
HETATM   30  C5  UNL     1      17.477  43.683  13.861  1.00  0.00     0.018 A 
HETATM   31  C6  UNL     1      17.504  43.676  15.245  1.00  0.00     0.087 A 
HETATM   32  N2  UNL     1      17.173  42.604  15.997  1.00  0.00    -0.375 N 
HETATM   33  C7  UNL     1      16.791  41.490  15.332  1.00  0.00     0.096 A 
ATOM     34  H2  UNL     1      17.208  42.634  17.016  1.00  0.00     0.164 HD
ENDBRANCH  27  28
ENDBRANCH  25  27
ENDBRANCH   1  23
TORSDOF 7
ENDMDL
MODEL 5
REMARK minimizedAffinity -7.12521458
REMARK  7 active torsions:
REMARK  status: ('A' for Active; 'I' for Inactive)
REMARK       I    between atoms: C1_2  and  N1_3 
REMARK    1  A    between atoms: C1_2  and  C8_12 
REMARK    2  A    between atoms: N1_3  and  C2_4 
REMARK    3  A    between atoms: C2_4  and  C3_5 
REMARK    4  A    between atoms: C14_19  and  C15_20 
REMARK    5  A    between atoms: C15_20  and  N4_21 
REMARK    6  A    between atoms: C17_23  and  C18_24 
REMARK    7  A    between atoms: C18_24  and  C19_25 
ROOT
HETATM    1  C8  UNL     1      16.645  48.274   4.352  1.00  0.00     0.110 C 
HETATM    2  C9  UNL     1      17.407  47.243   3.495  1.00  0.00     0.287 C 
HETATM    3  N3  UNL     1      16.928  45.856   3.739  1.00  0.00     0.095 N 
HETATM    4  C10 UNL     1      15.443  45.852   3.662  1.00  0.00     0.273 C 
HETATM    5  C11 UNL     1      14.820  46.669   4.810  1.00  0.00     0.036 C 
HETATM    6  C12 UNL     1      15.920  47.510   5.483  1.00  0.00     0.004 C 
HETATM    7  C13 UNL     1      16.911  46.527   6.143  1.00  0.00     0.043 C 
HETATM    8  C14 UNL     1      17.310  45.430   5.125  1.00  0.00     0.242 C 
ENDROOT
BRANCH   8   9
HETATM    9  C15 UNL     1      18.794  45.030   5.221  1.00  0.00     0.181 C 
BRANCH   9  10
HETATM   10  N4  UNL     1      19.007  43.629   4.924  1.00  0.00    -0.283 N 
HETATM   11  C16 UNL     1      20.152  43.032   4.489  1.00  0.00     0.134 A 
HETATM   12  C17 UNL     1      19.806  41.705   4.365  1.00  0.00     0.041 A 
HETATM   13  N5  UNL     1      18.495  41.549   4.734  1.00  0.00    -0.287 N 
HETATM   14  N6  UNL     1      18.017  42.737   5.079  1.00  0.00    -0.020 NA
ATOM     15  H5  UNL     1      17.977  40.671   4.742  1.00  0.00     0.184 HD
BRANCH  12  16
HETATM   16  C18 UNL     1      20.621  40.545   3.919  1.00  0.00     0.064 C 
BRANCH  16  17
HETATM   17  C19 UNL     1      19.808  39.240   3.796  1.00  0.00    -0.009 C 
HETATM   18  C20 UNL     1      19.079  39.173   2.437  1.00  0.00     0.005 C 
HETATM   19  C21 UNL     1      19.854  38.362   1.404  1.00  0.00     0.000 C 
HETATM   20  C22 UNL     1      20.055  36.914   1.854  1.00  0.00     0.000 C 
HETATM   21  C23 UNL     1      20.126  36.755   3.373  1.00  0.00     0.000 C 
HETATM   22  C24 UNL     1      20.695  38.000   4.042  1.00  0.00     0.005 C 
ENDBRANCH  16  17
ENDBRANCH  12  16
ENDBRANCH   9  10
ENDBRANCH   8   9
BRANCH   1  23
HETATM   23  C1  UNL     1      17.559  49.388   4.849  1.00  0.00     0.224 C 
HETATM   24  O1  UNL     1      18.724  49.204   5.181  1.00  0.00    -0.273 OA
HETATM   25  N1  UNL     1      16.942  50.620   4.925  1.00  0.00    -0.356 N 
HETATM   26  H1  UNL     1      15.934  50.665   4.864  1.00  0.00     0.162 HD
BRANCH  25  27
HETATM   27  C2  UNL     1      17.619  51.769   5.488  1.00  0.00     0.162 C 
BRANCH  27  28
HETATM   28  C3  UNL     1      16.965  53.048   5.056  1.00  0.00    -0.025 A 
HETATM   29  C4  UNL     1      15.585  53.236   5.172  1.00  0.00     0.011 A 
HETATM   30  C5  UNL     1      15.009  54.427   4.742  1.00  0.00     0.018 A 
HETATM   31  C6  UNL     1      15.837  55.396   4.201  1.00  0.00     0.087 A 
HETATM   32  N2  UNL     1      17.173  55.252   4.066  1.00  0.00    -0.375 N 
HETATM   33  C7  UNL     1      17.704  54.085   4.497  1.00  0.00     0.096 A 
ATOM     34  H2  UNL     1      17.752  55.986   3.659  1.00  0.00     0.164 HD
ENDBRANCH  27  28
ENDBRANCH  25  27
ENDBRANCH   1  23
TORSDOF 7
ENDMDL
MODEL 6
REMARK minimizedAffinity -7.12288094
REMARK  7 active torsions:
REMARK  status: ('A' for Active; 'I' for Inactive)
REMARK       I    between atoms: C1_2  and  N1_3 
REMARK    1  A    between atoms: C1_2  and  C8_12 
REMARK    2  A    between atoms: N1_3  and  C2_4 
REMARK    3  A    between atoms: C2_4  and  C3_5 
REMARK    4  A    between atoms: C14_19  and  C15_20 
REMARK    5  A    between atoms: C15_20  and  N4_21 
REMARK    6  A    between atoms: C17_23  and  C18_24 
REMARK    7  A    between atoms: C18_24  and  C19_25 
ROOT
HETATM    1  C8  UNL     1      14.337  34.566  20.696  1.00  0.00     0.110 C 
HETATM    2  C9  UNL     1      14.425  34.254  19.188  1.00  0.00     0.287 C 
HETATM    3  N3  UNL     1      15.578  34.940  18.546  1.00  0.00     0.095 N 
HETATM    4  C10 UNL     1      16.790  34.693  19.372  1.00  0.00     0.273 C 
HETATM    5  C11 UNL     1      16.675  35.369  20.752  1.00  0.00     0.036 C 
HETATM    6  C12 UNL     1      15.216  35.805  20.977  1.00  0.00     0.004 C 
HETATM    7  C13 UNL     1      14.896  36.898  19.934  1.00  0.00     0.043 C 
HETATM    8  C14 UNL     1      15.337  36.419  18.528  1.00  0.00     0.242 C 
ENDROOT
BRANCH   8   9
HETATM    9  C15 UNL     1      14.357  36.834  17.416  1.00  0.00     0.181 C 
BRANCH   9  10
HETATM   10  N4  UNL     1      15.027  37.459  16.295  1.00  0.00    -0.283 N 
HETATM   11  C16 UNL     1      15.063  38.782  15.975  1.00  0.00     0.134 A 
HETATM   12  C17 UNL     1      15.827  38.824  14.829  1.00  0.00     0.041 A 
HETATM   13  N5  UNL     1      16.228  37.552  14.514  1.00  0.00    -0.287 N 
HETATM   14  N6  UNL     1      15.734  36.724  15.423  1.00  0.00    -0.020 NA
ATOM     15  H5  UNL     1      16.806  37.288  13.716  1.00  0.00     0.184 HD
BRANCH  12  16
HETATM   16  C18 UNL     1      16.220  39.985  13.988  1.00  0.00     0.064 C 
BRANCH  16  17
HETATM   17  C19 UNL     1      17.231  40.923  14.679  1.00  0.00    -0.009 C 
HETATM   18  C20 UNL     1      18.030  41.733  13.635  1.00  0.00     0.005 C 
HETATM   19  C21 UNL     1      17.444  43.122  13.408  1.00  0.00     0.000 C 
HETATM   20  C22 UNL     1      17.447  43.955  14.691  1.00  0.00     0.000 C 
HETATM   21  C23 UNL     1      17.324  43.114  15.961  1.00  0.00     0.000 C 
HETATM   22  C24 UNL     1      16.536  41.834  15.713  1.00  0.00     0.005 C 
ENDBRANCH  16  17
ENDBRANCH  12  16
ENDBRANCH   9  10
ENDBRANCH   8   9
BRANCH   1  23
HETATM   23  C1  UNL     1      12.893  34.716  21.162  1.00  0.00     0.224 C 
HETATM   24  O1  UNL     1      12.565  35.408  22.119  1.00  0.00    -0.273 OA
HETATM   25  N1  UNL     1      11.993  33.971  20.430  1.00  0.00    -0.356 N 
HETATM   26  H1  UNL     1      12.343  33.250  19.814  1.00  0.00     0.162 HD
BRANCH  25  27
HETATM   27  C2  UNL     1      10.596  33.897  20.803  1.00  0.00     0.162 C 
BRANCH  27  28
HETATM   28  C3  UNL     1       9.753  34.768  19.919  1.00  0.00    -0.025 A 
HETATM   29  C4  UNL     1      10.294  35.417  18.806  1.00  0.00     0.011 A 
HETATM   30  C5  UNL     1       9.487  36.233  18.020  1.00  0.00     0.018 A 
HETATM   31  C6  UNL     1       8.157  36.379  18.378  1.00  0.00     0.087 A 
HETATM   32  N2  UNL     1       7.598  35.774  19.447  1.00  0.00    -0.375 N 
HETATM   33  C7  UNL     1       8.405  34.983  20.190  1.00  0.00     0.096 A 
ATOM     34  H2  UNL     1       6.614  35.907  19.684  1.00  0.00     0.164 HD
ENDBRANCH  27  28
ENDBRANCH  25  27
ENDBRANCH   1  23
TORSDOF 7
ENDMDL
MODEL 7
REMARK minimizedAffinity -7.08216381
REMARK  7 active torsions:
REMARK  status: ('A' for Active; 'I' for Inactive)
REMARK       I    between atoms: C1_2  and  N1_3 
REMARK    1  A    between atoms: C1_2  and  C8_12 
REMARK    2  A    between atoms: N1_3  and  C2_4 
REMARK    3  A    between atoms: C2_4  and  C3_5 
REMARK    4  A    between atoms: C14_19  and  C15_20 
REMARK    5  A    between atoms: C15_20  and  N4_21 
REMARK    6  A    between atoms: C17_23  and  C18_24 
REMARK    7  A    between atoms: C18_24  and  C19_25 
ROOT
HETATM    1  C8  UNL     1      17.576  36.775  15.119  1.00  0.00     0.110 C 
HETATM    2  C9  UNL     1      16.882  37.235  16.417  1.00  0.00     0.287 C 
HETATM    3  N3  UNL     1      16.192  36.111  17.106  1.00  0.00     0.095 N 
HETATM    4  C10 UNL     1      17.138  34.968  17.199  1.00  0.00     0.273 C 
HETATM    5  C11 UNL     1      17.473  34.402  15.806  1.00  0.00     0.036 C 
HETATM    6  C12 UNL     1      16.996  35.397  14.732  1.00  0.00     0.004 C 
HETATM    7  C13 UNL     1      15.455  35.457  14.813  1.00  0.00     0.043 C 
HETATM    8  C14 UNL     1      15.020  35.663  16.286  1.00  0.00     0.242 C 
ENDROOT
BRANCH   8   9
HETATM    9  C15 UNL     1      13.814  36.608  16.430  1.00  0.00     0.181 C 
BRANCH   9  10
HETATM   10  N4  UNL     1      12.962  36.248  17.544  1.00  0.00    -0.283 N 
HETATM   11  C16 UNL     1      11.776  35.578  17.506  1.00  0.00     0.134 A 
HETATM   12  C17 UNL     1      11.394  35.507  18.828  1.00  0.00     0.041 A 
HETATM   13  N5  UNL     1      12.351  36.113  19.601  1.00  0.00    -0.287 N 
HETATM   14  N6  UNL     1      13.309  36.560  18.801  1.00  0.00    -0.020 NA
ATOM     15  H5  UNL     1      12.329  36.204  20.617  1.00  0.00     0.184 HD
BRANCH  12  16
HETATM   16  C18 UNL     1      10.181  34.905  19.438  1.00  0.00     0.064 C 
BRANCH  16  17
HETATM   17  C19 UNL     1      10.013  35.253  20.932  1.00  0.00    -0.009 C 
HETATM   18  C20 UNL     1       8.593  35.790  21.215  1.00  0.00     0.005 C 
HETATM   19  C21 UNL     1       7.658  34.704  21.735  1.00  0.00     0.000 C 
HETATM   20  C22 UNL     1       8.159  34.105  23.049  1.00  0.00     0.000 C 
HETATM   21  C23 UNL     1       9.681  34.134  23.189  1.00  0.00     0.000 C 
HETATM   22  C24 UNL     1      10.370  34.051  21.833  1.00  0.00     0.005 C 
ENDBRANCH  16  17
ENDBRANCH  12  16
ENDBRANCH   9  10
ENDBRANCH   8   9
BRANCH   1  23
HETATM   23  C1  UNL     1      17.469  37.821  14.015  1.00  0.00     0.224 C 
HETATM   24  O1  UNL     1      18.209  37.846  13.039  1.00  0.00    -0.273 OA
HETATM   25  N1  UNL     1      16.482  38.760  14.233  1.00  0.00    -0.356 N 
HETATM   26  H1  UNL     1      16.067  38.826  15.152  1.00  0.00     0.162 HD
BRANCH  25  27
HETATM   27  C2  UNL     1      16.314  39.896  13.352  1.00  0.00     0.162 C 
BRANCH  27  28
HETATM   28  C3  UNL     1      16.647  41.179  14.054  1.00  0.00    -0.025 A 
HETATM   29  C4  UNL     1      16.433  41.336  15.426  1.00  0.00     0.011 A 
HETATM   30  C5  UNL     1      16.736  42.547  16.041  1.00  0.00     0.018 A 
HETATM   31  C6  UNL     1      17.241  43.570  15.257  1.00  0.00     0.087 A 
HETATM   32  N2  UNL     1      17.456  43.461  13.928  1.00  0.00    -0.375 N 
HETATM   33  C7  UNL     1      17.158  42.271  13.360  1.00  0.00     0.096 A 
ATOM     34  H2  UNL     1      17.826  44.238  13.381  1.00  0.00     0.164 HD
ENDBRANCH  27  28
ENDBRANCH  25  27
ENDBRANCH   1  23
TORSDOF 7
ENDMDL
MODEL 8
REMARK minimizedAffinity -6.89560175
REMARK  7 active torsions:
REMARK  status: ('A' for Active; 'I' for Inactive)
REMARK       I    between atoms: C1_2  and  N1_3 
REMARK    1  A    between atoms: C1_2  and  C8_12 
REMARK    2  A    between atoms: N1_3  and  C2_4 
REMARK    3  A    between atoms: C2_4  and  C3_5 
REMARK    4  A    between atoms: C14_19  and  C15_20 
REMARK    5  A    between atoms: C15_20  and  N4_21 
REMARK    6  A    between atoms: C17_23  and  C18_24 
REMARK    7  A    between atoms: C18_24  and  C19_25 
ROOT
HETATM    1  C8  UNL     1       9.401  46.062  -2.480  1.00  0.00     0.110 C 
HETATM    2  C9  UNL     1      10.780  46.395  -3.083  1.00  0.00     0.287 C 
HETATM    3  N3  UNL     1      11.626  47.172  -2.137  1.00  0.00     0.095 N 
HETATM    4  C10 UNL     1      11.599  46.491  -0.816  1.00  0.00     0.273 C 
HETATM    5  C11 UNL     1      10.193  46.542  -0.187  1.00  0.00     0.036 C 
HETATM    6  C12 UNL     1       9.180  46.983  -1.259  1.00  0.00     0.004 C 
HETATM    7  C13 UNL     1       9.529  48.435  -1.652  1.00  0.00     0.043 C 
HETATM    8  C14 UNL     1      11.045  48.541  -1.952  1.00  0.00     0.242 C 
ENDROOT
BRANCH   8   9
HETATM    9  C15 UNL     1      11.360  49.472  -3.137  1.00  0.00     0.181 C 
BRANCH   9  10
HETATM   10  N4  UNL     1      12.207  50.582  -2.755  1.00  0.00    -0.283 N 
HETATM   11  C16 UNL     1      11.887  51.906  -2.723  1.00  0.00     0.134 A 
HETATM   12  C17 UNL     1      13.045  52.517  -2.296  1.00  0.00     0.041 A 
HETATM   13  N5  UNL     1      14.000  51.558  -2.077  1.00  0.00    -0.287 N 
HETATM   14  N6  UNL     1      13.472  50.374  -2.359  1.00  0.00    -0.020 NA
ATOM     15  H5  UNL     1      14.952  51.725  -1.753  1.00  0.00     0.184 HD
BRANCH  12  16
HETATM   16  C18 UNL     1      13.337  53.956  -2.072  1.00  0.00     0.064 C 
BRANCH  16  17
HETATM   17  C19 UNL     1      12.069  54.808  -1.851  1.00  0.00    -0.009 C 
HETATM   18  C20 UNL     1      12.293  55.846  -0.731  1.00  0.00     0.005 C 
HETATM   19  C21 UNL     1      12.679  57.215  -1.280  1.00  0.00     0.000 C 
HETATM   20  C22 UNL     1      11.589  57.790  -2.185  1.00  0.00     0.000 C 
HETATM   21  C23 UNL     1      10.773  56.720  -2.908  1.00  0.00     0.000 C 
HETATM   22  C24 UNL     1      11.597  55.464  -3.166  1.00  0.00     0.005 C 
ENDBRANCH  16  17
ENDBRANCH  12  16
ENDBRANCH   9  10
ENDBRANCH   8   9
BRANCH   1  23
HETATM   23  C1  UNL     1       8.290  46.142  -3.521  1.00  0.00     0.224 C 
HETATM   24  O1  UNL     1       7.138  45.781  -3.305  1.00  0.00    -0.273 OA
HETATM   25  N1  UNL     1       8.708  46.627  -4.743  1.00  0.00    -0.356 N 
HETATM   26  H1  UNL     1       9.699  46.687  -4.930  1.00  0.00     0.162 HD
BRANCH  25  27
HETATM   27  C2  UNL     1       7.818  46.661  -5.885  1.00  0.00     0.162 C 
BRANCH  27  28
HETATM   28  C3  UNL     1       6.905  47.850  -5.823  1.00  0.00    -0.025 A 
HETATM   29  C4  UNL     1       7.332  49.070  -5.289  1.00  0.00     0.011 A 
HETATM   30  C5  UNL     1       6.451  50.145  -5.229  1.00  0.00     0.018 A 
HETATM   31  C6  UNL     1       5.164  49.964  -5.704  1.00  0.00     0.087 A 
HETATM   32  N2  UNL     1       4.711  48.802  -6.221  1.00  0.00    -0.375 N 
HETATM   33  C7  UNL     1       5.590  47.776  -6.270  1.00  0.00     0.096 A 
ATOM     34  H2  UNL     1       3.753  48.703  -6.558  1.00  0.00     0.164 HD
ENDBRANCH  27  28
ENDBRANCH  25  27
ENDBRANCH   1  23
TORSDOF 7
ENDMDL
MODEL 9
REMARK minimizedAffinity -6.82055998
REMARK  7 active torsions:
REMARK  status: ('A' for Active; 'I' for Inactive)
REMARK       I    between atoms: C1_2  and  N1_3 
REMARK    1  A    between atoms: C1_2  and  C8_12 
REMARK    2  A    between atoms: N1_3  and  C2_4 
REMARK    3  A    between atoms: C2_4  and  C3_5 
REMARK    4  A    between atoms: C14_19  and  C15_20 
REMARK    5  A    between atoms: C15_20  and  N4_21 
REMARK    6  A    between atoms: C17_23  and  C18_24 
REMARK    7  A    between atoms: C18_24  and  C19_25 
ROOT
HETATM    1  C8  UNL     1      13.772  36.143  21.337  1.00  0.00     0.110 C 
HETATM    2  C9  UNL     1      14.279  34.725  21.011  1.00  0.00     0.287 C 
HETATM    3  N3  UNL     1      15.687  34.735  20.531  1.00  0.00     0.095 N 
HETATM    4  C10 UNL     1      16.496  35.557  21.469  1.00  0.00     0.273 C 
HETATM    5  C11 UNL     1      16.076  37.038  21.423  1.00  0.00     0.036 C 
HETATM    6  C12 UNL     1      14.734  37.156  20.677  1.00  0.00     0.004 C 
HETATM    7  C13 UNL     1      14.985  36.734  19.212  1.00  0.00     0.043 C 
HETATM    8  C14 UNL     1      15.753  35.390  19.184  1.00  0.00     0.242 C 
ENDROOT
BRANCH   8   9
HETATM    9  C15 UNL     1      15.283  34.451  18.058  1.00  0.00     0.181 C 
BRANCH   9  10
HETATM   10  N4  UNL     1      15.519  35.008  16.742  1.00  0.00    -0.283 N 
HETATM   11  C16 UNL     1      16.702  35.098  16.073  1.00  0.00     0.134 A 
HETATM   12  C17 UNL     1      16.363  35.705  14.883  1.00  0.00     0.041 A 
HETATM   13  N5  UNL     1      15.013  35.942  14.872  1.00  0.00    -0.287 N 
HETATM   14  N6  UNL     1      14.506  35.506  16.017  1.00  0.00    -0.020 NA
ATOM     15  H5  UNL     1      14.489  36.378  14.114  1.00  0.00     0.184 HD
BRANCH  12  16
HETATM   16  C18 UNL     1      17.220  36.088  13.731  1.00  0.00     0.064 C 
BRANCH  16  17
HETATM   17  C19 UNL     1      16.953  35.246  12.466  1.00  0.00    -0.009 C 
HETATM   18  C20 UNL     1      17.766  35.782  11.268  1.00  0.00     0.005 C 
HETATM   19  C21 UNL     1      19.068  35.016  11.064  1.00  0.00     0.000 C 
HETATM   20  C22 UNL     1      18.816  33.534  10.782  1.00  0.00     0.000 C 
HETATM   21  C23 UNL     1      17.541  33.000  11.436  1.00  0.00     0.000 C 
HETATM   22  C24 UNL     1      17.215  33.747  12.723  1.00  0.00     0.005 C 
ENDBRANCH  16  17
ENDBRANCH  12  16
ENDBRANCH   9  10
ENDBRANCH   8   9
BRANCH   1  23
HETATM   23  C1  UNL     1      12.312  36.332  20.939  1.00  0.00     0.224 C 
HETATM   24  O1  UNL     1      11.753  37.422  20.931  1.00  0.00    -0.273 OA
HETATM   25  N1  UNL     1      11.667  35.154  20.621  1.00  0.00    -0.356 N 
HETATM   26  H1  UNL     1      12.104  34.277  20.867  1.00  0.00     0.162 HD
BRANCH  25  27
HETATM   27  C2  UNL     1      10.248  35.125  20.335  1.00  0.00     0.162 C 
BRANCH  27  28
HETATM   28  C3  UNL     1       9.447  34.956  21.593  1.00  0.00    -0.025 A 
HETATM   29  C4  UNL     1       9.918  34.185  22.659  1.00  0.00     0.011 A 
HETATM   30  C5  UNL     1       9.140  34.034  23.802  1.00  0.00     0.018 A 
HETATM   31  C6  UNL     1       7.905  34.659  23.840  1.00  0.00     0.087 A 
HETATM   32  N2  UNL     1       7.411  35.408  22.831  1.00  0.00    -0.375 N 
HETATM   33  C7  UNL     1       8.193  35.540  21.735  1.00  0.00     0.096 A 
ATOM     34  H2  UNL     1       6.495  35.851  22.891  1.00  0.00     0.164 HD
ENDBRANCH  27  28
ENDBRANCH  25  27
ENDBRANCH   1  23
TORSDOF 7
ENDMDL
