MODEL 1
REMARK minimizedAffinity -10.2896032
REMARK  12 active torsions:
REMARK  status: ('A' for Active; 'I' for Inactive)
REMARK    1  A    between atoms: C2_2  and  C3_3 
REMARK    2  A    between atoms: C2_2  and  C9_11 
REMARK    3  A    between atoms: C4_4  and  C5_5 
REMARK    4  A    between atoms: C5_5  and  C6_6 
REMARK    5  A    between atoms: C6_6  and  O1_8 
REMARK    6  A    between atoms: C6_6  and  C8_9 
REMARK    7  A    between atoms: C8_9  and  O2_10 
REMARK    8  A    between atoms: C10_12  and  O3_13 
REMARK    9  A    between atoms: C11_14  and  O4_15 
REMARK   10  A    between atoms: C22_26  and  O5_27 
REMARK   11  A    between atoms: C25_30  and  O6_31 
REMARK   12  A    between atoms: C27_33  and  O7_34 
ROOT
HETATM    1  C9  UNL     1       1.443   7.084   9.794  1.00  0.00     0.033 C 
HETATM    2  C10 UNL     1       1.926   5.642  10.166  1.00  0.00     0.152 C 
HETATM    3  C11 UNL     1       1.077   5.189  11.382  1.00  0.00     0.155 C 
HETATM    4  C12 UNL     1      -0.007   6.256  11.489  1.00  0.00     0.060 C 
HETATM    5  C13 UNL     1       0.746   7.572  11.111  1.00  0.00    -0.028 C 
HETATM    6  C14 UNL     1       1.810   8.050  12.130  1.00  0.00     0.016 C 
HETATM    7  C15 UNL     1      -0.324   8.667  10.937  1.00  0.00     0.011 C 
HETATM    8  C16 UNL     1      -1.229   8.807  12.175  1.00  0.00     0.009 C 
HETATM    9  C17 UNL     1      -1.909   7.474  12.571  1.00  0.00     0.029 C 
HETATM   10  C18 UNL     1      -2.980   7.618  13.723  1.00  0.00    -0.031 C 
HETATM   11  C19 UNL     1      -2.372   8.290  14.980  1.00  0.00     0.016 C 
HETATM   12  C20 UNL     1      -4.151   8.547  13.236  1.00  0.00     0.012 C 
HETATM   13  C21 UNL     1      -5.568   8.033  13.532  1.00  0.00     0.032 C 
HETATM   14  C22 UNL     1      -5.703   7.346  14.886  1.00  0.00     0.118 C 
HETATM   15  C23 UNL     1      -4.662   6.241  15.108  1.00  0.00     0.039 C 
HETATM   16  C24 UNL     1      -3.578   6.204  14.014  1.00  0.00     0.025 C 
HETATM   17  C25 UNL     1      -2.532   5.102  14.264  1.00  0.00     0.126 C 
HETATM   18  C26 UNL     1      -1.565   4.997  13.079  1.00  0.00     0.071 C 
HETATM   19  C27 UNL     1      -0.853   6.333  12.781  1.00  0.00     0.071 C 
ENDROOT
BRANCH   1  20
HETATM   20  C2  UNL     1       2.526   7.966   9.115  1.00  0.00     0.011 C 
HETATM   21  C1  UNL     1       2.549   7.842   7.587  1.00  0.00     0.015 C 
BRANCH  20  22
HETATM   22  C3  UNL     1       3.895   7.672   9.717  1.00  0.00    -0.026 C 
HETATM   23  C4  UNL     1       4.750   8.559  10.251  1.00  0.00    -0.027 C 
BRANCH  23  24
HETATM   24  C5  UNL     1       6.093   8.186  10.831  1.00  0.00     0.066 C 
BRANCH  24  25
HETATM   25  C6  UNL     1       6.045   7.039  11.871  1.00  0.00     0.078 C 
HETATM   26  C7  UNL     1       6.456   5.688  11.280  1.00  0.00     0.048 C 
BRANCH  25  27
HETATM   27  O1  UNL     1       4.707   6.929  12.397  1.00  0.00    -0.388 OA
HETATM   28  H12 UNL     1       4.143   6.595  11.677  1.00  0.00     0.210 HD
ENDBRANCH  25  27
BRANCH  25  29
HETATM   29  C8  UNL     1       6.956   7.372  13.072  1.00  0.00     0.201 C 
BRANCH  29  30
HETATM   30  O2  UNL     1       6.502   6.695  14.243  1.00  0.00    -0.398 OA
HETATM   31  H15 UNL     1       6.320   5.781  13.944  1.00  0.00     0.209 HD
ENDBRANCH  29  30
ENDBRANCH  25  29
ENDBRANCH  24  25
ENDBRANCH  23  24
ENDBRANCH  20  22
ENDBRANCH   1  20
BRANCH   2  32
HETATM   32  O3  UNL     1       3.311   5.607  10.510  1.00  0.00    -0.393 OA
HETATM   33  H18 UNL     1       3.527   4.697  10.776  1.00  0.00     0.210 HD
ENDBRANCH   2  32
BRANCH   3  34
HETATM   34  O4  UNL     1       0.504   3.907  11.129  1.00  0.00    -0.392 OA
HETATM   35  H20 UNL     1       1.229   3.259  11.147  1.00  0.00     0.210 HD
ENDBRANCH   3  34
BRANCH  19  36
HETATM   36  O7  UNL     1       0.021   6.623  13.869  1.00  0.00    -0.389 OA
HETATM   37  H46 UNL     1      -0.369   6.225  14.677  1.00  0.00     0.210 HD
ENDBRANCH  19  36
BRANCH  17  38
HETATM   38  O6  UNL     1      -1.768   5.331  15.445  1.00  0.00    -0.395 OA
HETATM   39  H43 UNL     1      -2.376   5.290  16.207  1.00  0.00     0.210 HD
ENDBRANCH  17  38
BRANCH  14  40
HETATM   40  O5  UNL     1      -5.587   8.307  15.931  1.00  0.00    -0.396 OA
HETATM   41  H38 UNL     1      -6.238   9.009  15.765  1.00  0.00     0.210 HD
ENDBRANCH  14  40
TORSDOF 12
ENDMDL
MODEL 2
REMARK minimizedAffinity -10.1290321
REMARK  12 active torsions:
REMARK  status: ('A' for Active; 'I' for Inactive)
REMARK    1  A    between atoms: C2_2  and  C3_3 
REMARK    2  A    between atoms: C2_2  and  C9_11 
REMARK    3  A    between atoms: C4_4  and  C5_5 
REMARK    4  A    between atoms: C5_5  and  C6_6 
REMARK    5  A    between atoms: C6_6  and  O1_8 
REMARK    6  A    between atoms: C6_6  and  C8_9 
REMARK    7  A    between atoms: C8_9  and  O2_10 
REMARK    8  A    between atoms: C10_12  and  O3_13 
REMARK    9  A    between atoms: C11_14  and  O4_15 
REMARK   10  A    between atoms: C22_26  and  O5_27 
REMARK   11  A    between atoms: C25_30  and  O6_31 
REMARK   12  A    between atoms: C27_33  and  O7_34 
ROOT
HETATM    1  C9  UNL     1      -6.119   5.729  13.274  1.00  0.00     0.033 C 
HETATM    2  C10 UNL     1      -7.111   4.682  12.666  1.00  0.00     0.152 C 
HETATM    3  C11 UNL     1      -8.540   5.155  13.038  1.00  0.00     0.155 C 
HETATM    4  C12 UNL     1      -8.325   6.555  13.604  1.00  0.00     0.060 C 
HETATM    5  C13 UNL     1      -6.980   6.423  14.386  1.00  0.00    -0.028 C 
HETATM    6  C14 UNL     1      -7.026   5.536  15.655  1.00  0.00     0.016 C 
HETATM    7  C15 UNL     1      -6.547   7.850  14.776  1.00  0.00     0.011 C 
HETATM    8  C16 UNL     1      -7.641   8.605  15.552  1.00  0.00     0.009 C 
HETATM    9  C17 UNL     1      -8.985   8.662  14.787  1.00  0.00     0.029 C 
HETATM   10  C18 UNL     1     -10.074   9.579  15.470  1.00  0.00    -0.031 C 
HETATM   11  C19 UNL     1     -10.325   9.160  16.940  1.00  0.00     0.016 C 
HETATM   12  C20 UNL     1      -9.560  11.064  15.505  1.00  0.00     0.012 C 
HETATM   13  C21 UNL     1     -10.580  12.126  15.067  1.00  0.00     0.032 C 
HETATM   14  C22 UNL     1     -12.004  11.841  15.529  1.00  0.00     0.118 C 
HETATM   15  C23 UNL     1     -12.487  10.432  15.160  1.00  0.00     0.039 C 
HETATM   16  C24 UNL     1     -11.367   9.539  14.593  1.00  0.00     0.025 C 
HETATM   17  C25 UNL     1     -11.866   8.123  14.247  1.00  0.00     0.126 C 
HETATM   18  C26 UNL     1     -10.766   7.320  13.545  1.00  0.00     0.071 C 
HETATM   19  C27 UNL     1      -9.477   7.226  14.388  1.00  0.00     0.071 C 
ENDROOT
BRANCH   1  20
HETATM   20  C2  UNL     1      -4.717   5.157  13.622  1.00  0.00     0.011 C 
HETATM   21  C1  UNL     1      -3.611   6.218  13.647  1.00  0.00     0.015 C 
BRANCH  20  22
HETATM   22  C3  UNL     1      -4.368   4.014  12.675  1.00  0.00    -0.026 C 
HETATM   23  C4  UNL     1      -3.307   3.195  12.755  1.00  0.00    -0.027 C 
BRANCH  23  24
HETATM   24  C5  UNL     1      -3.031   2.081  11.774  1.00  0.00     0.066 C 
BRANCH  24  25
HETATM   25  C6  UNL     1      -1.744   2.271  10.934  1.00  0.00     0.078 C 
HETATM   26  C7  UNL     1      -0.755   3.245  11.581  1.00  0.00     0.048 C 
BRANCH  25  27
HETATM   27  O1  UNL     1      -2.097   2.765   9.627  1.00  0.00    -0.388 OA
HETATM   28  H12 UNL     1      -2.419   3.677   9.743  1.00  0.00     0.210 HD
ENDBRANCH  25  27
BRANCH  25  29
HETATM   29  C8  UNL     1      -1.050   0.910  10.710  1.00  0.00     0.201 C 
BRANCH  29  30
HETATM   30  O2  UNL     1      -0.656   0.773   9.345  1.00  0.00    -0.398 OA
HETATM   31  H15 UNL     1      -0.241   1.631   9.121  1.00  0.00     0.209 HD
ENDBRANCH  29  30
ENDBRANCH  25  29
ENDBRANCH  24  25
ENDBRANCH  23  24
ENDBRANCH  20  22
ENDBRANCH   1  20
BRANCH   2  32
HETATM   32  O3  UNL     1      -6.893   3.368  13.179  1.00  0.00    -0.393 OA
HETATM   33  H18 UNL     1      -7.572   2.785  12.799  1.00  0.00     0.210 HD
ENDBRANCH   2  32
BRANCH   3  34
HETATM   34  O4  UNL     1      -9.361   5.200  11.872  1.00  0.00    -0.392 OA
HETATM   35  H20 UNL     1      -9.525   4.280  11.600  1.00  0.00     0.210 HD
ENDBRANCH   3  34
BRANCH  19  36
HETATM   36  O7  UNL     1      -9.755   6.431  15.539  1.00  0.00    -0.389 OA
HETATM   37  H46 UNL     1     -10.705   6.548  15.756  1.00  0.00     0.210 HD
ENDBRANCH  19  36
BRANCH  17  38
HETATM   38  O6  UNL     1     -12.286   7.396  15.398  1.00  0.00    -0.395 OA
HETATM   39  H43 UNL     1     -13.056   7.856  15.779  1.00  0.00     0.210 HD
ENDBRANCH  17  38
BRANCH  14  40
HETATM   40  O5  UNL     1     -12.097  12.006  16.941  1.00  0.00    -0.396 OA
HETATM   41  H38 UNL     1     -11.769  12.895  17.160  1.00  0.00     0.210 HD
ENDBRANCH  14  40
TORSDOF 12
ENDMDL
MODEL 3
REMARK minimizedAffinity -9.61857414
REMARK  12 active torsions:
REMARK  status: ('A' for Active; 'I' for Inactive)
REMARK    1  A    between atoms: C2_2  and  C3_3 
REMARK    2  A    between atoms: C2_2  and  C9_11 
REMARK    3  A    between atoms: C4_4  and  C5_5 
REMARK    4  A    between atoms: C5_5  and  C6_6 
REMARK    5  A    between atoms: C6_6  and  O1_8 
REMARK    6  A    between atoms: C6_6  and  C8_9 
REMARK    7  A    between atoms: C8_9  and  O2_10 
REMARK    8  A    between atoms: C10_12  and  O3_13 
REMARK    9  A    between atoms: C11_14  and  O4_15 
REMARK   10  A    between atoms: C22_26  and  O5_27 
REMARK   11  A    between atoms: C25_30  and  O6_31 
REMARK   12  A    between atoms: C27_33  and  O7_34 
ROOT
HETATM    1  C9  UNL     1      -2.197   6.959  12.599  1.00  0.00     0.033 C 
HETATM    2  C10 UNL     1      -2.338   5.465  12.155  1.00  0.00     0.152 C 
HETATM    3  C11 UNL     1      -3.701   4.966  12.701  1.00  0.00     0.155 C 
HETATM    4  C12 UNL     1      -4.383   6.237  13.196  1.00  0.00     0.060 C 
HETATM    5  C13 UNL     1      -3.203   7.067  13.796  1.00  0.00    -0.028 C 
HETATM    6  C14 UNL     1      -2.564   6.488  15.082  1.00  0.00     0.016 C 
HETATM    7  C15 UNL     1      -3.751   8.477  14.087  1.00  0.00     0.011 C 
HETATM    8  C16 UNL     1      -5.004   8.449  14.981  1.00  0.00     0.009 C 
HETATM    9  C17 UNL     1      -6.133   7.564  14.400  1.00  0.00     0.029 C 
HETATM   10  C18 UNL     1      -7.493   7.654  15.197  1.00  0.00    -0.031 C 
HETATM   11  C19 UNL     1      -7.292   7.328  16.698  1.00  0.00     0.016 C 
HETATM   12  C20 UNL     1      -8.046   9.124  15.124  1.00  0.00     0.012 C 
HETATM   13  C21 UNL     1      -9.542   9.251  14.797  1.00  0.00     0.032 C 
HETATM   14  C22 UNL     1     -10.409   8.182  15.451  1.00  0.00     0.118 C 
HETATM   15  C23 UNL     1      -9.909   6.755  15.188  1.00  0.00     0.039 C 
HETATM   16  C24 UNL     1      -8.530   6.715  14.501  1.00  0.00     0.025 C 
HETATM   17  C25 UNL     1      -8.037   5.277  14.262  1.00  0.00     0.126 C 
HETATM   18  C26 UNL     1      -6.742   5.279  13.441  1.00  0.00     0.071 C 
HETATM   19  C27 UNL     1      -5.626   6.109  14.108  1.00  0.00     0.071 C 
ENDROOT
BRANCH   1  20
HETATM   20  C2  UNL     1      -0.730   7.440  12.772  1.00  0.00     0.011 C 
HETATM   21  C1  UNL     1      -0.533   8.395  13.955  1.00  0.00     0.015 C 
BRANCH  20  22
HETATM   22  C3  UNL     1      -0.223   8.055  11.473  1.00  0.00    -0.026 C 
HETATM   23  C4  UNL     1       0.194   7.399  10.377  1.00  0.00    -0.027 C 
BRANCH  23  24
HETATM   24  C5  UNL     1       0.682   8.085   9.124  1.00  0.00     0.066 C 
BRANCH  24  25
HETATM   25  C6  UNL     1       1.857   7.364   8.416  1.00  0.00     0.078 C 
HETATM   26  C7  UNL     1       1.631   7.205   6.910  1.00  0.00     0.048 C 
BRANCH  25  27
HETATM   27  O1  UNL     1       2.036   6.058   9.001  1.00  0.00    -0.388 OA
HETATM   28  H12 UNL     1       1.265   5.522   8.746  1.00  0.00     0.210 HD
ENDBRANCH  25  27
BRANCH  25  29
HETATM   29  C8  UNL     1       3.174   8.132   8.658  1.00  0.00     0.201 C 
BRANCH  29  30
HETATM   30  O2  UNL     1       3.354   9.137   7.661  1.00  0.00    -0.398 OA
HETATM   31  H15 UNL     1       2.481   9.575   7.593  1.00  0.00     0.209 HD
ENDBRANCH  29  30
ENDBRANCH  25  29
ENDBRANCH  24  25
ENDBRANCH  23  24
ENDBRANCH  20  22
ENDBRANCH   1  20
BRANCH   2  32
HETATM   32  O3  UNL     1      -1.288   4.646  12.669  1.00  0.00    -0.393 OA
HETATM   33  H18 UNL     1      -1.467   3.730  12.398  1.00  0.00     0.210 HD
ENDBRANCH   2  32
BRANCH   3  34
HETATM   34  O4  UNL     1      -4.456   4.360  11.653  1.00  0.00    -0.392 OA
HETATM   35  H20 UNL     1      -4.018   3.521  11.430  1.00  0.00     0.210 HD
ENDBRANCH   3  34
BRANCH  19  36
HETATM   36  O7  UNL     1      -5.232   5.442  15.306  1.00  0.00    -0.389 OA
HETATM   37  H46 UNL     1      -6.014   4.956  15.645  1.00  0.00     0.210 HD
ENDBRANCH  19  36
BRANCH  17  38
HETATM   38  O6  UNL     1      -7.795   4.573  15.477  1.00  0.00    -0.395 OA
HETATM   39  H43 UNL     1      -8.646   4.481  15.944  1.00  0.00     0.210 HD
ENDBRANCH  17  38
BRANCH  14  40
HETATM   40  O5  UNL     1     -10.465   8.398  16.859  1.00  0.00    -0.396 OA
HETATM   41  H38 UNL     1     -10.763   9.311  17.009  1.00  0.00     0.210 HD
ENDBRANCH  14  40
TORSDOF 12
ENDMDL
MODEL 4
REMARK minimizedAffinity -9.57361031
REMARK  12 active torsions:
REMARK  status: ('A' for Active; 'I' for Inactive)
REMARK    1  A    between atoms: C2_2  and  C3_3 
REMARK    2  A    between atoms: C2_2  and  C9_11 
REMARK    3  A    between atoms: C4_4  and  C5_5 
REMARK    4  A    between atoms: C5_5  and  C6_6 
REMARK    5  A    between atoms: C6_6  and  O1_8 
REMARK    6  A    between atoms: C6_6  and  C8_9 
REMARK    7  A    between atoms: C8_9  and  O2_10 
REMARK    8  A    between atoms: C10_12  and  O3_13 
REMARK    9  A    between atoms: C11_14  and  O4_15 
REMARK   10  A    between atoms: C22_26  and  O5_27 
REMARK   11  A    between atoms: C25_30  and  O6_31 
REMARK   12  A    between atoms: C27_33  and  O7_34 
ROOT
HETATM    1  C9  UNL     1      -5.778   6.788  13.913  1.00  0.00     0.033 C 
HETATM    2  C10 UNL     1      -5.801   8.079  14.798  1.00  0.00     0.152 C 
HETATM    3  C11 UNL     1      -4.349   8.621  14.831  1.00  0.00     0.155 C 
HETATM    4  C12 UNL     1      -3.624   7.787  13.780  1.00  0.00     0.060 C 
HETATM    5  C13 UNL     1      -4.267   6.372  13.937  1.00  0.00    -0.028 C 
HETATM    6  C14 UNL     1      -3.939   5.632  15.258  1.00  0.00     0.016 C 
HETATM    7  C15 UNL     1      -3.785   5.525  12.744  1.00  0.00     0.011 C 
HETATM    8  C16 UNL     1      -2.250   5.497  12.624  1.00  0.00     0.009 C 
HETATM    9  C17 UNL     1      -1.631   6.914  12.539  1.00  0.00     0.029 C 
HETATM   10  C18 UNL     1      -0.082   6.919  12.236  1.00  0.00    -0.031 C 
HETATM   11  C19 UNL     1       0.700   6.067  13.268  1.00  0.00     0.016 C 
HETATM   12  C20 UNL     1       0.179   6.273  10.826  1.00  0.00     0.012 C 
HETATM   13  C21 UNL     1       1.150   7.041   9.918  1.00  0.00     0.032 C 
HETATM   14  C22 UNL     1       2.328   7.662  10.659  1.00  0.00     0.118 C 
HETATM   15  C23 UNL     1       1.902   8.521  11.857  1.00  0.00     0.039 C 
HETATM   16  C24 UNL     1       0.400   8.405  12.180  1.00  0.00     0.025 C 
HETATM   17  C25 UNL     1      -0.005   9.258  13.396  1.00  0.00     0.126 C 
HETATM   18  C26 UNL     1      -1.525   9.238  13.588  1.00  0.00     0.071 C 
HETATM   19  C27 UNL     1      -2.077   7.806  13.749  1.00  0.00     0.071 C 
ENDROOT
BRANCH   1  20
HETATM   20  C2  UNL     1      -6.875   5.747  14.271  1.00  0.00     0.011 C 
HETATM   21  C1  UNL     1      -7.071   4.669  13.198  1.00  0.00     0.015 C 
BRANCH  20  22
HETATM   22  C3  UNL     1      -8.186   6.456  14.590  1.00  0.00    -0.026 C 
HETATM   23  C4  UNL     1      -9.267   6.549  13.798  1.00  0.00    -0.027 C 
BRANCH  23  24
HETATM   24  C5  UNL     1     -10.534   7.271  14.190  1.00  0.00     0.066 C 
BRANCH  24  25
HETATM   25  C6  UNL     1     -11.436   7.674  12.997  1.00  0.00     0.078 C 
HETATM   26  C7  UNL     1     -12.832   7.050  13.075  1.00  0.00     0.048 C 
BRANCH  25  27
HETATM   27  O1  UNL     1     -10.810   7.261  11.765  1.00  0.00    -0.388 OA
HETATM   28  H12 UNL     1     -10.838   6.288  11.742  1.00  0.00     0.210 HD
ENDBRANCH  25  27
BRANCH  25  29
HETATM   29  C8  UNL     1     -11.565   9.211  12.923  1.00  0.00     0.201 C 
BRANCH  29  30
HETATM   30  O2  UNL     1     -11.898   9.618  11.596  1.00  0.00    -0.398 OA
HETATM   31  H15 UNL     1     -12.611   9.005  11.323  1.00  0.00     0.209 HD
ENDBRANCH  29  30
ENDBRANCH  25  29
ENDBRANCH  24  25
ENDBRANCH  23  24
ENDBRANCH  20  22
ENDBRANCH   1  20
BRANCH   2  32
HETATM   32  O3  UNL     1      -6.245   7.817  16.128  1.00  0.00    -0.393 OA
HETATM   33  H18 UNL     1      -6.186   8.647  16.630  1.00  0.00     0.210 HD
ENDBRANCH   2  32
BRANCH   3  34
HETATM   34  O4  UNL     1      -4.333  10.004  14.481  1.00  0.00    -0.392 OA
HETATM   35  H20 UNL     1      -4.739  10.492  15.218  1.00  0.00     0.210 HD
ENDBRANCH   3  34
BRANCH  19  36
HETATM   36  O7  UNL     1      -1.602   7.283  14.988  1.00  0.00    -0.389 OA
HETATM   37  H46 UNL     1      -0.735   7.704  15.173  1.00  0.00     0.210 HD
ENDBRANCH  19  36
BRANCH  17  38
HETATM   38  O6  UNL     1       0.605   8.813  14.604  1.00  0.00    -0.395 OA
HETATM   39  H43 UNL     1       1.568   8.930  14.514  1.00  0.00     0.210 HD
ENDBRANCH  17  38
BRANCH  14  40
HETATM   40  O5  UNL     1       3.207   6.637  11.116  1.00  0.00    -0.396 OA
HETATM   41  H38 UNL     1       3.451   6.090  10.350  1.00  0.00     0.210 HD
ENDBRANCH  14  40
TORSDOF 12
ENDMDL
MODEL 5
REMARK minimizedAffinity -9.5703907
REMARK  12 active torsions:
REMARK  status: ('A' for Active; 'I' for Inactive)
REMARK    1  A    between atoms: C2_2  and  C3_3 
REMARK    2  A    between atoms: C2_2  and  C9_11 
REMARK    3  A    between atoms: C4_4  and  C5_5 
REMARK    4  A    between atoms: C5_5  and  C6_6 
REMARK    5  A    between atoms: C6_6  and  O1_8 
REMARK    6  A    between atoms: C6_6  and  C8_9 
REMARK    7  A    between atoms: C8_9  and  O2_10 
REMARK    8  A    between atoms: C10_12  and  O3_13 
REMARK    9  A    between atoms: C11_14  and  O4_15 
REMARK   10  A    between atoms: C22_26  and  O5_27 
REMARK   11  A    between atoms: C25_30  and  O6_31 
REMARK   12  A    between atoms: C27_33  and  O7_34 
ROOT
HETATM    1  C9  UNL     1      -5.526   7.221  13.703  1.00  0.00     0.033 C 
HETATM    2  C10 UNL     1      -5.434   8.513  14.582  1.00  0.00     0.152 C 
HETATM    3  C11 UNL     1      -3.930   8.875  14.682  1.00  0.00     0.155 C 
HETATM    4  C12 UNL     1      -3.263   7.952  13.669  1.00  0.00     0.060 C 
HETATM    5  C13 UNL     1      -4.079   6.626  13.800  1.00  0.00    -0.028 C 
HETATM    6  C14 UNL     1      -3.905   5.862  15.136  1.00  0.00     0.016 C 
HETATM    7  C15 UNL     1      -3.648   5.717  12.633  1.00  0.00     0.011 C 
HETATM    8  C16 UNL     1      -2.124   5.503  12.585  1.00  0.00     0.009 C 
HETATM    9  C17 UNL     1      -1.335   6.833  12.526  1.00  0.00     0.029 C 
HETATM   10  C18 UNL     1       0.216   6.649  12.296  1.00  0.00    -0.031 C 
HETATM   11  C19 UNL     1       0.840   5.717  13.366  1.00  0.00     0.016 C 
HETATM   12  C20 UNL     1       0.462   5.965  10.902  1.00  0.00     0.012 C 
HETATM   13  C21 UNL     1       1.560   6.603  10.038  1.00  0.00     0.032 C 
HETATM   14  C22 UNL     1       2.768   7.082  10.832  1.00  0.00     0.118 C 
HETATM   15  C23 UNL     1       2.395   7.996  12.006  1.00  0.00     0.039 C 
HETATM   16  C24 UNL     1       0.876   8.065  12.259  1.00  0.00     0.025 C 
HETATM   17  C25 UNL     1       0.521   8.971  13.452  1.00  0.00     0.126 C 
HETATM   18  C26 UNL     1      -0.998   9.136  13.572  1.00  0.00     0.071 C 
HETATM   19  C27 UNL     1      -1.726   7.783  13.711  1.00  0.00     0.071 C 
ENDROOT
BRANCH   1  20
HETATM   20  C2  UNL     1      -6.756   6.324  14.012  1.00  0.00     0.011 C 
HETATM   21  C1  UNL     1      -7.350   6.555  15.406  1.00  0.00     0.015 C 
BRANCH  20  22
HETATM   22  C3  UNL     1      -6.403   4.857  13.796  1.00  0.00    -0.026 C 
HETATM   23  C4  UNL     1      -6.690   4.107  12.719  1.00  0.00    -0.027 C 
BRANCH  23  24
HETATM   24  C5  UNL     1      -6.301   2.654  12.580  1.00  0.00     0.066 C 
BRANCH  24  25
HETATM   25  C6  UNL     1      -5.361   2.354  11.387  1.00  0.00     0.078 C 
HETATM   26  C7  UNL     1      -5.428   3.429  10.298  1.00  0.00     0.048 C 
BRANCH  25  27
HETATM   27  O1  UNL     1      -5.716   1.082  10.808  1.00  0.00    -0.388 OA
HETATM   28  H12 UNL     1      -6.584   1.195  10.380  1.00  0.00     0.210 HD
ENDBRANCH  25  27
BRANCH  25  29
HETATM   29  C8  UNL     1      -3.905   2.214  11.880  1.00  0.00     0.201 C 
BRANCH  29  30
HETATM   30  O2  UNL     1      -3.364   0.955  11.479  1.00  0.00    -0.398 OA
HETATM   31  H15 UNL     1      -3.625   0.863  10.540  1.00  0.00     0.209 HD
ENDBRANCH  29  30
ENDBRANCH  25  29
ENDBRANCH  24  25
ENDBRANCH  23  24
ENDBRANCH  20  22
ENDBRANCH   1  20
BRANCH   2  32
HETATM   32  O3  UNL     1      -5.967   8.317  15.892  1.00  0.00    -0.393 OA
HETATM   33  H18 UNL     1      -5.831   9.138  16.393  1.00  0.00     0.210 HD
ENDBRANCH   2  32
BRANCH   3  34
HETATM   34  O4  UNL     1      -3.731  10.243  14.331  1.00  0.00    -0.392 OA
HETATM   35  H20 UNL     1      -4.108  10.783  15.046  1.00  0.00     0.210 HD
ENDBRANCH   3  34
BRANCH  19  36
HETATM   36  O7  UNL     1      -1.375   7.217  14.972  1.00  0.00    -0.389 OA
HETATM   37  H46 UNL     1      -0.473   7.531  15.197  1.00  0.00     0.210 HD
ENDBRANCH  19  36
BRANCH  17  38
HETATM   38  O6  UNL     1       1.016   8.466  14.689  1.00  0.00    -0.395 OA
HETATM   39  H43 UNL     1       1.990   8.465  14.644  1.00  0.00     0.210 HD
ENDBRANCH  17  38
BRANCH  14  40
HETATM   40  O5  UNL     1       3.495   5.963  11.333  1.00  0.00    -0.396 OA
HETATM   41  H38 UNL     1       3.706   5.384  10.581  1.00  0.00     0.210 HD
ENDBRANCH  14  40
TORSDOF 12
ENDMDL
MODEL 6
REMARK minimizedAffinity -9.54133415
REMARK  12 active torsions:
REMARK  status: ('A' for Active; 'I' for Inactive)
REMARK    1  A    between atoms: C2_2  and  C3_3 
REMARK    2  A    between atoms: C2_2  and  C9_11 
REMARK    3  A    between atoms: C4_4  and  C5_5 
REMARK    4  A    between atoms: C5_5  and  C6_6 
REMARK    5  A    between atoms: C6_6  and  O1_8 
REMARK    6  A    between atoms: C6_6  and  C8_9 
REMARK    7  A    between atoms: C8_9  and  O2_10 
REMARK    8  A    between atoms: C10_12  and  O3_13 
REMARK    9  A    between atoms: C11_14  and  O4_15 
REMARK   10  A    between atoms: C22_26  and  O5_27 
REMARK   11  A    between atoms: C25_30  and  O6_31 
REMARK   12  A    between atoms: C27_33  and  O7_34 
ROOT
HETATM    1  C9  UNL     1       1.989   6.915  13.270  1.00  0.00     0.033 C 
HETATM    2  C10 UNL     1       2.269   7.398  14.733  1.00  0.00     0.152 C 
HETATM    3  C11 UNL     1       0.887   7.589  15.409  1.00  0.00     0.155 C 
HETATM    4  C12 UNL     1      -0.094   6.975  14.417  1.00  0.00     0.060 C 
HETATM    5  C13 UNL     1       0.507   7.365  13.029  1.00  0.00    -0.028 C 
HETATM    6  C14 UNL     1       0.459   8.874  12.680  1.00  0.00     0.016 C 
HETATM    7  C15 UNL     1      -0.271   6.569  11.964  1.00  0.00     0.011 C 
HETATM    8  C16 UNL     1      -1.792   6.786  12.062  1.00  0.00     0.009 C 
HETATM    9  C17 UNL     1      -2.353   6.459  13.467  1.00  0.00     0.029 C 
HETATM   10  C18 UNL     1      -3.929   6.497  13.553  1.00  0.00    -0.031 C 
HETATM   11  C19 UNL     1      -4.489   7.859  13.070  1.00  0.00     0.016 C 
HETATM   12  C20 UNL     1      -4.533   5.398  12.605  1.00  0.00     0.012 C 
HETATM   13  C21 UNL     1      -5.653   4.542  13.215  1.00  0.00     0.032 C 
HETATM   14  C22 UNL     1      -6.602   5.322  14.117  1.00  0.00     0.118 C 
HETATM   15  C23 UNL     1      -5.878   6.130  15.201  1.00  0.00     0.039 C 
HETATM   16  C24 UNL     1      -4.347   6.150  15.018  1.00  0.00     0.025 C 
HETATM   17  C25 UNL     1      -3.639   6.981  16.103  1.00  0.00     0.126 C 
HETATM   18  C26 UNL     1      -2.117   6.848  15.978  1.00  0.00     0.071 C 
HETATM   19  C27 UNL     1      -1.604   7.266  14.584  1.00  0.00     0.071 C 
ENDROOT
BRANCH   1  20
HETATM   20  C2  UNL     1       3.093   7.298  12.247  1.00  0.00     0.011 C 
HETATM   21  C1  UNL     1       3.561   8.754  12.366  1.00  0.00     0.015 C 
BRANCH  20  22
HETATM   22  C3  UNL     1       2.630   6.979  10.831  1.00  0.00    -0.026 C 
HETATM   23  C4  UNL     1       3.401   6.854   9.738  1.00  0.00    -0.027 C 
BRANCH  23  24
HETATM   24  C5  UNL     1       2.863   6.533   8.364  1.00  0.00     0.066 C 
BRANCH  24  25
HETATM   25  C6  UNL     1       2.137   7.712   7.669  1.00  0.00     0.078 C 
HETATM   26  C7  UNL     1       1.619   7.347   6.275  1.00  0.00     0.048 C 
BRANCH  25  27
HETATM   27  O1  UNL     1       3.044   8.826   7.552  1.00  0.00    -0.388 OA
HETATM   28  H12 UNL     1       3.724   8.575   6.902  1.00  0.00     0.210 HD
ENDBRANCH  25  27
BRANCH  25  29
HETATM   29  C8  UNL     1       0.961   8.200   8.541  1.00  0.00     0.201 C 
BRANCH  29  30
HETATM   30  O2  UNL     1      -0.245   8.230   7.778  1.00  0.00    -0.398 OA
HETATM   31  H15 UNL     1      -0.251   7.379   7.294  1.00  0.00     0.209 HD
ENDBRANCH  29  30
ENDBRANCH  25  29
ENDBRANCH  24  25
ENDBRANCH  23  24
ENDBRANCH  20  22
ENDBRANCH   1  20
BRANCH   2  32
HETATM   32  O3  UNL     1       2.994   8.627  14.768  1.00  0.00    -0.393 OA
HETATM   33  H18 UNL     1       3.087   8.889  15.699  1.00  0.00     0.210 HD
ENDBRANCH   2  32
BRANCH   3  34
HETATM   34  O4  UNL     1       0.851   6.895  16.655  1.00  0.00    -0.392 OA
HETATM   35  H20 UNL     1       1.435   7.373  17.269  1.00  0.00     0.210 HD
ENDBRANCH   3  34
BRANCH  19  36
HETATM   36  O7  UNL     1      -1.805   8.670  14.439  1.00  0.00    -0.389 OA
HETATM   37  H46 UNL     1      -2.588   8.914  14.978  1.00  0.00     0.210 HD
ENDBRANCH  19  36
BRANCH  17  38
HETATM   38  O6  UNL     1      -3.974   8.364  16.039  1.00  0.00    -0.395 OA
HETATM   39  H43 UNL     1      -4.927   8.451  16.226  1.00  0.00     0.210 HD
ENDBRANCH  17  38
BRANCH  14  40
HETATM   40  O5  UNL     1      -7.396   6.209  13.334  1.00  0.00    -0.396 OA
HETATM   41  H38 UNL     1      -7.832   5.686  12.640  1.00  0.00     0.210 HD
ENDBRANCH  14  40
TORSDOF 12
ENDMDL
MODEL 7
REMARK minimizedAffinity -9.5396328
REMARK  12 active torsions:
REMARK  status: ('A' for Active; 'I' for Inactive)
REMARK    1  A    between atoms: C2_2  and  C3_3 
REMARK    2  A    between atoms: C2_2  and  C9_11 
REMARK    3  A    between atoms: C4_4  and  C5_5 
REMARK    4  A    between atoms: C5_5  and  C6_6 
REMARK    5  A    between atoms: C6_6  and  O1_8 
REMARK    6  A    between atoms: C6_6  and  C8_9 
REMARK    7  A    between atoms: C8_9  and  O2_10 
REMARK    8  A    between atoms: C10_12  and  O3_13 
REMARK    9  A    between atoms: C11_14  and  O4_15 
REMARK   10  A    between atoms: C22_26  and  O5_27 
REMARK   11  A    between atoms: C25_30  and  O6_31 
REMARK   12  A    between atoms: C27_33  and  O7_34 
ROOT
HETATM    1  C9  UNL     1      -4.478   6.478  13.443  1.00  0.00     0.033 C 
HETATM    2  C10 UNL     1      -4.428   7.722  14.393  1.00  0.00     0.152 C 
HETATM    3  C11 UNL     1      -2.979   8.271  14.329  1.00  0.00     0.155 C 
HETATM    4  C12 UNL     1      -2.346   7.498  13.178  1.00  0.00     0.060 C 
HETATM    5  C13 UNL     1      -2.969   6.073  13.316  1.00  0.00    -0.028 C 
HETATM    6  C14 UNL     1      -2.527   5.267  14.563  1.00  0.00     0.016 C 
HETATM    7  C15 UNL     1      -2.589   5.292  12.043  1.00  0.00     0.011 C 
HETATM    8  C16 UNL     1      -1.071   5.281  11.790  1.00  0.00     0.009 C 
HETATM    9  C17 UNL     1      -0.465   6.704  11.727  1.00  0.00     0.029 C 
HETATM   10  C18 UNL     1       1.053   6.736  11.293  1.00  0.00    -0.031 C 
HETATM   11  C19 UNL     1       1.922   5.837  12.208  1.00  0.00     0.016 C 
HETATM   12  C20 UNL     1       1.193   6.166   9.834  1.00  0.00     0.012 C 
HETATM   13  C21 UNL     1       2.080   6.987   8.887  1.00  0.00     0.032 C 
HETATM   14  C22 UNL     1       3.316   7.576   9.556  1.00  0.00     0.118 C 
HETATM   15  C23 UNL     1       2.993   8.369  10.829  1.00  0.00     0.039 C 
HETATM   16  C24 UNL     1       1.524   8.226  11.273  1.00  0.00     0.025 C 
HETATM   17  C25 UNL     1       1.223   9.012  12.562  1.00  0.00     0.126 C 
HETATM   18  C26 UNL     1      -0.275   8.971  12.882  1.00  0.00     0.071 C 
HETATM   19  C27 UNL     1      -0.807   7.529  13.016  1.00  0.00     0.071 C 
ENDROOT
BRANCH   1  20
HETATM   20  C2  UNL     1      -5.537   5.413  13.839  1.00  0.00     0.011 C 
HETATM   21  C1  UNL     1      -5.540   4.182  12.925  1.00  0.00     0.015 C 
BRANCH  20  22
HETATM   22  C3  UNL     1      -6.919   6.051  13.914  1.00  0.00    -0.026 C 
HETATM   23  C4  UNL     1      -8.029   5.652  13.271  1.00  0.00    -0.027 C 
BRANCH  23  24
HETATM   24  C5  UNL     1      -9.367   6.339  13.400  1.00  0.00     0.066 C 
BRANCH  24  25
HETATM   25  C6  UNL     1      -9.618   6.997  14.780  1.00  0.00     0.078 C 
HETATM   26  C7  UNL     1      -8.696   8.191  15.041  1.00  0.00     0.048 C 
BRANCH  25  27
HETATM   27  O1  UNL     1      -9.417   6.017  15.818  1.00  0.00    -0.388 OA
HETATM   28  H12 UNL     1      -8.465   5.816  15.842  1.00  0.00     0.210 HD
ENDBRANCH  25  27
BRANCH  25  29
HETATM   29  C8  UNL     1     -11.089   7.452  14.892  1.00  0.00     0.201 C 
BRANCH  29  30
HETATM   30  O2  UNL     1     -11.966   6.337  14.732  1.00  0.00    -0.398 OA
HETATM   31  H15 UNL     1     -11.576   5.635  15.292  1.00  0.00     0.209 HD
ENDBRANCH  29  30
ENDBRANCH  25  29
ENDBRANCH  24  25
ENDBRANCH  23  24
ENDBRANCH  20  22
ENDBRANCH   1  20
BRANCH   2  32
HETATM   32  O3  UNL     1      -4.755   7.388  15.741  1.00  0.00    -0.393 OA
HETATM   33  H18 UNL     1      -4.655   8.191  16.278  1.00  0.00     0.210 HD
ENDBRANCH   2  32
BRANCH   3  34
HETATM   34  O4  UNL     1      -2.998   9.671  14.053  1.00  0.00    -0.392 OA
HETATM   35  H20 UNL     1      -3.340  10.117  14.846  1.00  0.00     0.210 HD
ENDBRANCH   3  34
BRANCH  19  36
HETATM   36  O7  UNL     1      -0.226   6.947  14.180  1.00  0.00    -0.389 OA
HETATM   37  H46 UNL     1       0.653   7.363  14.311  1.00  0.00     0.210 HD
ENDBRANCH  19  36
BRANCH  17  38
HETATM   38  O6  UNL     1       1.936   8.510  13.689  1.00  0.00    -0.395 OA
HETATM   39  H43 UNL     1       2.888   8.638  13.523  1.00  0.00     0.210 HD
ENDBRANCH  17  38
BRANCH  14  40
HETATM   40  O5  UNL     1       4.233   6.536   9.881  1.00  0.00    -0.396 OA
HETATM   41  H38 UNL     1       4.412   6.031   9.070  1.00  0.00     0.210 HD
ENDBRANCH  14  40
TORSDOF 12
ENDMDL
MODEL 8
REMARK minimizedAffinity -9.46524048
REMARK  12 active torsions:
REMARK  status: ('A' for Active; 'I' for Inactive)
REMARK    1  A    between atoms: C2_2  and  C3_3 
REMARK    2  A    between atoms: C2_2  and  C9_11 
REMARK    3  A    between atoms: C4_4  and  C5_5 
REMARK    4  A    between atoms: C5_5  and  C6_6 
REMARK    5  A    between atoms: C6_6  and  O1_8 
REMARK    6  A    between atoms: C6_6  and  C8_9 
REMARK    7  A    between atoms: C8_9  and  O2_10 
REMARK    8  A    between atoms: C10_12  and  O3_13 
REMARK    9  A    between atoms: C11_14  and  O4_15 
REMARK   10  A    between atoms: C22_26  and  O5_27 
REMARK   11  A    between atoms: C25_30  and  O6_31 
REMARK   12  A    between atoms: C27_33  and  O7_34 
ROOT
HETATM    1  C9  UNL     1      -2.232   4.741  11.116  1.00  0.00     0.033 C 
HETATM    2  C10 UNL     1      -2.881   3.556  10.325  1.00  0.00     0.152 C 
HETATM    3  C11 UNL     1      -4.318   3.385  10.882  1.00  0.00     0.155 C 
HETATM    4  C12 UNL     1      -4.517   4.613  11.763  1.00  0.00     0.060 C 
HETATM    5  C13 UNL     1      -3.111   4.821  12.411  1.00  0.00    -0.028 C 
HETATM    6  C14 UNL     1      -2.672   3.733  13.422  1.00  0.00     0.016 C 
HETATM    7  C15 UNL     1      -3.142   6.191  13.117  1.00  0.00     0.011 C 
HETATM    8  C16 UNL     1      -4.307   6.313  14.116  1.00  0.00     0.009 C 
HETATM    9  C17 UNL     1      -5.683   6.033  13.465  1.00  0.00     0.029 C 
HETATM   10  C18 UNL     1      -6.912   6.323  14.414  1.00  0.00    -0.031 C 
HETATM   11  C19 UNL     1      -6.794   5.542  15.747  1.00  0.00     0.016 C 
HETATM   12  C20 UNL     1      -6.937   7.850  14.786  1.00  0.00     0.012 C 
HETATM   13  C21 UNL     1      -8.310   8.532  14.682  1.00  0.00     0.032 C 
HETATM   14  C22 UNL     1      -9.470   7.656  15.138  1.00  0.00     0.118 C 
HETATM   15  C23 UNL     1      -9.489   6.279  14.461  1.00  0.00     0.039 C 
HETATM   16  C24 UNL     1      -8.223   5.998  13.629  1.00  0.00     0.025 C 
HETATM   17  C25 UNL     1      -8.251   4.605  12.973  1.00  0.00     0.126 C 
HETATM   18  C26 UNL     1      -7.054   4.427  12.033  1.00  0.00     0.071 C 
HETATM   19  C27 UNL     1      -5.706   4.636  12.753  1.00  0.00     0.071 C 
ENDROOT
BRANCH   1  20
HETATM   20  C2  UNL     1      -0.685   4.661  11.232  1.00  0.00     0.011 C 
HETATM   21  C1  UNL     1      -0.194   4.245  12.624  1.00  0.00     0.015 C 
BRANCH  20  22
HETATM   22  C3  UNL     1      -0.058   5.979  10.794  1.00  0.00    -0.026 C 
HETATM   23  C4  UNL     1       1.252   6.245  10.657  1.00  0.00    -0.027 C 
BRANCH  23  24
HETATM   24  C5  UNL     1       1.796   7.582  10.214  1.00  0.00     0.066 C 
BRANCH  24  25
HETATM   25  C6  UNL     1       2.981   7.494   9.220  1.00  0.00     0.078 C 
HETATM   26  C7  UNL     1       2.715   8.250   7.916  1.00  0.00     0.048 C 
BRANCH  25  27
HETATM   27  O1  UNL     1       3.242   6.110   8.911  1.00  0.00    -0.388 OA
HETATM   28  H12 UNL     1       2.489   5.788   8.384  1.00  0.00     0.210 HD
ENDBRANCH  25  27
BRANCH  25  29
HETATM   29  C8  UNL     1       4.267   8.041   9.877  1.00  0.00     0.201 C 
BRANCH  29  30
HETATM   30  O2  UNL     1       5.133   6.967  10.241  1.00  0.00    -0.398 OA
HETATM   31  H15 UNL     1       5.138   6.378   9.459  1.00  0.00     0.209 HD
ENDBRANCH  29  30
ENDBRANCH  25  29
ENDBRANCH  24  25
ENDBRANCH  23  24
ENDBRANCH  20  22
ENDBRANCH   1  20
BRANCH   2  32
HETATM   32  O3  UNL     1      -2.157   2.337  10.484  1.00  0.00    -0.393 OA
HETATM   33  H18 UNL     1      -2.642   1.640  10.010  1.00  0.00     0.210 HD
ENDBRANCH   2  32
BRANCH   3  34
HETATM   34  O4  UNL     1      -5.260   3.370   9.811  1.00  0.00    -0.392 OA
HETATM   35  H20 UNL     1      -5.137   2.534   9.330  1.00  0.00     0.210 HD
ENDBRANCH   3  34
BRANCH  19  36
HETATM   36  O7  UNL     1      -5.530   3.571  13.685  1.00  0.00    -0.389 OA
HETATM   37  H46 UNL     1      -6.421   3.284  13.978  1.00  0.00     0.210 HD
ENDBRANCH  19  36
BRANCH  17  38
HETATM   38  O6  UNL     1      -8.231   3.550  13.929  1.00  0.00    -0.395 OA
HETATM   39  H43 UNL     1      -9.050   3.606  14.455  1.00  0.00     0.210 HD
ENDBRANCH  17  38
BRANCH  14  40
HETATM   40  O5  UNL     1      -9.413   7.474  16.551  1.00  0.00    -0.396 OA
HETATM   41  H38 UNL     1      -9.381   8.354  16.964  1.00  0.00     0.210 HD
ENDBRANCH  14  40
TORSDOF 12
ENDMDL
MODEL 9
REMARK minimizedAffinity -9.43755054
REMARK  12 active torsions:
REMARK  status: ('A' for Active; 'I' for Inactive)
REMARK    1  A    between atoms: C2_2  and  C3_3 
REMARK    2  A    between atoms: C2_2  and  C9_11 
REMARK    3  A    between atoms: C4_4  and  C5_5 
REMARK    4  A    between atoms: C5_5  and  C6_6 
REMARK    5  A    between atoms: C6_6  and  O1_8 
REMARK    6  A    between atoms: C6_6  and  C8_9 
REMARK    7  A    between atoms: C8_9  and  O2_10 
REMARK    8  A    between atoms: C10_12  and  O3_13 
REMARK    9  A    between atoms: C11_14  and  O4_15 
REMARK   10  A    between atoms: C22_26  and  O5_27 
REMARK   11  A    between atoms: C25_30  and  O6_31 
REMARK   12  A    between atoms: C27_33  and  O7_34 
ROOT
HETATM    1  C9  UNL     1      -3.469   7.201  13.913  1.00  0.00     0.033 C 
HETATM    2  C10 UNL     1      -3.848   7.364  15.423  1.00  0.00     0.152 C 
HETATM    3  C11 UNL     1      -2.554   7.790  16.163  1.00  0.00     0.155 C 
HETATM    4  C12 UNL     1      -1.574   8.098  15.036  1.00  0.00     0.060 C 
HETATM    5  C13 UNL     1      -1.913   7.018  13.960  1.00  0.00    -0.028 C 
HETATM    6  C14 UNL     1      -1.559   5.559  14.342  1.00  0.00     0.016 C 
HETATM    7  C15 UNL     1      -1.153   7.408  12.677  1.00  0.00     0.011 C 
HETATM    8  C16 UNL     1       0.357   7.587  12.919  1.00  0.00     0.009 C 
HETATM    9  C17 UNL     1       0.665   8.612  14.038  1.00  0.00     0.029 C 
HETATM   10  C18 UNL     1       2.200   8.953  14.190  1.00  0.00    -0.031 C 
HETATM   11  C19 UNL     1       3.045   7.672  14.404  1.00  0.00     0.016 C 
HETATM   12  C20 UNL     1       2.721   9.622  12.866  1.00  0.00     0.012 C 
HETATM   13  C21 UNL     1       3.587  10.876  13.058  1.00  0.00     0.032 C 
HETATM   14  C22 UNL     1       4.532  10.797  14.250  1.00  0.00     0.118 C 
HETATM   15  C23 UNL     1       3.824  10.415  15.557  1.00  0.00     0.039 C 
HETATM   16  C24 UNL     1       2.357   9.990  15.347  1.00  0.00     0.025 C 
HETATM   17  C25 UNL     1       1.669   9.593  16.666  1.00  0.00     0.126 C 
HETATM   18  C26 UNL     1       0.177   9.328  16.438  1.00  0.00     0.071 C 
HETATM   19  C27 UNL     1      -0.071   8.241  15.372  1.00  0.00     0.071 C 
ENDROOT
BRANCH   1  20
HETATM   20  C2  UNL     1      -4.348   6.180  13.140  1.00  0.00     0.011 C 
HETATM   21  C1  UNL     1      -5.753   6.009  13.730  1.00  0.00     0.015 C 
BRANCH  20  22
HETATM   22  C3  UNL     1      -3.626   4.842  13.031  1.00  0.00    -0.026 C 
HETATM   23  C4  UNL     1      -3.781   3.916  12.070  1.00  0.00    -0.027 C 
BRANCH  23  24
HETATM   24  C5  UNL     1      -3.023   2.611  12.033  1.00  0.00     0.066 C 
BRANCH  24  25
HETATM   25  C6  UNL     1      -1.818   2.598  11.058  1.00  0.00     0.078 C 
HETATM   26  C7  UNL     1      -0.699   3.549  11.491  1.00  0.00     0.048 C 
BRANCH  25  27
HETATM   27  O1  UNL     1      -2.267   2.975   9.741  1.00  0.00    -0.388 OA
HETATM   28  H12 UNL     1      -2.507   3.918   9.780  1.00  0.00     0.210 HD
ENDBRANCH  25  27
BRANCH  25  29
HETATM   29  C8  UNL     1      -1.254   1.166  10.930  1.00  0.00     0.201 C 
BRANCH  29  30
HETATM   30  O2  UNL     1      -0.919   0.885   9.572  1.00  0.00    -0.398 OA
HETATM   31  H15 UNL     1      -0.438   1.681   9.267  1.00  0.00     0.209 HD
ENDBRANCH  29  30
ENDBRANCH  25  29
ENDBRANCH  24  25
ENDBRANCH  23  24
ENDBRANCH  20  22
ENDBRANCH   1  20
BRANCH   2  32
HETATM   32  O3  UNL     1      -4.348   6.154  15.991  1.00  0.00    -0.393 OA
HETATM   33  H18 UNL     1      -4.513   6.315  16.935  1.00  0.00     0.210 HD
ENDBRANCH   2  32
BRANCH   3  34
HETATM   34  O4  UNL     1      -2.800   8.952  16.953  1.00  0.00    -0.392 OA
HETATM   35  H20 UNL     1      -3.367   8.681  17.695  1.00  0.00     0.210 HD
ENDBRANCH   3  34
BRANCH  19  36
HETATM   36  O7  UNL     1       0.388   6.995  15.894  1.00  0.00    -0.389 OA
HETATM   37  H46 UNL     1       1.125   7.187  16.513  1.00  0.00     0.210 HD
ENDBRANCH  19  36
BRANCH  17  38
HETATM   38  O6  UNL     1       2.245   8.430  17.254  1.00  0.00    -0.395 OA
HETATM   39  H43 UNL     1       3.165   8.640  17.495  1.00  0.00     0.210 HD
ENDBRANCH  17  38
BRANCH  14  40
HETATM   40  O5  UNL     1       5.562   9.847  13.990  1.00  0.00    -0.396 OA
HETATM   41  H38 UNL     1       5.987  10.091  13.150  1.00  0.00     0.210 HD
ENDBRANCH  14  40
TORSDOF 12
ENDMDL
