MODEL 1
REMARK minimizedAffinity -9.25531006
REMARK  6 active torsions:
REMARK  status: ('A' for Active; 'I' for Inactive)
REMARK    1  A    between atoms: C2_2  and  C30_31 
REMARK    2  A    between atoms: C3_3  and  C4_4 
REMARK    3  A    between atoms: C4_4  and  C5_5 
REMARK    4  A    between atoms: C5_5  and  C6_6 
REMARK    5  A    between atoms: C6_6  and  C8_8 
REMARK    6  A    between atoms: C30_31  and  O3_33 
ROOT
HETATM    1  C8  UNL     1      -2.194   6.855  12.587  1.00  0.00    -0.002 C 
HETATM    2  C9  UNL     1      -2.210   8.403  12.486  1.00  0.00     0.007 C 
HETATM    3  C10 UNL     1      -0.751   8.860  12.425  1.00  0.00     0.015 C 
HETATM    4  C11 UNL     1       0.026   7.805  13.246  1.00  0.00    -0.013 C 
HETATM    5  C12 UNL     1      -0.246   8.114  14.745  1.00  0.00     0.021 C 
HETATM    6  C13 UNL     1       1.545   7.780  12.941  1.00  0.00    -0.070 C 
HETATM    7  C14 UNL     1       2.503   7.896  13.881  1.00  0.00    -0.022 C 
HETATM    8  C15 UNL     1       3.971   7.737  13.649  1.00  0.00     0.034 C 
HETATM    9  C16 UNL     1       4.373   7.117  12.285  1.00  0.00     0.013 C 
HETATM   10  C17 UNL     1       5.916   7.256  12.000  1.00  0.00     0.018 C 
HETATM   11  C18 UNL     1       6.441   6.014  11.240  1.00  0.00     0.023 C 
HETATM   12  C19 UNL     1       6.779   7.360  13.278  1.00  0.00     0.023 C 
HETATM   13  C20 UNL     1       6.203   8.509  11.162  1.00  0.00     0.135 C 
HETATM   14  O1  UNL     1       7.266   8.646  10.547  1.00  0.00    -0.297 OA
HETATM   15  C21 UNL     1       5.208   9.647  11.207  1.00  0.00     0.080 C 
HETATM   16  C22 UNL     1       3.745   9.234  11.045  1.00  0.00     0.017 C 
HETATM   17  C23 UNL     1       3.467   7.705  11.156  1.00  0.00    -0.031 C 
HETATM   18  C24 UNL     1       3.752   7.092   9.762  1.00  0.00     0.016 C 
HETATM   19  C25 UNL     1       1.936   7.479  11.498  1.00  0.00     0.024 C 
HETATM   20  C26 UNL     1       1.392   6.069  11.207  1.00  0.00     0.010 C 
HETATM   21  C27 UNL     1      -0.133   6.042  11.361  1.00  0.00     0.011 C 
HETATM   22  C28 UNL     1      -0.671   6.463  12.782  1.00  0.00    -0.029 C 
HETATM   23  C29 UNL     1      -0.370   5.282  13.715  1.00  0.00     0.016 C 
ENDROOT
BRANCH   1  24
HETATM   24  C6  UNL     1      -3.401   6.259  13.386  1.00  0.00    -0.014 C 
HETATM   25  C7  UNL     1      -4.613   7.196  13.455  1.00  0.00     0.010 C 
BRANCH  24  26
HETATM   26  C5  UNL     1      -3.810   4.772  13.219  1.00  0.00     0.008 C 
BRANCH  26  27
HETATM   27  C4  UNL     1      -3.936   4.206  11.803  1.00  0.00     0.028 C 
BRANCH  27  28
HETATM   28  C3  UNL     1      -2.654   3.538  11.376  1.00  0.00    -0.013 C 
HETATM   29  C2  UNL     1      -2.398   2.216  11.313  1.00  0.00     0.008 C 
HETATM   30  C1  UNL     1      -3.335   1.118  11.716  1.00  0.00     0.055 C 
BRANCH  29  31
HETATM   31  C30 UNL     1      -1.054   1.829  10.808  1.00  0.00     0.171 C 
HETATM   32  O2  UNL     1       0.024   2.172  11.260  1.00  0.00    -0.646 OA
BRANCH  31  33
HETATM   33  O3  UNL     1      -1.126   1.024   9.733  1.00  0.00    -0.773 OA
HETATM   34  H46 UNL     1      -0.186   0.861   9.511  1.00  0.00     0.167 HD
ENDBRANCH  31  33
ENDBRANCH  29  31
ENDBRANCH  27  28
ENDBRANCH  26  27
ENDBRANCH  24  26
ENDBRANCH   1  24
TORSDOF 6
ENDMDL
MODEL 2
REMARK minimizedAffinity -9.23624039
REMARK  6 active torsions:
REMARK  status: ('A' for Active; 'I' for Inactive)
REMARK    1  A    between atoms: C2_2  and  C30_31 
REMARK    2  A    between atoms: C3_3  and  C4_4 
REMARK    3  A    between atoms: C4_4  and  C5_5 
REMARK    4  A    between atoms: C5_5  and  C6_6 
REMARK    5  A    between atoms: C6_6  and  C8_8 
REMARK    6  A    between atoms: C30_31  and  O3_33 
ROOT
HETATM    1  C8  UNL     1      -1.772   7.061  12.765  1.00  0.00    -0.002 C 
HETATM    2  C9  UNL     1      -1.819   8.591  13.019  1.00  0.00     0.007 C 
HETATM    3  C10 UNL     1      -0.371   9.086  13.024  1.00  0.00     0.015 C 
HETATM    4  C11 UNL     1       0.450   7.892  13.564  1.00  0.00    -0.013 C 
HETATM    5  C12 UNL     1       0.220   7.847  15.100  1.00  0.00     0.021 C 
HETATM    6  C13 UNL     1       1.959   7.974  13.221  1.00  0.00    -0.070 C 
HETATM    7  C14 UNL     1       2.944   7.898  14.137  1.00  0.00    -0.022 C 
HETATM    8  C15 UNL     1       4.407   7.832  13.836  1.00  0.00     0.034 C 
HETATM    9  C16 UNL     1       4.777   7.547  12.356  1.00  0.00     0.013 C 
HETATM   10  C17 UNL     1       6.307   7.784  12.069  1.00  0.00     0.018 C 
HETATM   11  C18 UNL     1       6.830   6.761  11.034  1.00  0.00     0.023 C 
HETATM   12  C19 UNL     1       7.207   7.618  13.315  1.00  0.00     0.023 C 
HETATM   13  C20 UNL     1       6.545   9.202  11.531  1.00  0.00     0.135 C 
HETATM   14  O1  UNL     1       7.585   9.500  10.935  1.00  0.00    -0.297 OA
HETATM   15  C21 UNL     1       5.531  10.275  11.859  1.00  0.00     0.080 C 
HETATM   16  C22 UNL     1       4.071   9.874  11.647  1.00  0.00     0.017 C 
HETATM   17  C23 UNL     1       3.825   8.353  11.414  1.00  0.00    -0.031 C 
HETATM   18  C24 UNL     1       4.077   8.079   9.911  1.00  0.00     0.016 C 
HETATM   19  C25 UNL     1       2.310   8.017  11.737  1.00  0.00     0.024 C 
HETATM   20  C26 UNL     1       1.782   6.697  11.148  1.00  0.00     0.010 C 
HETATM   21  C27 UNL     1       0.264   6.599  11.333  1.00  0.00     0.011 C 
HETATM   22  C28 UNL     1      -0.236   6.673  12.825  1.00  0.00    -0.029 C 
HETATM   23  C29 UNL     1       0.115   5.320  13.457  1.00  0.00     0.016 C 
ENDROOT
BRANCH   1  24
HETATM   24  C6  UNL     1      -2.943   6.271  13.440  1.00  0.00    -0.014 C 
HETATM   25  C7  UNL     1      -4.278   7.023  13.429  1.00  0.00     0.010 C 
BRANCH  24  26
HETATM   26  C5  UNL     1      -3.118   4.749  13.198  1.00  0.00     0.008 C 
BRANCH  26  27
HETATM   27  C4  UNL     1      -4.018   4.294  12.046  1.00  0.00     0.028 C 
BRANCH  27  28
HETATM   28  C3  UNL     1      -5.403   3.969  12.542  1.00  0.00    -0.013 C 
HETATM   29  C2  UNL     1      -6.172   2.915  12.202  1.00  0.00     0.008 C 
HETATM   30  C1  UNL     1      -5.822   1.859  11.198  1.00  0.00     0.055 C 
BRANCH  29  31
HETATM   31  C30 UNL     1      -7.489   2.813  12.884  1.00  0.00     0.171 C 
HETATM   32  O2  UNL     1      -7.975   3.617  13.659  1.00  0.00    -0.646 OA
BRANCH  31  33
HETATM   33  O3  UNL     1      -8.141   1.680  12.566  1.00  0.00    -0.773 OA
HETATM   34  H46 UNL     1      -8.970   1.746  13.084  1.00  0.00     0.167 HD
ENDBRANCH  31  33
ENDBRANCH  29  31
ENDBRANCH  27  28
ENDBRANCH  26  27
ENDBRANCH  24  26
ENDBRANCH   1  24
TORSDOF 6
ENDMDL
MODEL 3
REMARK minimizedAffinity -9.17476654
REMARK  6 active torsions:
REMARK  status: ('A' for Active; 'I' for Inactive)
REMARK    1  A    between atoms: C2_2  and  C30_31 
REMARK    2  A    between atoms: C3_3  and  C4_4 
REMARK    3  A    between atoms: C4_4  and  C5_5 
REMARK    4  A    between atoms: C5_5  and  C6_6 
REMARK    5  A    between atoms: C6_6  and  C8_8 
REMARK    6  A    between atoms: C30_31  and  O3_33 
ROOT
HETATM    1  C8  UNL     1      -2.130   6.885  12.847  1.00  0.00    -0.002 C 
HETATM    2  C9  UNL     1      -2.142   8.425  12.661  1.00  0.00     0.007 C 
HETATM    3  C10 UNL     1      -0.685   8.866  12.515  1.00  0.00     0.015 C 
HETATM    4  C11 UNL     1       0.120   7.852  13.361  1.00  0.00    -0.013 C 
HETATM    5  C12 UNL     1      -0.088   8.246  14.850  1.00  0.00     0.021 C 
HETATM    6  C13 UNL     1       1.625   7.799  12.996  1.00  0.00    -0.070 C 
HETATM    7  C14 UNL     1       2.622   7.959  13.888  1.00  0.00    -0.022 C 
HETATM    8  C15 UNL     1       4.079   7.775  13.605  1.00  0.00     0.034 C 
HETATM    9  C16 UNL     1       4.420   7.078  12.261  1.00  0.00     0.013 C 
HETATM   10  C17 UNL     1       5.950   7.188  11.906  1.00  0.00     0.018 C 
HETATM   11  C18 UNL     1       6.436   5.903  11.196  1.00  0.00     0.023 C 
HETATM   12  C19 UNL     1       6.866   7.356  13.141  1.00  0.00     0.023 C 
HETATM   13  C20 UNL     1       6.210   8.392  10.990  1.00  0.00     0.135 C 
HETATM   14  O1  UNL     1       7.247   8.486  10.325  1.00  0.00    -0.297 OA
HETATM   15  C21 UNL     1       5.223   9.538  11.012  1.00  0.00     0.080 C 
HETATM   16  C22 UNL     1       3.752   9.129  10.933  1.00  0.00     0.017 C 
HETATM   17  C23 UNL     1       3.471   7.610  11.140  1.00  0.00    -0.031 C 
HETATM   18  C24 UNL     1       3.694   6.919   9.772  1.00  0.00     0.016 C 
HETATM   19  C25 UNL     1       1.954   7.415  11.557  1.00  0.00     0.024 C 
HETATM   20  C26 UNL     1       1.391   5.995  11.367  1.00  0.00     0.010 C 
HETATM   21  C27 UNL     1      -0.126   5.990  11.585  1.00  0.00     0.011 C 
HETATM   22  C28 UNL     1      -0.602   6.492  13.001  1.00  0.00    -0.029 C 
HETATM   23  C29 UNL     1      -0.270   5.363  13.985  1.00  0.00     0.016 C 
ENDROOT
BRANCH   1  24
HETATM   24  C6  UNL     1      -3.307   6.344  13.727  1.00  0.00    -0.014 C 
HETATM   25  C7  UNL     1      -3.144   6.645  15.221  1.00  0.00     0.010 C 
BRANCH  24  26
HETATM   26  C5  UNL     1      -4.779   6.473  13.254  1.00  0.00     0.008 C 
BRANCH  26  27
HETATM   27  C4  UNL     1      -5.727   5.296  13.496  1.00  0.00     0.028 C 
BRANCH  27  28
HETATM   28  C3  UNL     1      -5.459   4.181  12.518  1.00  0.00    -0.013 C 
HETATM   29  C2  UNL     1      -6.234   3.108  12.263  1.00  0.00     0.008 C 
HETATM   30  C1  UNL     1      -7.520   2.768  12.952  1.00  0.00     0.055 C 
BRANCH  29  31
HETATM   31  C30 UNL     1      -5.748   2.180  11.207  1.00  0.00     0.171 C 
HETATM   32  O2  UNL     1      -5.719   0.963  11.260  1.00  0.00    -0.646 OA
BRANCH  31  33
HETATM   33  O3  UNL     1      -5.302   2.835  10.120  1.00  0.00    -0.773 OA
HETATM   34  H46 UNL     1      -5.013   2.111   9.525  1.00  0.00     0.167 HD
ENDBRANCH  31  33
ENDBRANCH  29  31
ENDBRANCH  27  28
ENDBRANCH  26  27
ENDBRANCH  24  26
ENDBRANCH   1  24
TORSDOF 6
ENDMDL
MODEL 4
REMARK minimizedAffinity -8.75409508
REMARK  6 active torsions:
REMARK  status: ('A' for Active; 'I' for Inactive)
REMARK    1  A    between atoms: C2_2  and  C30_31 
REMARK    2  A    between atoms: C3_3  and  C4_4 
REMARK    3  A    between atoms: C4_4  and  C5_5 
REMARK    4  A    between atoms: C5_5  and  C6_6 
REMARK    5  A    between atoms: C6_6  and  C8_8 
REMARK    6  A    between atoms: C30_31  and  O3_33 
ROOT
HETATM    1  C8  UNL     1      -1.418   7.096  13.934  1.00  0.00    -0.002 C 
HETATM    2  C9  UNL     1      -0.766   5.699  14.114  1.00  0.00     0.007 C 
HETATM    3  C10 UNL     1       0.696   5.832  13.685  1.00  0.00     0.015 C 
HETATM    4  C11 UNL     1       0.687   6.925  12.591  1.00  0.00    -0.013 C 
HETATM    5  C12 UNL     1       0.132   6.261  11.299  1.00  0.00     0.021 C 
HETATM    6  C13 UNL     1       2.077   7.564  12.344  1.00  0.00    -0.070 C 
HETATM    7  C14 UNL     1       2.669   7.635  11.136  1.00  0.00    -0.022 C 
HETATM    8  C15 UNL     1       3.939   8.365  10.832  1.00  0.00     0.034 C 
HETATM    9  C16 UNL     1       4.438   9.333  11.937  1.00  0.00     0.013 C 
HETATM   10  C17 UNL     1       5.910   9.828  11.672  1.00  0.00     0.018 C 
HETATM   11  C18 UNL     1       6.080  11.294  12.135  1.00  0.00     0.023 C 
HETATM   12  C19 UNL     1       6.313   9.812  10.180  1.00  0.00     0.023 C 
HETATM   13  C20 UNL     1       6.922   8.950  12.419  1.00  0.00     0.135 C 
HETATM   14  O1  UNL     1       8.077   9.332  12.631  1.00  0.00    -0.297 OA
HETATM   15  C21 UNL     1       6.518   7.538  12.784  1.00  0.00     0.080 C 
HETATM   16  C22 UNL     1       5.136   7.406  13.425  1.00  0.00     0.017 C 
HETATM   17  C23 UNL     1       4.236   8.675  13.340  1.00  0.00    -0.031 C 
HETATM   18  C24 UNL     1       4.647   9.600  14.513  1.00  0.00     0.016 C 
HETATM   19  C25 UNL     1       2.722   8.253  13.542  1.00  0.00     0.024 C 
HETATM   20  C26 UNL     1       1.762   9.392  13.932  1.00  0.00     0.010 C 
HETATM   21  C27 UNL     1       0.392   8.825  14.319  1.00  0.00     0.011 C 
HETATM   22  C28 UNL     1      -0.324   7.978  13.199  1.00  0.00    -0.029 C 
HETATM   23  C29 UNL     1      -0.828   8.988  12.161  1.00  0.00     0.016 C 
ENDROOT
BRANCH   1  24
HETATM   24  C6  UNL     1      -2.941   7.043  13.577  1.00  0.00    -0.014 C 
HETATM   25  C7  UNL     1      -3.466   8.332  12.935  1.00  0.00     0.010 C 
BRANCH  24  26
HETATM   26  C5  UNL     1      -3.567   5.771  12.947  1.00  0.00     0.008 C 
BRANCH  26  27
HETATM   27  C4  UNL     1      -5.073   5.547  13.102  1.00  0.00     0.028 C 
BRANCH  27  28
HETATM   28  C3  UNL     1      -5.455   4.153  12.677  1.00  0.00    -0.013 C 
HETATM   29  C2  UNL     1      -6.688   3.607  12.663  1.00  0.00     0.008 C 
HETATM   30  C1  UNL     1      -7.949   4.269  13.129  1.00  0.00     0.055 C 
BRANCH  29  31
HETATM   31  C30 UNL     1      -6.786   2.215  12.147  1.00  0.00     0.171 C 
HETATM   32  O2  UNL     1      -6.017   1.664  11.380  1.00  0.00    -0.646 OA
BRANCH  31  33
HETATM   33  O3  UNL     1      -7.871   1.574  12.616  1.00  0.00    -0.773 OA
HETATM   34  H46 UNL     1      -7.810   0.691  12.195  1.00  0.00     0.167 HD
ENDBRANCH  31  33
ENDBRANCH  29  31
ENDBRANCH  27  28
ENDBRANCH  26  27
ENDBRANCH  24  26
ENDBRANCH   1  24
TORSDOF 6
ENDMDL
MODEL 5
REMARK minimizedAffinity -8.72696495
REMARK  6 active torsions:
REMARK  status: ('A' for Active; 'I' for Inactive)
REMARK    1  A    between atoms: C2_2  and  C30_31 
REMARK    2  A    between atoms: C3_3  and  C4_4 
REMARK    3  A    between atoms: C4_4  and  C5_5 
REMARK    4  A    between atoms: C5_5  and  C6_6 
REMARK    5  A    between atoms: C6_6  and  C8_8 
REMARK    6  A    between atoms: C30_31  and  O3_33 
ROOT
HETATM    1  C8  UNL     1       2.026   6.268  10.646  1.00  0.00    -0.002 C 
HETATM    2  C9  UNL     1       2.602   6.294  12.086  1.00  0.00     0.007 C 
HETATM    3  C10 UNL     1       1.419   6.499  13.034  1.00  0.00     0.015 C 
HETATM    4  C11 UNL     1       0.406   7.341  12.223  1.00  0.00    -0.013 C 
HETATM    5  C12 UNL     1       0.943   8.800  12.213  1.00  0.00     0.021 C 
HETATM    6  C13 UNL     1      -1.039   7.275  12.780  1.00  0.00    -0.070 C 
HETATM    7  C14 UNL     1      -1.771   8.359  13.101  1.00  0.00    -0.022 C 
HETATM    8  C15 UNL     1      -3.211   8.346  13.505  1.00  0.00     0.034 C 
HETATM    9  C16 UNL     1      -3.967   7.013  13.257  1.00  0.00     0.013 C 
HETATM   10  C17 UNL     1      -5.371   6.984  13.970  1.00  0.00     0.018 C 
HETATM   11  C18 UNL     1      -6.400   6.216  13.110  1.00  0.00     0.023 C 
HETATM   12  C19 UNL     1      -5.981   8.386  14.201  1.00  0.00     0.023 C 
HETATM   13  C20 UNL     1      -5.268   6.309  15.345  1.00  0.00     0.135 C 
HETATM   14  O1  UNL     1      -6.267   5.880  15.930  1.00  0.00    -0.297 OA
HETATM   15  C21 UNL     1      -3.924   6.293  16.039  1.00  0.00     0.080 C 
HETATM   16  C22 UNL     1      -2.746   5.871  15.160  1.00  0.00     0.017 C 
HETATM   17  C23 UNL     1      -3.043   5.810  13.631  1.00  0.00    -0.031 C 
HETATM   18  C24 UNL     1      -3.692   4.432  13.352  1.00  0.00     0.016 C 
HETATM   19  C25 UNL     1      -1.676   5.890  12.833  1.00  0.00     0.024 C 
HETATM   20  C26 UNL     1      -1.729   5.402  11.374  1.00  0.00     0.010 C 
HETATM   21  C27 UNL     1      -0.316   5.315  10.789  1.00  0.00     0.011 C 
HETATM   22  C28 UNL     1       0.498   6.664  10.797  1.00  0.00    -0.029 C 
HETATM   23  C29 UNL     1      -0.108   7.531   9.686  1.00  0.00     0.016 C 
ENDROOT
BRANCH   1  24
HETATM   24  C6  UNL     1       3.010   6.818   9.560  1.00  0.00    -0.014 C 
HETATM   25  C7  UNL     1       2.722   6.294   8.149  1.00  0.00     0.010 C 
BRANCH  24  26
HETATM   26  C5  UNL     1       3.446   8.306   9.562  1.00  0.00     0.008 C 
BRANCH  26  27
HETATM   27  C4  UNL     1       4.880   8.645   9.977  1.00  0.00     0.028 C 
BRANCH  27  28
HETATM   28  C3  UNL     1       5.069   8.456  11.460  1.00  0.00    -0.013 C 
HETATM   29  C2  UNL     1       5.870   7.567  12.080  1.00  0.00     0.008 C 
HETATM   30  C1  UNL     1       6.711   6.524  11.409  1.00  0.00     0.055 C 
BRANCH  29  31
HETATM   31  C30 UNL     1       5.899   7.630  13.566  1.00  0.00     0.171 C 
HETATM   32  O2  UNL     1       5.578   8.576  14.264  1.00  0.00    -0.646 OA
BRANCH  31  33
HETATM   33  O3  UNL     1       6.349   6.488  14.115  1.00  0.00    -0.773 OA
HETATM   34  H46 UNL     1       6.321   6.675  15.076  1.00  0.00     0.167 HD
ENDBRANCH  31  33
ENDBRANCH  29  31
ENDBRANCH  27  28
ENDBRANCH  26  27
ENDBRANCH  24  26
ENDBRANCH   1  24
TORSDOF 6
ENDMDL
MODEL 6
REMARK minimizedAffinity -8.54147243
REMARK  6 active torsions:
REMARK  status: ('A' for Active; 'I' for Inactive)
REMARK    1  A    between atoms: C2_2  and  C30_31 
REMARK    2  A    between atoms: C3_3  and  C4_4 
REMARK    3  A    between atoms: C4_4  and  C5_5 
REMARK    4  A    between atoms: C5_5  and  C6_6 
REMARK    5  A    between atoms: C6_6  and  C8_8 
REMARK    6  A    between atoms: C30_31  and  O3_33 
ROOT
HETATM    1  C8  UNL     1      -5.908   5.875  13.680  1.00  0.00    -0.002 C 
HETATM    2  C9  UNL     1      -6.567   5.911  15.085  1.00  0.00     0.007 C 
HETATM    3  C10 UNL     1      -5.756   6.896  15.929  1.00  0.00     0.015 C 
HETATM    4  C11 UNL     1      -4.316   6.796  15.376  1.00  0.00    -0.013 C 
HETATM    5  C12 UNL     1      -3.714   5.475  15.930  1.00  0.00     0.021 C 
HETATM    6  C13 UNL     1      -3.429   8.016  15.737  1.00  0.00    -0.070 C 
HETATM    7  C14 UNL     1      -2.233   7.920  16.349  1.00  0.00    -0.022 C 
HETATM    8  C15 UNL     1      -1.287   9.054  16.587  1.00  0.00     0.034 C 
HETATM    9  C16 UNL     1      -1.599  10.364  15.816  1.00  0.00     0.013 C 
HETATM   10  C17 UNL     1      -0.746  11.579  16.340  1.00  0.00     0.018 C 
HETATM   11  C18 UNL     1      -0.370  12.521  15.172  1.00  0.00     0.023 C 
HETATM   12  C19 UNL     1       0.594  11.166  16.991  1.00  0.00     0.023 C 
HETATM   13  C20 UNL     1      -1.527  12.379  17.392  1.00  0.00     0.135 C 
HETATM   14  O1  UNL     1      -1.209  13.534  17.693  1.00  0.00    -0.297 OA
HETATM   15  C21 UNL     1      -2.626  11.677  18.157  1.00  0.00     0.080 C 
HETATM   16  C22 UNL     1      -3.591  10.858  17.300  1.00  0.00     0.017 C 
HETATM   17  C23 UNL     1      -3.140  10.622  15.827  1.00  0.00    -0.031 C 
HETATM   18  C24 UNL     1      -3.555  11.878  15.022  1.00  0.00     0.016 C 
HETATM   19  C25 UNL     1      -3.917   9.372  15.240  1.00  0.00     0.024 C 
HETATM   20  C26 UNL     1      -3.941   9.267  13.704  1.00  0.00     0.010 C 
HETATM   21  C27 UNL     1      -4.904   8.160  13.260  1.00  0.00     0.011 C 
HETATM   22  C28 UNL     1      -4.577   6.723  13.818  1.00  0.00    -0.029 C 
HETATM   23  C29 UNL     1      -3.354   6.231  13.032  1.00  0.00     0.016 C 
ENDROOT
BRANCH   1  24
HETATM   24  C6  UNL     1      -6.043   4.494  12.954  1.00  0.00    -0.014 C 
HETATM   25  C7  UNL     1      -7.409   4.278  12.294  1.00  0.00     0.010 C 
BRANCH  24  26
HETATM   26  C5  UNL     1      -4.877   3.927  12.102  1.00  0.00     0.008 C 
BRANCH  26  27
HETATM   27  C4  UNL     1      -4.906   2.445  11.723  1.00  0.00     0.028 C 
BRANCH  27  28
HETATM   28  C3  UNL     1      -3.508   1.899  11.581  1.00  0.00    -0.013 C 
HETATM   29  C2  UNL     1      -2.485   2.429  10.881  1.00  0.00     0.008 C 
HETATM   30  C1  UNL     1      -2.546   3.665  10.036  1.00  0.00     0.055 C 
BRANCH  29  31
HETATM   31  C30 UNL     1      -1.190   1.702  10.953  1.00  0.00     0.171 C 
HETATM   32  O2  UNL     1      -0.127   2.139  11.356  1.00  0.00    -0.646 OA
BRANCH  31  33
HETATM   33  O3  UNL     1      -1.289   0.440  10.495  1.00  0.00    -0.773 OA
HETATM   34  H46 UNL     1      -0.378   0.095  10.594  1.00  0.00     0.167 HD
ENDBRANCH  31  33
ENDBRANCH  29  31
ENDBRANCH  27  28
ENDBRANCH  26  27
ENDBRANCH  24  26
ENDBRANCH   1  24
TORSDOF 6
ENDMDL
MODEL 7
REMARK minimizedAffinity -8.51425552
REMARK  6 active torsions:
REMARK  status: ('A' for Active; 'I' for Inactive)
REMARK    1  A    between atoms: C2_2  and  C30_31 
REMARK    2  A    between atoms: C3_3  and  C4_4 
REMARK    3  A    between atoms: C4_4  and  C5_5 
REMARK    4  A    between atoms: C5_5  and  C6_6 
REMARK    5  A    between atoms: C6_6  and  C8_8 
REMARK    6  A    between atoms: C30_31  and  O3_33 
ROOT
HETATM    1  C8  UNL     1       0.242   8.180  13.821  1.00  0.00    -0.002 C 
HETATM    2  C9  UNL     1      -0.287   8.973  12.597  1.00  0.00     0.007 C 
HETATM    3  C10 UNL     1      -1.724   8.508  12.354  1.00  0.00     0.015 C 
HETATM    4  C11 UNL     1      -1.744   7.033  12.819  1.00  0.00    -0.013 C 
HETATM    5  C12 UNL     1      -1.045   6.203  11.707  1.00  0.00     0.021 C 
HETATM    6  C13 UNL     1      -3.168   6.498  13.114  1.00  0.00    -0.070 C 
HETATM    7  C14 UNL     1      -3.682   5.384  12.558  1.00  0.00    -0.022 C 
HETATM    8  C15 UNL     1      -4.991   4.757  12.920  1.00  0.00     0.034 C 
HETATM    9  C16 UNL     1      -5.651   5.282  14.222  1.00  0.00     0.013 C 
HETATM   10  C17 UNL     1      -7.141   4.795  14.372  1.00  0.00     0.018 C 
HETATM   11  C18 UNL     1      -7.477   4.527  15.858  1.00  0.00     0.023 C 
HETATM   12  C19 UNL     1      -7.442   3.472  13.630  1.00  0.00     0.023 C 
HETATM   13  C20 UNL     1      -8.115   5.847  13.824  1.00  0.00     0.135 C 
HETATM   14  O1  UNL     1      -9.312   5.840  14.127  1.00  0.00    -0.297 OA
HETATM   15  C21 UNL     1      -7.606   6.828  12.790  1.00  0.00     0.080 C 
HETATM   16  C22 UNL     1      -6.264   7.480  13.122  1.00  0.00     0.017 C 
HETATM   17  C23 UNL     1      -5.482   6.834  14.305  1.00  0.00    -0.031 C 
HETATM   18  C24 UNL     1      -6.054   7.441  15.610  1.00  0.00     0.016 C 
HETATM   19  C25 UNL     1      -3.952   7.232  14.196  1.00  0.00     0.024 C 
HETATM   20  C26 UNL     1      -3.130   7.069  15.487  1.00  0.00     0.010 C 
HETATM   21  C27 UNL     1      -1.741   7.695  15.319  1.00  0.00     0.011 C 
HETATM   22  C28 UNL     1      -0.877   7.104  14.140  1.00  0.00    -0.029 C 
HETATM   23  C29 UNL     1      -0.401   5.725  14.615  1.00  0.00     0.016 C 
ENDROOT
BRANCH   1  24
HETATM   24  C6  UNL     1       1.784   7.912  13.784  1.00  0.00    -0.014 C 
HETATM   25  C7  UNL     1       2.352   7.409  15.116  1.00  0.00     0.010 C 
BRANCH  24  26
HETATM   26  C5  UNL     1       2.442   7.221  12.560  1.00  0.00     0.008 C 
BRANCH  26  27
HETATM   27  C4  UNL     1       2.282   7.871  11.184  1.00  0.00     0.028 C 
BRANCH  27  28
HETATM   28  C3  UNL     1       2.392   6.842  10.088  1.00  0.00    -0.013 C 
HETATM   29  C2  UNL     1       2.731   7.046   8.800  1.00  0.00     0.008 C 
HETATM   30  C1  UNL     1       3.018   8.373   8.166  1.00  0.00     0.055 C 
BRANCH  29  31
HETATM   31  C30 UNL     1       2.809   5.836   7.939  1.00  0.00     0.171 C 
HETATM   32  O2  UNL     1       2.421   5.731   6.788  1.00  0.00    -0.646 OA
BRANCH  31  33
HETATM   33  O3  UNL     1       3.369   4.793   8.576  1.00  0.00    -0.773 OA
HETATM   34  H46 UNL     1       3.347   4.081   7.904  1.00  0.00     0.167 HD
ENDBRANCH  31  33
ENDBRANCH  29  31
ENDBRANCH  27  28
ENDBRANCH  26  27
ENDBRANCH  24  26
ENDBRANCH   1  24
TORSDOF 6
ENDMDL
MODEL 8
REMARK minimizedAffinity -8.45977879
REMARK  6 active torsions:
REMARK  status: ('A' for Active; 'I' for Inactive)
REMARK    1  A    between atoms: C2_2  and  C30_31 
REMARK    2  A    between atoms: C3_3  and  C4_4 
REMARK    3  A    between atoms: C4_4  and  C5_5 
REMARK    4  A    between atoms: C5_5  and  C6_6 
REMARK    5  A    between atoms: C6_6  and  C8_8 
REMARK    6  A    between atoms: C30_31  and  O3_33 
ROOT
HETATM    1  C8  UNL     1      -0.887   5.887  12.522  1.00  0.00    -0.002 C 
HETATM    2  C9  UNL     1      -0.682   7.028  11.491  1.00  0.00     0.007 C 
HETATM    3  C10 UNL     1      -0.693   8.342  12.274  1.00  0.00     0.015 C 
HETATM    4  C11 UNL     1      -1.635   8.078  13.472  1.00  0.00    -0.013 C 
HETATM    5  C12 UNL     1      -3.088   8.131  12.920  1.00  0.00     0.021 C 
HETATM    6  C13 UNL     1      -1.440   9.074  14.643  1.00  0.00    -0.070 C 
HETATM    7  C14 UNL     1      -2.435   9.803  15.184  1.00  0.00    -0.022 C 
HETATM    8  C15 UNL     1      -2.318  10.665  16.401  1.00  0.00     0.034 C 
HETATM    9  C16 UNL     1      -1.029  10.468  17.242  1.00  0.00     0.013 C 
HETATM   10  C17 UNL     1      -0.844  11.601  18.321  1.00  0.00     0.018 C 
HETATM   11  C18 UNL     1      -0.208  11.026  19.608  1.00  0.00     0.023 C 
HETATM   12  C19 UNL     1      -2.171  12.258  18.767  1.00  0.00     0.023 C 
HETATM   13  C20 UNL     1       0.052  12.724  17.781  1.00  0.00     0.135 C 
HETATM   14  O1  UNL     1       0.599  13.534  18.537  1.00  0.00    -0.297 OA
HETATM   15  C21 UNL     1       0.153  12.906  16.283  1.00  0.00     0.080 C 
HETATM   16  C22 UNL     1       0.389  11.621  15.489  1.00  0.00     0.017 C 
HETATM   17  C23 UNL     1       0.197  10.297  16.289  1.00  0.00    -0.031 C 
HETATM   18  C24 UNL     1       1.524  10.028  17.042  1.00  0.00     0.016 C 
HETATM   19  C25 UNL     1      -0.051   9.107  15.272  1.00  0.00     0.024 C 
HETATM   20  C26 UNL     1       0.183   7.694  15.835  1.00  0.00     0.010 C 
HETATM   21  C27 UNL     1       0.135   6.656  14.708  1.00  0.00     0.011 C 
HETATM   22  C28 UNL     1      -1.214   6.613  13.893  1.00  0.00    -0.029 C 
HETATM   23  C29 UNL     1      -2.242   5.938  14.810  1.00  0.00     0.016 C 
ENDROOT
BRANCH   1  24
HETATM   24  C6  UNL     1      -1.637   4.640  11.946  1.00  0.00    -0.014 C 
HETATM   25  C7  UNL     1      -0.758   3.389  11.841  1.00  0.00     0.010 C 
BRANCH  24  26
HETATM   26  C5  UNL     1      -3.087   4.310  12.389  1.00  0.00     0.008 C 
BRANCH  26  27
HETATM   27  C4  UNL     1      -4.105   3.919  11.315  1.00  0.00     0.028 C 
BRANCH  27  28
HETATM   28  C3  UNL     1      -5.365   3.377  11.940  1.00  0.00    -0.013 C 
HETATM   29  C2  UNL     1      -6.215   4.020  12.765  1.00  0.00     0.008 C 
HETATM   30  C1  UNL     1      -6.050   5.415  13.285  1.00  0.00     0.055 C 
BRANCH  29  31
HETATM   31  C30 UNL     1      -7.415   3.256  13.201  1.00  0.00     0.171 C 
HETATM   32  O2  UNL     1      -7.660   2.085  12.969  1.00  0.00    -0.646 OA
BRANCH  31  33
HETATM   33  O3  UNL     1      -8.271   4.014  13.909  1.00  0.00    -0.773 OA
HETATM   34  H46 UNL     1      -9.000   3.393  14.116  1.00  0.00     0.167 HD
ENDBRANCH  31  33
ENDBRANCH  29  31
ENDBRANCH  27  28
ENDBRANCH  26  27
ENDBRANCH  24  26
ENDBRANCH   1  24
TORSDOF 6
ENDMDL
MODEL 9
REMARK minimizedAffinity -8.44285679
REMARK  6 active torsions:
REMARK  status: ('A' for Active; 'I' for Inactive)
REMARK    1  A    between atoms: C2_2  and  C30_31 
REMARK    2  A    between atoms: C3_3  and  C4_4 
REMARK    3  A    between atoms: C4_4  and  C5_5 
REMARK    4  A    between atoms: C5_5  and  C6_6 
REMARK    5  A    between atoms: C6_6  and  C8_8 
REMARK    6  A    between atoms: C30_31  and  O3_33 
ROOT
HETATM    1  C8  UNL     1      -2.138   7.028  12.852  1.00  0.00    -0.002 C 
HETATM    2  C9  UNL     1      -2.122   8.572  12.702  1.00  0.00     0.007 C 
HETATM    3  C10 UNL     1      -0.656   8.991  12.576  1.00  0.00     0.015 C 
HETATM    4  C11 UNL     1       0.125   7.944  13.404  1.00  0.00    -0.013 C 
HETATM    5  C12 UNL     1      -0.087   8.307  14.900  1.00  0.00     0.021 C 
HETATM    6  C13 UNL     1       1.632   7.873  13.047  1.00  0.00    -0.070 C 
HETATM    7  C14 UNL     1       2.624   7.996  13.950  1.00  0.00    -0.022 C 
HETATM    8  C15 UNL     1       4.080   7.793  13.673  1.00  0.00     0.034 C 
HETATM    9  C16 UNL     1       4.419   7.122  12.316  1.00  0.00     0.013 C 
HETATM   10  C17 UNL     1       5.954   7.214  11.974  1.00  0.00     0.018 C 
HETATM   11  C18 UNL     1       6.423   5.938  11.237  1.00  0.00     0.023 C 
HETATM   12  C19 UNL     1       6.863   7.337  13.218  1.00  0.00     0.023 C 
HETATM   13  C20 UNL     1       6.240   8.434  11.087  1.00  0.00     0.135 C 
HETATM   14  O1  UNL     1       7.283   8.525  10.432  1.00  0.00    -0.297 OA
HETATM   15  C21 UNL     1       5.273   9.596  11.130  1.00  0.00     0.080 C 
HETATM   16  C22 UNL     1       3.796   9.214  11.032  1.00  0.00     0.017 C 
HETATM   17  C23 UNL     1       3.487   7.696  11.200  1.00  0.00    -0.031 C 
HETATM   18  C24 UNL     1       3.709   7.034   9.818  1.00  0.00     0.016 C 
HETATM   19  C25 UNL     1       1.965   7.518  11.602  1.00  0.00     0.024 C 
HETATM   20  C26 UNL     1       1.378   6.113  11.375  1.00  0.00     0.010 C 
HETATM   21  C27 UNL     1      -0.140   6.128  11.583  1.00  0.00     0.011 C 
HETATM   22  C28 UNL     1      -0.618   6.605  13.007  1.00  0.00    -0.029 C 
HETATM   23  C29 UNL     1      -0.312   5.448  13.966  1.00  0.00     0.016 C 
ENDROOT
BRANCH   1  24
HETATM   24  C6  UNL     1      -3.330   6.488  13.711  1.00  0.00    -0.014 C 
HETATM   25  C7  UNL     1      -3.231   6.854  15.196  1.00  0.00     0.010 C 
BRANCH  24  26
HETATM   26  C5  UNL     1      -4.786   6.551  13.180  1.00  0.00     0.008 C 
BRANCH  26  27
HETATM   27  C4  UNL     1      -5.803   5.543  13.720  1.00  0.00     0.028 C 
BRANCH  27  28
HETATM   28  C3  UNL     1      -6.956   6.248  14.387  1.00  0.00    -0.013 C 
HETATM   29  C2  UNL     1      -8.244   6.275  13.989  1.00  0.00     0.008 C 
HETATM   30  C1  UNL     1      -8.793   5.645  12.745  1.00  0.00     0.055 C 
BRANCH  29  31
HETATM   31  C30 UNL     1      -9.189   7.014  14.867  1.00  0.00     0.171 C 
HETATM   32  O2  UNL     1      -9.583   8.158  14.719  1.00  0.00    -0.646 OA
BRANCH  31  33
HETATM   33  O3  UNL     1      -9.594   6.275  15.915  1.00  0.00    -0.773 OA
HETATM   34  H46 UNL     1     -10.194   6.880  16.398  1.00  0.00     0.167 HD
ENDBRANCH  31  33
ENDBRANCH  29  31
ENDBRANCH  27  28
ENDBRANCH  26  27
ENDBRANCH  24  26
ENDBRANCH   1  24
TORSDOF 6
ENDMDL
