MODEL 1
REMARK minimizedAffinity -9.72525311
REMARK  6 active torsions:
REMARK  status: ('A' for Active; 'I' for Inactive)
REMARK    1  A    between atoms: C2_2  and  O2_4 
REMARK    2  A    between atoms: O2_4  and  C3_5 
REMARK    3  A    between atoms: C13_15  and  C14_16 
REMARK    4  A    between atoms: C14_16  and  C16_18 
REMARK    5  A    between atoms: C17_19  and  C18_20 
REMARK    6  A    between atoms: C18_20  and  C20_22 
ROOT
HETATM    1  C3  UNL     1       2.573   7.149  10.430  1.00  0.00     0.135 C 
HETATM    2  C4  UNL     1       2.447   5.805  11.153  1.00  0.00     0.034 C 
HETATM    3  C5  UNL     1       1.090   5.634  11.842  1.00  0.00     0.015 C 
HETATM    4  C6  UNL     1       0.766   6.784  12.830  1.00  0.00     0.001 C 
HETATM    5  C7  UNL     1       1.744   6.705  14.030  1.00  0.00     0.019 C 
HETATM    6  C8  UNL     1      -0.730   6.670  13.308  1.00  0.00     0.039 C 
HETATM    7  C9  UNL     1      -1.021   5.912  14.609  1.00  0.00     0.010 C 
HETATM    8  C10 UNL     1      -2.541   5.711  14.831  1.00  0.00     0.010 C 
HETATM    9  C11 UNL     1      -3.437   6.857  14.285  1.00  0.00    -0.033 C 
HETATM   10  C12 UNL     1      -4.045   6.467  12.917  1.00  0.00     0.016 C 
HETATM   11  C13 UNL     1      -4.559   7.327  15.271  1.00  0.00     0.001 C 
HETATM   12  C23 UNL     1      -4.845   8.788  14.815  1.00  0.00     0.006 C 
HETATM   13  C24 UNL     1      -3.600   9.279  14.061  1.00  0.00     0.009 C 
HETATM   14  C25 UNL     1      -2.591   8.150  14.233  1.00  0.00     0.036 C 
HETATM   15  C26 UNL     1      -1.352   8.106  13.325  1.00  0.00     0.123 C 
HETATM   16  C27 UNL     1      -1.482   8.507  11.873  1.00  0.00     0.014 C 
HETATM   17  C28 UNL     1      -0.316   8.473  11.206  1.00  0.00     0.014 C 
HETATM   18  C29 UNL     1       0.889   8.169  12.086  1.00  0.00     0.124 C 
HETATM   19  C30 UNL     1       2.224   8.330  11.342  1.00  0.00     0.079 C 
HETATM   20  O3  UNL     1       0.818   9.209  13.091  1.00  0.00    -0.223 OA
HETATM   21  O4  UNL     1      -0.383   8.998  13.954  1.00  0.00    -0.224 OA
ENDROOT
BRANCH  11  22
HETATM   22  C14 UNL     1      -5.851   6.476  15.401  1.00  0.00     0.008 C 
HETATM   23  C15 UNL     1      -7.040   7.275  15.950  1.00  0.00     0.014 C 
BRANCH  22  24
HETATM   24  C16 UNL     1      -6.176   5.798  14.078  1.00  0.00    -0.026 C 
HETATM   25  C17 UNL     1      -6.330   4.481  13.859  1.00  0.00    -0.026 C 
BRANCH  25  26
HETATM   26  C18 UNL     1      -6.637   3.881  12.502  1.00  0.00     0.007 C 
HETATM   27  C19 UNL     1      -8.011   3.207  12.580  1.00  0.00     0.014 C 
BRANCH  26  28
HETATM   28  C20 UNL     1      -5.514   2.901  12.056  1.00  0.00    -0.015 C 
HETATM   29  C21 UNL     1      -4.567   3.549  11.036  1.00  0.00     0.010 C 
HETATM   30  C22 UNL     1      -6.076   1.608  11.452  1.00  0.00     0.010 C 
ENDBRANCH  26  28
ENDBRANCH  25  26
ENDBRANCH  22  24
ENDBRANCH  11  22
BRANCH   1  31
HETATM   31  O2  UNL     1       1.700   7.104   9.284  1.00  0.00    -0.316 OA
BRANCH  31  32
HETATM   32  C2  UNL     1       2.229   6.582   8.142  1.00  0.00     0.255 C 
HETATM   33  C1  UNL     1       1.926   7.478   6.981  1.00  0.00     0.126 C 
HETATM   34  O1  UNL     1       2.844   5.530   8.059  1.00  0.00    -0.266 OA
ENDBRANCH  31  32
ENDBRANCH   1  31
TORSDOF 6
ENDMDL
MODEL 2
REMARK minimizedAffinity -9.04844856
REMARK  6 active torsions:
REMARK  status: ('A' for Active; 'I' for Inactive)
REMARK    1  A    between atoms: C2_2  and  O2_4 
REMARK    2  A    between atoms: O2_4  and  C3_5 
REMARK    3  A    between atoms: C13_15  and  C14_16 
REMARK    4  A    between atoms: C14_16  and  C16_18 
REMARK    5  A    between atoms: C17_19  and  C18_20 
REMARK    6  A    between atoms: C18_20  and  C20_22 
ROOT
HETATM    1  C3  UNL     1       1.499   8.076  13.818  1.00  0.00     0.135 C 
HETATM    2  C4  UNL     1       0.627   9.334  13.877  1.00  0.00     0.034 C 
HETATM    3  C5  UNL     1      -0.856   9.012  14.082  1.00  0.00     0.015 C 
HETATM    4  C6  UNL     1      -1.418   8.046  13.008  1.00  0.00     0.001 C 
HETATM    5  C7  UNL     1      -1.436   8.774  11.639  1.00  0.00     0.019 C 
HETATM    6  C8  UNL     1      -2.862   7.574  13.419  1.00  0.00     0.039 C 
HETATM    7  C9  UNL     1      -4.065   8.353  12.874  1.00  0.00     0.010 C 
HETATM    8  C10 UNL     1      -5.392   7.898  13.530  1.00  0.00     0.010 C 
HETATM    9  C11 UNL     1      -5.447   6.393  13.916  1.00  0.00    -0.033 C 
HETATM   10  C12 UNL     1      -5.163   6.210  15.426  1.00  0.00     0.016 C 
HETATM   11  C13 UNL     1      -6.775   5.670  13.514  1.00  0.00     0.001 C 
HETATM   12  C23 UNL     1      -6.348   4.177  13.403  1.00  0.00     0.006 C 
HETATM   13  C24 UNL     1      -4.830   4.157  13.170  1.00  0.00     0.009 C 
HETATM   14  C25 UNL     1      -4.458   5.625  13.009  1.00  0.00     0.036 C 
HETATM   15  C26 UNL     1      -2.982   6.042  13.119  1.00  0.00     0.123 C 
HETATM   16  C27 UNL     1      -2.093   5.361  14.134  1.00  0.00     0.014 C 
HETATM   17  C28 UNL     1      -0.817   5.781  14.090  1.00  0.00     0.014 C 
HETATM   18  C29 UNL     1      -0.526   6.747  12.949  1.00  0.00     0.124 C 
HETATM   19  C30 UNL     1       0.972   7.057  12.800  1.00  0.00     0.079 C 
HETATM   20  O3  UNL     1      -0.936   5.992  11.783  1.00  0.00    -0.223 OA
HETATM   21  O4  UNL     1      -2.417   5.808  11.794  1.00  0.00    -0.224 OA
ENDROOT
BRANCH  11  22
HETATM   22  C14 UNL     1      -8.037   5.868  14.396  1.00  0.00     0.008 C 
HETATM   23  C15 UNL     1      -7.725   6.528  15.745  1.00  0.00     0.014 C 
BRANCH  22  24
HETATM   24  C16 UNL     1      -9.113   6.618  13.623  1.00  0.00    -0.026 C 
HETATM   25  C17 UNL     1     -10.141   7.315  14.135  1.00  0.00    -0.026 C 
BRANCH  25  26
HETATM   26  C18 UNL     1     -11.183   8.023  13.294  1.00  0.00     0.007 C 
HETATM   27  C19 UNL     1     -11.447   9.397  13.919  1.00  0.00     0.014 C 
BRANCH  26  28
HETATM   28  C20 UNL     1     -12.475   7.166  13.165  1.00  0.00    -0.015 C 
HETATM   29  C21 UNL     1     -13.711   8.039  12.903  1.00  0.00     0.010 C 
HETATM   30  C22 UNL     1     -12.733   6.312  14.411  1.00  0.00     0.010 C 
ENDBRANCH  26  28
ENDBRANCH  25  26
ENDBRANCH  22  24
ENDBRANCH  11  22
BRANCH   1  31
HETATM   31  O2  UNL     1       1.532   7.513  15.144  1.00  0.00    -0.316 OA
BRANCH  31  32
HETATM   32  C2  UNL     1       2.485   8.004  15.984  1.00  0.00     0.255 C 
HETATM   33  C1  UNL     1       3.848   7.754  15.414  1.00  0.00     0.126 C 
HETATM   34  O1  UNL     1       2.276   8.552  17.056  1.00  0.00    -0.266 OA
ENDBRANCH  31  32
ENDBRANCH   1  31
TORSDOF 6
ENDMDL
MODEL 3
REMARK minimizedAffinity -8.89256096
REMARK  6 active torsions:
REMARK  status: ('A' for Active; 'I' for Inactive)
REMARK    1  A    between atoms: C2_2  and  O2_4 
REMARK    2  A    between atoms: O2_4  and  C3_5 
REMARK    3  A    between atoms: C13_15  and  C14_16 
REMARK    4  A    between atoms: C14_16  and  C16_18 
REMARK    5  A    between atoms: C17_19  and  C18_20 
REMARK    6  A    between atoms: C18_20  and  C20_22 
ROOT
HETATM    1  C3  UNL     1       4.502   7.018  10.392  1.00  0.00     0.135 C 
HETATM    2  C4  UNL     1       4.018   8.470  10.365  1.00  0.00     0.034 C 
HETATM    3  C5  UNL     1       2.707   8.667  11.133  1.00  0.00     0.015 C 
HETATM    4  C6  UNL     1       1.572   7.735  10.637  1.00  0.00     0.001 C 
HETATM    5  C7  UNL     1       1.167   8.159   9.202  1.00  0.00     0.019 C 
HETATM    6  C8  UNL     1       0.346   7.820  11.622  1.00  0.00     0.039 C 
HETATM    7  C9  UNL     1      -0.776   8.813  11.301  1.00  0.00     0.010 C 
HETATM    8  C10 UNL     1      -1.797   8.924  12.461  1.00  0.00     0.010 C 
HETATM    9  C11 UNL     1      -2.014   7.612  13.267  1.00  0.00    -0.033 C 
HETATM   10  C12 UNL     1      -1.199   7.641  14.581  1.00  0.00     0.016 C 
HETATM   11  C13 UNL     1      -3.514   7.272  13.556  1.00  0.00     0.001 C 
HETATM   12  C23 UNL     1      -3.497   5.727  13.752  1.00  0.00     0.006 C 
HETATM   13  C24 UNL     1      -2.240   5.195  13.048  1.00  0.00     0.009 C 
HETATM   14  C25 UNL     1      -1.658   6.418  12.351  1.00  0.00     0.036 C 
HETATM   15  C26 UNL     1      -0.208   6.372  11.840  1.00  0.00     0.123 C 
HETATM   16  C27 UNL     1       0.843   5.656  12.657  1.00  0.00     0.014 C 
HETATM   17  C28 UNL     1       2.053   5.646  12.073  1.00  0.00     0.014 C 
HETATM   18  C29 UNL     1       2.066   6.238  10.670  1.00  0.00     0.124 C 
HETATM   19  C30 UNL     1       3.409   6.037   9.951  1.00  0.00     0.079 C 
HETATM   20  O3  UNL     1       1.075   5.440   9.980  1.00  0.00    -0.223 OA
HETATM   21  O4  UNL     1      -0.282   5.727  10.533  1.00  0.00    -0.224 OA
ENDROOT
BRANCH  11  22
HETATM   22  C14 UNL     1      -4.246   8.014  14.707  1.00  0.00     0.008 C 
HETATM   23  C15 UNL     1      -4.171   9.540  14.575  1.00  0.00     0.014 C 
BRANCH  22  24
HETATM   24  C16 UNL     1      -5.679   7.516  14.832  1.00  0.00    -0.026 C 
HETATM   25  C17 UNL     1      -6.203   6.410  14.278  1.00  0.00    -0.026 C 
BRANCH  25  26
HETATM   26  C18 UNL     1      -7.651   5.991  14.437  1.00  0.00     0.007 C 
HETATM   27  C19 UNL     1      -7.825   5.406  15.843  1.00  0.00     0.014 C 
BRANCH  26  28
HETATM   28  C20 UNL     1      -8.073   4.996  13.318  1.00  0.00    -0.015 C 
HETATM   29  C21 UNL     1      -6.915   4.072  12.915  1.00  0.00     0.010 C 
HETATM   30  C22 UNL     1      -8.587   5.715  12.065  1.00  0.00     0.010 C 
ENDBRANCH  26  28
ENDBRANCH  25  26
ENDBRANCH  22  24
ENDBRANCH  11  22
BRANCH   1  31
HETATM   31  O2  UNL     1       4.940   6.735  11.736  1.00  0.00    -0.316 OA
BRANCH  31  32
HETATM   32  C2  UNL     1       6.251   6.981  12.008  1.00  0.00     0.255 C 
HETATM   33  C1  UNL     1       6.419   7.329  13.454  1.00  0.00     0.126 C 
HETATM   34  O1  UNL     1       7.165   6.946  11.197  1.00  0.00    -0.266 OA
ENDBRANCH  31  32
ENDBRANCH   1  31
TORSDOF 6
ENDMDL
MODEL 4
REMARK minimizedAffinity -8.64265442
REMARK  6 active torsions:
REMARK  status: ('A' for Active; 'I' for Inactive)
REMARK    1  A    between atoms: C2_2  and  O2_4 
REMARK    2  A    between atoms: O2_4  and  C3_5 
REMARK    3  A    between atoms: C13_15  and  C14_16 
REMARK    4  A    between atoms: C14_16  and  C16_18 
REMARK    5  A    between atoms: C17_19  and  C18_20 
REMARK    6  A    between atoms: C18_20  and  C20_22 
ROOT
HETATM    1  C3  UNL     1       1.618   7.707  10.625  1.00  0.00     0.135 C 
HETATM    2  C4  UNL     1       1.067   6.289  10.447  1.00  0.00     0.034 C 
HETATM    3  C5  UNL     1      -0.341   6.129  11.027  1.00  0.00     0.015 C 
HETATM    4  C6  UNL     1      -0.427   6.532  12.522  1.00  0.00     0.001 C 
HETATM    5  C7  UNL     1       0.382   5.511  13.363  1.00  0.00     0.019 C 
HETATM    6  C8  UNL     1      -1.934   6.574  12.976  1.00  0.00     0.039 C 
HETATM    7  C9  UNL     1      -2.535   5.318  13.619  1.00  0.00     0.010 C 
HETATM    8  C10 UNL     1      -4.065   5.448  13.817  1.00  0.00     0.010 C 
HETATM    9  C11 UNL     1      -4.565   6.890  14.116  1.00  0.00    -0.033 C 
HETATM   10  C12 UNL     1      -5.131   7.545  12.834  1.00  0.00     0.016 C 
HETATM   11  C13 UNL     1      -5.600   6.986  15.286  1.00  0.00     0.001 C 
HETATM   12  C23 UNL     1      -5.436   8.452  15.785  1.00  0.00     0.006 C 
HETATM   13  C24 UNL     1      -4.043   8.926  15.348  1.00  0.00     0.009 C 
HETATM   14  C25 UNL     1      -3.398   7.684  14.746  1.00  0.00     0.036 C 
HETATM   15  C26 UNL     1      -2.141   7.838  13.874  1.00  0.00     0.123 C 
HETATM   16  C27 UNL     1      -2.028   9.021  12.940  1.00  0.00     0.014 C 
HETATM   17  C28 UNL     1      -0.860   9.064  12.276  1.00  0.00     0.014 C 
HETATM   18  C29 UNL     1       0.133   7.994  12.708  1.00  0.00     0.124 C 
HETATM   19  C30 UNL     1       1.523   8.184  12.080  1.00  0.00     0.079 C 
HETATM   20  O3  UNL     1       0.258   8.232  14.130  1.00  0.00    -0.223 OA
HETATM   21  O4  UNL     1      -1.027   7.898  14.814  1.00  0.00    -0.224 OA
ENDROOT
BRANCH  11  22
HETATM   22  C14 UNL     1      -7.081   6.607  15.015  1.00  0.00     0.008 C 
HETATM   23  C15 UNL     1      -7.569   5.445  15.888  1.00  0.00     0.014 C 
BRANCH  22  24
HETATM   24  C16 UNL     1      -7.973   7.834  15.137  1.00  0.00    -0.026 C 
HETATM   25  C17 UNL     1      -9.306   7.885  14.977  1.00  0.00    -0.026 C 
BRANCH  25  26
HETATM   26  C18 UNL     1     -10.124   9.155  15.100  1.00  0.00     0.007 C 
HETATM   27  C19 UNL     1     -10.444   9.373  16.582  1.00  0.00     0.014 C 
BRANCH  26  28
HETATM   28  C20 UNL     1     -11.401   9.087  14.215  1.00  0.00    -0.015 C 
HETATM   29  C21 UNL     1     -12.661   8.836  15.055  1.00  0.00     0.010 C 
HETATM   30  C22 UNL     1     -11.305   8.001  13.137  1.00  0.00     0.010 C 
ENDBRANCH  26  28
ENDBRANCH  25  26
ENDBRANCH  22  24
ENDBRANCH  11  22
BRANCH   1  31
HETATM   31  O2  UNL     1       0.871   8.573   9.747  1.00  0.00    -0.316 OA
BRANCH  31  32
HETATM   32  C2  UNL     1       1.006   8.339   8.412  1.00  0.00     0.255 C 
HETATM   33  C1  UNL     1       2.445   8.457   8.014  1.00  0.00     0.126 C 
HETATM   34  O1  UNL     1       0.095   8.089   7.638  1.00  0.00    -0.266 OA
ENDBRANCH  31  32
ENDBRANCH   1  31
TORSDOF 6
ENDMDL
MODEL 5
REMARK minimizedAffinity -8.60087204
REMARK  6 active torsions:
REMARK  status: ('A' for Active; 'I' for Inactive)
REMARK    1  A    between atoms: C2_2  and  O2_4 
REMARK    2  A    between atoms: O2_4  and  C3_5 
REMARK    3  A    between atoms: C13_15  and  C14_16 
REMARK    4  A    between atoms: C14_16  and  C16_18 
REMARK    5  A    between atoms: C17_19  and  C18_20 
REMARK    6  A    between atoms: C18_20  and  C20_22 
ROOT
HETATM    1  C3  UNL     1      -5.961   6.915  14.436  1.00  0.00     0.135 C 
HETATM    2  C4  UNL     1      -5.561   8.348  14.075  1.00  0.00     0.034 C 
HETATM    3  C5  UNL     1      -4.301   8.406  13.206  1.00  0.00     0.015 C 
HETATM    4  C6  UNL     1      -3.092   7.678  13.847  1.00  0.00     0.001 C 
HETATM    5  C7  UNL     1      -2.645   8.463  15.107  1.00  0.00     0.019 C 
HETATM    6  C8  UNL     1      -1.920   7.569  12.801  1.00  0.00     0.039 C 
HETATM    7  C9  UNL     1      -0.843   8.660  12.800  1.00  0.00     0.010 C 
HETATM    8  C10 UNL     1       0.114   8.524  11.590  1.00  0.00     0.010 C 
HETATM    9  C11 UNL     1       0.368   7.064  11.120  1.00  0.00    -0.033 C 
HETATM   10  C12 UNL     1      -0.507   6.729   9.889  1.00  0.00     0.016 C 
HETATM   11  C13 UNL     1       1.871   6.729  10.834  1.00  0.00     0.001 C 
HETATM   12  C23 UNL     1       1.933   5.185  11.025  1.00  0.00     0.006 C 
HETATM   13  C24 UNL     1       0.743   4.790  11.912  1.00  0.00     0.009 C 
HETATM   14  C25 UNL     1       0.125   6.121  12.320  1.00  0.00     0.036 C 
HETATM   15  C26 UNL     1      -1.294   6.139  12.912  1.00  0.00     0.123 C 
HETATM   16  C27 UNL     1      -2.339   5.196  12.361  1.00  0.00     0.014 C 
HETATM   17  C28 UNL     1      -3.518   5.278  13.001  1.00  0.00     0.014 C 
HETATM   18  C29 UNL     1      -3.499   6.199  14.213  1.00  0.00     0.124 C 
HETATM   19  C30 UNL     1      -4.794   6.123  15.038  1.00  0.00     0.079 C 
HETATM   20  O3  UNL     1      -2.433   5.642  15.018  1.00  0.00    -0.223 OA
HETATM   21  O4  UNL     1      -1.122   5.843  14.331  1.00  0.00    -0.224 OA
ENDROOT
BRANCH  11  22
HETATM   22  C14 UNL     1       2.504   7.193   9.495  1.00  0.00     0.008 C 
HETATM   23  C15 UNL     1       1.654   8.241   8.764  1.00  0.00     0.014 C 
BRANCH  22  24
HETATM   24  C16 UNL     1       3.933   7.667   9.720  1.00  0.00    -0.026 C 
HETATM   25  C17 UNL     1       4.861   7.095  10.506  1.00  0.00    -0.026 C 
BRANCH  25  26
HETATM   26  C18 UNL     1       6.263   7.640  10.690  1.00  0.00     0.007 C 
HETATM   27  C19 UNL     1       7.098   6.572  11.405  1.00  0.00     0.014 C 
BRANCH  26  28
HETATM   28  C20 UNL     1       6.241   8.994  11.456  1.00  0.00    -0.015 C 
HETATM   29  C21 UNL     1       6.865  10.125  10.625  1.00  0.00     0.010 C 
HETATM   30  C22 UNL     1       6.971   8.913  12.802  1.00  0.00     0.010 C 
ENDBRANCH  26  28
ENDBRANCH  25  26
ENDBRANCH  22  24
ENDBRANCH  11  22
BRANCH   1  31
HETATM   31  O2  UNL     1      -6.444   6.288  13.230  1.00  0.00    -0.316 OA
BRANCH  31  32
HETATM   32  C2  UNL     1      -7.617   5.603  13.335  1.00  0.00     0.255 C 
HETATM   33  C1  UNL     1      -7.350   4.130  13.365  1.00  0.00     0.126 C 
HETATM   34  O1  UNL     1      -8.731   6.103  13.378  1.00  0.00    -0.266 OA
ENDBRANCH  31  32
ENDBRANCH   1  31
TORSDOF 6
ENDMDL
MODEL 6
REMARK minimizedAffinity -8.48329163
REMARK  6 active torsions:
REMARK  status: ('A' for Active; 'I' for Inactive)
REMARK    1  A    between atoms: C2_2  and  O2_4 
REMARK    2  A    between atoms: O2_4  and  C3_5 
REMARK    3  A    between atoms: C13_15  and  C14_16 
REMARK    4  A    between atoms: C14_16  and  C16_18 
REMARK    5  A    between atoms: C17_19  and  C18_20 
REMARK    6  A    between atoms: C18_20  and  C20_22 
ROOT
HETATM    1  C3  UNL     1      -6.840   5.368  14.295  1.00  0.00     0.135 C 
HETATM    2  C4  UNL     1      -6.944   6.625  13.426  1.00  0.00     0.034 C 
HETATM    3  C5  UNL     1      -5.573   7.170  13.014  1.00  0.00     0.015 C 
HETATM    4  C6  UNL     1      -4.649   7.456  14.225  1.00  0.00     0.001 C 
HETATM    5  C7  UNL     1      -5.234   8.643  15.033  1.00  0.00     0.019 C 
HETATM    6  C8  UNL     1      -3.192   7.776  13.720  1.00  0.00     0.039 C 
HETATM    7  C9  UNL     1      -2.806   9.243  13.498  1.00  0.00     0.010 C 
HETATM    8  C10 UNL     1      -1.425   9.377  12.809  1.00  0.00     0.010 C 
HETATM    9  C11 UNL     1      -0.403   8.264  13.175  1.00  0.00    -0.033 C 
HETATM   10  C12 UNL     1      -0.348   7.191  12.063  1.00  0.00     0.016 C 
HETATM   11  C13 UNL     1       1.035   8.790  13.504  1.00  0.00     0.001 C 
HETATM   12  C23 UNL     1       1.624   7.670  14.410  1.00  0.00     0.006 C 
HETATM   13  C24 UNL     1       0.437   6.905  15.015  1.00  0.00     0.009 C 
HETATM   14  C25 UNL     1      -0.784   7.693  14.560  1.00  0.00     0.036 C 
HETATM   15  C26 UNL     1      -2.175   7.046  14.660  1.00  0.00     0.123 C 
HETATM   16  C27 UNL     1      -2.331   5.573  14.358  1.00  0.00     0.014 C 
HETATM   17  C28 UNL     1      -3.585   5.125  14.533  1.00  0.00     0.014 C 
HETATM   18  C29 UNL     1      -4.534   6.161  15.119  1.00  0.00     0.124 C 
HETATM   19  C30 UNL     1      -5.903   5.571  15.492  1.00  0.00     0.079 C 
HETATM   20  O3  UNL     1      -3.870   6.541  16.348  1.00  0.00    -0.223 OA
HETATM   21  O4  UNL     1      -2.606   7.273  16.035  1.00  0.00    -0.224 OA
ENDROOT
BRANCH  11  22
HETATM   22  C14 UNL     1       1.981   9.175  12.335  1.00  0.00     0.008 C 
HETATM   23  C15 UNL     1       3.356   9.658  12.814  1.00  0.00     0.014 C 
BRANCH  22  24
HETATM   24  C16 UNL     1       2.088   8.029  11.339  1.00  0.00    -0.026 C 
HETATM   25  C17 UNL     1       1.767   8.057  10.035  1.00  0.00    -0.026 C 
BRANCH  25  26
HETATM   26  C18 UNL     1       1.887   6.862   9.110  1.00  0.00     0.007 C 
HETATM   27  C19 UNL     1       2.594   5.738   9.875  1.00  0.00     0.014 C 
BRANCH  26  28
HETATM   28  C20 UNL     1       2.621   7.245   7.793  1.00  0.00    -0.015 C 
HETATM   29  C21 UNL     1       3.086   8.708   7.807  1.00  0.00     0.010 C 
HETATM   30  C22 UNL     1       1.748   7.018   6.553  1.00  0.00     0.010 C 
ENDBRANCH  26  28
ENDBRANCH  25  26
ENDBRANCH  22  24
ENDBRANCH  11  22
BRANCH   1  31
HETATM   31  O2  UNL     1      -6.374   4.298  13.449  1.00  0.00    -0.316 OA
BRANCH  31  32
HETATM   32  C2  UNL     1      -7.330   3.479  12.930  1.00  0.00     0.255 C 
HETATM   33  C1  UNL     1      -6.696   2.434  12.066  1.00  0.00     0.126 C 
HETATM   34  O1  UNL     1      -8.533   3.583  13.117  1.00  0.00    -0.266 OA
ENDBRANCH  31  32
ENDBRANCH   1  31
TORSDOF 6
ENDMDL
MODEL 7
REMARK minimizedAffinity -8.33560371
REMARK  6 active torsions:
REMARK  status: ('A' for Active; 'I' for Inactive)
REMARK    1  A    between atoms: C2_2  and  O2_4 
REMARK    2  A    between atoms: O2_4  and  C3_5 
REMARK    3  A    between atoms: C13_15  and  C14_16 
REMARK    4  A    between atoms: C14_16  and  C16_18 
REMARK    5  A    between atoms: C17_19  and  C18_20 
REMARK    6  A    between atoms: C18_20  and  C20_22 
ROOT
HETATM    1  C3  UNL     1     -10.767   7.614  14.630  1.00  0.00     0.135 C 
HETATM    2  C4  UNL     1     -10.152   8.810  15.365  1.00  0.00     0.034 C 
HETATM    3  C5  UNL     1      -8.648   8.946  15.109  1.00  0.00     0.015 C 
HETATM    4  C6  UNL     1      -7.858   7.660  15.462  1.00  0.00     0.001 C 
HETATM    5  C7  UNL     1      -7.902   7.451  16.998  1.00  0.00     0.019 C 
HETATM    6  C8  UNL     1      -6.375   7.789  14.949  1.00  0.00     0.039 C 
HETATM    7  C9  UNL     1      -5.312   8.315  15.921  1.00  0.00     0.010 C 
HETATM    8  C10 UNL     1      -3.961   8.578  15.211  1.00  0.00     0.010 C 
HETATM    9  C11 UNL     1      -3.646   7.616  14.032  1.00  0.00    -0.033 C 
HETATM   10  C12 UNL     1      -3.972   8.290  12.678  1.00  0.00     0.016 C 
HETATM   11  C13 UNL     1      -2.184   7.054  14.028  1.00  0.00     0.001 C 
HETATM   12  C23 UNL     1      -2.317   5.724  13.229  1.00  0.00     0.006 C 
HETATM   13  C24 UNL     1      -3.789   5.293  13.308  1.00  0.00     0.009 C 
HETATM   14  C25 UNL     1      -4.421   6.298  14.262  1.00  0.00     0.036 C 
HETATM   15  C26 UNL     1      -5.953   6.421  14.317  1.00  0.00     0.123 C 
HETATM   16  C27 UNL     1      -6.752   6.302  13.040  1.00  0.00     0.014 C 
HETATM   17  C28 UNL     1      -8.080   6.375  13.235  1.00  0.00     0.014 C 
HETATM   18  C29 UNL     1      -8.485   6.429  14.702  1.00  0.00     0.124 C 
HETATM   19  C30 UNL     1     -10.004   6.313  14.904  1.00  0.00     0.079 C 
HETATM   20  O3  UNL     1      -7.877   5.231  15.243  1.00  0.00    -0.223 OA
HETATM   21  O4  UNL     1      -6.390   5.364  15.224  1.00  0.00    -0.224 OA
ENDROOT
BRANCH  11  22
HETATM   22  C14 UNL     1      -1.033   7.954  13.507  1.00  0.00     0.008 C 
HETATM   23  C15 UNL     1      -0.229   8.610  14.637  1.00  0.00     0.014 C 
BRANCH  22  24
HETATM   24  C16 UNL     1      -0.145   7.176  12.546  1.00  0.00    -0.026 C 
HETATM   25  C17 UNL     1      -0.044   7.348  11.217  1.00  0.00    -0.026 C 
BRANCH  25  26
HETATM   26  C18 UNL     1       0.855   6.517  10.324  1.00  0.00     0.007 C 
HETATM   27  C19 UNL     1       1.866   5.786  11.214  1.00  0.00     0.014 C 
BRANCH  26  28
HETATM   28  C20 UNL     1       1.539   7.400   9.241  1.00  0.00    -0.015 C 
HETATM   29  C21 UNL     1       0.529   8.312   8.531  1.00  0.00     0.010 C 
HETATM   30  C22 UNL     1       2.271   6.562   8.185  1.00  0.00     0.010 C 
ENDBRANCH  26  28
ENDBRANCH  25  26
ENDBRANCH  22  24
ENDBRANCH  11  22
BRANCH   1  31
HETATM   31  O2  UNL     1     -10.767   7.928  13.223  1.00  0.00    -0.316 OA
BRANCH  31  32
HETATM   32  C2  UNL     1     -11.948   8.362  12.701  1.00  0.00     0.255 C 
HETATM   33  C1  UNL     1     -13.054   7.432  13.095  1.00  0.00     0.126 C 
HETATM   34  O1  UNL     1     -12.095   9.350  11.998  1.00  0.00    -0.266 OA
ENDBRANCH  31  32
ENDBRANCH   1  31
TORSDOF 6
ENDMDL
MODEL 8
REMARK minimizedAffinity -8.15669346
REMARK  6 active torsions:
REMARK  status: ('A' for Active; 'I' for Inactive)
REMARK    1  A    between atoms: C2_2  and  O2_4 
REMARK    2  A    between atoms: O2_4  and  C3_5 
REMARK    3  A    between atoms: C13_15  and  C14_16 
REMARK    4  A    between atoms: C14_16  and  C16_18 
REMARK    5  A    between atoms: C17_19  and  C18_20 
REMARK    6  A    between atoms: C18_20  and  C20_22 
ROOT
HETATM    1  C3  UNL     1       2.692   7.484  10.334  1.00  0.00     0.135 C 
HETATM    2  C4  UNL     1       2.769   6.177  11.129  1.00  0.00     0.034 C 
HETATM    3  C5  UNL     1       1.453   5.842  11.838  1.00  0.00     0.015 C 
HETATM    4  C6  UNL     1       0.961   6.982  12.766  1.00  0.00     0.001 C 
HETATM    5  C7  UNL     1       1.941   7.115  13.960  1.00  0.00     0.019 C 
HETATM    6  C8  UNL     1      -0.500   6.671  13.263  1.00  0.00     0.039 C 
HETATM    7  C9  UNL     1      -0.674   5.950  14.604  1.00  0.00     0.010 C 
HETATM    8  C10 UNL     1      -2.146   5.535  14.850  1.00  0.00     0.010 C 
HETATM    9  C11 UNL     1      -3.205   6.503  14.251  1.00  0.00    -0.033 C 
HETATM   10  C12 UNL     1      -3.747   5.953  12.911  1.00  0.00     0.016 C 
HETATM   11  C13 UNL     1      -4.384   6.852  15.221  1.00  0.00     0.001 C 
HETATM   12  C23 UNL     1      -4.885   8.227  14.690  1.00  0.00     0.006 C 
HETATM   13  C24 UNL     1      -3.729   8.857  13.901  1.00  0.00     0.009 C 
HETATM   14  C25 UNL     1      -2.562   7.903  14.124  1.00  0.00     0.036 C 
HETATM   15  C26 UNL     1      -1.330   7.997  13.208  1.00  0.00     0.123 C 
HETATM   16  C27 UNL     1      -1.520   8.295  11.739  1.00  0.00     0.014 C 
HETATM   17  C28 UNL     1      -0.363   8.400  11.064  1.00  0.00     0.014 C 
HETATM   18  C29 UNL     1       0.874   8.328  11.948  1.00  0.00     0.124 C 
HETATM   19  C30 UNL     1       2.170   8.647  11.186  1.00  0.00     0.079 C 
HETATM   20  O3  UNL     1       0.649   9.398  12.897  1.00  0.00    -0.223 OA
HETATM   21  O4  UNL     1      -0.506   9.056  13.781  1.00  0.00    -0.224 OA
ENDROOT
BRANCH  11  22
HETATM   22  C14 UNL     1      -5.533   5.825  15.407  1.00  0.00     0.008 C 
HETATM   23  C15 UNL     1      -6.451   6.166  16.588  1.00  0.00     0.014 C 
BRANCH  22  24
HETATM   24  C16 UNL     1      -6.306   5.653  14.108  1.00  0.00    -0.026 C 
HETATM   25  C17 UNL     1      -7.468   4.999  13.937  1.00  0.00    -0.026 C 
BRANCH  25  26
HETATM   26  C18 UNL     1      -8.169   4.857  12.601  1.00  0.00     0.007 C 
HETATM   27  C19 UNL     1      -7.130   4.418  11.564  1.00  0.00     0.014 C 
BRANCH  26  28
HETATM   28  C20 UNL     1      -8.891   6.176  12.204  1.00  0.00    -0.015 C 
HETATM   29  C21 UNL     1      -9.908   6.609  13.270  1.00  0.00     0.010 C 
HETATM   30  C22 UNL     1      -9.613   6.061  10.856  1.00  0.00     0.010 C 
ENDBRANCH  26  28
ENDBRANCH  25  26
ENDBRANCH  22  24
ENDBRANCH  11  22
BRANCH   1  31
HETATM   31  O2  UNL     1       1.835   7.247   9.200  1.00  0.00    -0.316 OA
BRANCH  31  32
HETATM   32  C2  UNL     1       2.218   7.819   8.025  1.00  0.00     0.255 C 
HETATM   33  C1  UNL     1       1.506   7.165   6.881  1.00  0.00     0.126 C 
HETATM   34  O1  UNL     1       3.036   8.718   7.904  1.00  0.00    -0.266 OA
ENDBRANCH  31  32
ENDBRANCH   1  31
TORSDOF 6
ENDMDL
MODEL 9
REMARK minimizedAffinity -8.10072803
REMARK  6 active torsions:
REMARK  status: ('A' for Active; 'I' for Inactive)
REMARK    1  A    between atoms: C2_2  and  O2_4 
REMARK    2  A    between atoms: O2_4  and  C3_5 
REMARK    3  A    between atoms: C13_15  and  C14_16 
REMARK    4  A    between atoms: C14_16  and  C16_18 
REMARK    5  A    between atoms: C17_19  and  C18_20 
REMARK    6  A    between atoms: C18_20  and  C20_22 
ROOT
HETATM    1  C3  UNL     1       4.087   6.723  10.656  1.00  0.00     0.135 C 
HETATM    2  C4  UNL     1       3.617   8.137  10.302  1.00  0.00     0.034 C 
HETATM    3  C5  UNL     1       2.298   8.506  10.987  1.00  0.00     0.015 C 
HETATM    4  C6  UNL     1       1.161   7.495  10.693  1.00  0.00     0.001 C 
HETATM    5  C7  UNL     1       0.778   7.593   9.194  1.00  0.00     0.019 C 
HETATM    6  C8  UNL     1      -0.077   7.802  11.616  1.00  0.00     0.039 C 
HETATM    7  C9  UNL     1      -1.187   8.706  11.067  1.00  0.00     0.010 C 
HETATM    8  C10 UNL     1      -2.221   9.077  12.159  1.00  0.00     0.010 C 
HETATM    9  C11 UNL     1      -2.461   7.977  13.231  1.00  0.00    -0.033 C 
HETATM   10  C12 UNL     1      -1.664   8.290  14.519  1.00  0.00     0.016 C 
HETATM   11  C13 UNL     1      -3.968   7.717  13.566  1.00  0.00     0.001 C 
HETATM   12  C23 UNL     1      -3.967   6.254  14.098  1.00  0.00     0.006 C 
HETATM   13  C24 UNL     1      -2.706   5.573  13.548  1.00  0.00     0.009 C 
HETATM   14  C25 UNL     1      -2.103   6.608  12.607  1.00  0.00     0.036 C 
HETATM   15  C26 UNL     1      -0.648   6.442  12.141  1.00  0.00     0.123 C 
HETATM   16  C27 UNL     1       0.386   5.917  13.110  1.00  0.00     0.014 C 
HETATM   17  C28 UNL     1       1.604   5.771  12.561  1.00  0.00     0.014 C 
HETATM   18  C29 UNL     1       1.640   6.039  11.063  1.00  0.00     0.124 C 
HETATM   19  C30 UNL     1       2.991   5.676  10.427  1.00  0.00     0.079 C 
HETATM   20  O3  UNL     1       0.651   5.113  10.551  1.00  0.00    -0.223 OA
HETATM   21  O4  UNL     1      -0.710   5.524  11.007  1.00  0.00    -0.224 OA
ENDROOT
BRANCH  11  22
HETATM   22  C14 UNL     1      -4.708   8.700  14.513  1.00  0.00     0.008 C 
HETATM   23  C15 UNL     1      -5.811   8.020  15.335  1.00  0.00     0.014 C 
BRANCH  22  24
HETATM   24  C16 UNL     1      -3.711   9.443  15.391  1.00  0.00    -0.026 C 
HETATM   25  C17 UNL     1      -3.966  10.079  16.547  1.00  0.00    -0.026 C 
BRANCH  25  26
HETATM   26  C18 UNL     1      -2.917  10.813  17.356  1.00  0.00     0.007 C 
HETATM   27  C19 UNL     1      -2.656  10.013  18.636  1.00  0.00     0.014 C 
BRANCH  26  28
HETATM   28  C20 UNL     1      -3.354  12.278  17.644  1.00  0.00    -0.015 C 
HETATM   29  C21 UNL     1      -3.884  12.440  19.075  1.00  0.00     0.010 C 
HETATM   30  C22 UNL     1      -4.428  12.767  16.664  1.00  0.00     0.010 C 
ENDBRANCH  26  28
ENDBRANCH  25  26
ENDBRANCH  22  24
ENDBRANCH  11  22
BRANCH   1  31
HETATM   31  O2  UNL     1       4.505   6.742  12.036  1.00  0.00    -0.316 OA
BRANCH  31  32
HETATM   32  C2  UNL     1       5.818   7.017  12.265  1.00  0.00     0.255 C 
HETATM   33  C1  UNL     1       6.678   6.234  11.321  1.00  0.00     0.126 C 
HETATM   34  O1  UNL     1       6.249   7.772  13.124  1.00  0.00    -0.266 OA
ENDBRANCH  31  32
ENDBRANCH   1  31
TORSDOF 6
ENDMDL
