MODEL 1
REMARK minimizedAffinity -9.02861404
REMARK  12 active torsions:
REMARK  status: ('A' for Active; 'I' for Inactive)
REMARK    1  A    between atoms: C2_2  and  O1_3 
REMARK    2  A    between atoms: C2_2  and  C3_4 
REMARK    3  A    between atoms: C4_5  and  C5_6 
REMARK    4  A    between atoms: C5_6  and  O2_7 
REMARK    5  A    between atoms: C8_10  and  O3_11 
REMARK    6  A    between atoms: O3_11  and  C9_12 
REMARK    7  A    between atoms: C10_14  and  C11_15 
REMARK    8  A    between atoms: C11_15  and  O5_16 
REMARK    9  A    between atoms: C12_17  and  O6_18 
REMARK   10  A    between atoms: C13_19  and  O7_20 
REMARK   11  A    between atoms: C14_21  and  O8_22 
REMARK   12  A    between atoms: C15_23  and  O9_24 
ROOT
HETATM    1  C5  UNL     1      -0.734  51.026 -20.333  1.00  0.00     0.088 C 
HETATM    2  C6  UNL     1      -0.735  51.899 -21.621  1.00  0.00     0.052 C 
HETATM    3  C7  UNL     1       0.592  52.639 -21.874  1.00  0.00     0.016 C 
HETATM    4  C8  UNL     1      -1.052  51.029 -22.865  1.00  0.00     0.160 C 
HETATM    5  C15 UNL     1      -2.043  49.877 -22.567  1.00  0.00     0.148 C 
HETATM    6  C16 UNL     1      -2.959  50.207 -21.392  1.00  0.00     0.046 C 
HETATM    7  C17 UNL     1      -2.203  50.480 -20.058  1.00  0.00    -0.010 C 
HETATM    8  C18 UNL     1      -2.168  49.168 -19.236  1.00  0.00     0.018 C 
HETATM    9  C19 UNL     1      -3.078  51.485 -19.264  1.00  0.00     0.018 C 
ENDROOT
BRANCH   4  10
HETATM   10  O3  UNL     1      -1.623  51.884 -23.877  1.00  0.00    -0.350 OA
BRANCH  10  11
HETATM   11  C9  UNL     1      -1.102  51.597 -25.182  1.00  0.00     0.292 C 
HETATM   12  O4  UNL     1       0.322  51.537 -25.101  1.00  0.00    -0.348 OA
HETATM   13  C10 UNL     1       0.941  51.284 -26.367  1.00  0.00     0.179 C 
HETATM   14  C12 UNL     1       0.624  52.423 -27.348  1.00  0.00     0.180 C 
HETATM   15  C13 UNL     1      -0.893  52.551 -27.500  1.00  0.00     0.183 C 
HETATM   16  C14 UNL     1      -1.566  52.718 -26.138  1.00  0.00     0.204 C 
BRANCH  13  17
HETATM   17  C11 UNL     1       2.455  51.138 -26.163  1.00  0.00     0.198 C 
BRANCH  17  18
HETATM   18  O5  UNL     1       3.188  51.486 -27.335  1.00  0.00    -0.398 OA
HETATM   19  H18 UNL     1       2.786  52.310 -27.689  1.00  0.00     0.209 HD
ENDBRANCH  17  18
ENDBRANCH  13  17
BRANCH  14  20
HETATM   20  O6  UNL     1       1.214  52.181 -28.632  1.00  0.00    -0.390 OA
HETATM   21  H20 UNL     1       0.785  52.828 -29.232  1.00  0.00     0.210 HD
ENDBRANCH  14  20
BRANCH  15  22
HETATM   22  O7  UNL     1      -1.184  53.673 -28.348  1.00  0.00    -0.390 OA
HETATM   23  H22 UNL     1      -2.133  53.867 -28.208  1.00  0.00     0.210 HD
ENDBRANCH  15  22
BRANCH  16  24
HETATM   24  O8  UNL     1      -2.992  52.727 -26.344  1.00  0.00    -0.388 OA
HETATM   25  H24 UNL     1      -3.316  51.804 -26.287  1.00  0.00     0.210 HD
ENDBRANCH  16  24
ENDBRANCH  10  11
ENDBRANCH   4  10
BRANCH   5  26
HETATM   26  O9  UNL     1      -2.859  49.610 -23.720  1.00  0.00    -0.393 OA
HETATM   27  H26 UNL     1      -3.391  50.423 -23.837  1.00  0.00     0.210 HD
ENDBRANCH   5  26
BRANCH   1  28
HETATM   28  C4  UNL     1      -0.168  51.788 -19.141  1.00  0.00     0.010 C 
HETATM   29  C3  UNL     1       0.295  51.294 -17.977  1.00  0.00     0.003 C 
BRANCH  29  30
HETATM   30  C2  UNL     1       0.871  52.138 -16.877  1.00  0.00     0.136 C 
HETATM   31  C1  UNL     1       1.583  51.283 -15.839  1.00  0.00     0.043 C 
BRANCH  30  32
HETATM   32  O1  UNL     1       1.810  53.021 -17.479  1.00  0.00    -0.392 OA
HETATM   33  H5  UNL     1       2.140  53.610 -16.779  1.00  0.00     0.210 HD
ENDBRANCH  30  32
ENDBRANCH  29  30
ENDBRANCH   1  28
BRANCH   1  34
HETATM   34  O2  UNL     1       0.126  49.913 -20.624  1.00  0.00    -0.385 OA
HETATM   35  H8  UNL     1       0.284  49.429 -19.797  1.00  0.00     0.211 HD
ENDBRANCH   1  34
TORSDOF 12
ENDMDL
MODEL 2
REMARK minimizedAffinity -8.51210594
REMARK  12 active torsions:
REMARK  status: ('A' for Active; 'I' for Inactive)
REMARK    1  A    between atoms: C2_2  and  O1_3 
REMARK    2  A    between atoms: C2_2  and  C3_4 
REMARK    3  A    between atoms: C4_5  and  C5_6 
REMARK    4  A    between atoms: C5_6  and  O2_7 
REMARK    5  A    between atoms: C8_10  and  O3_11 
REMARK    6  A    between atoms: O3_11  and  C9_12 
REMARK    7  A    between atoms: C10_14  and  C11_15 
REMARK    8  A    between atoms: C11_15  and  O5_16 
REMARK    9  A    between atoms: C12_17  and  O6_18 
REMARK   10  A    between atoms: C13_19  and  O7_20 
REMARK   11  A    between atoms: C14_21  and  O8_22 
REMARK   12  A    between atoms: C15_23  and  O9_24 
ROOT
HETATM    1  C5  UNL     1      -1.011  51.092 -26.396  1.00  0.00     0.088 C 
HETATM    2  C6  UNL     1      -1.384  51.378 -24.913  1.00  0.00     0.052 C 
HETATM    3  C7  UNL     1      -1.947  50.156 -24.164  1.00  0.00     0.016 C 
HETATM    4  C8  UNL     1      -0.148  51.900 -24.134  1.00  0.00     0.160 C 
HETATM    5  C15 UNL     1       0.796  52.769 -25.001  1.00  0.00     0.148 C 
HETATM    6  C16 UNL     1       0.050  53.449 -26.145  1.00  0.00     0.046 C 
HETATM    7  C17 UNL     1      -0.642  52.457 -27.126  1.00  0.00    -0.010 C 
HETATM    8  C18 UNL     1       0.305  52.212 -28.326  1.00  0.00     0.018 C 
HETATM    9  C19 UNL     1      -1.888  53.196 -27.680  1.00  0.00     0.018 C 
ENDROOT
BRANCH   4  10
HETATM   10  O3  UNL     1      -0.619  52.690 -23.023  1.00  0.00    -0.350 OA
BRANCH  10  11
HETATM   11  C9  UNL     1      -0.347  52.063 -21.762  1.00  0.00     0.292 C 
HETATM   12  O4  UNL     1      -1.588  51.733 -21.140  1.00  0.00    -0.348 OA
HETATM   13  C10 UNL     1      -1.423  51.126 -19.854  1.00  0.00     0.179 C 
HETATM   14  C12 UNL     1      -0.720  52.099 -18.896  1.00  0.00     0.180 C 
HETATM   15  C13 UNL     1       0.633  52.501 -19.487  1.00  0.00     0.183 C 
HETATM   16  C14 UNL     1       0.468  53.054 -20.903  1.00  0.00     0.204 C 
BRANCH  13  17
HETATM   17  C11 UNL     1      -2.799  50.718 -19.311  1.00  0.00     0.198 C 
BRANCH  17  18
HETATM   18  O5  UNL     1      -3.164  51.472 -18.159  1.00  0.00    -0.398 OA
HETATM   19  H18 UNL     1      -2.934  52.409 -18.346  1.00  0.00     0.209 HD
ENDBRANCH  17  18
ENDBRANCH  13  17
BRANCH  14  20
HETATM   20  O6  UNL     1      -0.520  51.506 -17.607  1.00  0.00    -0.390 OA
HETATM   21  H20 UNL     1       0.113  52.102 -17.151  1.00  0.00     0.210 HD
ENDBRANCH  14  20
BRANCH  15  22
HETATM   22  O7  UNL     1       1.246  53.478 -18.632  1.00  0.00    -0.390 OA
HETATM   23  H22 UNL     1       1.959  53.883 -19.166  1.00  0.00     0.210 HD
ENDBRANCH  15  22
BRANCH  16  24
HETATM   24  O8  UNL     1       1.782  53.312 -21.436  1.00  0.00    -0.388 OA
HETATM   25  H24 UNL     1       2.093  52.501 -21.889  1.00  0.00     0.210 HD
ENDBRANCH  16  24
ENDBRANCH  10  11
ENDBRANCH   4  10
BRANCH   5  26
HETATM   26  O9  UNL     1       1.418  53.784 -24.195  1.00  0.00    -0.393 OA
HETATM   27  H26 UNL     1       0.679  54.360 -23.912  1.00  0.00     0.210 HD
ENDBRANCH   5  26
BRANCH   1  28
HETATM   28  C4  UNL     1      -2.119  50.333 -27.116  1.00  0.00     0.010 C 
HETATM   29  C3  UNL     1      -2.683  49.157 -26.778  1.00  0.00     0.003 C 
BRANCH  29  30
HETATM   30  C2  UNL     1      -3.803  48.514 -27.540  1.00  0.00     0.136 C 
HETATM   31  C1  UNL     1      -4.965  48.160 -26.625  1.00  0.00     0.043 C 
BRANCH  30  32
HETATM   32  O1  UNL     1      -4.242  49.458 -28.510  1.00  0.00    -0.392 OA
HETATM   33  H5  UNL     1      -4.927  49.022 -29.046  1.00  0.00     0.210 HD
ENDBRANCH  30  32
ENDBRANCH  29  30
ENDBRANCH   1  28
BRANCH   1  34
HETATM   34  O2  UNL     1       0.162  50.264 -26.344  1.00  0.00    -0.385 OA
HETATM   35  H8  UNL     1       0.335  49.928 -27.239  1.00  0.00     0.211 HD
ENDBRANCH   1  34
TORSDOF 12
ENDMDL
MODEL 3
REMARK minimizedAffinity -8.44026947
REMARK  12 active torsions:
REMARK  status: ('A' for Active; 'I' for Inactive)
REMARK    1  A    between atoms: C2_2  and  O1_3 
REMARK    2  A    between atoms: C2_2  and  C3_4 
REMARK    3  A    between atoms: C4_5  and  C5_6 
REMARK    4  A    between atoms: C5_6  and  O2_7 
REMARK    5  A    between atoms: C8_10  and  O3_11 
REMARK    6  A    between atoms: O3_11  and  C9_12 
REMARK    7  A    between atoms: C10_14  and  C11_15 
REMARK    8  A    between atoms: C11_15  and  O5_16 
REMARK    9  A    between atoms: C12_17  and  O6_18 
REMARK   10  A    between atoms: C13_19  and  O7_20 
REMARK   11  A    between atoms: C14_21  and  O8_22 
REMARK   12  A    between atoms: C15_23  and  O9_24 
ROOT
HETATM    1  C5  UNL     1      -0.856  50.862 -20.488  1.00  0.00     0.088 C 
HETATM    2  C6  UNL     1      -0.701  52.047 -21.485  1.00  0.00     0.052 C 
HETATM    3  C7  UNL     1       0.755  52.506 -21.686  1.00  0.00     0.016 C 
HETATM    4  C8  UNL     1      -1.289  51.671 -22.870  1.00  0.00     0.160 C 
HETATM    5  C15 UNL     1      -2.522  50.739 -22.776  1.00  0.00     0.148 C 
HETATM    6  C16 UNL     1      -3.266  50.915 -21.455  1.00  0.00     0.046 C 
HETATM    7  C17 UNL     1      -2.401  50.610 -20.196  1.00  0.00    -0.010 C 
HETATM    8  C18 UNL     1      -2.657  49.145 -19.767  1.00  0.00     0.018 C 
HETATM    9  C19 UNL     1      -2.953  51.514 -19.063  1.00  0.00     0.018 C 
ENDROOT
BRANCH   4  10
HETATM   10  O3  UNL     1      -1.675  52.889 -23.539  1.00  0.00    -0.350 OA
BRANCH  10  11
HETATM   11  C9  UNL     1      -1.240  52.914 -24.905  1.00  0.00     0.292 C 
HETATM   12  O4  UNL     1      -1.855  51.829 -25.599  1.00  0.00    -0.348 OA
HETATM   13  C10 UNL     1      -1.458  51.749 -26.972  1.00  0.00     0.179 C 
HETATM   14  C12 UNL     1       0.055  51.506 -27.072  1.00  0.00     0.180 C 
HETATM   15  C13 UNL     1       0.796  52.637 -26.355  1.00  0.00     0.183 C 
HETATM   16  C14 UNL     1       0.299  52.791 -24.918  1.00  0.00     0.204 C 
BRANCH  13  17
HETATM   17  C11 UNL     1      -2.243  50.620 -27.655  1.00  0.00     0.198 C 
BRANCH  17  18
HETATM   18  O5  UNL     1      -3.291  51.121 -28.480  1.00  0.00    -0.398 OA
HETATM   19  H18 UNL     1      -2.920  51.878 -28.985  1.00  0.00     0.209 HD
ENDBRANCH  17  18
ENDBRANCH  13  17
BRANCH  14  20
HETATM   20  O6  UNL     1       0.483  51.446 -28.439  1.00  0.00    -0.390 OA
HETATM   21  H20 UNL     1       1.461  51.510 -28.399  1.00  0.00     0.210 HD
ENDBRANCH  14  20
BRANCH  15  22
HETATM   22  O7  UNL     1       2.205  52.359 -26.376  1.00  0.00    -0.390 OA
HETATM   23  H22 UNL     1       2.598  52.952 -25.703  1.00  0.00     0.210 HD
ENDBRANCH  15  22
BRANCH  16  24
HETATM   24  O8  UNL     1       0.959  53.934 -24.340  1.00  0.00    -0.388 OA
HETATM   25  H24 UNL     1       0.411  54.727 -24.516  1.00  0.00     0.210 HD
ENDBRANCH  16  24
ENDBRANCH  10  11
ENDBRANCH   4  10
BRANCH   5  26
HETATM   26  O9  UNL     1      -3.435  51.011 -23.853  1.00  0.00    -0.393 OA
HETATM   27  H26 UNL     1      -3.751  51.922 -23.683  1.00  0.00     0.210 HD
ENDBRANCH   5  26
BRANCH   1  28
HETATM   28  C4  UNL     1      -0.059  51.097 -19.211  1.00  0.00     0.010 C 
HETATM   29  C3  UNL     1       0.070  52.235 -18.503  1.00  0.00     0.003 C 
BRANCH  29  30
HETATM   30  C2  UNL     1       0.853  52.347 -17.228  1.00  0.00     0.136 C 
HETATM   31  C1  UNL     1       1.022  50.991 -16.561  1.00  0.00     0.043 C 
BRANCH  30  32
HETATM   32  O1  UNL     1       2.135  52.861 -17.573  1.00  0.00    -0.392 OA
HETATM   33  H5  UNL     1       2.624  52.992 -16.742  1.00  0.00     0.210 HD
ENDBRANCH  30  32
ENDBRANCH  29  30
ENDBRANCH   1  28
BRANCH   1  34
HETATM   34  O2  UNL     1      -0.321  49.717 -21.167  1.00  0.00    -0.385 OA
HETATM   35  H8  UNL     1      -0.249  48.991 -20.525  1.00  0.00     0.211 HD
ENDBRANCH   1  34
TORSDOF 12
ENDMDL
MODEL 4
REMARK minimizedAffinity -8.228508
REMARK  12 active torsions:
REMARK  status: ('A' for Active; 'I' for Inactive)
REMARK    1  A    between atoms: C2_2  and  O1_3 
REMARK    2  A    between atoms: C2_2  and  C3_4 
REMARK    3  A    between atoms: C4_5  and  C5_6 
REMARK    4  A    between atoms: C5_6  and  O2_7 
REMARK    5  A    between atoms: C8_10  and  O3_11 
REMARK    6  A    between atoms: O3_11  and  C9_12 
REMARK    7  A    between atoms: C10_14  and  C11_15 
REMARK    8  A    between atoms: C11_15  and  O5_16 
REMARK    9  A    between atoms: C12_17  and  O6_18 
REMARK   10  A    between atoms: C13_19  and  O7_20 
REMARK   11  A    between atoms: C14_21  and  O8_22 
REMARK   12  A    between atoms: C15_23  and  O9_24 
ROOT
HETATM    1  C5  UNL     1      -1.228  51.880 -24.484  1.00  0.00     0.088 C 
HETATM    2  C6  UNL     1      -1.838  50.568 -23.913  1.00  0.00     0.052 C 
HETATM    3  C7  UNL     1      -2.121  50.618 -22.400  1.00  0.00     0.016 C 
HETATM    4  C8  UNL     1      -3.162  50.222 -24.644  1.00  0.00     0.160 C 
HETATM    5  C15 UNL     1      -3.156  50.628 -26.139  1.00  0.00     0.148 C 
HETATM    6  C16 UNL     1      -1.743  50.653 -26.714  1.00  0.00     0.046 C 
HETATM    7  C17 UNL     1      -0.785  51.649 -25.995  1.00  0.00    -0.010 C 
HETATM    8  C18 UNL     1      -0.777  52.980 -26.786  1.00  0.00     0.018 C 
HETATM    9  C19 UNL     1       0.638  51.044 -26.117  1.00  0.00     0.018 C 
ENDROOT
BRANCH   4  10
HETATM   10  O3  UNL     1      -3.369  48.798 -24.548  1.00  0.00    -0.350 OA
BRANCH  10  11
HETATM   11  C9  UNL     1      -4.725  48.471 -24.215  1.00  0.00     0.292 C 
HETATM   12  O4  UNL     1      -5.410  48.099 -25.410  1.00  0.00    -0.348 OA
HETATM   13  C10 UNL     1      -6.788  47.782 -25.186  1.00  0.00     0.179 C 
HETATM   14  C12 UNL     1      -7.532  49.011 -24.642  1.00  0.00     0.180 C 
HETATM   15  C13 UNL     1      -6.862  49.475 -23.347  1.00  0.00     0.183 C 
HETATM   16  C14 UNL     1      -5.367  49.714 -23.561  1.00  0.00     0.204 C 
BRANCH  13  17
HETATM   17  C11 UNL     1      -7.412  47.300 -26.503  1.00  0.00     0.198 C 
BRANCH  17  18
HETATM   18  O5  UNL     1      -7.948  48.377 -27.266  1.00  0.00    -0.398 OA
HETATM   19  H18 UNL     1      -7.288  49.103 -27.237  1.00  0.00     0.209 HD
ENDBRANCH  17  18
ENDBRANCH  13  17
BRANCH  14  20
HETATM   20  O6  UNL     1      -8.910  48.713 -24.386  1.00  0.00    -0.390 OA
HETATM   21  H20 UNL     1      -9.236  49.469 -23.851  1.00  0.00     0.210 HD
ENDBRANCH  14  20
BRANCH  15  22
HETATM   22  O7  UNL     1      -7.505  50.675 -22.892  1.00  0.00    -0.390 OA
HETATM   23  H22 UNL     1      -6.896  51.064 -22.231  1.00  0.00     0.210 HD
ENDBRANCH  15  22
BRANCH  16  24
HETATM   24  O8  UNL     1      -4.783  50.044 -22.286  1.00  0.00    -0.388 OA
HETATM   25  H24 UNL     1      -4.493  49.213 -21.857  1.00  0.00     0.210 HD
ENDBRANCH  16  24
ENDBRANCH  10  11
ENDBRANCH   4  10
BRANCH   5  26
HETATM   26  O9  UNL     1      -3.945  49.705 -26.908  1.00  0.00    -0.393 OA
HETATM   27  H26 UNL     1      -3.464  48.854 -26.840  1.00  0.00     0.210 HD
ENDBRANCH   5  26
BRANCH   1  28
HETATM   28  C4  UNL     1      -0.082  52.388 -23.618  1.00  0.00     0.010 C 
HETATM   29  C3  UNL     1       0.031  52.352 -22.276  1.00  0.00     0.003 C 
BRANCH  29  30
HETATM   30  C2  UNL     1       1.230  52.848 -21.521  1.00  0.00     0.136 C 
HETATM   31  C1  UNL     1       1.519  54.307 -21.839  1.00  0.00     0.043 C 
BRANCH  30  32
HETATM   32  O1  UNL     1       0.929  52.721 -20.136  1.00  0.00    -0.392 OA
HETATM   33  H5  UNL     1       1.727  52.985 -19.645  1.00  0.00     0.210 HD
ENDBRANCH  30  32
ENDBRANCH  29  30
ENDBRANCH   1  28
BRANCH   1  34
HETATM   34  O2  UNL     1      -2.293  52.843 -24.457  1.00  0.00    -0.385 OA
HETATM   35  H8  UNL     1      -1.916  53.717 -24.652  1.00  0.00     0.211 HD
ENDBRANCH   1  34
TORSDOF 12
ENDMDL
MODEL 5
REMARK minimizedAffinity -8.18432045
REMARK  12 active torsions:
REMARK  status: ('A' for Active; 'I' for Inactive)
REMARK    1  A    between atoms: C2_2  and  O1_3 
REMARK    2  A    between atoms: C2_2  and  C3_4 
REMARK    3  A    between atoms: C4_5  and  C5_6 
REMARK    4  A    between atoms: C5_6  and  O2_7 
REMARK    5  A    between atoms: C8_10  and  O3_11 
REMARK    6  A    between atoms: O3_11  and  C9_12 
REMARK    7  A    between atoms: C10_14  and  C11_15 
REMARK    8  A    between atoms: C11_15  and  O5_16 
REMARK    9  A    between atoms: C12_17  and  O6_18 
REMARK   10  A    between atoms: C13_19  and  O7_20 
REMARK   11  A    between atoms: C14_21  and  O8_22 
REMARK   12  A    between atoms: C15_23  and  O9_24 
ROOT
HETATM    1  C5  UNL     1       6.093  64.828 -36.355  1.00  0.00     0.088 C 
HETATM    2  C6  UNL     1       5.876  66.239 -36.973  1.00  0.00     0.052 C 
HETATM    3  C7  UNL     1       6.628  66.462 -38.298  1.00  0.00     0.016 C 
HETATM    4  C8  UNL     1       4.367  66.496 -37.220  1.00  0.00     0.160 C 
HETATM    5  C15 UNL     1       3.454  65.837 -36.157  1.00  0.00     0.148 C 
HETATM    6  C16 UNL     1       4.173  65.665 -34.821  1.00  0.00     0.046 C 
HETATM    7  C17 UNL     1       5.450  64.778 -34.900  1.00  0.00    -0.010 C 
HETATM    8  C18 UNL     1       5.068  63.330 -34.506  1.00  0.00     0.018 C 
HETATM    9  C19 UNL     1       6.410  65.305 -33.802  1.00  0.00     0.018 C 
ENDROOT
BRANCH   4  10
HETATM   10  O3  UNL     1       4.146  67.922 -37.205  1.00  0.00    -0.350 OA
BRANCH  10  11
HETATM   11  C9  UNL     1       3.132  68.320 -38.138  1.00  0.00     0.292 C 
HETATM   12  O4  UNL     1       1.872  68.325 -37.466  1.00  0.00    -0.348 OA
HETATM   13  C10 UNL     1       0.785  68.683 -38.326  1.00  0.00     0.179 C 
HETATM   14  C12 UNL     1       0.650  67.658 -39.462  1.00  0.00     0.180 C 
HETATM   15  C13 UNL     1       1.963  67.593 -40.243  1.00  0.00     0.183 C 
HETATM   16  C14 UNL     1       3.141  67.314 -39.310  1.00  0.00     0.204 C 
BRANCH  13  17
HETATM   17  C11 UNL     1      -0.505  68.759 -37.497  1.00  0.00     0.198 C 
BRANCH  17  18
HETATM   18  O5  UNL     1      -0.625  67.662 -36.595  1.00  0.00    -0.398 OA
HETATM   19  H18 UNL     1       0.255  67.537 -36.179  1.00  0.00     0.209 HD
ENDBRANCH  17  18
ENDBRANCH  13  17
BRANCH  14  20
HETATM   20  O6  UNL     1      -0.419  68.006 -40.352  1.00  0.00    -0.390 OA
HETATM   21  H20 UNL     1      -0.286  67.436 -41.139  1.00  0.00     0.210 HD
ENDBRANCH  14  20
BRANCH  15  22
HETATM   22  O7  UNL     1       1.861  66.571 -41.247  1.00  0.00    -0.390 OA
HETATM   23  H22 UNL     1       2.780  66.395 -41.535  1.00  0.00     0.210 HD
ENDBRANCH  15  22
BRANCH  16  24
HETATM   24  O8  UNL     1       4.351  67.372 -40.091  1.00  0.00    -0.388 OA
HETATM   25  H24 UNL     1       4.680  68.294 -40.078  1.00  0.00     0.210 HD
ENDBRANCH  16  24
ENDBRANCH  10  11
ENDBRANCH   4  10
BRANCH   5  26
HETATM   26  O9  UNL     1       2.279  66.638 -35.943  1.00  0.00    -0.393 OA
HETATM   27  H26 UNL     1       2.618  67.470 -35.554  1.00  0.00     0.210 HD
ENDBRANCH   5  26
BRANCH   1  28
HETATM   28  C4  UNL     1       7.567  64.441 -36.348  1.00  0.00     0.010 C 
HETATM   29  C3  UNL     1       8.118  63.254 -36.028  1.00  0.00     0.003 C 
BRANCH  29  30
HETATM   30  C2  UNL     1       9.590  62.967 -36.094  1.00  0.00     0.136 C 
HETATM   31  C1  UNL     1      10.246  63.126 -34.730  1.00  0.00     0.043 C 
BRANCH  30  32
HETATM   32  O1  UNL     1       9.731  61.619 -36.526  1.00  0.00    -0.392 OA
HETATM   33  H5  UNL     1      10.683  61.449 -36.628  1.00  0.00     0.210 HD
ENDBRANCH  30  32
ENDBRANCH  29  30
ENDBRANCH   1  28
BRANCH   1  34
HETATM   34  O2  UNL     1       5.379  63.921 -37.208  1.00  0.00    -0.385 OA
HETATM   35  H8  UNL     1       5.619  63.014 -36.955  1.00  0.00     0.211 HD
ENDBRANCH   1  34
TORSDOF 12
ENDMDL
MODEL 6
REMARK minimizedAffinity -8.13512707
REMARK  12 active torsions:
REMARK  status: ('A' for Active; 'I' for Inactive)
REMARK    1  A    between atoms: C2_2  and  O1_3 
REMARK    2  A    between atoms: C2_2  and  C3_4 
REMARK    3  A    between atoms: C4_5  and  C5_6 
REMARK    4  A    between atoms: C5_6  and  O2_7 
REMARK    5  A    between atoms: C8_10  and  O3_11 
REMARK    6  A    between atoms: O3_11  and  C9_12 
REMARK    7  A    between atoms: C10_14  and  C11_15 
REMARK    8  A    between atoms: C11_15  and  O5_16 
REMARK    9  A    between atoms: C12_17  and  O6_18 
REMARK   10  A    between atoms: C13_19  and  O7_20 
REMARK   11  A    between atoms: C14_21  and  O8_22 
REMARK   12  A    between atoms: C15_23  and  O9_24 
ROOT
HETATM    1  C5  UNL     1      -0.944  51.756 -25.074  1.00  0.00     0.088 C 
HETATM    2  C6  UNL     1      -1.788  50.450 -25.130  1.00  0.00     0.052 C 
HETATM    3  C7  UNL     1      -2.476  50.096 -23.799  1.00  0.00     0.016 C 
HETATM    4  C8  UNL     1      -2.878  50.555 -26.228  1.00  0.00     0.160 C 
HETATM    5  C15 UNL     1      -2.424  51.378 -27.460  1.00  0.00     0.148 C 
HETATM    6  C16 UNL     1      -0.909  51.343 -27.638  1.00  0.00     0.046 C 
HETATM    7  C17 UNL     1      -0.117  51.914 -26.425  1.00  0.00    -0.010 C 
HETATM    8  C18 UNL     1       0.214  53.400 -26.709  1.00  0.00     0.018 C 
HETATM    9  C19 UNL     1       1.233  51.150 -26.394  1.00  0.00     0.018 C 
ENDROOT
BRANCH   4  10
HETATM   10  O3  UNL     1      -3.211  49.219 -26.658  1.00  0.00    -0.350 OA
BRANCH  10  11
HETATM   11  C9  UNL     1      -4.628  48.997 -26.676  1.00  0.00     0.292 C 
HETATM   12  O4  UNL     1      -5.006  48.369 -25.451  1.00  0.00    -0.348 OA
HETATM   13  C10 UNL     1      -6.406  48.077 -25.384  1.00  0.00     0.179 C 
HETATM   14  C12 UNL     1      -6.794  47.092 -26.497  1.00  0.00     0.180 C 
HETATM   15  C13 UNL     1      -6.427  47.693 -27.855  1.00  0.00     0.183 C 
HETATM   16  C14 UNL     1      -4.955  48.102 -27.891  1.00  0.00     0.204 C 
BRANCH  13  17
HETATM   17  C11 UNL     1      -6.731  47.499 -24.000  1.00  0.00     0.198 C 
BRANCH  17  18
HETATM   18  O5  UNL     1      -5.621  47.583 -23.111  1.00  0.00    -0.398 OA
HETATM   19  H18 UNL     1      -5.231  48.478 -23.224  1.00  0.00     0.209 HD
ENDBRANCH  17  18
ENDBRANCH  13  17
BRANCH  14  20
HETATM   20  O6  UNL     1      -8.197  46.801 -26.467  1.00  0.00    -0.390 OA
HETATM   21  H20 UNL     1      -8.380  46.355 -27.321  1.00  0.00     0.210 HD
ENDBRANCH  14  20
BRANCH  15  22
HETATM   22  O7  UNL     1      -6.711  46.733 -28.883  1.00  0.00    -0.390 OA
HETATM   23  H22 UNL     1      -6.233  47.051 -29.677  1.00  0.00     0.210 HD
ENDBRANCH  15  22
BRANCH  16  24
HETATM   24  O8  UNL     1      -4.706  48.754 -29.152  1.00  0.00    -0.388 OA
HETATM   25  H24 UNL     1      -4.873  49.713 -29.040  1.00  0.00     0.210 HD
ENDBRANCH  16  24
ENDBRANCH  10  11
ENDBRANCH   4  10
BRANCH   5  26
HETATM   26  O9  UNL     1      -3.036  50.864 -28.655  1.00  0.00    -0.393 OA
HETATM   27  H26 UNL     1      -2.660  49.965 -28.756  1.00  0.00     0.210 HD
ENDBRANCH   5  26
BRANCH   1  28
HETATM   28  C4  UNL     1      -0.049  51.793 -23.841  1.00  0.00     0.010 C 
HETATM   29  C3  UNL     1      -0.024  52.708 -22.854  1.00  0.00     0.003 C 
BRANCH  29  30
HETATM   30  C2  UNL     1       0.877  52.627 -21.657  1.00  0.00     0.136 C 
HETATM   31  C1  UNL     1       1.290  54.011 -21.179  1.00  0.00     0.043 C 
BRANCH  30  32
HETATM   32  O1  UNL     1       0.141  51.976 -20.627  1.00  0.00    -0.392 OA
HETATM   33  H5  UNL     1       0.743  51.868 -19.870  1.00  0.00     0.210 HD
ENDBRANCH  30  32
ENDBRANCH  29  30
ENDBRANCH   1  28
BRANCH   1  34
HETATM   34  O2  UNL     1      -1.897  52.827 -24.989  1.00  0.00    -0.385 OA
HETATM   35  H8  UNL     1      -1.415  53.646 -24.790  1.00  0.00     0.211 HD
ENDBRANCH   1  34
TORSDOF 12
ENDMDL
MODEL 7
REMARK minimizedAffinity -8.13395309
REMARK  12 active torsions:
REMARK  status: ('A' for Active; 'I' for Inactive)
REMARK    1  A    between atoms: C2_2  and  O1_3 
REMARK    2  A    between atoms: C2_2  and  C3_4 
REMARK    3  A    between atoms: C4_5  and  C5_6 
REMARK    4  A    between atoms: C5_6  and  O2_7 
REMARK    5  A    between atoms: C8_10  and  O3_11 
REMARK    6  A    between atoms: O3_11  and  C9_12 
REMARK    7  A    between atoms: C10_14  and  C11_15 
REMARK    8  A    between atoms: C11_15  and  O5_16 
REMARK    9  A    between atoms: C12_17  and  O6_18 
REMARK   10  A    between atoms: C13_19  and  O7_20 
REMARK   11  A    between atoms: C14_21  and  O8_22 
REMARK   12  A    between atoms: C15_23  and  O9_24 
ROOT
HETATM    1  C5  UNL     1       4.519  66.146 -35.643  1.00  0.00     0.088 C 
HETATM    2  C6  UNL     1       3.370  66.103 -36.692  1.00  0.00     0.052 C 
HETATM    3  C7  UNL     1       1.963  66.234 -36.081  1.00  0.00     0.016 C 
HETATM    4  C8  UNL     1       3.552  67.232 -37.741  1.00  0.00     0.160 C 
HETATM    5  C15 UNL     1       5.037  67.538 -38.055  1.00  0.00     0.148 C 
HETATM    6  C16 UNL     1       5.929  66.323 -37.816  1.00  0.00     0.046 C 
HETATM    7  C17 UNL     1       5.900  65.796 -36.351  1.00  0.00    -0.010 C 
HETATM    8  C18 UNL     1       7.095  66.412 -35.583  1.00  0.00     0.018 C 
HETATM    9  C19 UNL     1       6.161  64.269 -36.437  1.00  0.00     0.018 C 
ENDROOT
BRANCH   4  10
HETATM   10  O3  UNL     1       2.892  66.823 -38.957  1.00  0.00    -0.350 OA
BRANCH  10  11
HETATM   11  C9  UNL     1       1.966  67.812 -39.425  1.00  0.00     0.292 C 
HETATM   12  O4  UNL     1       1.261  68.343 -38.304  1.00  0.00    -0.348 OA
HETATM   13  C10 UNL     1       0.285  69.323 -38.672  1.00  0.00     0.179 C 
HETATM   14  C12 UNL     1      -0.784  68.691 -39.578  1.00  0.00     0.180 C 
HETATM   15  C13 UNL     1      -0.110  68.100 -40.817  1.00  0.00     0.183 C 
HETATM   16  C14 UNL     1       1.004  67.130 -40.423  1.00  0.00     0.204 C 
BRANCH  13  17
HETATM   17  C11 UNL     1      -0.347  69.905 -37.400  1.00  0.00     0.198 C 
BRANCH  17  18
HETATM   18  O5  UNL     1      -1.366  69.059 -36.875  1.00  0.00    -0.398 OA
HETATM   19  H18 UNL     1      -1.022  68.140 -36.912  1.00  0.00     0.209 HD
ENDBRANCH  17  18
ENDBRANCH  13  17
BRANCH  14  20
HETATM   20  O6  UNL     1      -1.761  69.658 -39.981  1.00  0.00    -0.390 OA
HETATM   21  H20 UNL     1      -2.256  69.226 -40.710  1.00  0.00     0.210 HD
ENDBRANCH  14  20
BRANCH  15  22
HETATM   22  O7  UNL     1      -1.100  67.434 -41.615  1.00  0.00    -0.390 OA
HETATM   23  H22 UNL     1      -0.598  66.868 -42.237  1.00  0.00     0.210 HD
ENDBRANCH  15  22
BRANCH  16  24
HETATM   24  O8  UNL     1       1.662  66.695 -41.630  1.00  0.00    -0.388 OA
HETATM   25  H24 UNL     1       2.396  67.315 -41.819  1.00  0.00     0.210 HD
ENDBRANCH  16  24
ENDBRANCH  10  11
ENDBRANCH   4  10
BRANCH   5  26
HETATM   26  O9  UNL     1       5.182  67.947 -39.425  1.00  0.00    -0.393 OA
HETATM   27  H26 UNL     1       4.936  67.155 -39.946  1.00  0.00     0.210 HD
ENDBRANCH   5  26
BRANCH   1  28
HETATM   28  C4  UNL     1       4.229  65.232 -34.458  1.00  0.00     0.010 C 
HETATM   29  C3  UNL     1       4.688  63.986 -34.232  1.00  0.00     0.003 C 
BRANCH  29  30
HETATM   30  C2  UNL     1       4.369  63.184 -33.005  1.00  0.00     0.136 C 
HETATM   31  C1  UNL     1       4.015  64.086 -31.831  1.00  0.00     0.043 C 
BRANCH  30  32
HETATM   32  O1  UNL     1       3.248  62.368 -33.322  1.00  0.00    -0.392 OA
HETATM   33  H5  UNL     1       3.077  61.803 -32.548  1.00  0.00     0.210 HD
ENDBRANCH  30  32
ENDBRANCH  29  30
ENDBRANCH   1  28
BRANCH   1  34
HETATM   34  O2  UNL     1       4.568  67.504 -35.181  1.00  0.00    -0.385 OA
HETATM   35  H8  UNL     1       5.159  67.541 -34.412  1.00  0.00     0.211 HD
ENDBRANCH   1  34
TORSDOF 12
ENDMDL
MODEL 8
REMARK minimizedAffinity -8.1219759
REMARK  12 active torsions:
REMARK  status: ('A' for Active; 'I' for Inactive)
REMARK    1  A    between atoms: C2_2  and  O1_3 
REMARK    2  A    between atoms: C2_2  and  C3_4 
REMARK    3  A    between atoms: C4_5  and  C5_6 
REMARK    4  A    between atoms: C5_6  and  O2_7 
REMARK    5  A    between atoms: C8_10  and  O3_11 
REMARK    6  A    between atoms: O3_11  and  C9_12 
REMARK    7  A    between atoms: C10_14  and  C11_15 
REMARK    8  A    between atoms: C11_15  and  O5_16 
REMARK    9  A    between atoms: C12_17  and  O6_18 
REMARK   10  A    between atoms: C13_19  and  O7_20 
REMARK   11  A    between atoms: C14_21  and  O8_22 
REMARK   12  A    between atoms: C15_23  and  O9_24 
ROOT
HETATM    1  C5  UNL     1      -5.449  49.137 -23.815  1.00  0.00     0.088 C 
HETATM    2  C6  UNL     1      -4.022  49.057 -24.430  1.00  0.00     0.052 C 
HETATM    3  C7  UNL     1      -3.996  48.533 -25.878  1.00  0.00     0.016 C 
HETATM    4  C8  UNL     1      -3.342  50.450 -24.405  1.00  0.00     0.160 C 
HETATM    5  C15 UNL     1      -3.735  51.298 -23.169  1.00  0.00     0.148 C 
HETATM    6  C16 UNL     1      -4.130  50.422 -21.984  1.00  0.00     0.046 C 
HETATM    7  C17 UNL     1      -5.342  49.486 -22.266  1.00  0.00    -0.010 C 
HETATM    8  C18 UNL     1      -6.629  50.182 -21.759  1.00  0.00     0.018 C 
HETATM    9  C19 UNL     1      -5.131  48.229 -21.381  1.00  0.00     0.018 C 
ENDROOT
BRANCH   4  10
HETATM   10  O3  UNL     1      -1.913  50.252 -24.398  1.00  0.00    -0.350 OA
BRANCH  10  11
HETATM   11  C9  UNL     1      -1.314  50.607 -25.652  1.00  0.00     0.292 C 
HETATM   12  O4  UNL     1       0.070  50.881 -25.434  1.00  0.00    -0.348 OA
HETATM   13  C10 UNL     1       0.754  51.277 -26.628  1.00  0.00     0.179 C 
HETATM   14  C12 UNL     1       0.150  52.578 -27.176  1.00  0.00     0.180 C 
HETATM   15  C13 UNL     1      -1.341  52.369 -27.446  1.00  0.00     0.183 C 
HETATM   16  C14 UNL     1      -2.054  51.847 -26.199  1.00  0.00     0.204 C 
BRANCH  13  17
HETATM   17  C11 UNL     1       2.246  51.451 -26.316  1.00  0.00     0.198 C 
BRANCH  17  18
HETATM   18  O5  UNL     1       3.044  51.441 -27.496  1.00  0.00    -0.398 OA
HETATM   19  H18 UNL     1       2.581  52.000 -28.158  1.00  0.00     0.209 HD
ENDBRANCH  17  18
ENDBRANCH  13  17
BRANCH  14  20
HETATM   20  O6  UNL     1       0.802  52.984 -28.387  1.00  0.00    -0.390 OA
HETATM   21  H20 UNL     1       0.220  53.677 -28.766  1.00  0.00     0.210 HD
ENDBRANCH  14  20
BRANCH  15  22
HETATM   22  O7  UNL     1      -1.918  53.612 -27.875  1.00  0.00    -0.390 OA
HETATM   23  H22 UNL     1      -2.886  53.496 -27.785  1.00  0.00     0.210 HD
ENDBRANCH  15  22
BRANCH  16  24
HETATM   24  O8  UNL     1      -3.424  51.573 -26.552  1.00  0.00    -0.388 OA
HETATM   25  H24 UNL     1      -3.482  50.645 -26.860  1.00  0.00     0.210 HD
ENDBRANCH  16  24
ENDBRANCH  10  11
ENDBRANCH   4  10
BRANCH   5  26
HETATM   26  O9  UNL     1      -2.637  52.137 -22.771  1.00  0.00    -0.393 OA
HETATM   27  H26 UNL     1      -1.943  51.510 -22.480  1.00  0.00     0.210 HD
ENDBRANCH   5  26
BRANCH   1  28
HETATM   28  C4  UNL     1      -6.239  47.858 -24.065  1.00  0.00     0.010 C 
HETATM   29  C3  UNL     1      -7.473  47.727 -24.587  1.00  0.00     0.003 C 
BRANCH  29  30
HETATM   30  C2  UNL     1      -8.147  46.408 -24.829  1.00  0.00     0.136 C 
HETATM   31  C1  UNL     1      -7.995  45.966 -26.276  1.00  0.00     0.043 C 
BRANCH  30  32
HETATM   32  O1  UNL     1      -7.515  45.457 -23.980  1.00  0.00    -0.392 OA
HETATM   33  H5  UNL     1      -7.989  44.615 -24.090  1.00  0.00     0.210 HD
ENDBRANCH  30  32
ENDBRANCH  29  30
ENDBRANCH   1  28
BRANCH   1  34
HETATM   34  O2  UNL     1      -6.098  50.224 -24.490  1.00  0.00    -0.385 OA
HETATM   35  H8  UNL     1      -7.040  50.208 -24.254  1.00  0.00     0.211 HD
ENDBRANCH   1  34
TORSDOF 12
ENDMDL
MODEL 9
REMARK minimizedAffinity -8.01574516
REMARK  12 active torsions:
REMARK  status: ('A' for Active; 'I' for Inactive)
REMARK    1  A    between atoms: C2_2  and  O1_3 
REMARK    2  A    between atoms: C2_2  and  C3_4 
REMARK    3  A    between atoms: C4_5  and  C5_6 
REMARK    4  A    between atoms: C5_6  and  O2_7 
REMARK    5  A    between atoms: C8_10  and  O3_11 
REMARK    6  A    between atoms: O3_11  and  C9_12 
REMARK    7  A    between atoms: C10_14  and  C11_15 
REMARK    8  A    between atoms: C11_15  and  O5_16 
REMARK    9  A    between atoms: C12_17  and  O6_18 
REMARK   10  A    between atoms: C13_19  and  O7_20 
REMARK   11  A    between atoms: C14_21  and  O8_22 
REMARK   12  A    between atoms: C15_23  and  O9_24 
ROOT
HETATM    1  C5  UNL     1      -1.846  51.622 -23.779  1.00  0.00     0.088 C 
HETATM    2  C6  UNL     1      -0.922  51.143 -22.622  1.00  0.00     0.052 C 
HETATM    3  C7  UNL     1       0.163  52.162 -22.228  1.00  0.00     0.016 C 
HETATM    4  C8  UNL     1      -1.762  50.812 -21.361  1.00  0.00     0.160 C 
HETATM    5  C15 UNL     1      -3.155  50.224 -21.692  1.00  0.00     0.148 C 
HETATM    6  C16 UNL     1      -3.162  49.509 -23.041  1.00  0.00     0.046 C 
HETATM    7  C17 UNL     1      -2.785  50.424 -24.243  1.00  0.00    -0.010 C 
HETATM    8  C18 UNL     1      -4.090  50.952 -24.887  1.00  0.00     0.018 C 
HETATM    9  C19 UNL     1      -2.107  49.502 -25.290  1.00  0.00     0.018 C 
ENDROOT
BRANCH   4  10
HETATM   10  O3  UNL     1      -1.027  49.853 -20.572  1.00  0.00    -0.350 OA
BRANCH  10  11
HETATM   11  C9  UNL     1      -0.991  50.212 -19.184  1.00  0.00     0.292 C 
HETATM   12  O4  UNL     1       0.096  51.112 -18.973  1.00  0.00    -0.348 OA
HETATM   13  C10 UNL     1       0.235  51.507 -17.604  1.00  0.00     0.179 C 
HETATM   14  C12 UNL     1       0.530  50.281 -16.727  1.00  0.00     0.180 C 
HETATM   15  C13 UNL     1      -0.599  49.261 -16.888  1.00  0.00     0.183 C 
HETATM   16  C14 UNL     1      -0.818  48.916 -18.361  1.00  0.00     0.204 C 
BRANCH  13  17
HETATM   17  C11 UNL     1       1.360  52.545 -17.494  1.00  0.00     0.198 C 
BRANCH  17  18
HETATM   18  O5  UNL     1       1.345  53.217 -16.238  1.00  0.00    -0.398 OA
HETATM   19  H18 UNL     1       1.200  52.532 -15.549  1.00  0.00     0.209 HD
ENDBRANCH  17  18
ENDBRANCH  13  17
BRANCH  14  20
HETATM   20  O6  UNL     1       0.650  50.646 -15.346  1.00  0.00    -0.390 OA
HETATM   21  H20 UNL     1       0.617  49.796 -14.858  1.00  0.00     0.210 HD
ENDBRANCH  14  20
BRANCH  15  22
HETATM   22  O7  UNL     1      -0.275  48.082 -16.136  1.00  0.00    -0.390 OA
HETATM   23  H22 UNL     1      -0.877  47.385 -16.469  1.00  0.00     0.210 HD
ENDBRANCH  15  22
BRANCH  16  24
HETATM   24  O8  UNL     1      -1.957  48.038 -18.448  1.00  0.00    -0.388 OA
HETATM   25  H24 UNL     1      -2.761  48.588 -18.554  1.00  0.00     0.210 HD
ENDBRANCH  16  24
ENDBRANCH  10  11
ENDBRANCH   4  10
BRANCH   5  26
HETATM   26  O9  UNL     1      -3.556  49.288 -20.678  1.00  0.00    -0.393 OA
HETATM   27  H26 UNL     1      -2.910  48.555 -20.752  1.00  0.00     0.210 HD
ENDBRANCH   5  26
BRANCH   1  28
HETATM   28  C4  UNL     1      -1.040  52.205 -24.934  1.00  0.00     0.010 C 
HETATM   29  C3  UNL     1       0.092  51.728 -25.488  1.00  0.00     0.003 C 
BRANCH  29  30
HETATM   30  C2  UNL     1       0.787  52.363 -26.656  1.00  0.00     0.136 C 
HETATM   31  C1  UNL     1       0.263  51.818 -27.976  1.00  0.00     0.043 C 
BRANCH  30  32
HETATM   32  O1  UNL     1       0.521  53.760 -26.588  1.00  0.00    -0.392 OA
HETATM   33  H5  UNL     1       1.020  54.182 -27.309  1.00  0.00     0.210 HD
ENDBRANCH  30  32
ENDBRANCH  29  30
ENDBRANCH   1  28
BRANCH   1  34
HETATM   34  O2  UNL     1      -2.664  52.658 -23.214  1.00  0.00    -0.385 OA
HETATM   35  H8  UNL     1      -3.140  53.096 -23.938  1.00  0.00     0.211 HD
ENDBRANCH   1  34
TORSDOF 12
ENDMDL
