MODEL 1
REMARK minimizedAffinity -9.40694523
REMARK  5 active torsions:
REMARK  status: ('A' for Active; 'I' for Inactive)
REMARK    1  A    between atoms: C2_2  and  C3_3 
REMARK    2  A    between atoms: C2_2  and  C25_27 
REMARK    3  A    between atoms: C3_3  and  C4_4 
REMARK    4  A    between atoms: C4_4  and  C5_5 
REMARK    5  A    between atoms: C15_15  and  O1_16 
ROOT
HETATM    1  C5  UNL     1      -1.002  50.337 -18.534  1.00  0.00    -0.023 C 
HETATM    2  C6  UNL     1      -1.426  49.759 -19.674  1.00  0.00    -0.075 C 
HETATM    3  C7  UNL     1      -1.068  48.367 -20.114  1.00  0.00     0.035 C 
HETATM    4  C8  UNL     1      -1.538  48.305 -21.561  1.00  0.00     0.013 C 
HETATM    5  C9  UNL     1      -2.777  49.211 -21.594  1.00  0.00     0.033 C 
HETATM    6  C10 UNL     1      -3.292  49.573 -23.008  1.00  0.00     0.070 C 
HETATM    7  C11 UNL     1      -3.474  48.320 -23.910  1.00  0.00     0.039 C 
HETATM    8  C12 UNL     1      -3.150  48.584 -25.379  1.00  0.00     0.009 C 
HETATM    9  C13 UNL     1      -3.700  49.925 -25.885  1.00  0.00    -0.001 C 
HETATM   10  C14 UNL     1      -3.047  50.288 -27.235  1.00  0.00     0.037 C 
HETATM   11  C15 UNL     1      -1.805  51.153 -27.060  1.00  0.00     0.118 C 
HETATM   12  C16 UNL     1      -2.130  52.481 -26.375  1.00  0.00     0.032 C 
HETATM   13  C17 UNL     1      -3.389  52.421 -25.506  1.00  0.00     0.015 C 
HETATM   14  C18 UNL     1      -3.580  51.065 -24.810  1.00  0.00    -0.009 C 
HETATM   15  C19 UNL     1      -4.855  51.062 -23.944  1.00  0.00     0.179 C 
HETATM   16  O2  UNL     1      -4.634  50.123 -22.876  1.00  0.00    -0.379 OA
HETATM   17  C20 UNL     1      -2.531  50.700 -23.730  1.00  0.00     0.032 C 
HETATM   18  C21 UNL     1      -2.178  51.879 -22.804  1.00  0.00     0.009 C 
HETATM   19  C22 UNL     1      -1.486  51.423 -21.529  1.00  0.00     0.014 C 
HETATM   20  C23 UNL     1      -2.333  50.420 -20.719  1.00  0.00    -0.014 C 
HETATM   21  C24 UNL     1      -3.544  51.109 -20.066  1.00  0.00     0.020 C 
ENDROOT
BRANCH   1  22
HETATM   22  C4  UNL     1      -0.132  49.700 -17.480  1.00  0.00     0.031 C 
BRANCH  22  23
HETATM   23  C3  UNL     1       0.166  50.692 -16.343  1.00  0.00     0.037 C 
BRANCH  23  24
HETATM   24  C2  UNL     1       1.185  51.791 -16.624  1.00  0.00    -0.086 C 
HETATM   25  C1  UNL     1       1.175  52.555 -17.732  1.00  0.00     0.014 C 
BRANCH  24  26
HETATM   26  C25 UNL     1       2.274  52.010 -15.573  1.00  0.00     0.005 C 
HETATM   27  C26 UNL     1       2.385  50.831 -14.602  1.00  0.00     0.014 C 
HETATM   28  C27 UNL     1       3.636  52.323 -16.201  1.00  0.00     0.014 C 
ENDBRANCH  24  26
ENDBRANCH  23  24
ENDBRANCH  22  23
ENDBRANCH   1  22
BRANCH  11  29
HETATM   29  O1  UNL     1      -1.201  51.393 -28.327  1.00  0.00    -0.396 OA
HETATM   30  H21 UNL     1      -1.823  51.913 -28.865  1.00  0.00     0.210 HD
ENDBRANCH  11  29
TORSDOF 5
ENDMDL
MODEL 2
REMARK minimizedAffinity -9.11404037
REMARK  5 active torsions:
REMARK  status: ('A' for Active; 'I' for Inactive)
REMARK    1  A    between atoms: C2_2  and  C3_3 
REMARK    2  A    between atoms: C2_2  and  C25_27 
REMARK    3  A    between atoms: C3_3  and  C4_4 
REMARK    4  A    between atoms: C4_4  and  C5_5 
REMARK    5  A    between atoms: C15_15  and  O1_16 
ROOT
HETATM    1  C5  UNL     1      -0.055  50.385 -17.438  1.00  0.00    -0.023 C 
HETATM    2  C6  UNL     1      -0.650  49.943 -18.562  1.00  0.00    -0.075 C 
HETATM    3  C7  UNL     1      -0.838  48.495 -18.920  1.00  0.00     0.035 C 
HETATM    4  C8  UNL     1      -1.276  48.529 -20.379  1.00  0.00     0.013 C 
HETATM    5  C9  UNL     1      -2.080  49.832 -20.500  1.00  0.00     0.033 C 
HETATM    6  C10 UNL     1      -2.399  50.276 -21.948  1.00  0.00     0.070 C 
HETATM    7  C11 UNL     1      -3.028  49.133 -22.793  1.00  0.00     0.039 C 
HETATM    8  C12 UNL     1      -2.606  49.168 -24.261  1.00  0.00     0.009 C 
HETATM    9  C13 UNL     1      -2.601  50.585 -24.852  1.00  0.00    -0.001 C 
HETATM   10  C14 UNL     1      -1.840  50.594 -26.194  1.00  0.00     0.037 C 
HETATM   11  C15 UNL     1      -0.365  50.936 -26.017  1.00  0.00     0.118 C 
HETATM   12  C16 UNL     1      -0.174  52.326 -25.412  1.00  0.00     0.032 C 
HETATM   13  C17 UNL     1      -1.375  52.797 -24.586  1.00  0.00     0.015 C 
HETATM   14  C18 UNL     1      -2.075  51.657 -23.831  1.00  0.00    -0.009 C 
HETATM   15  C19 UNL     1      -3.269  52.186 -23.012  1.00  0.00     0.179 C 
HETATM   16  O2  UNL     1      -3.434  51.299 -21.892  1.00  0.00    -0.379 OA
HETATM   17  C20 UNL     1      -1.257  50.988 -22.698  1.00  0.00     0.032 C 
HETATM   18  C21 UNL     1      -0.498  52.000 -21.819  1.00  0.00     0.009 C 
HETATM   19  C22 UNL     1      -0.049  51.394 -20.499  1.00  0.00     0.014 C 
HETATM   20  C23 UNL     1      -1.224  50.834 -19.671  1.00  0.00    -0.014 C 
HETATM   21  C24 UNL     1      -2.094  51.966 -19.097  1.00  0.00     0.020 C 
ENDROOT
BRANCH   1  22
HETATM   22  C4  UNL     1       0.493  49.531 -16.324  1.00  0.00     0.031 C 
BRANCH  22  23
HETATM   23  C3  UNL     1       1.071  50.405 -15.197  1.00  0.00     0.037 C 
BRANCH  23  24
HETATM   24  C2  UNL     1       1.810  51.674 -15.606  1.00  0.00    -0.086 C 
HETATM   25  C1  UNL     1       1.296  52.608 -16.427  1.00  0.00     0.014 C 
BRANCH  24  26
HETATM   26  C25 UNL     1       3.219  51.866 -15.043  1.00  0.00     0.005 C 
HETATM   27  C26 UNL     1       3.704  50.637 -14.270  1.00  0.00     0.014 C 
HETATM   28  C27 UNL     1       4.231  52.258 -16.124  1.00  0.00     0.014 C 
ENDBRANCH  24  26
ENDBRANCH  23  24
ENDBRANCH  22  23
ENDBRANCH   1  22
BRANCH  11  29
HETATM   29  O1  UNL     1       0.302  50.856 -27.272  1.00  0.00    -0.396 OA
HETATM   30  H21 UNL     1      -0.069  51.538 -27.857  1.00  0.00     0.210 HD
ENDBRANCH  11  29
TORSDOF 5
ENDMDL
MODEL 3
REMARK minimizedAffinity -9.0165062
REMARK  5 active torsions:
REMARK  status: ('A' for Active; 'I' for Inactive)
REMARK    1  A    between atoms: C2_2  and  C3_3 
REMARK    2  A    between atoms: C2_2  and  C25_27 
REMARK    3  A    between atoms: C3_3  and  C4_4 
REMARK    4  A    between atoms: C4_4  and  C5_5 
REMARK    5  A    between atoms: C15_15  and  O1_16 
ROOT
HETATM    1  C5  UNL     1      -1.051  51.143 -24.262  1.00  0.00    -0.023 C 
HETATM    2  C6  UNL     1      -0.620  51.511 -23.041  1.00  0.00    -0.075 C 
HETATM    3  C7  UNL     1       0.676  52.221 -22.767  1.00  0.00     0.035 C 
HETATM    4  C8  UNL     1       0.828  52.142 -21.254  1.00  0.00     0.013 C 
HETATM    5  C9  UNL     1      -0.613  52.190 -20.727  1.00  0.00     0.033 C 
HETATM    6  C10 UNL     1      -0.781  51.828 -19.232  1.00  0.00     0.070 C 
HETATM    7  C11 UNL     1       0.190  52.626 -18.317  1.00  0.00     0.039 C 
HETATM    8  C12 UNL     1       0.682  51.822 -17.115  1.00  0.00     0.009 C 
HETATM    9  C13 UNL     1      -0.429  50.999 -16.446  1.00  0.00    -0.001 C 
HETATM   10  C14 UNL     1       0.189  49.959 -15.489  1.00  0.00     0.037 C 
HETATM   11  C15 UNL     1       0.424  48.617 -16.172  1.00  0.00     0.118 C 
HETATM   12  C16 UNL     1      -0.881  48.003 -16.681  1.00  0.00     0.032 C 
HETATM   13  C17 UNL     1      -1.971  49.042 -16.955  1.00  0.00     0.015 C 
HETATM   14  C18 UNL     1      -1.420  50.371 -17.492  1.00  0.00    -0.009 C 
HETATM   15  C19 UNL     1      -2.558  51.377 -17.757  1.00  0.00     0.179 C 
HETATM   16  O2  UNL     1      -2.109  52.250 -18.809  1.00  0.00    -0.379 OA
HETATM   17  C20 UNL     1      -0.781  50.324 -18.902  1.00  0.00     0.032 C 
HETATM   18  C21 UNL     1      -1.593  49.486 -19.908  1.00  0.00     0.009 C 
HETATM   19  C22 UNL     1      -1.199  49.774 -21.348  1.00  0.00     0.014 C 
HETATM   20  C23 UNL     1      -1.367  51.261 -21.725  1.00  0.00    -0.014 C 
HETATM   21  C24 UNL     1      -2.852  51.647 -21.831  1.00  0.00     0.020 C 
ENDROOT
BRANCH   1  22
HETATM   22  C4  UNL     1      -0.349  51.399 -25.571  1.00  0.00     0.031 C 
BRANCH  22  23
HETATM   23  C3  UNL     1      -0.734  50.338 -26.616  1.00  0.00     0.037 C 
BRANCH  23  24
HETATM   24  C2  UNL     1      -2.217  50.154 -26.912  1.00  0.00    -0.086 C 
HETATM   25  C1  UNL     1      -3.013  51.131 -27.386  1.00  0.00     0.014 C 
BRANCH  24  26
HETATM   26  C25 UNL     1      -2.812  48.772 -26.637  1.00  0.00     0.005 C 
HETATM   27  C26 UNL     1      -3.248  48.612 -25.178  1.00  0.00     0.014 C 
HETATM   28  C27 UNL     1      -3.965  48.434 -27.586  1.00  0.00     0.014 C 
ENDBRANCH  24  26
ENDBRANCH  23  24
ENDBRANCH  22  23
ENDBRANCH   1  22
BRANCH  11  29
HETATM   29  O1  UNL     1       1.063  47.721 -15.269  1.00  0.00    -0.396 OA
HETATM   30  H21 UNL     1       0.454  47.550 -14.530  1.00  0.00     0.210 HD
ENDBRANCH  11  29
TORSDOF 5
ENDMDL
MODEL 4
REMARK minimizedAffinity -8.86859226
REMARK  5 active torsions:
REMARK  status: ('A' for Active; 'I' for Inactive)
REMARK    1  A    between atoms: C2_2  and  C3_3 
REMARK    2  A    between atoms: C2_2  and  C25_27 
REMARK    3  A    between atoms: C3_3  and  C4_4 
REMARK    4  A    between atoms: C4_4  and  C5_5 
REMARK    5  A    between atoms: C15_15  and  O1_16 
ROOT
HETATM    1  C5  UNL     1      -1.868  50.541 -26.457  1.00  0.00    -0.023 C 
HETATM    2  C6  UNL     1      -2.917  50.639 -25.618  1.00  0.00    -0.075 C 
HETATM    3  C7  UNL     1      -3.597  51.925 -25.241  1.00  0.00     0.035 C 
HETATM    4  C8  UNL     1      -4.497  51.539 -24.075  1.00  0.00     0.013 C 
HETATM    5  C9  UNL     1      -4.916  50.095 -24.385  1.00  0.00     0.033 C 
HETATM    6  C10 UNL     1      -5.597  49.342 -23.217  1.00  0.00     0.070 C 
HETATM    7  C11 UNL     1      -6.764  50.156 -22.589  1.00  0.00     0.039 C 
HETATM    8  C12 UNL     1      -6.897  49.951 -21.081  1.00  0.00     0.009 C 
HETATM    9  C13 UNL     1      -6.727  48.485 -20.655  1.00  0.00    -0.001 C 
HETATM   10  C14 UNL     1      -6.518  48.401 -19.129  1.00  0.00     0.037 C 
HETATM   11  C15 UNL     1      -5.042  48.419 -18.748  1.00  0.00     0.118 C 
HETATM   12  C16 UNL     1      -4.287  47.232 -19.347  1.00  0.00     0.032 C 
HETATM   13  C17 UNL     1      -4.946  46.670 -20.609  1.00  0.00     0.015 C 
HETATM   14  C18 UNL     1      -5.608  47.750 -21.478  1.00  0.00    -0.009 C 
HETATM   15  C19 UNL     1      -6.249  47.133 -22.738  1.00  0.00     0.179 C 
HETATM   16  O2  UNL     1      -6.235  48.149 -23.756  1.00  0.00    -0.379 OA
HETATM   17  C20 UNL     1      -4.651  48.769 -22.146  1.00  0.00     0.032 C 
HETATM   18  C21 UNL     1      -3.391  48.115 -22.743  1.00  0.00     0.009 C 
HETATM   19  C22 UNL     1      -2.681  49.028 -23.729  1.00  0.00     0.014 C 
HETATM   20  C23 UNL     1      -3.589  49.463 -24.899  1.00  0.00    -0.014 C 
HETATM   21  C24 UNL     1      -3.865  48.292 -25.857  1.00  0.00     0.020 C 
ENDROOT
BRANCH   1  22
HETATM   22  C4  UNL     1      -1.208  51.677 -27.196  1.00  0.00     0.031 C 
BRANCH  22  23
HETATM   23  C3  UNL     1       0.268  51.354 -27.490  1.00  0.00     0.037 C 
BRANCH  23  24
HETATM   24  C2  UNL     1       1.292  51.737 -26.429  1.00  0.00    -0.086 C 
HETATM   25  C1  UNL     1       2.516  51.186 -26.336  1.00  0.00     0.014 C 
BRANCH  24  26
HETATM   26  C25 UNL     1       0.875  52.808 -25.419  1.00  0.00     0.005 C 
HETATM   27  C26 UNL     1       0.067  53.933 -26.071  1.00  0.00     0.014 C 
HETATM   28  C27 UNL     1       0.117  52.219 -24.225  1.00  0.00     0.014 C 
ENDBRANCH  24  26
ENDBRANCH  23  24
ENDBRANCH  22  23
ENDBRANCH   1  22
BRANCH  11  29
HETATM   29  O1  UNL     1      -4.909  48.415 -17.331  1.00  0.00    -0.396 OA
HETATM   30  H21 UNL     1      -5.268  47.576 -16.995  1.00  0.00     0.210 HD
ENDBRANCH  11  29
TORSDOF 5
ENDMDL
MODEL 5
REMARK minimizedAffinity -8.83293343
REMARK  5 active torsions:
REMARK  status: ('A' for Active; 'I' for Inactive)
REMARK    1  A    between atoms: C2_2  and  C3_3 
REMARK    2  A    between atoms: C2_2  and  C25_27 
REMARK    3  A    between atoms: C3_3  and  C4_4 
REMARK    4  A    between atoms: C4_4  and  C5_5 
REMARK    5  A    between atoms: C15_15  and  O1_16 
ROOT
HETATM    1  C5  UNL     1      -1.125  52.476 -24.441  1.00  0.00    -0.023 C 
HETATM    2  C6  UNL     1      -1.236  51.880 -23.239  1.00  0.00    -0.075 C 
HETATM    3  C7  UNL     1      -0.104  51.688 -22.270  1.00  0.00     0.035 C 
HETATM    4  C8  UNL     1      -0.666  50.728 -21.230  1.00  0.00     0.013 C 
HETATM    5  C9  UNL     1      -2.158  51.080 -21.160  1.00  0.00     0.033 C 
HETATM    6  C10 UNL     1      -3.041  50.062 -20.398  1.00  0.00     0.070 C 
HETATM    7  C11 UNL     1      -2.467  49.715 -18.995  1.00  0.00     0.039 C 
HETATM    8  C12 UNL     1      -2.714  48.264 -18.586  1.00  0.00     0.009 C 
HETATM    9  C13 UNL     1      -4.128  47.774 -18.930  1.00  0.00    -0.001 C 
HETATM   10  C14 UNL     1      -4.193  46.237 -18.824  1.00  0.00     0.037 C 
HETATM   11  C15 UNL     1      -3.906  45.555 -20.156  1.00  0.00     0.118 C 
HETATM   12  C16 UNL     1      -4.924  45.950 -21.226  1.00  0.00     0.032 C 
HETATM   13  C17 UNL     1      -5.581  47.308 -20.964  1.00  0.00     0.015 C 
HETATM   14  C18 UNL     1      -4.631  48.324 -20.313  1.00  0.00    -0.009 C 
HETATM   15  C19 UNL     1      -5.340  49.674 -20.079  1.00  0.00     0.179 C 
HETATM   16  O2  UNL     1      -4.324  50.692 -20.120  1.00  0.00    -0.379 OA
HETATM   17  C20 UNL     1      -3.443  48.802 -21.185  1.00  0.00     0.032 C 
HETATM   18  C21 UNL     1      -3.843  49.104 -22.642  1.00  0.00     0.009 C 
HETATM   19  C22 UNL     1      -2.801  49.942 -23.364  1.00  0.00     0.014 C 
HETATM   20  C23 UNL     1      -2.526  51.287 -22.659  1.00  0.00    -0.014 C 
HETATM   21  C24 UNL     1      -3.715  52.252 -22.812  1.00  0.00     0.020 C 
ENDROOT
BRANCH   1  22
HETATM   22  C4  UNL     1       0.123  53.089 -25.022  1.00  0.00     0.031 C 
BRANCH  22  23
HETATM   23  C3  UNL     1       1.096  51.998 -25.502  1.00  0.00     0.037 C 
BRANCH  23  24
HETATM   24  C2  UNL     1       1.408  51.946 -26.993  1.00  0.00    -0.086 C 
HETATM   25  C1  UNL     1       2.647  51.786 -27.494  1.00  0.00     0.014 C 
BRANCH  24  26
HETATM   26  C25 UNL     1       0.226  52.096 -27.953  1.00  0.00     0.005 C 
HETATM   27  C26 UNL     1      -0.945  51.186 -27.572  1.00  0.00     0.014 C 
HETATM   28  C27 UNL     1      -0.239  53.550 -28.082  1.00  0.00     0.014 C 
ENDBRANCH  24  26
ENDBRANCH  23  24
ENDBRANCH  22  23
ENDBRANCH   1  22
BRANCH  11  29
HETATM   29  O1  UNL     1      -3.905  44.141 -19.985  1.00  0.00    -0.396 OA
HETATM   30  H21 UNL     1      -4.800  43.867 -19.724  1.00  0.00     0.210 HD
ENDBRANCH  11  29
TORSDOF 5
ENDMDL
MODEL 6
REMARK minimizedAffinity -8.49548149
REMARK  5 active torsions:
REMARK  status: ('A' for Active; 'I' for Inactive)
REMARK    1  A    between atoms: C2_2  and  C3_3 
REMARK    2  A    between atoms: C2_2  and  C25_27 
REMARK    3  A    between atoms: C3_3  and  C4_4 
REMARK    4  A    between atoms: C4_4  and  C5_5 
REMARK    5  A    between atoms: C15_15  and  O1_16 
ROOT
HETATM    1  C5  UNL     1      -3.957  49.812 -19.652  1.00  0.00    -0.023 C 
HETATM    2  C6  UNL     1      -3.613  49.551 -20.928  1.00  0.00    -0.075 C 
HETATM    3  C7  UNL     1      -3.367  48.178 -21.486  1.00  0.00     0.035 C 
HETATM    4  C8  UNL     1      -2.735  48.439 -22.846  1.00  0.00     0.013 C 
HETATM    5  C9  UNL     1      -3.388  49.745 -23.320  1.00  0.00     0.033 C 
HETATM    6  C10 UNL     1      -2.717  50.411 -24.546  1.00  0.00     0.070 C 
HETATM    7  C11 UNL     1      -2.510  49.414 -25.721  1.00  0.00     0.039 C 
HETATM    8  C12 UNL     1      -1.232  49.678 -26.515  1.00  0.00     0.009 C 
HETATM    9  C13 UNL     1      -0.985  51.170 -26.781  1.00  0.00    -0.001 C 
HETATM   10  C14 UNL     1       0.465  51.387 -27.259  1.00  0.00     0.037 C 
HETATM   11  C15 UNL     1       1.412  51.696 -26.105  1.00  0.00     0.118 C 
HETATM   12  C16 UNL     1       1.010  52.975 -25.369  1.00  0.00     0.032 C 
HETATM   13  C17 UNL     1      -0.476  53.312 -25.508  1.00  0.00     0.015 C 
HETATM   14  C18 UNL     1      -1.377  52.068 -25.553  1.00  0.00    -0.009 C 
HETATM   15  C19 UNL     1      -2.862  52.464 -25.686  1.00  0.00     0.179 C 
HETATM   16  O2  UNL     1      -3.632  51.413 -25.076  1.00  0.00    -0.379 OA
HETATM   17  C20 UNL     1      -1.447  51.230 -24.252  1.00  0.00     0.032 C 
HETATM   18  C21 UNL     1      -1.566  52.092 -22.981  1.00  0.00     0.009 C 
HETATM   19  C22 UNL     1      -2.039  51.287 -21.782  1.00  0.00     0.014 C 
HETATM   20  C23 UNL     1      -3.402  50.605 -22.022  1.00  0.00    -0.014 C 
HETATM   21  C24 UNL     1      -4.545  51.634 -22.048  1.00  0.00     0.020 C 
ENDROOT
BRANCH   1  22
HETATM   22  C4  UNL     1      -4.195  48.794 -18.566  1.00  0.00     0.031 C 
BRANCH  22  23
HETATM   23  C3  UNL     1      -2.894  48.496 -17.800  1.00  0.00     0.037 C 
BRANCH  23  24
HETATM   24  C2  UNL     1      -2.109  49.688 -17.267  1.00  0.00    -0.086 C 
HETATM   25  C1  UNL     1      -2.624  50.615 -16.439  1.00  0.00     0.014 C 
BRANCH  24  26
HETATM   26  C25 UNL     1      -0.654  49.819 -17.724  1.00  0.00     0.005 C 
HETATM   27  C26 UNL     1      -0.414  51.101 -18.525  1.00  0.00     0.014 C 
HETATM   28  C27 UNL     1       0.334  49.716 -16.558  1.00  0.00     0.014 C 
ENDBRANCH  24  26
ENDBRANCH  23  24
ENDBRANCH  22  23
ENDBRANCH   1  22
BRANCH  11  29
HETATM   29  O1  UNL     1       2.744  51.812 -26.591  1.00  0.00    -0.396 OA
HETATM   30  H21 UNL     1       2.783  52.578 -27.189  1.00  0.00     0.210 HD
ENDBRANCH  11  29
TORSDOF 5
ENDMDL
MODEL 7
REMARK minimizedAffinity -8.4302063
REMARK  5 active torsions:
REMARK  status: ('A' for Active; 'I' for Inactive)
REMARK    1  A    between atoms: C2_2  and  C3_3 
REMARK    2  A    between atoms: C2_2  and  C25_27 
REMARK    3  A    between atoms: C3_3  and  C4_4 
REMARK    4  A    between atoms: C4_4  and  C5_5 
REMARK    5  A    between atoms: C15_15  and  O1_16 
ROOT
HETATM    1  C5  UNL     1      -1.984  50.252 -23.786  1.00  0.00    -0.023 C 
HETATM    2  C6  UNL     1      -1.390  50.752 -22.686  1.00  0.00    -0.075 C 
HETATM    3  C7  UNL     1      -0.084  51.495 -22.680  1.00  0.00     0.035 C 
HETATM    4  C8  UNL     1       0.286  51.580 -21.205  1.00  0.00     0.013 C 
HETATM    5  C9  UNL     1      -1.065  51.676 -20.483  1.00  0.00     0.033 C 
HETATM    6  C10 UNL     1      -1.007  51.475 -18.949  1.00  0.00     0.070 C 
HETATM    7  C11 UNL     1       0.068  52.373 -18.275  1.00  0.00     0.039 C 
HETATM    8  C12 UNL     1       0.745  51.706 -17.079  1.00  0.00     0.009 C 
HETATM    9  C13 UNL     1      -0.239  50.953 -16.173  1.00  0.00    -0.001 C 
HETATM   10  C14 UNL     1       0.533  50.026 -15.211  1.00  0.00     0.037 C 
HETATM   11  C15 UNL     1       0.696  48.619 -15.776  1.00  0.00     0.118 C 
HETATM   12  C16 UNL     1      -0.655  47.946 -16.022  1.00  0.00     0.032 C 
HETATM   13  C17 UNL     1      -1.796  48.943 -16.241  1.00  0.00     0.015 C 
HETATM   14  C18 UNL     1      -1.357  50.211 -16.990  1.00  0.00    -0.009 C 
HETATM   15  C19 UNL     1      -2.543  51.175 -17.192  1.00  0.00     0.179 C 
HETATM   16  O2  UNL     1      -2.269  51.933 -18.384  1.00  0.00    -0.379 OA
HETATM   17  C20 UNL     1      -0.927  50.015 -18.466  1.00  0.00     0.032 C 
HETATM   18  C21 UNL     1      -1.857  49.070 -19.249  1.00  0.00     0.009 C 
HETATM   19  C22 UNL     1      -1.681  49.204 -20.753  1.00  0.00     0.014 C 
HETATM   20  C23 UNL     1      -1.934  50.640 -21.256  1.00  0.00    -0.014 C 
HETATM   21  C24 UNL     1      -3.427  51.004 -21.185  1.00  0.00     0.020 C 
ENDROOT
BRANCH   1  22
HETATM   22  C4  UNL     1      -1.484  50.370 -25.202  1.00  0.00     0.031 C 
BRANCH  22  23
HETATM   23  C3  UNL     1      -1.516  51.835 -25.674  1.00  0.00     0.037 C 
BRANCH  23  24
HETATM   24  C2  UNL     1      -0.207  52.437 -26.170  1.00  0.00    -0.086 C 
HETATM   25  C1  UNL     1       0.122  53.735 -26.027  1.00  0.00     0.014 C 
BRANCH  24  26
HETATM   26  C25 UNL     1       0.766  51.492 -26.877  1.00  0.00     0.005 C 
HETATM   27  C26 UNL     1       0.819  51.741 -28.387  1.00  0.00     0.014 C 
HETATM   28  C27 UNL     1       2.172  51.543 -26.271  1.00  0.00     0.014 C 
ENDBRANCH  24  26
ENDBRANCH  23  24
ENDBRANCH  22  23
ENDBRANCH   1  22
BRANCH  11  29
HETATM   29  O1  UNL     1       1.477  47.829 -14.886  1.00  0.00    -0.396 OA
HETATM   30  H21 UNL     1       0.985  47.735 -14.053  1.00  0.00     0.210 HD
ENDBRANCH  11  29
TORSDOF 5
ENDMDL
MODEL 8
REMARK minimizedAffinity -8.42824936
REMARK  5 active torsions:
REMARK  status: ('A' for Active; 'I' for Inactive)
REMARK    1  A    between atoms: C2_2  and  C3_3 
REMARK    2  A    between atoms: C2_2  and  C25_27 
REMARK    3  A    between atoms: C3_3  and  C4_4 
REMARK    4  A    between atoms: C4_4  and  C5_5 
REMARK    5  A    between atoms: C15_15  and  O1_16 
ROOT
HETATM    1  C5  UNL     1      -2.924  52.189 -25.990  1.00  0.00    -0.023 C 
HETATM    2  C6  UNL     1      -2.957  51.089 -25.214  1.00  0.00    -0.075 C 
HETATM    3  C7  UNL     1      -2.389  49.752 -25.597  1.00  0.00     0.035 C 
HETATM    4  C8  UNL     1      -2.932  48.802 -24.538  1.00  0.00     0.013 C 
HETATM    5  C9  UNL     1      -3.023  49.663 -23.271  1.00  0.00     0.033 C 
HETATM    6  C10 UNL     1      -3.824  49.036 -22.104  1.00  0.00     0.070 C 
HETATM    7  C11 UNL     1      -3.363  47.587 -21.781  1.00  0.00     0.039 C 
HETATM    8  C12 UNL     1      -4.507  46.677 -21.335  1.00  0.00     0.009 C 
HETATM    9  C13 UNL     1      -5.475  47.362 -20.361  1.00  0.00    -0.001 C 
HETATM   10  C14 UNL     1      -6.770  46.533 -20.235  1.00  0.00     0.037 C 
HETATM   11  C15 UNL     1      -7.841  46.986 -21.220  1.00  0.00     0.118 C 
HETATM   12  C16 UNL     1      -8.246  48.442 -20.989  1.00  0.00     0.032 C 
HETATM   13  C17 UNL     1      -7.153  49.272 -20.309  1.00  0.00     0.015 C 
HETATM   14  C18 UNL     1      -5.734  48.867 -20.732  1.00  0.00    -0.009 C 
HETATM   15  C19 UNL     1      -4.675  49.738 -20.026  1.00  0.00     0.179 C 
HETATM   16  O2  UNL     1      -3.529  49.790 -20.894  1.00  0.00    -0.379 OA
HETATM   17  C20 UNL     1      -5.356  49.146 -22.209  1.00  0.00     0.032 C 
HETATM   18  C21 UNL     1      -5.830  50.525 -22.705  1.00  0.00     0.009 C 
HETATM   19  C22 UNL     1      -5.120  50.953 -23.980  1.00  0.00     0.014 C 
HETATM   20  C23 UNL     1      -3.586  51.008 -23.817  1.00  0.00    -0.014 C 
HETATM   21  C24 UNL     1      -3.160  52.191 -22.931  1.00  0.00     0.020 C 
ENDROOT
BRANCH   1  22
HETATM   22  C4  UNL     1      -2.290  52.301 -27.352  1.00  0.00     0.031 C 
BRANCH  22  23
HETATM   23  C3  UNL     1      -0.904  52.963 -27.259  1.00  0.00     0.037 C 
BRANCH  23  24
HETATM   24  C2  UNL     1       0.314  52.057 -27.402  1.00  0.00    -0.086 C 
HETATM   25  C1  UNL     1       0.878  51.742 -28.583  1.00  0.00     0.014 C 
BRANCH  24  26
HETATM   26  C25 UNL     1       0.903  51.481 -26.113  1.00  0.00     0.005 C 
HETATM   27  C26 UNL     1       2.402  51.196 -26.241  1.00  0.00     0.014 C 
HETATM   28  C27 UNL     1       0.623  52.368 -24.897  1.00  0.00     0.014 C 
ENDBRANCH  24  26
ENDBRANCH  23  24
ENDBRANCH  22  23
ENDBRANCH   1  22
BRANCH  11  29
HETATM   29  O1  UNL     1      -8.983  46.142 -21.114  1.00  0.00    -0.396 OA
HETATM   30  H21 UNL     1      -9.362  46.255 -20.225  1.00  0.00     0.210 HD
ENDBRANCH  11  29
TORSDOF 5
ENDMDL
MODEL 9
REMARK minimizedAffinity -8.42789555
REMARK  5 active torsions:
REMARK  status: ('A' for Active; 'I' for Inactive)
REMARK    1  A    between atoms: C2_2  and  C3_3 
REMARK    2  A    between atoms: C2_2  and  C25_27 
REMARK    3  A    between atoms: C3_3  and  C4_4 
REMARK    4  A    between atoms: C4_4  and  C5_5 
REMARK    5  A    between atoms: C15_15  and  O1_16 
ROOT
HETATM    1  C5  UNL     1      -4.909  48.120 -22.655  1.00  0.00    -0.023 C 
HETATM    2  C6  UNL     1      -4.468  48.709 -23.782  1.00  0.00    -0.075 C 
HETATM    3  C7  UNL     1      -4.715  48.195 -25.172  1.00  0.00     0.035 C 
HETATM    4  C8  UNL     1      -3.784  49.026 -26.045  1.00  0.00     0.013 C 
HETATM    5  C9  UNL     1      -3.729  50.391 -25.344  1.00  0.00     0.033 C 
HETATM    6  C10 UNL     1      -2.621  51.347 -25.848  1.00  0.00     0.070 C 
HETATM    7  C11 UNL     1      -2.627  51.496 -27.396  1.00  0.00     0.039 C 
HETATM    8  C12 UNL     1      -1.229  51.662 -27.990  1.00  0.00     0.009 C 
HETATM    9  C13 UNL     1      -0.337  52.610 -27.175  1.00  0.00    -0.001 C 
HETATM   10  C14 UNL     1       1.134  52.456 -27.613  1.00  0.00     0.037 C 
HETATM   11  C15 UNL     1       1.882  51.433 -26.767  1.00  0.00     0.118 C 
HETATM   12  C16 UNL     1       1.918  51.834 -25.292  1.00  0.00     0.032 C 
HETATM   13  C17 UNL     1       0.764  52.756 -24.888  1.00  0.00     0.015 C 
HETATM   14  C18 UNL     1      -0.546  52.445 -25.627  1.00  0.00    -0.009 C 
HETATM   15  C19 UNL     1      -1.675  53.394 -25.178  1.00  0.00     0.179 C 
HETATM   16  O2  UNL     1      -2.914  52.684 -25.352  1.00  0.00    -0.379 OA
HETATM   17  C20 UNL     1      -1.207  51.082 -25.299  1.00  0.00     0.032 C 
HETATM   18  C21 UNL     1      -1.197  50.750 -23.795  1.00  0.00     0.009 C 
HETATM   19  C22 UNL     1      -2.182  49.647 -23.442  1.00  0.00     0.014 C 
HETATM   20  C23 UNL     1      -3.632  49.994 -23.842  1.00  0.00    -0.014 C 
HETATM   21  C24 UNL     1      -4.214  51.094 -22.937  1.00  0.00     0.020 C 
ENDROOT
BRANCH   1  22
HETATM   22  C4  UNL     1      -5.753  46.873 -22.572  1.00  0.00     0.031 C 
BRANCH  22  23
HETATM   23  C3  UNL     1      -7.234  47.228 -22.357  1.00  0.00     0.037 C 
BRANCH  23  24
HETATM   24  C2  UNL     1      -7.577  48.697 -22.140  1.00  0.00    -0.086 C 
HETATM   25  C1  UNL     1      -7.753  49.580 -23.141  1.00  0.00     0.014 C 
BRANCH  24  26
HETATM   26  C25 UNL     1      -7.714  49.169 -20.692  1.00  0.00     0.005 C 
HETATM   27  C26 UNL     1      -7.972  48.007 -19.729  1.00  0.00     0.014 C 
HETATM   28  C27 UNL     1      -6.511  49.997 -20.232  1.00  0.00     0.014 C 
ENDBRANCH  24  26
ENDBRANCH  23  24
ENDBRANCH  22  23
ENDBRANCH   1  22
BRANCH  11  29
HETATM   29  O1  UNL     1       3.208  51.275 -27.260  1.00  0.00    -0.396 OA
HETATM   30  H21 UNL     1       3.676  52.120 -27.146  1.00  0.00     0.210 HD
ENDBRANCH  11  29
TORSDOF 5
ENDMDL
