MODEL 1
REMARK minimizedAffinity -9.35501575
REMARK  6 active torsions:
REMARK  status: ('A' for Active; 'I' for Inactive)
REMARK    1  A    between atoms: C2_2  and  C3_3 
REMARK    2  A    between atoms: C4_5  and  C5_6 
REMARK    3  A    between atoms: C5_6  and  C6_7 
REMARK    4  A    between atoms: C6_7  and  C7_8 
REMARK    5  A    between atoms: C7_8  and  C9_10 
REMARK    6  A    between atoms: C30_32  and  O3_33 
ROOT
HETATM    1  C9  UNL     1      -0.642  50.138 -20.687  1.00  0.00    -0.002 C 
HETATM    2  C10 UNL     1      -0.986  49.352 -19.390  1.00  0.00     0.007 C 
HETATM    3  C11 UNL     1      -2.267  48.541 -19.665  1.00  0.00     0.015 C 
HETATM    4  C12 UNL     1      -2.440  48.574 -21.194  1.00  0.00    -0.010 C 
HETATM    5  C13 UNL     1      -1.514  47.463 -21.786  1.00  0.00     0.021 C 
HETATM    6  C14 UNL     1      -3.825  48.324 -21.794  1.00  0.00    -0.039 C 
HETATM    7  C15 UNL     1      -4.136  48.860 -23.007  1.00  0.00    -0.066 C 
HETATM    8  C16 UNL     1      -3.148  49.775 -23.746  1.00  0.00     0.036 C 
HETATM    9  C17 UNL     1      -1.843  50.174 -23.026  1.00  0.00     0.015 C 
HETATM   10  C18 UNL     1      -1.970  50.048 -21.503  1.00  0.00    -0.029 C 
HETATM   11  C19 UNL     1      -2.967  51.133 -20.994  1.00  0.00     0.016 C 
HETATM   12  C20 UNL     1      -5.499  48.600 -23.707  1.00  0.00    -0.015 C 
HETATM   13  C21 UNL     1      -6.330  49.900 -23.583  1.00  0.00     0.020 C 
HETATM   14  C22 UNL     1      -5.275  48.263 -25.204  1.00  0.00     0.021 C 
HETATM   15  C23 UNL     1      -6.470  47.671 -25.945  1.00  0.00     0.080 C 
HETATM   16  C24 UNL     1      -7.732  47.533 -25.129  1.00  0.00     0.135 C 
HETATM   17  O2  UNL     1      -8.827  47.740 -25.661  1.00  0.00    -0.297 OA
HETATM   18  C25 UNL     1      -7.627  47.035 -23.684  1.00  0.00     0.018 C 
HETATM   19  C26 UNL     1      -8.796  47.641 -22.876  1.00  0.00     0.023 C 
HETATM   20  C27 UNL     1      -7.836  45.509 -23.729  1.00  0.00     0.023 C 
HETATM   21  C28 UNL     1      -6.216  47.354 -23.083  1.00  0.00     0.016 C 
HETATM   22  C29 UNL     1      -6.204  47.434 -21.549  1.00  0.00     0.043 C 
HETATM   23  C30 UNL     1      -4.777  47.457 -21.006  1.00  0.00     0.148 C 
ENDROOT
BRANCH   1  24
HETATM   24  C7  UNL     1      -0.015  51.531 -20.385  1.00  0.00    -0.014 C 
HETATM   25  C8  UNL     1      -0.567  52.164 -19.104  1.00  0.00     0.010 C 
BRANCH  24  26
HETATM   26  C6  UNL     1      -0.166  52.532 -21.562  1.00  0.00     0.008 C 
BRANCH  26  27
HETATM   27  C5  UNL     1       0.767  52.292 -22.757  1.00  0.00     0.028 C 
BRANCH  27  28
HETATM   28  C4  UNL     1       0.295  53.062 -23.960  1.00  0.00    -0.017 C 
HETATM   29  C2  UNL     1       0.622  52.859 -25.251  1.00  0.00    -0.028 C 
HETATM   30  C1  UNL     1       1.534  51.809 -25.806  1.00  0.00     0.051 C 
BRANCH  29  31
HETATM   31  C3  UNL     1       0.009  53.763 -26.275  1.00  0.00     0.265 C 
HETATM   32  O1  UNL     1       0.189  54.975 -26.317  1.00  0.00    -0.302 OA
ENDBRANCH  29  31
ENDBRANCH  27  28
ENDBRANCH  26  27
ENDBRANCH  24  26
ENDBRANCH   1  24
BRANCH  23  33
HETATM   33  O3  UNL     1      -4.266  46.127 -21.011  1.00  0.00    -0.391 OA
HETATM   34  H46 UNL     1      -4.815  45.604 -20.404  1.00  0.00     0.210 HD
ENDBRANCH  23  33
TORSDOF 6
ENDMDL
MODEL 2
REMARK minimizedAffinity -9.08685303
REMARK  6 active torsions:
REMARK  status: ('A' for Active; 'I' for Inactive)
REMARK    1  A    between atoms: C2_2  and  C3_3 
REMARK    2  A    between atoms: C4_5  and  C5_6 
REMARK    3  A    between atoms: C5_6  and  C6_7 
REMARK    4  A    between atoms: C6_7  and  C7_8 
REMARK    5  A    between atoms: C7_8  and  C9_10 
REMARK    6  A    between atoms: C30_32  and  O3_33 
ROOT
HETATM    1  C9  UNL     1      -0.539  51.659 -17.399  1.00  0.00    -0.002 C 
HETATM    2  C10 UNL     1       0.965  52.037 -17.525  1.00  0.00     0.007 C 
HETATM    3  C11 UNL     1       1.252  52.310 -19.013  1.00  0.00     0.015 C 
HETATM    4  C12 UNL     1      -0.133  52.447 -19.669  1.00  0.00    -0.010 C 
HETATM    5  C13 UNL     1      -0.621  53.910 -19.412  1.00  0.00     0.021 C 
HETATM    6  C14 UNL     1      -0.272  52.220 -21.176  1.00  0.00    -0.039 C 
HETATM    7  C15 UNL     1      -1.463  51.799 -21.682  1.00  0.00    -0.066 C 
HETATM    8  C16 UNL     1      -2.647  51.472 -20.760  1.00  0.00     0.036 C 
HETATM    9  C17 UNL     1      -2.416  51.514 -19.234  1.00  0.00     0.015 C 
HETATM   10  C18 UNL     1      -0.935  51.343 -18.876  1.00  0.00    -0.029 C 
HETATM   11  C19 UNL     1      -0.499  49.889 -19.231  1.00  0.00     0.016 C 
HETATM   12  C20 UNL     1      -1.698  51.606 -23.207  1.00  0.00    -0.015 C 
HETATM   13  C21 UNL     1      -1.720  50.082 -23.475  1.00  0.00     0.020 C 
HETATM   14  C22 UNL     1      -3.055  52.230 -23.622  1.00  0.00     0.021 C 
HETATM   15  C23 UNL     1      -3.282  52.410 -25.119  1.00  0.00     0.080 C 
HETATM   16  C24 UNL     1      -2.165  51.913 -26.006  1.00  0.00     0.135 C 
HETATM   17  O2  UNL     1      -2.436  51.376 -27.084  1.00  0.00    -0.297 OA
HETATM   18  C25 UNL     1      -0.715  52.184 -25.590  1.00  0.00     0.018 C 
HETATM   19  C26 UNL     1       0.170  51.050 -26.153  1.00  0.00     0.023 C 
HETATM   20  C27 UNL     1      -0.295  53.492 -26.288  1.00  0.00     0.023 C 
HETATM   21  C28 UNL     1      -0.602  52.357 -24.038  1.00  0.00     0.016 C 
HETATM   22  C29 UNL     1       0.800  52.054 -23.486  1.00  0.00     0.043 C 
HETATM   23  C30 UNL     1       0.936  52.511 -22.035  1.00  0.00     0.148 C 
ENDROOT
BRANCH   1  24
HETATM   24  C7  UNL     1      -0.791  50.596 -16.289  1.00  0.00    -0.014 C 
HETATM   25  C8  UNL     1      -2.219  50.042 -16.312  1.00  0.00     0.010 C 
BRANCH  24  26
HETATM   26  C6  UNL     1      -0.461  51.118 -14.865  1.00  0.00     0.008 C 
BRANCH  26  27
HETATM   27  C5  UNL     1       0.823  51.948 -14.746  1.00  0.00     0.028 C 
BRANCH  27  28
HETATM   28  C4  UNL     1       1.920  51.139 -14.109  1.00  0.00    -0.017 C 
HETATM   29  C2  UNL     1       3.239  51.180 -14.379  1.00  0.00    -0.028 C 
HETATM   30  C1  UNL     1       3.940  52.047 -15.378  1.00  0.00     0.051 C 
BRANCH  29  31
HETATM   31  C3  UNL     1       4.138  50.274 -13.595  1.00  0.00     0.265 C 
HETATM   32  O1  UNL     1       4.825  49.390 -14.094  1.00  0.00    -0.302 OA
ENDBRANCH  29  31
ENDBRANCH  27  28
ENDBRANCH  26  27
ENDBRANCH  24  26
ENDBRANCH   1  24
BRANCH  23  33
HETATM   33  O3  UNL     1       1.157  53.918 -22.019  1.00  0.00    -0.391 OA
HETATM   34  H46 UNL     1       2.001  54.083 -22.471  1.00  0.00     0.210 HD
ENDBRANCH  23  33
TORSDOF 6
ENDMDL
MODEL 3
REMARK minimizedAffinity -9.00968742
REMARK  6 active torsions:
REMARK  status: ('A' for Active; 'I' for Inactive)
REMARK    1  A    between atoms: C2_2  and  C3_3 
REMARK    2  A    between atoms: C4_5  and  C5_6 
REMARK    3  A    between atoms: C5_6  and  C6_7 
REMARK    4  A    between atoms: C6_7  and  C7_8 
REMARK    5  A    between atoms: C7_8  and  C9_10 
REMARK    6  A    between atoms: C30_32  and  O3_33 
ROOT
HETATM    1  C9  UNL     1      -0.082  50.789 -21.478  1.00  0.00    -0.002 C 
HETATM    2  C10 UNL     1      -0.054  50.673 -19.927  1.00  0.00     0.007 C 
HETATM    3  C11 UNL     1      -1.347  49.958 -19.491  1.00  0.00     0.015 C 
HETATM    4  C12 UNL     1      -1.923  49.352 -20.783  1.00  0.00    -0.010 C 
HETATM    5  C13 UNL     1      -1.170  48.006 -21.035  1.00  0.00     0.021 C 
HETATM    6  C14 UNL     1      -3.414  49.013 -20.849  1.00  0.00    -0.039 C 
HETATM    7  C15 UNL     1      -4.046  49.008 -22.055  1.00  0.00    -0.066 C 
HETATM    8  C16 UNL     1      -3.308  49.412 -23.340  1.00  0.00     0.036 C 
HETATM    9  C17 UNL     1      -1.865  49.944 -23.216  1.00  0.00     0.015 C 
HETATM   10  C18 UNL     1      -1.578  50.496 -21.814  1.00  0.00    -0.029 C 
HETATM   11  C19 UNL     1      -2.421  51.790 -21.604  1.00  0.00     0.016 C 
HETATM   12  C20 UNL     1      -5.542  48.615 -22.208  1.00  0.00    -0.015 C 
HETATM   13  C21 UNL     1      -6.332  49.920 -22.466  1.00  0.00     0.020 C 
HETATM   14  C22 UNL     1      -5.721  47.649 -23.408  1.00  0.00     0.021 C 
HETATM   15  C23 UNL     1      -7.059  46.923 -23.492  1.00  0.00     0.080 C 
HETATM   16  C24 UNL     1      -8.056  47.278 -22.414  1.00  0.00     0.135 C 
HETATM   17  O2  UNL     1      -9.256  47.349 -22.694  1.00  0.00    -0.297 OA
HETATM   18  C25 UNL     1      -7.559  47.438 -20.974  1.00  0.00     0.018 C 
HETATM   19  C26 UNL     1      -8.480  48.447 -20.253  1.00  0.00     0.023 C 
HETATM   20  C27 UNL     1      -7.746  46.069 -20.290  1.00  0.00     0.023 C 
HETATM   21  C28 UNL     1      -6.045  47.836 -20.944  1.00  0.00     0.016 C 
HETATM   22  C29 UNL     1      -5.625  48.563 -19.657  1.00  0.00     0.043 C 
HETATM   23  C30 UNL     1      -4.105  48.669 -19.551  1.00  0.00     0.148 C 
ENDROOT
BRANCH   1  24
HETATM   24  C7  UNL     1       0.578  52.105 -21.984  1.00  0.00    -0.014 C 
HETATM   25  C8  UNL     1       0.594  53.208 -20.920  1.00  0.00     0.010 C 
BRANCH  24  26
HETATM   26  C6  UNL     1      -0.073  52.649 -23.283  1.00  0.00     0.008 C 
BRANCH  26  27
HETATM   27  C5  UNL     1       0.676  52.327 -24.583  1.00  0.00     0.028 C 
BRANCH  27  28
HETATM   28  C4  UNL     1       0.034  53.024 -25.752  1.00  0.00    -0.017 C 
HETATM   29  C2  UNL     1       0.259  52.815 -27.063  1.00  0.00    -0.028 C 
HETATM   30  C1  UNL     1       1.202  51.830 -27.681  1.00  0.00     0.051 C 
BRANCH  29  31
HETATM   31  C3  UNL     1      -0.519  53.637 -28.042  1.00  0.00     0.265 C 
HETATM   32  O1  UNL     1      -1.671  54.015 -27.861  1.00  0.00    -0.302 OA
ENDBRANCH  29  31
ENDBRANCH  27  28
ENDBRANCH  26  27
ENDBRANCH  24  26
ENDBRANCH   1  24
BRANCH  23  33
HETATM   33  O3  UNL     1      -3.591  47.420 -19.098  1.00  0.00    -0.391 OA
HETATM   34  H46 UNL     1      -3.949  47.266 -18.208  1.00  0.00     0.210 HD
ENDBRANCH  23  33
TORSDOF 6
ENDMDL
MODEL 4
REMARK minimizedAffinity -8.8885088
REMARK  6 active torsions:
REMARK  status: ('A' for Active; 'I' for Inactive)
REMARK    1  A    between atoms: C2_2  and  C3_3 
REMARK    2  A    between atoms: C4_5  and  C5_6 
REMARK    3  A    between atoms: C5_6  and  C6_7 
REMARK    4  A    between atoms: C6_7  and  C7_8 
REMARK    5  A    between atoms: C7_8  and  C9_10 
REMARK    6  A    between atoms: C30_32  and  O3_33 
ROOT
HETATM    1  C9  UNL     1      -0.291  51.751 -17.126  1.00  0.00    -0.002 C 
HETATM    2  C10 UNL     1       1.202  52.151 -17.299  1.00  0.00     0.007 C 
HETATM    3  C11 UNL     1       1.441  52.417 -18.797  1.00  0.00     0.015 C 
HETATM    4  C12 UNL     1       0.034  52.528 -19.413  1.00  0.00    -0.010 C 
HETATM    5  C13 UNL     1      -0.468  53.984 -19.152  1.00  0.00     0.021 C 
HETATM    6  C14 UNL     1      -0.145  52.287 -20.913  1.00  0.00    -0.039 C 
HETATM    7  C15 UNL     1      -1.344  51.844 -21.381  1.00  0.00    -0.066 C 
HETATM    8  C16 UNL     1      -2.495  51.506 -20.421  1.00  0.00     0.036 C 
HETATM    9  C17 UNL     1      -2.220  51.563 -18.904  1.00  0.00     0.015 C 
HETATM   10  C18 UNL     1      -0.727  51.418 -18.588  1.00  0.00    -0.029 C 
HETATM   11  C19 UNL     1      -0.279  49.968 -18.946  1.00  0.00     0.016 C 
HETATM   12  C20 UNL     1      -1.621  51.635 -22.897  1.00  0.00    -0.015 C 
HETATM   13  C21 UNL     1      -1.627  50.109 -23.152  1.00  0.00     0.020 C 
HETATM   14  C22 UNL     1      -2.999  52.235 -23.276  1.00  0.00     0.021 C 
HETATM   15  C23 UNL     1      -3.273  52.400 -24.767  1.00  0.00     0.080 C 
HETATM   16  C24 UNL     1      -2.175  51.913 -25.683  1.00  0.00     0.135 C 
HETATM   17  O2  UNL     1      -2.470  51.364 -26.748  1.00  0.00    -0.297 OA
HETATM   18  C25 UNL     1      -0.718  52.209 -25.312  1.00  0.00     0.018 C 
HETATM   19  C26 UNL     1       0.167  51.085 -25.893  1.00  0.00     0.023 C 
HETATM   20  C27 UNL     1      -0.339  53.518 -26.032  1.00  0.00     0.023 C 
HETATM   21  C28 UNL     1      -0.561  52.396 -23.765  1.00  0.00     0.016 C 
HETATM   22  C29 UNL     1       0.860  52.118 -23.253  1.00  0.00     0.043 C 
HETATM   23  C30 UNL     1       1.032  52.589 -21.810  1.00  0.00     0.148 C 
ENDROOT
BRANCH   1  24
HETATM   24  C7  UNL     1      -0.494  50.694 -16.002  1.00  0.00    -0.014 C 
HETATM   25  C8  UNL     1      -0.135  49.274 -16.451  1.00  0.00     0.010 C 
BRANCH  24  26
HETATM   26  C6  UNL     1      -1.930  50.702 -15.414  1.00  0.00     0.008 C 
BRANCH  26  27
HETATM   27  C5  UNL     1      -2.019  50.619 -13.885  1.00  0.00     0.028 C 
BRANCH  27  28
HETATM   28  C4  UNL     1      -2.726  51.825 -13.329  1.00  0.00    -0.017 C 
HETATM   29  C2  UNL     1      -3.369  51.935 -12.150  1.00  0.00    -0.028 C 
HETATM   30  C1  UNL     1      -3.532  50.882 -11.098  1.00  0.00     0.051 C 
BRANCH  29  31
HETATM   31  C3  UNL     1      -3.992  53.255 -11.818  1.00  0.00     0.265 C 
HETATM   32  O1  UNL     1      -3.526  54.050 -11.009  1.00  0.00    -0.302 OA
ENDBRANCH  29  31
ENDBRANCH  27  28
ENDBRANCH  26  27
ENDBRANCH  24  26
ENDBRANCH   1  24
BRANCH  23  33
HETATM   33  O3  UNL     1       1.232  54.000 -21.812  1.00  0.00    -0.391 OA
HETATM   34  H46 UNL     1       2.059  54.174 -22.290  1.00  0.00     0.210 HD
ENDBRANCH  23  33
TORSDOF 6
ENDMDL
MODEL 5
REMARK minimizedAffinity -8.88039494
REMARK  6 active torsions:
REMARK  status: ('A' for Active; 'I' for Inactive)
REMARK    1  A    between atoms: C2_2  and  C3_3 
REMARK    2  A    between atoms: C4_5  and  C5_6 
REMARK    3  A    between atoms: C5_6  and  C6_7 
REMARK    4  A    between atoms: C6_7  and  C7_8 
REMARK    5  A    between atoms: C7_8  and  C9_10 
REMARK    6  A    between atoms: C30_32  and  O3_33 
ROOT
HETATM    1  C9  UNL     1      -0.060  51.517 -20.120  1.00  0.00    -0.002 C 
HETATM    2  C10 UNL     1      -0.796  52.366 -19.044  1.00  0.00     0.007 C 
HETATM    3  C11 UNL     1      -2.082  51.611 -18.656  1.00  0.00     0.015 C 
HETATM    4  C12 UNL     1      -1.898  50.192 -19.223  1.00  0.00    -0.010 C 
HETATM    5  C13 UNL     1      -1.027  49.397 -18.197  1.00  0.00     0.021 C 
HETATM    6  C14 UNL     1      -3.133  49.326 -19.481  1.00  0.00    -0.039 C 
HETATM    7  C15 UNL     1      -3.082  48.357 -20.436  1.00  0.00    -0.066 C 
HETATM    8  C16 UNL     1      -1.835  48.171 -21.313  1.00  0.00     0.036 C 
HETATM    9  C17 UNL     1      -0.683  49.188 -21.170  1.00  0.00     0.015 C 
HETATM   10  C18 UNL     1      -1.168  50.520 -20.583  1.00  0.00    -0.029 C 
HETATM   11  C19 UNL     1      -2.092  51.218 -21.626  1.00  0.00     0.016 C 
HETATM   12  C20 UNL     1      -4.274  47.398 -20.713  1.00  0.00    -0.015 C 
HETATM   13  C21 UNL     1      -4.921  47.848 -22.045  1.00  0.00     0.020 C 
HETATM   14  C22 UNL     1      -3.767  45.939 -20.844  1.00  0.00     0.021 C 
HETATM   15  C23 UNL     1      -4.834  44.850 -20.793  1.00  0.00     0.080 C 
HETATM   16  C24 UNL     1      -6.255  45.344 -20.665  1.00  0.00     0.135 C 
HETATM   17  O2  UNL     1      -7.161  44.753 -21.261  1.00  0.00    -0.297 OA
HETATM   18  C25 UNL     1      -6.550  46.506 -19.712  1.00  0.00     0.018 C 
HETATM   19  C26 UNL     1      -7.774  47.277 -20.253  1.00  0.00     0.023 C 
HETATM   20  C27 UNL     1      -6.956  45.878 -18.364  1.00  0.00     0.023 C 
HETATM   21  C28 UNL     1      -5.282  47.402 -19.513  1.00  0.00     0.016 C 
HETATM   22  C29 UNL     1      -5.606  48.841 -19.082  1.00  0.00     0.043 C 
HETATM   23  C30 UNL     1      -4.350  49.580 -18.625  1.00  0.00     0.148 C 
ENDROOT
BRANCH   1  24
HETATM   24  C7  UNL     1       0.671  52.401 -21.172  1.00  0.00    -0.014 C 
HETATM   25  C8  UNL     1       1.009  53.798 -20.641  1.00  0.00     0.010 C 
BRANCH  24  26
HETATM   26  C6  UNL     1      -0.114  52.531 -22.505  1.00  0.00     0.008 C 
BRANCH  26  27
HETATM   27  C5  UNL     1       0.672  52.175 -23.772  1.00  0.00     0.028 C 
BRANCH  27  28
HETATM   28  C4  UNL     1       0.128  52.921 -24.961  1.00  0.00    -0.017 C 
HETATM   29  C2  UNL     1       0.512  52.817 -26.247  1.00  0.00    -0.028 C 
HETATM   30  C1  UNL     1       1.574  51.926 -26.813  1.00  0.00     0.051 C 
BRANCH  29  31
HETATM   31  C3  UNL     1      -0.196  53.667 -27.256  1.00  0.00     0.265 C 
HETATM   32  O1  UNL     1      -0.198  54.893 -27.240  1.00  0.00    -0.302 OA
ENDBRANCH  29  31
ENDBRANCH  27  28
ENDBRANCH  26  27
ENDBRANCH  24  26
ENDBRANCH   1  24
BRANCH  23  33
HETATM   33  O3  UNL     1      -4.043  49.176 -17.294  1.00  0.00    -0.391 OA
HETATM   34  H46 UNL     1      -4.783  49.454 -16.729  1.00  0.00     0.210 HD
ENDBRANCH  23  33
TORSDOF 6
ENDMDL
MODEL 6
REMARK minimizedAffinity -8.77217388
REMARK  6 active torsions:
REMARK  status: ('A' for Active; 'I' for Inactive)
REMARK    1  A    between atoms: C2_2  and  C3_3 
REMARK    2  A    between atoms: C4_5  and  C5_6 
REMARK    3  A    between atoms: C5_6  and  C6_7 
REMARK    4  A    between atoms: C6_7  and  C7_8 
REMARK    5  A    between atoms: C7_8  and  C9_10 
REMARK    6  A    between atoms: C30_32  and  O3_33 
ROOT
HETATM    1  C9  UNL     1      -0.908  50.322 -22.188  1.00  0.00    -0.002 C 
HETATM    2  C10 UNL     1      -0.735  50.023 -20.671  1.00  0.00     0.007 C 
HETATM    3  C11 UNL     1      -1.976  49.239 -20.207  1.00  0.00     0.015 C 
HETATM    4  C12 UNL     1      -2.666  48.779 -21.504  1.00  0.00    -0.010 C 
HETATM    5  C13 UNL     1      -1.930  47.487 -21.983  1.00  0.00     0.021 C 
HETATM    6  C14 UNL     1      -4.154  48.424 -21.473  1.00  0.00    -0.039 C 
HETATM    7  C15 UNL     1      -4.896  48.550 -22.608  1.00  0.00    -0.066 C 
HETATM    8  C16 UNL     1      -4.283  49.116 -23.898  1.00  0.00     0.036 C 
HETATM    9  C17 UNL     1      -2.838  49.656 -23.844  1.00  0.00     0.015 C 
HETATM   10  C18 UNL     1      -2.427  50.043 -22.419  1.00  0.00    -0.029 C 
HETATM   11  C19 UNL     1      -3.256  51.288 -21.980  1.00  0.00     0.016 C 
HETATM   12  C20 UNL     1      -6.397  48.150 -22.670  1.00  0.00    -0.015 C 
HETATM   13  C21 UNL     1      -7.216  49.462 -22.697  1.00  0.00     0.020 C 
HETATM   14  C22 UNL     1      -6.679  47.330 -23.954  1.00  0.00     0.021 C 
HETATM   15  C23 UNL     1      -8.015  46.595 -24.002  1.00  0.00     0.080 C 
HETATM   16  C24 UNL     1      -8.909  46.802 -22.803  1.00  0.00     0.135 C 
HETATM   17  O2  UNL     1     -10.131  46.883 -22.961  1.00  0.00    -0.297 OA
HETATM   18  C25 UNL     1      -8.282  46.799 -21.405  1.00  0.00     0.018 C 
HETATM   19  C26 UNL     1      -9.139  47.700 -20.488  1.00  0.00     0.023 C 
HETATM   20  C27 UNL     1      -8.395  45.356 -20.875  1.00  0.00     0.023 C 
HETATM   21  C28 UNL     1      -6.775  47.219 -21.467  1.00  0.00     0.016 C 
HETATM   22  C29 UNL     1      -6.242  47.796 -20.146  1.00  0.00     0.043 C 
HETATM   23  C30 UNL     1      -4.719  47.917 -20.168  1.00  0.00     0.148 C 
ENDROOT
BRANCH   1  24
HETATM   24  C7  UNL     1      -0.307  51.700 -22.592  1.00  0.00    -0.014 C 
HETATM   25  C8  UNL     1      -0.025  52.600 -21.385  1.00  0.00     0.010 C 
BRANCH  24  26
HETATM   26  C6  UNL     1      -1.185  52.468 -23.616  1.00  0.00     0.008 C 
BRANCH  26  27
HETATM   27  C5  UNL     1      -0.418  53.303 -24.649  1.00  0.00     0.028 C 
BRANCH  27  28
HETATM   28  C4  UNL     1       0.851  52.605 -25.058  1.00  0.00    -0.017 C 
HETATM   29  C2  UNL     1       1.002  51.650 -25.995  1.00  0.00    -0.028 C 
HETATM   30  C1  UNL     1      -0.058  51.050 -26.866  1.00  0.00     0.051 C 
BRANCH  29  31
HETATM   31  C3  UNL     1       2.381  51.114 -26.226  1.00  0.00     0.265 C 
HETATM   32  O1  UNL     1       3.048  51.342 -27.229  1.00  0.00    -0.302 OA
ENDBRANCH  29  31
ENDBRANCH  27  28
ENDBRANCH  26  27
ENDBRANCH  24  26
ENDBRANCH   1  24
BRANCH  23  33
HETATM   33  O3  UNL     1      -4.157  46.632 -19.916  1.00  0.00    -0.391 OA
HETATM   34  H46 UNL     1      -4.429  46.368 -19.022  1.00  0.00     0.210 HD
ENDBRANCH  23  33
TORSDOF 6
ENDMDL
MODEL 7
REMARK minimizedAffinity -8.76931763
REMARK  6 active torsions:
REMARK  status: ('A' for Active; 'I' for Inactive)
REMARK    1  A    between atoms: C2_2  and  C3_3 
REMARK    2  A    between atoms: C4_5  and  C5_6 
REMARK    3  A    between atoms: C5_6  and  C6_7 
REMARK    4  A    between atoms: C6_7  and  C7_8 
REMARK    5  A    between atoms: C7_8  and  C9_10 
REMARK    6  A    between atoms: C30_32  and  O3_33 
ROOT
HETATM    1  C9  UNL     1      -1.732  52.131 -22.596  1.00  0.00    -0.002 C 
HETATM    2  C10 UNL     1      -2.229  52.398 -24.045  1.00  0.00     0.007 C 
HETATM    3  C11 UNL     1      -3.490  51.541 -24.268  1.00  0.00     0.015 C 
HETATM    4  C12 UNL     1      -3.915  51.081 -22.862  1.00  0.00    -0.010 C 
HETATM    5  C13 UNL     1      -4.727  52.253 -22.221  1.00  0.00     0.021 C 
HETATM    6  C14 UNL     1      -4.793  49.837 -22.717  1.00  0.00    -0.039 C 
HETATM    7  C15 UNL     1      -4.736  49.108 -21.569  1.00  0.00    -0.066 C 
HETATM    8  C16 UNL     1      -3.748  49.467 -20.449  1.00  0.00     0.036 C 
HETATM    9  C17 UNL     1      -2.734  50.601 -20.706  1.00  0.00     0.015 C 
HETATM   10  C18 UNL     1      -2.502  50.831 -22.204  1.00  0.00    -0.029 C 
HETATM   11  C19 UNL     1      -1.760  49.591 -22.791  1.00  0.00     0.016 C 
HETATM   12  C20 UNL     1      -5.642  47.868 -21.324  1.00  0.00    -0.015 C 
HETATM   13  C21 UNL     1      -4.746  46.615 -21.465  1.00  0.00     0.020 C 
HETATM   14  C22 UNL     1      -6.247  47.922 -19.897  1.00  0.00     0.021 C 
HETATM   15  C23 UNL     1      -7.399  46.962 -19.620  1.00  0.00     0.080 C 
HETATM   16  C24 UNL     1      -7.771  46.051 -20.765  1.00  0.00     0.135 C 
HETATM   17  O2  UNL     1      -8.117  44.889 -20.532  1.00  0.00    -0.297 OA
HETATM   18  C25 UNL     1      -7.809  46.626 -22.185  1.00  0.00     0.018 C 
HETATM   19  C26 UNL     1      -7.482  45.489 -23.177  1.00  0.00     0.023 C 
HETATM   20  C27 UNL     1      -9.264  47.064 -22.443  1.00  0.00     0.023 C 
HETATM   21  C28 UNL     1      -6.858  47.864 -22.312  1.00  0.00     0.016 C 
HETATM   22  C29 UNL     1      -6.390  48.135 -23.750  1.00  0.00     0.043 C 
HETATM   23  C30 UNL     1      -5.713  49.500 -23.866  1.00  0.00     0.148 C 
ENDROOT
BRANCH   1  24
HETATM   24  C7  UNL     1      -0.179  52.170 -22.487  1.00  0.00    -0.014 C 
HETATM   25  C8  UNL     1       0.307  52.551 -21.085  1.00  0.00     0.010 C 
BRANCH  24  26
HETATM   26  C6  UNL     1       0.478  53.106 -23.535  1.00  0.00     0.008 C 
BRANCH  26  27
HETATM   27  C5  UNL     1       0.950  52.425 -24.826  1.00  0.00     0.028 C 
BRANCH  27  28
HETATM   28  C4  UNL     1       0.308  53.064 -26.028  1.00  0.00    -0.017 C 
HETATM   29  C2  UNL     1       0.509  52.769 -27.326  1.00  0.00    -0.028 C 
HETATM   30  C1  UNL     1       1.419  51.725 -27.894  1.00  0.00     0.051 C 
BRANCH  29  31
HETATM   31  C3  UNL     1      -0.262  53.549 -28.345  1.00  0.00     0.265 C 
HETATM   32  O1  UNL     1      -1.225  54.261 -28.081  1.00  0.00    -0.302 OA
ENDBRANCH  29  31
ENDBRANCH  27  28
ENDBRANCH  26  27
ENDBRANCH  24  26
ENDBRANCH   1  24
BRANCH  23  33
HETATM   33  O3  UNL     1      -6.722  50.504 -23.930  1.00  0.00    -0.391 OA
HETATM   34  H46 UNL     1      -7.234  50.348 -24.741  1.00  0.00     0.210 HD
ENDBRANCH  23  33
TORSDOF 6
ENDMDL
MODEL 8
REMARK minimizedAffinity -8.48426437
REMARK  6 active torsions:
REMARK  status: ('A' for Active; 'I' for Inactive)
REMARK    1  A    between atoms: C2_2  and  C3_3 
REMARK    2  A    between atoms: C4_5  and  C5_6 
REMARK    3  A    between atoms: C5_6  and  C6_7 
REMARK    4  A    between atoms: C6_7  and  C7_8 
REMARK    5  A    between atoms: C7_8  and  C9_10 
REMARK    6  A    between atoms: C30_32  and  O3_33 
ROOT
HETATM    1  C9  UNL     1      -1.439  52.114 -21.697  1.00  0.00    -0.002 C 
HETATM    2  C10 UNL     1      -1.171  51.885 -23.212  1.00  0.00     0.007 C 
HETATM    3  C11 UNL     1      -2.321  51.018 -23.761  1.00  0.00     0.015 C 
HETATM    4  C12 UNL     1      -3.408  51.062 -22.672  1.00  0.00    -0.010 C 
HETATM    5  C13 UNL     1      -4.207  52.390 -22.874  1.00  0.00     0.021 C 
HETATM    6  C14 UNL     1      -4.457  49.949 -22.620  1.00  0.00    -0.039 C 
HETATM    7  C15 UNL     1      -5.053  49.647 -21.433  1.00  0.00    -0.066 C 
HETATM    8  C16 UNL     1      -4.634  50.349 -20.133  1.00  0.00     0.036 C 
HETATM    9  C17 UNL     1      -3.435  51.319 -20.181  1.00  0.00     0.015 C 
HETATM   10  C18 UNL     1      -2.514  51.030 -21.373  1.00  0.00    -0.029 C 
HETATM   11  C19 UNL     1      -1.813  49.657 -21.141  1.00  0.00     0.016 C 
HETATM   12  C20 UNL     1      -6.170  48.572 -21.313  1.00  0.00    -0.015 C 
HETATM   13  C21 UNL     1      -5.538  47.333 -20.634  1.00  0.00     0.020 C 
HETATM   14  C22 UNL     1      -7.336  49.108 -20.443  1.00  0.00     0.021 C 
HETATM   15  C23 UNL     1      -8.635  48.311 -20.496  1.00  0.00     0.080 C 
HETATM   16  C24 UNL     1      -8.598  47.072 -21.359  1.00  0.00     0.135 C 
HETATM   17  O2  UNL     1      -9.207  46.061 -21.000  1.00  0.00    -0.297 OA
HETATM   18  C25 UNL     1      -7.889  47.139 -22.716  1.00  0.00     0.018 C 
HETATM   19  C26 UNL     1      -7.349  45.731 -23.050  1.00  0.00     0.023 C 
HETATM   20  C27 UNL     1      -8.970  47.481 -23.760  1.00  0.00     0.023 C 
HETATM   21  C28 UNL     1      -6.787  48.251 -22.718  1.00  0.00     0.016 C 
HETATM   22  C29 UNL     1      -5.679  48.018 -23.756  1.00  0.00     0.043 C 
HETATM   23  C30 UNL     1      -4.799  49.256 -23.917  1.00  0.00     0.148 C 
ENDROOT
BRANCH   1  24
HETATM   24  C7  UNL     1      -0.123  52.169 -20.867  1.00  0.00    -0.014 C 
HETATM   25  C8  UNL     1       1.129  51.960 -21.724  1.00  0.00     0.010 C 
BRANCH  24  26
HETATM   26  C6  UNL     1      -0.112  51.165 -19.683  1.00  0.00     0.008 C 
BRANCH  26  27
HETATM   27  C5  UNL     1      -0.306  51.781 -18.292  1.00  0.00     0.028 C 
BRANCH  27  28
HETATM   28  C4  UNL     1       0.985  52.366 -17.786  1.00  0.00    -0.017 C 
HETATM   29  C2  UNL     1       1.647  52.052 -16.656  1.00  0.00    -0.028 C 
HETATM   30  C1  UNL     1       1.263  51.035 -15.626  1.00  0.00     0.051 C 
BRANCH  29  31
HETATM   31  C3  UNL     1       2.927  52.776 -16.376  1.00  0.00     0.265 C 
HETATM   32  O1  UNL     1       4.035  52.252 -16.414  1.00  0.00    -0.302 OA
ENDBRANCH  29  31
ENDBRANCH  27  28
ENDBRANCH  26  27
ENDBRANCH  24  26
ENDBRANCH   1  24
BRANCH  23  33
HETATM   33  O3  UNL     1      -5.479  50.193 -24.749  1.00  0.00    -0.391 OA
HETATM   34  H46 UNL     1      -5.587  49.780 -25.621  1.00  0.00     0.210 HD
ENDBRANCH  23  33
TORSDOF 6
ENDMDL
MODEL 9
REMARK minimizedAffinity -8.46927452
REMARK  6 active torsions:
REMARK  status: ('A' for Active; 'I' for Inactive)
REMARK    1  A    between atoms: C2_2  and  C3_3 
REMARK    2  A    between atoms: C4_5  and  C5_6 
REMARK    3  A    between atoms: C5_6  and  C6_7 
REMARK    4  A    between atoms: C6_7  and  C7_8 
REMARK    5  A    between atoms: C7_8  and  C9_10 
REMARK    6  A    between atoms: C30_32  and  O3_33 
ROOT
HETATM    1  C9  UNL     1      -2.149  52.641 -24.332  1.00  0.00    -0.002 C 
HETATM    2  C10 UNL     1      -2.808  52.318 -25.704  1.00  0.00     0.007 C 
HETATM    3  C11 UNL     1      -3.884  51.243 -25.460  1.00  0.00     0.015 C 
HETATM    4  C12 UNL     1      -4.089  51.222 -23.935  1.00  0.00    -0.010 C 
HETATM    5  C13 UNL     1      -5.065  52.392 -23.587  1.00  0.00     0.021 C 
HETATM    6  C14 UNL     1      -4.684  49.974 -23.279  1.00  0.00    -0.039 C 
HETATM    7  C15 UNL     1      -4.386  49.695 -21.980  1.00  0.00    -0.066 C 
HETATM    8  C16 UNL     1      -3.402  50.566 -21.186  1.00  0.00     0.036 C 
HETATM    9  C17 UNL     1      -2.662  51.697 -21.933  1.00  0.00     0.015 C 
HETATM   10  C18 UNL     1      -2.606  51.442 -23.443  1.00  0.00    -0.029 C 
HETATM   11  C19 UNL     1      -1.680  50.216 -23.710  1.00  0.00     0.016 C 
HETATM   12  C20 UNL     1      -5.000  48.480 -21.228  1.00  0.00    -0.015 C 
HETATM   13  C21 UNL     1      -3.885  47.416 -21.095  1.00  0.00     0.020 C 
HETATM   14  C22 UNL     1      -5.483  48.912 -19.820  1.00  0.00     0.021 C 
HETATM   15  C23 UNL     1      -6.392  47.928 -19.090  1.00  0.00     0.080 C 
HETATM   16  C24 UNL     1      -6.665  46.637 -19.823  1.00  0.00     0.135 C 
HETATM   17  O2  UNL     1      -6.750  45.582 -19.187  1.00  0.00    -0.297 OA
HETATM   18  C25 UNL     1      -6.936  46.685 -21.330  1.00  0.00     0.018 C 
HETATM   19  C26 UNL     1      -6.469  45.350 -21.950  1.00  0.00     0.023 C 
HETATM   20  C27 UNL     1      -8.466  46.767 -21.500  1.00  0.00     0.023 C 
HETATM   21  C28 UNL     1      -6.268  47.945 -21.978  1.00  0.00     0.016 C 
HETATM   22  C29 UNL     1      -5.984  47.787 -23.480  1.00  0.00     0.043 C 
HETATM   23  C30 UNL     1      -5.609  49.124 -24.117  1.00  0.00     0.148 C 
ENDROOT
BRANCH   1  24
HETATM   24  C7  UNL     1      -0.632  52.967 -24.467  1.00  0.00    -0.014 C 
HETATM   25  C8  UNL     1      -0.131  52.869 -25.911  1.00  0.00     0.010 C 
BRANCH  24  26
HETATM   26  C6  UNL     1       0.260  52.088 -23.550  1.00  0.00     0.008 C 
BRANCH  26  27
HETATM   27  C5  UNL     1       0.823  52.791 -22.308  1.00  0.00     0.028 C 
BRANCH  27  28
HETATM   28  C4  UNL     1       0.571  51.967 -21.073  1.00  0.00    -0.017 C 
HETATM   29  C2  UNL     1       0.229  52.404 -19.846  1.00  0.00    -0.028 C 
HETATM   30  C1  UNL     1       0.010  53.819 -19.409  1.00  0.00     0.051 C 
BRANCH  29  31
HETATM   31  C3  UNL     1       0.024  51.378 -18.775  1.00  0.00     0.265 C 
HETATM   32  O1  UNL     1      -0.418  50.252 -18.977  1.00  0.00    -0.302 OA
ENDBRANCH  29  31
ENDBRANCH  27  28
ENDBRANCH  26  27
ENDBRANCH  24  26
ENDBRANCH   1  24
BRANCH  23  33
HETATM   33  O3  UNL     1      -6.801  49.869 -24.349  1.00  0.00    -0.391 OA
HETATM   34  H46 UNL     1      -7.336  49.367 -24.986  1.00  0.00     0.210 HD
ENDBRANCH  23  33
TORSDOF 6
ENDMDL
