MODEL 1
REMARK minimizedAffinity -9.71788502
REMARK  6 active torsions:
REMARK  status: ('A' for Active; 'I' for Inactive)
REMARK    1  A    between atoms: C3_3  and  C4_4 
REMARK    2  A    between atoms: C4_4  and  O2_6 
REMARK    3  A    between atoms: O2_6  and  C5_7 
REMARK    4  A    between atoms: C5_7  and  C6_8 
REMARK    5  A    between atoms: C6_8  and  C7_9 
REMARK    6  A    between atoms: C13_15  and  C14_16 
ROOT
HETATM    1  C1  UNL     1       1.261  53.687 -21.422  1.00  0.00     0.069 C 
HETATM    2  C2  UNL     1       0.504  52.911 -22.468  1.00  0.00     0.018 A 
HETATM    3  C3  UNL     1      -0.184  51.769 -22.235  1.00  0.00     0.052 A 
HETATM    4  C13 UNL     1      -0.885  51.009 -23.358  1.00  0.00     0.104 A 
HETATM    5  C23 UNL     1      -0.669  51.647 -24.724  1.00  0.00     0.024 A 
HETATM    6  C24 UNL     1       0.009  52.805 -24.864  1.00  0.00     0.020 A 
HETATM    7  C25 UNL     1       0.175  53.504 -26.190  1.00  0.00     0.058 C 
HETATM    8  C26 UNL     1      -0.892  53.081 -27.192  1.00  0.00     0.014 C 
HETATM    9  C27 UNL     1      -0.973  51.568 -27.288  1.00  0.00     0.084 C 
HETATM   10  C28 UNL     1      -1.177  50.934 -25.930  1.00  0.00     0.158 C 
HETATM   11  O5  UNL     1      -1.684  49.818 -25.826  1.00  0.00    -0.293 OA
HETATM   12  N1  UNL     1       0.574  53.414 -23.759  1.00  0.00    -0.362 N 
HETATM   13  H24 UNL     1       1.024  54.316 -23.890  1.00  0.00     0.165 HD
ENDROOT
BRANCH   4  14
HETATM   14  C14 UNL     1      -2.358  50.795 -23.043  1.00  0.00     0.029 A 
HETATM   15  C15 UNL     1      -3.252  51.796 -23.031  1.00  0.00     0.154 A 
HETATM   16  O3  UNL     1      -4.595  51.702 -22.770  1.00  0.00    -0.321 OA
HETATM   17  C16 UNL     1      -5.102  50.461 -22.488  1.00  0.00     0.089 A 
HETATM   18  C17 UNL     1      -6.470  50.374 -22.230  1.00  0.00     0.040 A 
HETATM   19  C21 UNL     1      -4.310  49.316 -22.456  1.00  0.00     0.050 A 
HETATM   20  C18 UNL     1      -7.042  49.133 -21.938  1.00  0.00     0.026 A 
HETATM   21  C19 UNL     1      -6.244  47.989 -21.907  1.00  0.00     0.035 A 
HETATM   22 CL1  UNL     1      -6.955  46.465 -21.549  1.00  0.00    -0.084 Cl
HETATM   23  C20 UNL     1      -4.877  48.070 -22.165  1.00  0.00     0.042 A 
HETATM   24  C22 UNL     1      -2.868  49.436 -22.732  1.00  0.00     0.194 A 
HETATM   25  O4  UNL     1      -2.147  48.447 -22.699  1.00  0.00    -0.287 OA
ENDBRANCH   4  14
BRANCH   3  26
HETATM   26  C4  UNL     1      -0.294  51.144 -20.900  1.00  0.00     0.292 C 
HETATM   27  O1  UNL     1       0.068  50.000 -20.666  1.00  0.00    -0.259 OA
BRANCH  26  28
HETATM   28  O2  UNL     1      -0.924  51.977 -20.039  1.00  0.00    -0.317 OA
BRANCH  28  29
HETATM   29  C5  UNL     1      -0.551  51.839 -18.657  1.00  0.00     0.183 C 
BRANCH  29  30
HETATM   30  C6  UNL     1       0.681  52.688 -18.348  1.00  0.00     0.065 C 
BRANCH  30  31
HETATM   31  C7  UNL     1       1.378  52.228 -17.096  1.00  0.00    -0.056 A 
HETATM   32  C8  UNL     1       0.749  51.338 -16.215  1.00  0.00     0.007 A 
HETATM   33  C9  UNL     1       1.408  50.895 -15.068  1.00  0.00     0.001 A 
HETATM   34  C10 UNL     1       2.701  51.334 -14.792  1.00  0.00     0.000 A 
HETATM   35  C11 UNL     1       3.338  52.217 -15.663  1.00  0.00     0.001 A 
HETATM   36  C12 UNL     1       2.680  52.662 -16.810  1.00  0.00     0.007 A 
ENDBRANCH  30  31
ENDBRANCH  29  30
ENDBRANCH  28  29
ENDBRANCH  26  28
ENDBRANCH   3  26
TORSDOF 6
ENDMDL
MODEL 2
REMARK minimizedAffinity -9.18099689
REMARK  6 active torsions:
REMARK  status: ('A' for Active; 'I' for Inactive)
REMARK    1  A    between atoms: C3_3  and  C4_4 
REMARK    2  A    between atoms: C4_4  and  O2_6 
REMARK    3  A    between atoms: O2_6  and  C5_7 
REMARK    4  A    between atoms: C5_7  and  C6_8 
REMARK    5  A    between atoms: C6_8  and  C7_9 
REMARK    6  A    between atoms: C13_15  and  C14_16 
ROOT
HETATM    1  C1  UNL     1       0.173  52.837 -25.379  1.00  0.00     0.069 C 
HETATM    2  C2  UNL     1      -0.262  52.549 -23.966  1.00  0.00     0.018 A 
HETATM    3  C3  UNL     1      -1.443  51.985 -23.622  1.00  0.00     0.052 A 
HETATM    4  C13 UNL     1      -1.839  51.771 -22.163  1.00  0.00     0.104 A 
HETATM    5  C23 UNL     1      -0.796  52.305 -21.188  1.00  0.00     0.024 A 
HETATM    6  C24 UNL     1       0.370  52.829 -21.617  1.00  0.00     0.020 A 
HETATM    7  C25 UNL     1       1.455  53.295 -20.679  1.00  0.00     0.058 C 
HETATM    8  C26 UNL     1       1.329  52.654 -19.302  1.00  0.00     0.014 C 
HETATM    9  C27 UNL     1      -0.080  52.813 -18.759  1.00  0.00     0.084 C 
HETATM   10  C28 UNL     1      -1.114  52.293 -19.732  1.00  0.00     0.158 C 
HETATM   11  O5  UNL     1      -2.224  51.935 -19.340  1.00  0.00    -0.293 OA
HETATM   12  N1  UNL     1       0.622  52.941 -22.972  1.00  0.00    -0.362 N 
HETATM   13  H24 UNL     1       1.536  53.281 -23.260  1.00  0.00     0.165 HD
ENDROOT
BRANCH   4  14
HETATM   14  C14 UNL     1      -2.193  50.316 -21.895  1.00  0.00     0.029 A 
HETATM   15  C15 UNL     1      -1.266  49.354 -21.763  1.00  0.00     0.154 A 
HETATM   16  O3  UNL     1      -1.484  48.024 -21.512  1.00  0.00    -0.321 OA
HETATM   17  C16 UNL     1      -2.783  47.608 -21.378  1.00  0.00     0.089 A 
HETATM   18  C17 UNL     1      -2.996  46.255 -21.118  1.00  0.00     0.040 A 
HETATM   19  C21 UNL     1      -3.865  48.478 -21.491  1.00  0.00     0.050 A 
HETATM   20  C18 UNL     1      -4.300  45.775 -20.970  1.00  0.00     0.026 A 
HETATM   21  C19 UNL     1      -5.381  46.650 -21.084  1.00  0.00     0.035 A 
HETATM   22 CL1  UNL     1      -6.983  46.053 -20.900  1.00  0.00    -0.084 Cl
HETATM   23  C20 UNL     1      -5.174  48.003 -21.344  1.00  0.00     0.042 A 
HETATM   24  C22 UNL     1      -3.612  49.902 -21.768  1.00  0.00     0.194 A 
HETATM   25  O4  UNL     1      -4.547  50.686 -21.883  1.00  0.00    -0.287 OA
ENDBRANCH   4  14
BRANCH   3  26
HETATM   26  C4  UNL     1      -2.459  51.560 -24.608  1.00  0.00     0.292 C 
HETATM   27  O1  UNL     1      -3.474  52.199 -24.841  1.00  0.00    -0.259 OA
BRANCH  26  28
HETATM   28  O2  UNL     1      -2.141  50.346 -25.119  1.00  0.00    -0.317 OA
BRANCH  28  29
HETATM   29  C5  UNL     1      -2.428  50.167 -26.516  1.00  0.00     0.183 C 
BRANCH  29  30
HETATM   30  C6  UNL     1      -2.758  48.705 -26.812  1.00  0.00     0.065 C 
BRANCH  30  31
HETATM   31  C7  UNL     1      -4.197  48.383 -26.506  1.00  0.00    -0.056 A 
HETATM   32  C8  UNL     1      -5.071  47.983 -27.525  1.00  0.00     0.007 A 
HETATM   33  C9  UNL     1      -6.397  47.663 -27.233  1.00  0.00     0.001 A 
HETATM   34  C10 UNL     1      -6.860  47.736 -25.921  1.00  0.00     0.000 A 
HETATM   35  C11 UNL     1      -5.999  48.130 -24.899  1.00  0.00     0.001 A 
HETATM   36  C12 UNL     1      -4.672  48.451 -25.189  1.00  0.00     0.007 A 
ENDBRANCH  30  31
ENDBRANCH  29  30
ENDBRANCH  28  29
ENDBRANCH  26  28
ENDBRANCH   3  26
TORSDOF 6
ENDMDL
MODEL 3
REMARK minimizedAffinity -9.09485435
REMARK  6 active torsions:
REMARK  status: ('A' for Active; 'I' for Inactive)
REMARK    1  A    between atoms: C3_3  and  C4_4 
REMARK    2  A    between atoms: C4_4  and  O2_6 
REMARK    3  A    between atoms: O2_6  and  C5_7 
REMARK    4  A    between atoms: C5_7  and  C6_8 
REMARK    5  A    between atoms: C6_8  and  C7_9 
REMARK    6  A    between atoms: C13_15  and  C14_16 
ROOT
HETATM    1  C1  UNL     1       0.670  53.015 -22.113  1.00  0.00     0.069 C 
HETATM    2  C2  UNL     1      -0.069  52.345 -20.985  1.00  0.00     0.018 A 
HETATM    3  C3  UNL     1      -1.314  51.822 -21.081  1.00  0.00     0.052 A 
HETATM    4  C13 UNL     1      -2.022  51.203 -19.879  1.00  0.00     0.104 A 
HETATM    5  C23 UNL     1      -1.200  51.300 -18.599  1.00  0.00     0.024 A 
HETATM    6  C24 UNL     1       0.047  51.813 -18.597  1.00  0.00     0.020 A 
HETATM    7  C25 UNL     1       0.917  51.854 -17.366  1.00  0.00     0.058 C 
HETATM    8  C26 UNL     1       0.477  50.830 -16.327  1.00  0.00     0.014 C 
HETATM    9  C27 UNL     1      -1.011  50.950 -16.046  1.00  0.00     0.084 C 
HETATM   10  C28 UNL     1      -1.825  50.865 -17.318  1.00  0.00     0.158 C 
HETATM   11  O5  UNL     1      -3.004  50.514 -17.288  1.00  0.00    -0.293 OA
HETATM   12  N1  UNL     1       0.590  52.317 -19.765  1.00  0.00    -0.362 N 
HETATM   13  H24 UNL     1       1.554  52.639 -19.742  1.00  0.00     0.165 HD
ENDROOT
BRANCH   4  14
HETATM   14  C14 UNL     1      -2.470  49.780 -20.175  1.00  0.00     0.029 A 
HETATM   15  C15 UNL     1      -1.608  48.761 -20.320  1.00  0.00     0.154 A 
HETATM   16  O3  UNL     1      -1.914  47.449 -20.577  1.00  0.00    -0.321 OA
HETATM   17  C16 UNL     1      -3.237  47.119 -20.703  1.00  0.00     0.089 A 
HETATM   18  C17 UNL     1      -3.540  45.781 -20.958  1.00  0.00     0.040 A 
HETATM   19  C21 UNL     1      -4.260  48.057 -20.584  1.00  0.00     0.050 A 
HETATM   20  C18 UNL     1      -4.873  45.387 -21.094  1.00  0.00     0.026 A 
HETATM   21  C19 UNL     1      -5.894  46.331 -20.974  1.00  0.00     0.035 A 
HETATM   22 CL1  UNL     1      -7.533  45.837 -21.142  1.00  0.00    -0.084 Cl
HETATM   23  C20 UNL     1      -5.597  47.667 -20.719  1.00  0.00     0.042 A 
HETATM   24  C22 UNL     1      -3.913  49.463 -20.315  1.00  0.00     0.194 A 
HETATM   25  O4  UNL     1      -4.793  50.309 -20.217  1.00  0.00    -0.287 OA
ENDBRANCH   4  14
BRANCH   3  26
HETATM   26  C4  UNL     1      -2.104  51.828 -22.330  1.00  0.00     0.292 C 
HETATM   27  O1  UNL     1      -3.231  52.294 -22.406  1.00  0.00    -0.259 OA
BRANCH  26  28
HETATM   28  O2  UNL     1      -1.441  51.172 -23.312  1.00  0.00    -0.317 OA
BRANCH  28  29
HETATM   29  C5  UNL     1      -1.638  51.681 -24.641  1.00  0.00     0.183 C 
BRANCH  29  30
HETATM   30  C6  UNL     1      -1.203  50.649 -25.680  1.00  0.00     0.065 C 
BRANCH  30  31
HETATM   31  C7  UNL     1       0.044  51.079 -26.408  1.00  0.00    -0.056 A 
HETATM   32  C8  UNL     1       1.288  51.057 -25.766  1.00  0.00     0.007 A 
HETATM   33  C9  UNL     1       2.444  51.434 -26.450  1.00  0.00     0.001 A 
HETATM   34  C10 UNL     1       2.366  51.832 -27.784  1.00  0.00     0.000 A 
HETATM   35  C11 UNL     1       1.133  51.855 -28.434  1.00  0.00     0.001 A 
HETATM   36  C12 UNL     1      -0.023  51.479 -27.749  1.00  0.00     0.007 A 
ENDBRANCH  30  31
ENDBRANCH  29  30
ENDBRANCH  28  29
ENDBRANCH  26  28
ENDBRANCH   3  26
TORSDOF 6
ENDMDL
MODEL 4
REMARK minimizedAffinity -9.09252167
REMARK  6 active torsions:
REMARK  status: ('A' for Active; 'I' for Inactive)
REMARK    1  A    between atoms: C3_3  and  C4_4 
REMARK    2  A    between atoms: C4_4  and  O2_6 
REMARK    3  A    between atoms: O2_6  and  C5_7 
REMARK    4  A    between atoms: C5_7  and  C6_8 
REMARK    5  A    between atoms: C6_8  and  C7_9 
REMARK    6  A    between atoms: C13_15  and  C14_16 
ROOT
HETATM    1  C1  UNL     1      -3.801  45.313 -20.566  1.00  0.00     0.069 C 
HETATM    2  C2  UNL     1      -4.359  46.491 -21.321  1.00  0.00     0.018 A 
HETATM    3  C3  UNL     1      -3.724  47.677 -21.478  1.00  0.00     0.052 A 
HETATM    4  C13 UNL     1      -4.375  48.846 -22.213  1.00  0.00     0.104 A 
HETATM    5  C23 UNL     1      -5.793  48.533 -22.677  1.00  0.00     0.024 A 
HETATM    6  C24 UNL     1      -6.339  47.312 -22.504  1.00  0.00     0.020 A 
HETATM    7  C25 UNL     1      -7.709  46.945 -23.019  1.00  0.00     0.058 C 
HETATM    8  C26 UNL     1      -8.154  47.863 -24.151  1.00  0.00     0.014 C 
HETATM    9  C27 UNL     1      -8.004  49.322 -23.754  1.00  0.00     0.084 C 
HETATM   10  C28 UNL     1      -6.600  49.629 -23.283  1.00  0.00     0.158 C 
HETATM   11  O5  UNL     1      -6.157  50.776 -23.330  1.00  0.00    -0.293 OA
HETATM   12  N1  UNL     1      -5.632  46.324 -21.845  1.00  0.00    -0.362 N 
HETATM   13  H24 UNL     1      -6.048  45.398 -21.788  1.00  0.00     0.165 HD
ENDROOT
BRANCH   4  14
HETATM   14  C14 UNL     1      -3.491  49.347 -23.345  1.00  0.00     0.029 A 
HETATM   15  C15 UNL     1      -3.258  48.631 -24.457  1.00  0.00     0.154 A 
HETATM   16  O3  UNL     1      -2.488  48.999 -25.531  1.00  0.00    -0.321 OA
HETATM   17  C16 UNL     1      -1.880  50.226 -25.486  1.00  0.00     0.089 A 
HETATM   18  C17 UNL     1      -1.103  50.594 -26.584  1.00  0.00     0.040 A 
HETATM   19  C21 UNL     1      -2.015  51.091 -24.403  1.00  0.00     0.050 A 
HETATM   20  C18 UNL     1      -0.461  51.834 -26.594  1.00  0.00     0.026 A 
HETATM   21  C19 UNL     1      -0.600  52.699 -25.506  1.00  0.00     0.035 A 
HETATM   22 CL1  UNL     1       0.192  54.224 -25.526  1.00  0.00    -0.084 Cl
HETATM   23  C20 UNL     1      -1.374  52.335 -24.407  1.00  0.00     0.042 A 
HETATM   24  C22 UNL     1      -2.840  50.678 -23.255  1.00  0.00     0.194 A 
HETATM   25  O4  UNL     1      -2.966  51.415 -22.286  1.00  0.00    -0.287 OA
ENDBRANCH   4  14
BRANCH   3  26
HETATM   26  C4  UNL     1      -2.379  47.958 -20.934  1.00  0.00     0.292 C 
HETATM   27  O1  UNL     1      -1.391  47.298 -21.221  1.00  0.00    -0.259 OA
BRANCH  26  28
HETATM   28  O2  UNL     1      -2.437  48.963 -20.028  1.00  0.00    -0.317 OA
BRANCH  28  29
HETATM   29  C5  UNL     1      -1.169  49.437 -19.546  1.00  0.00     0.183 C 
BRANCH  29  30
HETATM   30  C6  UNL     1      -0.288  49.887 -20.710  1.00  0.00     0.065 C 
BRANCH  30  31
HETATM   31  C7  UNL     1       0.100  51.337 -20.590  1.00  0.00    -0.056 A 
HETATM   32  C8  UNL     1       0.782  51.981 -21.630  1.00  0.00     0.007 A 
HETATM   33  C9  UNL     1       1.118  53.331 -21.525  1.00  0.00     0.001 A 
HETATM   34  C10 UNL     1       0.773  54.050 -20.382  1.00  0.00     0.000 A 
HETATM   35  C11 UNL     1       0.091  53.419 -19.342  1.00  0.00     0.001 A 
HETATM   36  C12 UNL     1      -0.245  52.069 -19.445  1.00  0.00     0.007 A 
ENDBRANCH  30  31
ENDBRANCH  29  30
ENDBRANCH  28  29
ENDBRANCH  26  28
ENDBRANCH   3  26
TORSDOF 6
ENDMDL
MODEL 5
REMARK minimizedAffinity -8.89589024
REMARK  6 active torsions:
REMARK  status: ('A' for Active; 'I' for Inactive)
REMARK    1  A    between atoms: C3_3  and  C4_4 
REMARK    2  A    between atoms: C4_4  and  O2_6 
REMARK    3  A    between atoms: O2_6  and  C5_7 
REMARK    4  A    between atoms: C5_7  and  C6_8 
REMARK    5  A    between atoms: C6_8  and  C7_9 
REMARK    6  A    between atoms: C13_15  and  C14_16 
ROOT
HETATM    1  C1  UNL     1      -7.478  49.585 -24.001  1.00  0.00     0.069 C 
HETATM    2  C2  UNL     1      -6.283  49.000 -23.294  1.00  0.00     0.018 A 
HETATM    3  C3  UNL     1      -5.029  49.509 -23.348  1.00  0.00     0.052 A 
HETATM    4  C13 UNL     1      -3.855  48.831 -22.647  1.00  0.00     0.104 A 
HETATM    5  C23 UNL     1      -4.253  47.531 -21.957  1.00  0.00     0.024 A 
HETATM    6  C24 UNL     1      -5.535  47.111 -21.928  1.00  0.00     0.020 A 
HETATM    7  C25 UNL     1      -5.975  45.872 -21.189  1.00  0.00     0.058 C 
HETATM    8  C26 UNL     1      -4.983  45.477 -20.102  1.00  0.00     0.014 C 
HETATM    9  C27 UNL     1      -3.572  45.405 -20.659  1.00  0.00     0.084 C 
HETATM   10  C28 UNL     1      -3.182  46.690 -21.353  1.00  0.00     0.158 C 
HETATM   11  O5  UNL     1      -1.998  47.001 -21.484  1.00  0.00    -0.293 OA
HETATM   12  N1  UNL     1      -6.516  47.834 -22.580  1.00  0.00    -0.362 N 
HETATM   13  H24 UNL     1      -7.479  47.523 -22.486  1.00  0.00     0.165 HD
ENDROOT
BRANCH   4  14
HETATM   14  C14 UNL     1      -3.143  49.793 -21.708  1.00  0.00     0.029 A 
HETATM   15  C15 UNL     1      -3.616  50.105 -20.491  1.00  0.00     0.154 A 
HETATM   16  O3  UNL     1      -3.045  50.949 -19.574  1.00  0.00    -0.321 OA
HETATM   17  C16 UNL     1      -1.862  51.550 -19.914  1.00  0.00     0.089 A 
HETATM   18  C17 UNL     1      -1.285  52.403 -18.973  1.00  0.00     0.040 A 
HETATM   19  C21 UNL     1      -1.237  51.337 -21.140  1.00  0.00     0.050 A 
HETATM   20  C18 UNL     1      -0.077  53.041 -19.266  1.00  0.00     0.026 A 
HETATM   21  C19 UNL     1       0.545  52.824 -20.496  1.00  0.00     0.035 A 
HETATM   22 CL1  UNL     1       2.032  53.613 -20.848  1.00  0.00    -0.084 Cl
HETATM   23  C20 UNL     1      -0.027  51.974 -21.439  1.00  0.00     0.042 A 
HETATM   24  C22 UNL     1      -1.868  50.433 -22.117  1.00  0.00     0.194 A 
HETATM   25  O4  UNL     1      -1.345  50.236 -23.207  1.00  0.00    -0.287 OA
ENDBRANCH   4  14
BRANCH   3  26
HETATM   26  C4  UNL     1      -4.679  50.730 -24.103  1.00  0.00     0.292 C 
HETATM   27  O1  UNL     1      -5.034  51.850 -23.766  1.00  0.00    -0.259 OA
BRANCH  26  28
HETATM   28  O2  UNL     1      -4.011  50.408 -25.237  1.00  0.00    -0.317 OA
BRANCH  28  29
HETATM   29  C5  UNL     1      -3.269  51.479 -25.844  1.00  0.00     0.183 C 
BRANCH  29  30
HETATM   30  C6  UNL     1      -2.658  51.023 -27.168  1.00  0.00     0.065 C 
BRANCH  30  31
HETATM   31  C7  UNL     1      -1.174  51.272 -27.215  1.00  0.00    -0.056 A 
HETATM   32  C8  UNL     1      -0.626  52.143 -28.164  1.00  0.00     0.007 A 
HETATM   33  C9  UNL     1       0.747  52.390 -28.189  1.00  0.00     0.001 A 
HETATM   34  C10 UNL     1       1.584  51.770 -27.263  1.00  0.00     0.000 A 
HETATM   35  C11 UNL     1       1.049  50.903 -26.312  1.00  0.00     0.001 A 
HETATM   36  C12 UNL     1      -0.324  50.655 -26.286  1.00  0.00     0.007 A 
ENDBRANCH  30  31
ENDBRANCH  29  30
ENDBRANCH  28  29
ENDBRANCH  26  28
ENDBRANCH   3  26
TORSDOF 6
ENDMDL
MODEL 6
REMARK minimizedAffinity -8.78020573
REMARK  6 active torsions:
REMARK  status: ('A' for Active; 'I' for Inactive)
REMARK    1  A    between atoms: C3_3  and  C4_4 
REMARK    2  A    between atoms: C4_4  and  O2_6 
REMARK    3  A    between atoms: O2_6  and  C5_7 
REMARK    4  A    between atoms: C5_7  and  C6_8 
REMARK    5  A    between atoms: C6_8  and  C7_9 
REMARK    6  A    between atoms: C13_15  and  C14_16 
ROOT
HETATM    1  C1  UNL     1      -3.110  49.246 -16.749  1.00  0.00     0.069 C 
HETATM    2  C2  UNL     1      -4.099  49.256 -17.885  1.00  0.00     0.018 A 
HETATM    3  C3  UNL     1      -3.995  50.028 -18.992  1.00  0.00     0.052 A 
HETATM    4  C13 UNL     1      -5.066  50.022 -20.080  1.00  0.00     0.104 A 
HETATM    5  C23 UNL     1      -6.243  49.115 -19.742  1.00  0.00     0.024 A 
HETATM    6  C24 UNL     1      -6.253  48.356 -18.627  1.00  0.00     0.020 A 
HETATM    7  C25 UNL     1      -7.364  47.390 -18.300  1.00  0.00     0.058 C 
HETATM    8  C26 UNL     1      -8.149  46.989 -19.543  1.00  0.00     0.014 C 
HETATM    9  C27 UNL     1      -8.594  48.215 -20.321  1.00  0.00     0.084 C 
HETATM   10  C28 UNL     1      -7.427  49.120 -20.647  1.00  0.00     0.158 C 
HETATM   11  O5  UNL     1      -7.482  49.900 -21.596  1.00  0.00    -0.293 OA
HETATM   12  N1  UNL     1      -5.203  48.430 -17.730  1.00  0.00    -0.362 N 
HETATM   13  H24 UNL     1      -5.212  47.800 -16.933  1.00  0.00     0.165 HD
ENDROOT
BRANCH   4  14
HETATM   14  C14 UNL     1      -4.466  49.712 -21.443  1.00  0.00     0.029 A 
HETATM   15  C15 UNL     1      -4.111  48.471 -21.816  1.00  0.00     0.154 A 
HETATM   16  O3  UNL     1      -3.575  48.092 -23.020  1.00  0.00    -0.321 OA
HETATM   17  C16 UNL     1      -3.369  49.067 -23.959  1.00  0.00     0.089 A 
HETATM   18  C17 UNL     1      -2.828  48.672 -25.182  1.00  0.00     0.040 A 
HETATM   19  C21 UNL     1      -3.678  50.406 -23.732  1.00  0.00     0.050 A 
HETATM   20  C18 UNL     1      -2.598  49.624 -26.178  1.00  0.00     0.026 A 
HETATM   21  C19 UNL     1      -2.910  50.964 -25.946  1.00  0.00     0.035 A 
HETATM   22 CL1  UNL     1      -2.625  52.130 -27.177  1.00  0.00    -0.084 Cl
HETATM   23  C20 UNL     1      -3.450  51.364 -24.726  1.00  0.00     0.042 A 
HETATM   24  C22 UNL     1      -4.248  50.798 -22.431  1.00  0.00     0.194 A 
HETATM   25  O4  UNL     1      -4.518  51.970 -22.201  1.00  0.00    -0.287 OA
ENDBRANCH   4  14
BRANCH   3  26
HETATM   26  C4  UNL     1      -2.871  50.956 -19.233  1.00  0.00     0.292 C 
HETATM   27  O1  UNL     1      -2.872  52.119 -18.857  1.00  0.00    -0.259 OA
BRANCH  26  28
HETATM   28  O2  UNL     1      -1.922  50.361 -19.994  1.00  0.00    -0.317 OA
BRANCH  28  29
HETATM   29  C5  UNL     1      -0.640  50.191 -19.366  1.00  0.00     0.183 C 
BRANCH  29  30
HETATM   30  C6  UNL     1       0.017  51.547 -19.115  1.00  0.00     0.065 C 
BRANCH  30  31
HETATM   31  C7  UNL     1       0.377  52.241 -20.402  1.00  0.00    -0.056 A 
HETATM   32  C8  UNL     1       0.016  51.687 -21.636  1.00  0.00     0.007 A 
HETATM   33  C9  UNL     1       0.331  52.345 -22.826  1.00  0.00     0.001 A 
HETATM   34  C10 UNL     1       1.004  53.564 -22.792  1.00  0.00     0.000 A 
HETATM   35  C11 UNL     1       1.366  54.127 -21.569  1.00  0.00     0.001 A 
HETATM   36  C12 UNL     1       1.052  53.469 -20.378  1.00  0.00     0.007 A 
ENDBRANCH  30  31
ENDBRANCH  29  30
ENDBRANCH  28  29
ENDBRANCH  26  28
ENDBRANCH   3  26
TORSDOF 6
ENDMDL
MODEL 7
REMARK minimizedAffinity -8.67238712
REMARK  6 active torsions:
REMARK  status: ('A' for Active; 'I' for Inactive)
REMARK    1  A    between atoms: C3_3  and  C4_4 
REMARK    2  A    between atoms: C4_4  and  O2_6 
REMARK    3  A    between atoms: O2_6  and  C5_7 
REMARK    4  A    between atoms: C5_7  and  C6_8 
REMARK    5  A    between atoms: C6_8  and  C7_9 
REMARK    6  A    between atoms: C13_15  and  C14_16 
ROOT
HETATM    1  C1  UNL     1       0.335  52.814 -22.886  1.00  0.00     0.069 C 
HETATM    2  C2  UNL     1      -0.378  52.229 -21.695  1.00  0.00     0.018 A 
HETATM    3  C3  UNL     1      -1.643  51.748 -21.714  1.00  0.00     0.052 A 
HETATM    4  C13 UNL     1      -2.321  51.217 -20.453  1.00  0.00     0.104 A 
HETATM    5  C23 UNL     1      -1.442  51.347 -19.214  1.00  0.00     0.024 A 
HETATM    6  C24 UNL     1      -0.179  51.814 -19.290  1.00  0.00     0.020 A 
HETATM    7  C25 UNL     1       0.743  51.884 -18.098  1.00  0.00     0.058 C 
HETATM    8  C26 UNL     1       0.312  50.931 -16.991  1.00  0.00     0.014 C 
HETATM    9  C27 UNL     1      -1.158  51.119 -16.657  1.00  0.00     0.084 C 
HETATM   10  C28 UNL     1      -2.028  51.001 -17.888  1.00  0.00     0.158 C 
HETATM   11  O5  UNL     1      -3.216  50.695 -17.793  1.00  0.00    -0.293 OA
HETATM   12  N1  UNL     1       0.331  52.238 -20.503  1.00  0.00    -0.362 N 
HETATM   13  H24 UNL     1       1.305  52.525 -20.536  1.00  0.00     0.165 HD
ENDROOT
BRANCH   4  14
HETATM   14  C14 UNL     1      -2.831  49.798 -20.656  1.00  0.00     0.029 A 
HETATM   15  C15 UNL     1      -2.028  48.723 -20.608  1.00  0.00     0.154 A 
HETATM   16  O3  UNL     1      -2.393  47.410 -20.768  1.00  0.00    -0.321 OA
HETATM   17  C16 UNL     1      -3.715  47.144 -21.004  1.00  0.00     0.089 A 
HETATM   18  C17 UNL     1      -4.079  45.806 -21.160  1.00  0.00     0.040 A 
HETATM   19  C21 UNL     1      -4.680  48.145 -21.088  1.00  0.00     0.050 A 
HETATM   20  C18 UNL     1      -5.414  45.475 -21.401  1.00  0.00     0.026 A 
HETATM   21  C19 UNL     1      -6.377  46.482 -21.484  1.00  0.00     0.035 A 
HETATM   22 CL1  UNL     1      -8.019  46.066 -21.780  1.00  0.00    -0.084 Cl
HETATM   23  C20 UNL     1      -6.020  47.819 -21.329  1.00  0.00     0.042 A 
HETATM   24  C22 UNL     1      -4.270  49.549 -20.921  1.00  0.00     0.194 A 
HETATM   25  O4  UNL     1      -5.096  50.450 -21.001  1.00  0.00    -0.287 OA
ENDBRANCH   4  14
BRANCH   3  26
HETATM   26  C4  UNL     1      -2.485  51.720 -22.928  1.00  0.00     0.292 C 
HETATM   27  O1  UNL     1      -3.272  52.610 -23.216  1.00  0.00    -0.259 OA
BRANCH  26  28
HETATM   28  O2  UNL     1      -2.321  50.550 -23.590  1.00  0.00    -0.317 OA
BRANCH  28  29
HETATM   29  C5  UNL     1      -3.324  50.248 -24.574  1.00  0.00     0.183 C 
BRANCH  29  30
HETATM   30  C6  UNL     1      -3.110  48.847 -25.144  1.00  0.00     0.065 C 
BRANCH  30  31
HETATM   31  C7  UNL     1      -4.225  48.444 -26.072  1.00  0.00    -0.056 A 
HETATM   32  C8  UNL     1      -3.999  48.326 -27.449  1.00  0.00     0.007 A 
HETATM   33  C9  UNL     1      -5.028  47.930 -28.304  1.00  0.00     0.001 A 
HETATM   34  C10 UNL     1      -6.291  47.645 -27.789  1.00  0.00     0.000 A 
HETATM   35  C11 UNL     1      -6.528  47.757 -26.420  1.00  0.00     0.001 A 
HETATM   36  C12 UNL     1      -5.499  48.154 -25.565  1.00  0.00     0.007 A 
ENDBRANCH  30  31
ENDBRANCH  29  30
ENDBRANCH  28  29
ENDBRANCH  26  28
ENDBRANCH   3  26
TORSDOF 6
ENDMDL
MODEL 8
REMARK minimizedAffinity -8.48167324
REMARK  6 active torsions:
REMARK  status: ('A' for Active; 'I' for Inactive)
REMARK    1  A    between atoms: C3_3  and  C4_4 
REMARK    2  A    between atoms: C4_4  and  O2_6 
REMARK    3  A    between atoms: O2_6  and  C5_7 
REMARK    4  A    between atoms: C5_7  and  C6_8 
REMARK    5  A    between atoms: C6_8  and  C7_9 
REMARK    6  A    between atoms: C13_15  and  C14_16 
ROOT
HETATM    1  C1  UNL     1      -2.790  52.565 -26.020  1.00  0.00     0.069 C 
HETATM    2  C2  UNL     1      -2.414  52.269 -24.592  1.00  0.00     0.018 A 
HETATM    3  C3  UNL     1      -3.261  51.777 -23.658  1.00  0.00     0.052 A 
HETATM    4  C13 UNL     1      -2.823  51.551 -22.213  1.00  0.00     0.104 A 
HETATM    5  C23 UNL     1      -1.384  51.987 -21.961  1.00  0.00     0.024 A 
HETATM    6  C24 UNL     1      -0.599  52.443 -22.958  1.00  0.00     0.020 A 
HETATM    7  C25 UNL     1       0.851  52.810 -22.759  1.00  0.00     0.058 C 
HETATM    8  C26 UNL     1       1.441  52.141 -21.523  1.00  0.00     0.014 C 
HETATM    9  C27 UNL     1       0.562  52.380 -20.308  1.00  0.00     0.084 C 
HETATM   10  C28 UNL     1      -0.868  51.957 -20.563  1.00  0.00     0.158 C 
HETATM   11  O5  UNL     1      -1.613  51.664 -19.630  1.00  0.00    -0.293 OA
HETATM   12  N1  UNL     1      -1.109  52.574 -24.236  1.00  0.00    -0.362 N 
HETATM   13  H24 UNL     1      -0.473  52.860 -24.976  1.00  0.00     0.165 HD
ENDROOT
BRANCH   4  14
HETATM   14  C14 UNL     1      -3.079  50.116 -21.777  1.00  0.00     0.029 A 
HETATM   15  C15 UNL     1      -2.325  49.085 -22.190  1.00  0.00     0.154 A 
HETATM   16  O3  UNL     1      -2.471  47.765 -21.846  1.00  0.00    -0.321 OA
HETATM   17  C16 UNL     1      -3.489  47.440 -20.989  1.00  0.00     0.089 A 
HETATM   18  C17 UNL     1      -3.627  46.097 -20.641  1.00  0.00     0.040 A 
HETATM   19  C21 UNL     1      -4.366  48.390 -20.471  1.00  0.00     0.050 A 
HETATM   20  C18 UNL     1      -4.647  45.708 -19.769  1.00  0.00     0.026 A 
HETATM   21  C19 UNL     1      -5.522  46.664 -19.252  1.00  0.00     0.035 A 
HETATM   22 CL1  UNL     1      -6.775  46.178 -18.179  1.00  0.00    -0.084 Cl
HETATM   23  C20 UNL     1      -5.390  48.007 -19.597  1.00  0.00     0.042 A 
HETATM   24  C22 UNL     1      -4.200  49.802 -20.856  1.00  0.00     0.194 A 
HETATM   25  O4  UNL     1      -4.964  50.656 -20.423  1.00  0.00    -0.287 OA
ENDBRANCH   4  14
BRANCH   3  26
HETATM   26  C4  UNL     1      -4.675  51.447 -23.935  1.00  0.00     0.292 C 
HETATM   27  O1  UNL     1      -5.605  52.179 -23.628  1.00  0.00    -0.259 OA
BRANCH  26  28
HETATM   28  O2  UNL     1      -4.774  50.208 -24.473  1.00  0.00    -0.317 OA
BRANCH  28  29
HETATM   29  C5  UNL     1      -5.929  49.450 -24.077  1.00  0.00     0.183 C 
BRANCH  29  30
HETATM   30  C6  UNL     1      -5.819  48.009 -24.573  1.00  0.00     0.065 C 
BRANCH  30  31
HETATM   31  C7  UNL     1      -5.825  47.934 -26.077  1.00  0.00    -0.056 A 
HETATM   32  C8  UNL     1      -4.669  48.229 -26.810  1.00  0.00     0.007 A 
HETATM   33  C9  UNL     1      -4.671  48.134 -28.202  1.00  0.00     0.001 A 
HETATM   34  C10 UNL     1      -5.827  47.741 -28.873  1.00  0.00     0.000 A 
HETATM   35  C11 UNL     1      -6.983  47.442 -28.153  1.00  0.00     0.001 A 
HETATM   36  C12 UNL     1      -6.982  47.537 -26.761  1.00  0.00     0.007 A 
ENDBRANCH  30  31
ENDBRANCH  29  30
ENDBRANCH  28  29
ENDBRANCH  26  28
ENDBRANCH   3  26
TORSDOF 6
ENDMDL
MODEL 9
REMARK minimizedAffinity -8.47282887
REMARK  6 active torsions:
REMARK  status: ('A' for Active; 'I' for Inactive)
REMARK    1  A    between atoms: C3_3  and  C4_4 
REMARK    2  A    between atoms: C4_4  and  O2_6 
REMARK    3  A    between atoms: O2_6  and  C5_7 
REMARK    4  A    between atoms: C5_7  and  C6_8 
REMARK    5  A    between atoms: C6_8  and  C7_9 
REMARK    6  A    between atoms: C13_15  and  C14_16 
ROOT
HETATM    1  C1  UNL     1      -7.089  49.897 -20.764  1.00  0.00     0.069 C 
HETATM    2  C2  UNL     1      -5.593  49.719 -20.729  1.00  0.00     0.018 A 
HETATM    3  C3  UNL     1      -4.810  49.561 -21.821  1.00  0.00     0.052 A 
HETATM    4  C13 UNL     1      -3.305  49.333 -21.705  1.00  0.00     0.104 A 
HETATM    5  C23 UNL     1      -2.832  49.253 -20.258  1.00  0.00     0.024 A 
HETATM    6  C24 UNL     1      -3.678  49.451 -19.227  1.00  0.00     0.020 A 
HETATM    7  C25 UNL     1      -3.230  49.456 -17.787  1.00  0.00     0.058 C 
HETATM    8  C26 UNL     1      -1.739  49.740 -17.658  1.00  0.00     0.014 C 
HETATM    9  C27 UNL     1      -0.934  48.821 -18.561  1.00  0.00     0.084 C 
HETATM   10  C28 UNL     1      -1.411  48.892 -19.994  1.00  0.00     0.158 C 
HETATM   11  O5  UNL     1      -0.663  48.587 -20.922  1.00  0.00    -0.293 OA
HETATM   12  N1  UNL     1      -5.021  49.679 -19.466  1.00  0.00    -0.362 N 
HETATM   13  H24 UNL     1      -5.618  49.886 -18.670  1.00  0.00     0.165 HD
ENDROOT
BRANCH   4  14
HETATM   14  C14 UNL     1      -2.527  50.360 -22.515  1.00  0.00     0.029 A 
HETATM   15  C15 UNL     1      -2.282  51.602 -22.069  1.00  0.00     0.154 A 
HETATM   16  O3  UNL     1      -1.586  52.590 -22.717  1.00  0.00    -0.321 OA
HETATM   17  C16 UNL     1      -1.077  52.301 -23.956  1.00  0.00     0.089 A 
HETATM   18  C17 UNL     1      -0.366  53.310 -24.605  1.00  0.00     0.040 A 
HETATM   19  C21 UNL     1      -1.244  51.060 -24.565  1.00  0.00     0.050 A 
HETATM   20  C18 UNL     1       0.178  53.070 -25.870  1.00  0.00     0.026 A 
HETATM   21  C19 UNL     1       0.007  51.824 -26.476  1.00  0.00     0.035 A 
HETATM   22 CL1  UNL     1       0.680  51.536 -28.032  1.00  0.00    -0.084 Cl
HETATM   23  C20 UNL     1      -0.702  50.814 -25.832  1.00  0.00     0.042 A 
HETATM   24  C22 UNL     1      -2.000  50.012 -23.858  1.00  0.00     0.194 A 
HETATM   25  O4  UNL     1      -2.172  48.916 -24.376  1.00  0.00    -0.287 OA
ENDBRANCH   4  14
BRANCH   3  26
HETATM   26  C4  UNL     1      -5.332  49.562 -23.204  1.00  0.00     0.292 C 
HETATM   27  O1  UNL     1      -5.785  50.559 -23.746  1.00  0.00    -0.259 OA
BRANCH  26  28
HETATM   28  O2  UNL     1      -5.317  48.308 -23.715  1.00  0.00    -0.317 OA
BRANCH  28  29
HETATM   29  C5  UNL     1      -5.964  48.150 -24.989  1.00  0.00     0.183 C 
BRANCH  29  30
HETATM   30  C6  UNL     1      -4.951  48.290 -26.124  1.00  0.00     0.065 C 
BRANCH  30  31
HETATM   31  C7  UNL     1      -5.544  47.904 -27.454  1.00  0.00    -0.056 A 
HETATM   32  C8  UNL     1      -4.832  48.114 -28.641  1.00  0.00     0.007 A 
HETATM   33  C9  UNL     1      -5.375  47.734 -29.868  1.00  0.00     0.001 A 
HETATM   34  C10 UNL     1      -6.633  47.138 -29.920  1.00  0.00     0.000 A 
HETATM   35  C11 UNL     1      -7.351  46.922 -28.744  1.00  0.00     0.001 A 
HETATM   36  C12 UNL     1      -6.809  47.302 -27.516  1.00  0.00     0.007 A 
ENDBRANCH  30  31
ENDBRANCH  29  30
ENDBRANCH  28  29
ENDBRANCH  26  28
ENDBRANCH   3  26
TORSDOF 6
ENDMDL
