MODEL 1
REMARK minimizedAffinity -9.33804321
REMARK  7 active torsions:
REMARK  status: ('A' for Active; 'I' for Inactive)
REMARK    1  A    between atoms: C2_2  and  O2_4 
REMARK    2  A    between atoms: O2_4  and  C3_5 
REMARK    3  A    between atoms: C3_5  and  C4_6 
REMARK    4  A    between atoms: C3_5  and  C9_12 
REMARK    5  A    between atoms: C5_7  and  C6_8 
REMARK    6  A    between atoms: C6_8  and  O3_11 
REMARK    7  A    between atoms: C9_12  and  C11_14 
ROOT
HETATM    1  C11 UNL     1       0.812   5.812  11.875  1.00  0.00     0.001 C 
HETATM    2  C12 UNL     1       0.721   4.263  11.753  1.00  0.00     0.007 C 
HETATM    3  C13 UNL     1      -0.734   3.848  12.034  1.00  0.00     0.015 C 
HETATM    4  C14 UNL     1      -1.531   5.160  11.990  1.00  0.00    -0.013 C 
HETATM    5  C15 UNL     1      -1.862   5.448  10.491  1.00  0.00     0.021 C 
HETATM    6  C16 UNL     1      -2.872   5.218  12.711  1.00  0.00    -0.068 C 
HETATM    7  C17 UNL     1      -3.334   6.386  13.224  1.00  0.00    -0.068 C 
HETATM    8  C18 UNL     1      -2.500   7.672  13.099  1.00  0.00     0.036 C 
HETATM    9  C19 UNL     1      -1.082   7.561  12.490  1.00  0.00     0.015 C 
HETATM   10  C20 UNL     1      -0.501   6.150  12.656  1.00  0.00    -0.029 C 
HETATM   11  C21 UNL     1      -0.274   5.876  14.177  1.00  0.00     0.016 C 
HETATM   12  C22 UNL     1      -4.669   6.484  14.018  1.00  0.00    -0.015 C 
HETATM   13  C23 UNL     1      -4.304   6.896  15.473  1.00  0.00     0.020 C 
HETATM   14  C24 UNL     1      -5.590   7.549  13.380  1.00  0.00     0.021 C 
HETATM   15  C25 UNL     1      -6.854   7.830  14.186  1.00  0.00     0.080 C 
HETATM   16  C26 UNL     1      -7.379   6.610  14.907  1.00  0.00     0.135 C 
HETATM   17  O4  UNL     1      -8.129   6.746  15.875  1.00  0.00    -0.297 OA
HETATM   18  C27 UNL     1      -7.018   5.236  14.336  1.00  0.00     0.018 C 
HETATM   19  C28 UNL     1      -7.444   4.140  15.338  1.00  0.00     0.023 C 
HETATM   20  C29 UNL     1      -7.892   5.066  13.073  1.00  0.00     0.023 C 
HETATM   21  C30 UNL     1      -5.461   5.115  14.096  1.00  0.00     0.013 C 
HETATM   22  C31 UNL     1      -5.152   4.207  12.894  1.00  0.00     0.011 C 
HETATM   23  C32 UNL     1      -3.662   3.943  12.768  1.00  0.00     0.036 C 
ENDROOT
BRANCH   1  24
HETATM   24  C9  UNL     1       2.192   6.303  12.429  1.00  0.00     0.020 C 
HETATM   25  C10 UNL     1       2.025   7.552  13.309  1.00  0.00     0.013 C 
BRANCH  24  26
HETATM   26  C3  UNL     1       3.260   6.636  11.332  1.00  0.00     0.158 C 
BRANCH  26  27
HETATM   27  O2  UNL     1       4.350   7.386  11.903  1.00  0.00    -0.312 OA
BRANCH  27  28
HETATM   28  C2  UNL     1       5.610   6.961  11.616  1.00  0.00     0.255 C 
HETATM   29  C1  UNL     1       6.428   6.910  12.870  1.00  0.00     0.126 C 
HETATM   30  O1  UNL     1       6.025   6.628  10.515  1.00  0.00    -0.266 OA
ENDBRANCH  27  28
ENDBRANCH  26  27
BRANCH  26  31
HETATM   31  C4  UNL     1       2.735   7.468  10.188  1.00  0.00     0.005 C 
HETATM   32  C5  UNL     1       2.515   6.992   8.950  1.00  0.00     0.008 C 
BRANCH  32  33
HETATM   33  C6  UNL     1       1.993   7.750   7.750  1.00  0.00     0.068 C 
HETATM   34  C7  UNL     1       0.618   8.344   8.068  1.00  0.00     0.050 C 
HETATM   35  C8  UNL     1       1.923   6.952   6.443  1.00  0.00     0.050 C 
BRANCH  33  36
HETATM   36  O3  UNL     1       2.894   8.841   7.544  1.00  0.00    -0.387 OA
HETATM   37  H13 UNL     1       3.779   8.456   7.417  1.00  0.00     0.211 HD
ENDBRANCH  33  36
ENDBRANCH  32  33
ENDBRANCH  26  31
ENDBRANCH  24  26
ENDBRANCH   1  24
TORSDOF 7
ENDMDL
MODEL 2
REMARK minimizedAffinity -9.32841015
REMARK  7 active torsions:
REMARK  status: ('A' for Active; 'I' for Inactive)
REMARK    1  A    between atoms: C2_2  and  O2_4 
REMARK    2  A    between atoms: O2_4  and  C3_5 
REMARK    3  A    between atoms: C3_5  and  C4_6 
REMARK    4  A    between atoms: C3_5  and  C9_12 
REMARK    5  A    between atoms: C5_7  and  C6_8 
REMARK    6  A    between atoms: C6_8  and  O3_11 
REMARK    7  A    between atoms: C9_12  and  C11_14 
ROOT
HETATM    1  C11 UNL     1      -2.408   5.271  12.837  1.00  0.00     0.001 C 
HETATM    2  C12 UNL     1      -2.157   5.289  14.372  1.00  0.00     0.007 C 
HETATM    3  C13 UNL     1      -0.784   5.940  14.623  1.00  0.00     0.015 C 
HETATM    4  C14 UNL     1      -0.405   6.583  13.281  1.00  0.00    -0.013 C 
HETATM    5  C15 UNL     1      -1.101   7.979  13.226  1.00  0.00     0.021 C 
HETATM    6  C16 UNL     1       1.067   6.860  13.000  1.00  0.00    -0.068 C 
HETATM    7  C17 UNL     1       1.545   6.848  11.731  1.00  0.00    -0.068 C 
HETATM    8  C18 UNL     1       0.609   6.537  10.551  1.00  0.00     0.036 C 
HETATM    9  C19 UNL     1      -0.846   6.119  10.871  1.00  0.00     0.015 C 
HETATM   10  C20 UNL     1      -0.967   5.508  12.273  1.00  0.00    -0.029 C 
HETATM   11  C21 UNL     1      -0.180   4.159  12.303  1.00  0.00     0.016 C 
HETATM   12  C22 UNL     1       3.050   7.069  11.399  1.00  0.00    -0.015 C 
HETATM   13  C23 UNL     1       3.577   5.744  10.777  1.00  0.00     0.020 C 
HETATM   14  C24 UNL     1       3.208   8.229  10.390  1.00  0.00     0.021 C 
HETATM   15  C25 UNL     1       4.634   8.412   9.883  1.00  0.00     0.080 C 
HETATM   16  C26 UNL     1       5.679   8.073  10.920  1.00  0.00     0.135 C 
HETATM   17  O4  UNL     1       6.827   7.798  10.567  1.00  0.00    -0.297 OA
HETATM   18  C27 UNL     1       5.277   8.174  12.394  1.00  0.00     0.018 C 
HETATM   19  C28 UNL     1       6.396   7.565  13.270  1.00  0.00     0.023 C 
HETATM   20  C29 UNL     1       5.223   9.687  12.708  1.00  0.00     0.023 C 
HETATM   21  C30 UNL     1       3.938   7.383  12.672  1.00  0.00     0.013 C 
HETATM   22  C31 UNL     1       3.120   8.048  13.791  1.00  0.00     0.011 C 
HETATM   23  C32 UNL     1       1.925   7.197  14.184  1.00  0.00     0.036 C 
ENDROOT
BRANCH   1  24
HETATM   24  C9  UNL     1      -3.229   4.023  12.365  1.00  0.00     0.020 C 
HETATM   25  C10 UNL     1      -3.232   3.907  10.832  1.00  0.00     0.013 C 
BRANCH  24  26
HETATM   26  C3  UNL     1      -4.720   3.998  12.844  1.00  0.00     0.158 C 
BRANCH  26  27
HETATM   27  O2  UNL     1      -5.589   3.600  11.766  1.00  0.00    -0.312 OA
BRANCH  27  28
HETATM   28  C2  UNL     1      -6.411   2.541  11.993  1.00  0.00     0.255 C 
HETATM   29  C1  UNL     1      -5.883   1.327  11.291  1.00  0.00     0.126 C 
HETATM   30  O1  UNL     1      -7.415   2.543  12.692  1.00  0.00    -0.266 OA
ENDBRANCH  27  28
ENDBRANCH  26  27
BRANCH  26  31
HETATM   31  C4  UNL     1      -5.239   5.330  13.328  1.00  0.00     0.005 C 
HETATM   32  C5  UNL     1      -6.141   5.474  14.315  1.00  0.00     0.008 C 
BRANCH  32  33
HETATM   33  C6  UNL     1      -6.713   6.762  14.861  1.00  0.00     0.068 C 
HETATM   34  C7  UNL     1      -8.229   6.789  14.650  1.00  0.00     0.050 C 
HETATM   35  C8  UNL     1      -6.090   8.049  14.308  1.00  0.00     0.050 C 
BRANCH  33  36
HETATM   36  O3  UNL     1      -6.476   6.738  16.271  1.00  0.00    -0.387 OA
HETATM   37  H13 UNL     1      -5.515   6.645  16.395  1.00  0.00     0.211 HD
ENDBRANCH  33  36
ENDBRANCH  32  33
ENDBRANCH  26  31
ENDBRANCH  24  26
ENDBRANCH   1  24
TORSDOF 7
ENDMDL
MODEL 3
REMARK minimizedAffinity -9.30977726
REMARK  7 active torsions:
REMARK  status: ('A' for Active; 'I' for Inactive)
REMARK    1  A    between atoms: C2_2  and  O2_4 
REMARK    2  A    between atoms: O2_4  and  C3_5 
REMARK    3  A    between atoms: C3_5  and  C4_6 
REMARK    4  A    between atoms: C3_5  and  C9_12 
REMARK    5  A    between atoms: C5_7  and  C6_8 
REMARK    6  A    between atoms: C6_8  and  O3_11 
REMARK    7  A    between atoms: C9_12  and  C11_14 
ROOT
HETATM    1  C11 UNL     1      -5.282   6.184  14.982  1.00  0.00     0.001 C 
HETATM    2  C12 UNL     1      -4.882   7.632  15.387  1.00  0.00     0.007 C 
HETATM    3  C13 UNL     1      -6.160   8.490  15.417  1.00  0.00     0.015 C 
HETATM    4  C14 UNL     1      -7.312   7.476  15.355  1.00  0.00    -0.013 C 
HETATM    5  C15 UNL     1      -7.566   6.978  16.812  1.00  0.00     0.021 C 
HETATM    6  C16 UNL     1      -8.671   7.953  14.855  1.00  0.00    -0.068 C 
HETATM    7  C17 UNL     1      -9.516   7.100  14.225  1.00  0.00    -0.068 C 
HETATM    8  C18 UNL     1      -9.109   5.636  13.988  1.00  0.00     0.036 C 
HETATM    9  C19 UNL     1      -7.672   5.212  14.375  1.00  0.00     0.015 C 
HETATM   10  C20 UNL     1      -6.706   6.404  14.371  1.00  0.00    -0.029 C 
HETATM   11  C21 UNL     1      -6.556   6.923  12.905  1.00  0.00     0.016 C 
HETATM   12  C22 UNL     1     -10.889   7.553  13.646  1.00  0.00    -0.015 C 
HETATM   13  C23 UNL     1     -10.812   7.378  12.102  1.00  0.00     0.020 C 
HETATM   14  C24 UNL     1     -12.024   6.678  14.224  1.00  0.00     0.021 C 
HETATM   15  C25 UNL     1     -13.386   6.943  13.591  1.00  0.00     0.080 C 
HETATM   16  C26 UNL     1     -13.580   8.387  13.188  1.00  0.00     0.135 C 
HETATM   17  O4  UNL     1     -14.427   8.678  12.342  1.00  0.00    -0.297 OA
HETATM   18  C27 UNL     1     -12.761   9.448  13.927  1.00  0.00     0.018 C 
HETATM   19  C28 UNL     1     -12.927  10.808  13.213  1.00  0.00     0.023 C 
HETATM   20  C29 UNL     1     -13.412   9.581  15.322  1.00  0.00     0.023 C 
HETATM   21  C30 UNL     1     -11.226   9.073  13.936  1.00  0.00     0.013 C 
HETATM   22  C31 UNL     1     -10.537   9.578  15.214  1.00  0.00     0.011 C 
HETATM   23  C32 UNL     1      -9.033   9.380  15.149  1.00  0.00     0.036 C 
ENDROOT
BRANCH   1  24
HETATM   24  C9  UNL     1      -4.181   5.456  14.140  1.00  0.00     0.020 C 
HETATM   25  C10 UNL     1      -3.062   6.428  13.730  1.00  0.00     0.013 C 
BRANCH  24  26
HETATM   26  C3  UNL     1      -4.702   4.758  12.838  1.00  0.00     0.158 C 
BRANCH  26  27
HETATM   27  O2  UNL     1      -5.463   3.581  13.169  1.00  0.00    -0.312 OA
BRANCH  27  28
HETATM   28  C2  UNL     1      -6.291   3.089  12.208  1.00  0.00     0.255 C 
HETATM   29  C1  UNL     1      -7.319   2.195  12.831  1.00  0.00     0.126 C 
HETATM   30  O1  UNL     1      -6.247   3.352  11.014  1.00  0.00    -0.266 OA
ENDBRANCH  27  28
ENDBRANCH  26  27
BRANCH  26  31
HETATM   31  C4  UNL     1      -3.611   4.299  11.901  1.00  0.00     0.005 C 
HETATM   32  C5  UNL     1      -2.889   3.179  12.077  1.00  0.00     0.008 C 
BRANCH  32  33
HETATM   33  C6  UNL     1      -1.784   2.647  11.194  1.00  0.00     0.068 C 
HETATM   34  C7  UNL     1      -1.800   1.115  11.206  1.00  0.00     0.050 C 
HETATM   35  C8  UNL     1      -0.374   3.153  11.520  1.00  0.00     0.050 C 
BRANCH  33  36
HETATM   36  O3  UNL     1      -2.098   3.068   9.864  1.00  0.00    -0.387 OA
HETATM   37  H13 UNL     1      -2.159   4.039   9.881  1.00  0.00     0.211 HD
ENDBRANCH  33  36
ENDBRANCH  32  33
ENDBRANCH  26  31
ENDBRANCH  24  26
ENDBRANCH   1  24
TORSDOF 7
ENDMDL
MODEL 4
REMARK minimizedAffinity -9.23458767
REMARK  7 active torsions:
REMARK  status: ('A' for Active; 'I' for Inactive)
REMARK    1  A    between atoms: C2_2  and  O2_4 
REMARK    2  A    between atoms: O2_4  and  C3_5 
REMARK    3  A    between atoms: C3_5  and  C4_6 
REMARK    4  A    between atoms: C3_5  and  C9_12 
REMARK    5  A    between atoms: C5_7  and  C6_8 
REMARK    6  A    between atoms: C6_8  and  O3_11 
REMARK    7  A    between atoms: C9_12  and  C11_14 
ROOT
HETATM    1  C11 UNL     1      -3.453   4.940  13.154  1.00  0.00     0.001 C 
HETATM    2  C12 UNL     1      -3.450   4.399  11.695  1.00  0.00     0.007 C 
HETATM    3  C13 UNL     1      -2.061   4.668  11.089  1.00  0.00     0.015 C 
HETATM    4  C14 UNL     1      -1.181   5.055  12.286  1.00  0.00    -0.013 C 
HETATM    5  C15 UNL     1      -0.682   3.728  12.940  1.00  0.00     0.021 C 
HETATM    6  C16 UNL     1       0.081   5.868  12.026  1.00  0.00    -0.068 C 
HETATM    7  C17 UNL     1       0.563   6.721  12.964  1.00  0.00    -0.068 C 
HETATM    8  C18 UNL     1      -0.169   6.894  14.305  1.00  0.00     0.036 C 
HETATM    9  C19 UNL     1      -1.522   6.168  14.491  1.00  0.00     0.015 C 
HETATM   10  C20 UNL     1      -2.207   5.887  13.147  1.00  0.00    -0.029 C 
HETATM   11  C21 UNL     1      -2.605   7.248  12.492  1.00  0.00     0.016 C 
HETATM   12  C22 UNL     1       1.814   7.616  12.722  1.00  0.00    -0.015 C 
HETATM   13  C23 UNL     1       1.330   9.093  12.754  1.00  0.00     0.020 C 
HETATM   14  C24 UNL     1       2.862   7.376  13.833  1.00  0.00     0.021 C 
HETATM   15  C25 UNL     1       4.053   8.326  13.769  1.00  0.00     0.080 C 
HETATM   16  C26 UNL     1       4.422   8.717  12.357  1.00  0.00     0.135 C 
HETATM   17  O4  UNL     1       5.078   9.741  12.157  1.00  0.00    -0.297 OA
HETATM   18  C27 UNL     1       4.033   7.759  11.228  1.00  0.00     0.018 C 
HETATM   19  C28 UNL     1       4.284   8.447   9.867  1.00  0.00     0.023 C 
HETATM   20  C29 UNL     1       5.018   6.573  11.330  1.00  0.00     0.023 C 
HETATM   21  C30 UNL     1       2.503   7.371  11.317  1.00  0.00     0.013 C 
HETATM   22  C31 UNL     1       2.260   5.944  10.801  1.00  0.00     0.011 C 
HETATM   23  C32 UNL     1       0.777   5.630  10.717  1.00  0.00     0.036 C 
ENDROOT
BRANCH   1  24
HETATM   24  C9  UNL     1      -4.848   5.497  13.598  1.00  0.00     0.020 C 
HETATM   25  C10 UNL     1      -4.783   6.090  15.015  1.00  0.00     0.013 C 
BRANCH  24  26
HETATM   26  C3  UNL     1      -6.012   4.449  13.576  1.00  0.00     0.158 C 
BRANCH  26  27
HETATM   27  O2  UNL     1      -6.102   3.825  12.281  1.00  0.00    -0.312 OA
BRANCH  27  28
HETATM   28  C2  UNL     1      -6.686   2.597  12.226  1.00  0.00     0.255 C 
HETATM   29  C1  UNL     1      -5.907   1.703  11.311  1.00  0.00     0.126 C 
HETATM   30  O1  UNL     1      -7.676   2.241  12.850  1.00  0.00    -0.266 OA
ENDBRANCH  27  28
ENDBRANCH  26  27
BRANCH  26  31
HETATM   31  C4  UNL     1      -7.376   5.033  13.853  1.00  0.00     0.005 C 
HETATM   32  C5  UNL     1      -7.581   6.206  14.478  1.00  0.00     0.008 C 
BRANCH  32  33
HETATM   33  C6  UNL     1      -8.905   6.862  14.796  1.00  0.00     0.068 C 
HETATM   34  C7  UNL     1      -9.877   6.662  13.629  1.00  0.00     0.050 C 
HETATM   35  C8  UNL     1      -8.835   8.349  15.163  1.00  0.00     0.050 C 
BRANCH  33  36
HETATM   36  O3  UNL     1      -9.438   6.162  15.923  1.00  0.00    -0.387 OA
HETATM   37  H13 UNL     1      -8.780   6.231  16.636  1.00  0.00     0.211 HD
ENDBRANCH  33  36
ENDBRANCH  32  33
ENDBRANCH  26  31
ENDBRANCH  24  26
ENDBRANCH   1  24
TORSDOF 7
ENDMDL
MODEL 5
REMARK minimizedAffinity -9.20893574
REMARK  7 active torsions:
REMARK  status: ('A' for Active; 'I' for Inactive)
REMARK    1  A    between atoms: C2_2  and  O2_4 
REMARK    2  A    between atoms: O2_4  and  C3_5 
REMARK    3  A    between atoms: C3_5  and  C4_6 
REMARK    4  A    between atoms: C3_5  and  C9_12 
REMARK    5  A    between atoms: C5_7  and  C6_8 
REMARK    6  A    between atoms: C6_8  and  O3_11 
REMARK    7  A    between atoms: C9_12  and  C11_14 
ROOT
HETATM    1  C11 UNL     1       0.549   5.381  11.560  1.00  0.00     0.001 C 
HETATM    2  C12 UNL     1       0.333   3.840  11.580  1.00  0.00     0.007 C 
HETATM    3  C13 UNL     1      -1.120   3.568  12.011  1.00  0.00     0.015 C 
HETATM    4  C14 UNL     1      -1.818   4.932  11.918  1.00  0.00    -0.013 C 
HETATM    5  C15 UNL     1      -2.254   5.125  10.431  1.00  0.00     0.021 C 
HETATM    6  C16 UNL     1      -3.083   5.157  12.736  1.00  0.00    -0.068 C 
HETATM    7  C17 UNL     1      -3.411   6.395  13.181  1.00  0.00    -0.068 C 
HETATM    8  C18 UNL     1      -2.499   7.596  12.879  1.00  0.00     0.036 C 
HETATM    9  C19 UNL     1      -1.150   7.321  12.171  1.00  0.00     0.015 C 
HETATM   10  C20 UNL     1      -0.664   5.886  12.411  1.00  0.00    -0.029 C 
HETATM   11  C21 UNL     1      -0.327   5.717  13.927  1.00  0.00     0.016 C 
HETATM   12  C22 UNL     1      -4.662   6.665  14.068  1.00  0.00    -0.015 C 
HETATM   13  C23 UNL     1      -4.143   7.161  15.448  1.00  0.00     0.020 C 
HETATM   14  C24 UNL     1      -5.553   7.747  13.416  1.00  0.00     0.021 C 
HETATM   15  C25 UNL     1      -6.719   8.192  14.293  1.00  0.00     0.080 C 
HETATM   16  C26 UNL     1      -7.268   7.081  15.156  1.00  0.00     0.135 C 
HETATM   17  O4  UNL     1      -7.920   7.354  16.165  1.00  0.00    -0.297 OA
HETATM   18  C27 UNL     1      -7.060   5.641  14.679  1.00  0.00     0.018 C 
HETATM   19  C28 UNL     1      -7.479   4.667  15.803  1.00  0.00     0.023 C 
HETATM   20  C29 UNL     1      -8.051   5.442  13.509  1.00  0.00     0.023 C 
HETATM   21  C30 UNL     1      -5.543   5.375  14.327  1.00  0.00     0.013 C 
HETATM   22  C31 UNL     1      -5.408   4.351  13.187  1.00  0.00     0.011 C 
HETATM   23  C32 UNL     1      -3.958   3.958  12.966  1.00  0.00     0.036 C 
ENDROOT
BRANCH   1  24
HETATM   24  C9  UNL     1       2.004   5.802  11.957  1.00  0.00     0.020 C 
HETATM   25  C10 UNL     1       1.996   7.042  12.865  1.00  0.00     0.013 C 
BRANCH  24  26
HETATM   26  C3  UNL     1       2.954   6.104  10.749  1.00  0.00     0.158 C 
BRANCH  26  27
HETATM   27  O2  UNL     1       3.087   4.942   9.910  1.00  0.00    -0.312 OA
BRANCH  27  28
HETATM   28  C2  UNL     1       3.109   5.149   8.566  1.00  0.00     0.255 C 
HETATM   29  C1  UNL     1       2.403   6.428   8.236  1.00  0.00     0.126 C 
HETATM   30  O1  UNL     1       3.650   4.433   7.734  1.00  0.00    -0.266 OA
ENDBRANCH  27  28
ENDBRANCH  26  27
BRANCH  26  31
HETATM   31  C4  UNL     1       4.357   6.495  11.147  1.00  0.00     0.005 C 
HETATM   32  C5  UNL     1       4.983   7.602  10.710  1.00  0.00     0.008 C 
BRANCH  32  33
HETATM   33  C6  UNL     1       6.379   8.068  11.055  1.00  0.00     0.068 C 
HETATM   34  C7  UNL     1       6.639   7.867  12.551  1.00  0.00     0.050 C 
HETATM   35  C8  UNL     1       6.711   9.511  10.660  1.00  0.00     0.050 C 
BRANCH  33  36
HETATM   36  O3  UNL     1       7.274   7.208  10.345  1.00  0.00    -0.387 OA
HETATM   37  H13 UNL     1       7.051   7.285   9.401  1.00  0.00     0.211 HD
ENDBRANCH  33  36
ENDBRANCH  32  33
ENDBRANCH  26  31
ENDBRANCH  24  26
ENDBRANCH   1  24
TORSDOF 7
ENDMDL
MODEL 6
REMARK minimizedAffinity -8.87806892
REMARK  7 active torsions:
REMARK  status: ('A' for Active; 'I' for Inactive)
REMARK    1  A    between atoms: C2_2  and  O2_4 
REMARK    2  A    between atoms: O2_4  and  C3_5 
REMARK    3  A    between atoms: C3_5  and  C4_6 
REMARK    4  A    between atoms: C3_5  and  C9_12 
REMARK    5  A    between atoms: C5_7  and  C6_8 
REMARK    6  A    between atoms: C6_8  and  O3_11 
REMARK    7  A    between atoms: C9_12  and  C11_14 
ROOT
HETATM    1  C11 UNL     1      -5.025   6.230  15.183  1.00  0.00     0.001 C 
HETATM    2  C12 UNL     1      -4.664   7.712  15.488  1.00  0.00     0.007 C 
HETATM    3  C13 UNL     1      -5.963   8.537  15.452  1.00  0.00     0.015 C 
HETATM    4  C14 UNL     1      -7.089   7.493  15.456  1.00  0.00    -0.013 C 
HETATM    5  C15 UNL     1      -7.339   7.090  16.943  1.00  0.00     0.021 C 
HETATM    6  C16 UNL     1      -8.456   7.898  14.918  1.00  0.00    -0.068 C 
HETATM    7  C17 UNL     1      -9.275   6.982  14.345  1.00  0.00    -0.068 C 
HETATM    8  C18 UNL     1      -8.830   5.516  14.212  1.00  0.00     0.036 C 
HETATM    9  C19 UNL     1      -7.386   5.157  14.635  1.00  0.00     0.015 C 
HETATM   10  C20 UNL     1      -6.450   6.370  14.551  1.00  0.00    -0.029 C 
HETATM   11  C21 UNL     1      -6.304   6.790  13.054  1.00  0.00     0.016 C 
HETATM   12  C22 UNL     1     -10.656   7.359  13.730  1.00  0.00    -0.015 C 
HETATM   13  C23 UNL     1     -10.564   7.079  12.203  1.00  0.00     0.020 C 
HETATM   14  C24 UNL     1     -11.772   6.497  14.362  1.00  0.00     0.021 C 
HETATM   15  C25 UNL     1     -13.137   6.683  13.706  1.00  0.00     0.080 C 
HETATM   16  C26 UNL     1     -13.364   8.090  13.203  1.00  0.00     0.135 C 
HETATM   17  O4  UNL     1     -14.213   8.300  12.335  1.00  0.00    -0.297 OA
HETATM   18  C27 UNL     1     -12.576   9.220  13.870  1.00  0.00     0.018 C 
HETATM   19  C28 UNL     1     -12.773  10.523  13.063  1.00  0.00     0.023 C 
HETATM   20  C29 UNL     1     -13.240   9.433  15.250  1.00  0.00     0.023 C 
HETATM   21  C30 UNL     1     -11.033   8.886  13.912  1.00  0.00     0.013 C 
HETATM   22  C31 UNL     1     -10.365   9.496  15.156  1.00  0.00     0.011 C 
HETATM   23  C32 UNL     1      -8.856   9.332  15.111  1.00  0.00     0.036 C 
ENDROOT
BRANCH   1  24
HETATM   24  C9  UNL     1      -3.900   5.474  14.398  1.00  0.00     0.020 C 
HETATM   25  C10 UNL     1      -2.561   5.534  15.150  1.00  0.00     0.013 C 
BRANCH  24  26
HETATM   26  C3  UNL     1      -3.650   5.994  12.942  1.00  0.00     0.158 C 
BRANCH  26  27
HETATM   27  O2  UNL     1      -2.980   4.990  12.157  1.00  0.00    -0.312 OA
BRANCH  27  28
HETATM   28  C2  UNL     1      -3.764   4.126  11.457  1.00  0.00     0.255 C 
HETATM   29  C1  UNL     1      -4.839   3.581  12.347  1.00  0.00     0.126 C 
HETATM   30  O1  UNL     1      -3.653   3.850  10.271  1.00  0.00    -0.266 OA
ENDBRANCH  27  28
ENDBRANCH  26  27
BRANCH  26  31
HETATM   31  C4  UNL     1      -2.786   7.230  12.865  1.00  0.00     0.005 C 
HETATM   32  C5  UNL     1      -1.558   7.257  12.318  1.00  0.00     0.008 C 
BRANCH  32  33
HETATM   33  C6  UNL     1      -0.629   8.443  12.199  1.00  0.00     0.068 C 
HETATM   34  C7  UNL     1       0.050   8.436  10.826  1.00  0.00     0.050 C 
HETATM   35  C8  UNL     1       0.431   8.566  13.300  1.00  0.00     0.050 C 
BRANCH  33  36
HETATM   36  O3  UNL     1      -1.456   9.607  12.262  1.00  0.00    -0.387 OA
HETATM   37  H13 UNL     1      -1.940   9.565  13.105  1.00  0.00     0.211 HD
ENDBRANCH  33  36
ENDBRANCH  32  33
ENDBRANCH  26  31
ENDBRANCH  24  26
ENDBRANCH   1  24
TORSDOF 7
ENDMDL
MODEL 7
REMARK minimizedAffinity -8.85656929
REMARK  7 active torsions:
REMARK  status: ('A' for Active; 'I' for Inactive)
REMARK    1  A    between atoms: C2_2  and  O2_4 
REMARK    2  A    between atoms: O2_4  and  C3_5 
REMARK    3  A    between atoms: C3_5  and  C4_6 
REMARK    4  A    between atoms: C3_5  and  C9_12 
REMARK    5  A    between atoms: C5_7  and  C6_8 
REMARK    6  A    between atoms: C6_8  and  O3_11 
REMARK    7  A    between atoms: C9_12  and  C11_14 
ROOT
HETATM    1  C11 UNL     1      -3.955   6.132  13.509  1.00  0.00     0.001 C 
HETATM    2  C12 UNL     1      -4.690   6.619  14.791  1.00  0.00     0.007 C 
HETATM    3  C13 UNL     1      -3.771   7.616  15.518  1.00  0.00     0.015 C 
HETATM    4  C14 UNL     1      -2.670   7.947  14.500  1.00  0.00    -0.013 C 
HETATM    5  C15 UNL     1      -3.224   9.074  13.572  1.00  0.00     0.021 C 
HETATM    6  C16 UNL     1      -1.339   8.477  15.019  1.00  0.00    -0.068 C 
HETATM    7  C17 UNL     1      -0.187   8.240  14.344  1.00  0.00    -0.068 C 
HETATM    8  C18 UNL     1      -0.203   7.413  13.046  1.00  0.00     0.036 C 
HETATM    9  C19 UNL     1      -1.541   6.767  12.616  1.00  0.00     0.015 C 
HETATM   10  C20 UNL     1      -2.475   6.542  13.813  1.00  0.00    -0.029 C 
HETATM   11  C21 UNL     1      -1.834   5.474  14.756  1.00  0.00     0.016 C 
HETATM   12  C22 UNL     1       1.204   8.711  14.863  1.00  0.00    -0.015 C 
HETATM   13  C23 UNL     1       2.034   7.430  15.164  1.00  0.00     0.020 C 
HETATM   14  C24 UNL     1       1.913   9.562  13.785  1.00  0.00     0.021 C 
HETATM   15  C25 UNL     1       3.348   9.933  14.143  1.00  0.00     0.080 C 
HETATM   16  C26 UNL     1       3.555  10.139  15.626  1.00  0.00     0.135 C 
HETATM   17  O4  UNL     1       4.687  10.057  16.104  1.00  0.00    -0.297 OA
HETATM   18  C27 UNL     1       2.337  10.533  16.465  1.00  0.00     0.018 C 
HETATM   19  C28 UNL     1       2.706  10.461  17.964  1.00  0.00     0.023 C 
HETATM   20  C29 UNL     1       2.064  12.018  16.132  1.00  0.00     0.023 C 
HETATM   21  C30 UNL     1       1.126   9.553  16.202  1.00  0.00     0.013 C 
HETATM   22  C31 UNL     1      -0.221  10.282  16.342  1.00  0.00     0.011 C 
HETATM   23  C32 UNL     1      -1.386   9.311  16.266  1.00  0.00     0.036 C 
ENDROOT
BRANCH   1  24
HETATM   24  C9  UNL     1      -4.287   4.647  13.138  1.00  0.00     0.020 C 
HETATM   25  C10 UNL     1      -3.841   4.320  11.704  1.00  0.00     0.013 C 
BRANCH  24  26
HETATM   26  C3  UNL     1      -5.800   4.261  13.263  1.00  0.00     0.158 C 
BRANCH  26  27
HETATM   27  O2  UNL     1      -6.264   3.644  12.047  1.00  0.00    -0.312 OA
BRANCH  27  28
HETATM   28  C2  UNL     1      -6.885   2.439  12.163  1.00  0.00     0.255 C 
HETATM   29  C1  UNL     1      -6.102   1.391  11.434  1.00  0.00     0.126 C 
HETATM   30  O1  UNL     1      -7.908   2.212  12.794  1.00  0.00    -0.266 OA
ENDBRANCH  27  28
ENDBRANCH  26  27
BRANCH  26  31
HETATM   31  C4  UNL     1      -6.720   5.431  13.515  1.00  0.00     0.005 C 
HETATM   32  C5  UNL     1      -7.772   5.395  14.352  1.00  0.00     0.008 C 
BRANCH  32  33
HETATM   33  C6  UNL     1      -8.740   6.513  14.663  1.00  0.00     0.068 C 
HETATM   34  C7  UNL     1      -9.813   6.590  13.573  1.00  0.00     0.050 C 
HETATM   35  C8  UNL     1      -8.111   7.895  14.869  1.00  0.00     0.050 C 
BRANCH  33  36
HETATM   36  O3  UNL     1      -9.393   6.148  15.882  1.00  0.00    -0.387 OA
HETATM   37  H13 UNL     1      -8.697   6.028  16.551  1.00  0.00     0.211 HD
ENDBRANCH  33  36
ENDBRANCH  32  33
ENDBRANCH  26  31
ENDBRANCH  24  26
ENDBRANCH   1  24
TORSDOF 7
ENDMDL
MODEL 8
REMARK minimizedAffinity -8.72875881
REMARK  7 active torsions:
REMARK  status: ('A' for Active; 'I' for Inactive)
REMARK    1  A    between atoms: C2_2  and  O2_4 
REMARK    2  A    between atoms: O2_4  and  C3_5 
REMARK    3  A    between atoms: C3_5  and  C4_6 
REMARK    4  A    between atoms: C3_5  and  C9_12 
REMARK    5  A    between atoms: C5_7  and  C6_8 
REMARK    6  A    between atoms: C6_8  and  O3_11 
REMARK    7  A    between atoms: C9_12  and  C11_14 
ROOT
HETATM    1  C11 UNL     1      -2.295   5.817  13.503  1.00  0.00     0.001 C 
HETATM    2  C12 UNL     1      -2.277   5.409  12.001  1.00  0.00     0.007 C 
HETATM    3  C13 UNL     1      -0.862   5.672  11.453  1.00  0.00     0.015 C 
HETATM    4  C14 UNL     1       0.002   5.911  12.700  1.00  0.00    -0.013 C 
HETATM    5  C15 UNL     1       0.429   4.510  13.241  1.00  0.00     0.021 C 
HETATM    6  C16 UNL     1       1.302   6.689  12.542  1.00  0.00    -0.068 C 
HETATM    7  C17 UNL     1       1.794   7.433  13.564  1.00  0.00    -0.068 C 
HETATM    8  C18 UNL     1       1.036   7.516  14.899  1.00  0.00     0.036 C 
HETATM    9  C19 UNL     1      -0.351   6.835  14.989  1.00  0.00     0.015 C 
HETATM   10  C20 UNL     1      -1.011   6.706  13.610  1.00  0.00    -0.029 C 
HETATM   11  C21 UNL     1      -1.336   8.136  13.073  1.00  0.00     0.016 C 
HETATM   12  C22 UNL     1       3.087   8.291  13.432  1.00  0.00    -0.015 C 
HETATM   13  C23 UNL     1       2.664   9.779  13.588  1.00  0.00     0.020 C 
HETATM   14  C24 UNL     1       4.095   7.907  14.539  1.00  0.00     0.021 C 
HETATM   15  C25 UNL     1       5.326   8.806  14.588  1.00  0.00     0.080 C 
HETATM   16  C26 UNL     1       5.747   9.307  13.226  1.00  0.00     0.135 C 
HETATM   17  O4  UNL     1       6.449  10.315  13.134  1.00  0.00    -0.297 OA
HETATM   18  C27 UNL     1       5.347   8.472  12.007  1.00  0.00     0.018 C 
HETATM   19  C28 UNL     1       5.661   9.267  10.719  1.00  0.00     0.023 C 
HETATM   20  C29 UNL     1       6.280   7.240  12.022  1.00  0.00     0.023 C 
HETATM   21  C30 UNL     1       3.802   8.144  12.026  1.00  0.00     0.013 C 
HETATM   22  C31 UNL     1       3.514   6.780  11.378  1.00  0.00     0.011 C 
HETATM   23  C32 UNL     1       2.021   6.540  11.233  1.00  0.00     0.036 C 
ENDROOT
BRANCH   1  24
HETATM   24  C9  UNL     1      -3.676   6.392  13.966  1.00  0.00     0.020 C 
HETATM   25  C10 UNL     1      -3.857   6.249  15.486  1.00  0.00     0.013 C 
BRANCH  24  26
HETATM   26  C3  UNL     1      -4.924   5.740  13.277  1.00  0.00     0.158 C 
BRANCH  26  27
HETATM   27  O2  UNL     1      -5.803   5.171  14.265  1.00  0.00    -0.312 OA
BRANCH  27  28
HETATM   28  C2  UNL     1      -7.070   5.665  14.324  1.00  0.00     0.255 C 
HETATM   29  C1  UNL     1      -7.618   5.495  15.707  1.00  0.00     0.126 C 
HETATM   30  O1  UNL     1      -7.676   6.206  13.410  1.00  0.00    -0.266 OA
ENDBRANCH  27  28
ENDBRANCH  26  27
BRANCH  26  31
HETATM   31  C4  UNL     1      -4.590   4.621  12.321  1.00  0.00     0.005 C 
HETATM   32  C5  UNL     1      -5.188   3.417  12.333  1.00  0.00     0.008 C 
BRANCH  32  33
HETATM   33  C6  UNL     1      -4.918   2.245  11.417  1.00  0.00     0.068 C 
HETATM   34  C7  UNL     1      -6.145   1.330  11.369  1.00  0.00     0.050 C 
HETATM   35  C8  UNL     1      -3.669   1.421  11.748  1.00  0.00     0.050 C 
BRANCH  33  36
HETATM   36  O3  UNL     1      -4.742   2.793  10.108  1.00  0.00    -0.387 OA
HETATM   37  H13 UNL     1      -4.008   3.430  10.165  1.00  0.00     0.211 HD
ENDBRANCH  33  36
ENDBRANCH  32  33
ENDBRANCH  26  31
ENDBRANCH  24  26
ENDBRANCH   1  24
TORSDOF 7
ENDMDL
MODEL 9
REMARK minimizedAffinity -8.69179344
REMARK  7 active torsions:
REMARK  status: ('A' for Active; 'I' for Inactive)
REMARK    1  A    between atoms: C2_2  and  O2_4 
REMARK    2  A    between atoms: O2_4  and  C3_5 
REMARK    3  A    between atoms: C3_5  and  C4_6 
REMARK    4  A    between atoms: C3_5  and  C9_12 
REMARK    5  A    between atoms: C5_7  and  C6_8 
REMARK    6  A    between atoms: C6_8  and  O3_11 
REMARK    7  A    between atoms: C9_12  and  C11_14 
ROOT
HETATM    1  C11 UNL     1      -2.174   7.920  13.900  1.00  0.00     0.001 C 
HETATM    2  C12 UNL     1      -1.865   7.546  15.379  1.00  0.00     0.007 C 
HETATM    3  C13 UNL     1      -0.342   7.633  15.585  1.00  0.00     0.015 C 
HETATM    4  C14 UNL     1       0.180   8.364  14.339  1.00  0.00    -0.013 C 
HETATM    5  C15 UNL     1       0.018   9.895  14.602  1.00  0.00     0.021 C 
HETATM    6  C16 UNL     1       1.641   8.180  13.950  1.00  0.00    -0.068 C 
HETATM    7  C17 UNL     1       2.029   8.261  12.653  1.00  0.00    -0.068 C 
HETATM    8  C18 UNL     1       0.993   8.525  11.547  1.00  0.00     0.036 C 
HETATM    9  C19 UNL     1      -0.500   8.567  11.949  1.00  0.00     0.015 C 
HETATM   10  C20 UNL     1      -0.768   7.766  13.230  1.00  0.00    -0.029 C 
HETATM   11  C21 UNL     1      -0.505   6.253  12.941  1.00  0.00     0.016 C 
HETATM   12  C22 UNL     1       3.500   8.023  12.199  1.00  0.00    -0.015 C 
HETATM   13  C23 UNL     1       3.500   6.751  11.305  1.00  0.00     0.020 C 
HETATM   14  C24 UNL     1       4.011   9.239  11.394  1.00  0.00     0.021 C 
HETATM   15  C25 UNL     1       5.387   9.028  10.771  1.00  0.00     0.080 C 
HETATM   16  C26 UNL     1       6.290   8.157  11.613  1.00  0.00     0.135 C 
HETATM   17  O4  UNL     1       7.251   7.588  11.094  1.00  0.00    -0.297 OA
HETATM   18  C27 UNL     1       6.015   8.092  13.118  1.00  0.00     0.018 C 
HETATM   19  C28 UNL     1       6.885   6.981  13.747  1.00  0.00     0.023 C 
HETATM   20  C29 UNL     1       6.509   9.440  13.691  1.00  0.00     0.023 C 
HETATM   21  C30 UNL     1       4.496   7.759  13.402  1.00  0.00     0.013 C 
HETATM   22  C31 UNL     1       4.014   8.424  14.701  1.00  0.00     0.011 C 
HETATM   23  C32 UNL     1       2.615   7.965  15.072  1.00  0.00     0.036 C 
ENDROOT
BRANCH   1  24
HETATM   24  C9  UNL     1      -3.401   7.143  13.314  1.00  0.00     0.020 C 
HETATM   25  C10 UNL     1      -4.549   8.102  12.961  1.00  0.00     0.013 C 
BRANCH  24  26
HETATM   26  C3  UNL     1      -3.984   6.031  14.252  1.00  0.00     0.158 C 
BRANCH  26  27
HETATM   27  O2  UNL     1      -3.543   4.729  13.822  1.00  0.00    -0.312 OA
BRANCH  27  28
HETATM   28  C2  UNL     1      -4.209   4.164  12.779  1.00  0.00     0.255 C 
HETATM   29  C1  UNL     1      -3.339   4.163  11.560  1.00  0.00     0.126 C 
HETATM   30  O1  UNL     1      -5.334   3.686  12.816  1.00  0.00    -0.266 OA
ENDBRANCH  27  28
ENDBRANCH  26  27
BRANCH  26  31
HETATM   31  C4  UNL     1      -5.491   5.973  14.281  1.00  0.00     0.005 C 
HETATM   32  C5  UNL     1      -6.228   6.101  15.398  1.00  0.00     0.008 C 
BRANCH  32  33
HETATM   33  C6  UNL     1      -7.734   6.055  15.519  1.00  0.00     0.068 C 
HETATM   34  C7  UNL     1      -8.371   6.158  14.130  1.00  0.00     0.050 C 
HETATM   35  C8  UNL     1      -8.355   7.102  16.453  1.00  0.00     0.050 C 
BRANCH  33  36
HETATM   36  O3  UNL     1      -8.055   4.764  16.043  1.00  0.00    -0.387 OA
HETATM   37  H13 UNL     1      -7.585   4.679  16.891  1.00  0.00     0.211 HD
ENDBRANCH  33  36
ENDBRANCH  32  33
ENDBRANCH  26  31
ENDBRANCH  24  26
ENDBRANCH   1  24
TORSDOF 7
ENDMDL
