MODEL 1
REMARK minimizedAffinity -7.36185122
REMARK CNNscore 0.862440348
REMARK CNNaffinity 7.36313629
REMARK  7 active torsions:
REMARK  status: ('A' for Active; 'I' for Inactive)
REMARK    1  A    between atoms: C2_2  and  C30_33 
REMARK    2  A    between atoms: C3_3  and  C4_4 
REMARK    3  A    between atoms: C4_4  and  C5_5 
REMARK    4  A    between atoms: C5_5  and  C6_6 
REMARK    5  A    between atoms: C6_6  and  C8_8 
REMARK    6  A    between atoms: C19_20  and  O2_21 
REMARK    7  A    between atoms: C30_33  and  O5_35 
ROOT
HETATM    1  C8  UNL     1       4.771  55.448  -8.640  1.00  0.00    -0.002 C 
HETATM    2  C9  UNL     1       4.031  56.687  -8.064  1.00  0.00     0.007 C 
HETATM    3  C10 UNL     1       2.532  56.498  -8.406  1.00  0.00     0.018 C 
HETATM    4  C11 UNL     1       2.503  55.315  -9.389  1.00  0.00     0.025 C 
HETATM    5  C12 UNL     1       2.760  55.923 -10.796  1.00  0.00     0.024 C 
HETATM    6  C13 UNL     1       1.203  54.502  -9.466  1.00  0.00     0.147 C 
HETATM    7  O1  UNL     1       0.152  54.992  -9.052  1.00  0.00    -0.296 OA
HETATM    8  C14 UNL     1       1.248  53.099 -10.191  1.00  0.00     0.055 C 
HETATM    9  C15 UNL     1       2.614  52.384  -9.917  1.00  0.00     0.021 C 
HETATM   10  C16 UNL     1       3.875  53.255  -9.769  1.00  0.00     0.012 C 
HETATM   11  C17 UNL     1       3.624  54.411  -8.796  1.00  0.00    -0.026 C 
HETATM   12  C18 UNL     1       3.249  53.815  -7.405  1.00  0.00     0.016 C 
HETATM   13  C19 UNL     1       0.957  53.401 -11.709  1.00  0.00     0.135 C 
HETATM   14  C20 UNL     1      -0.447  52.872 -12.055  1.00  0.00     0.039 C 
HETATM   15  C21 UNL     1      -1.126  52.721 -10.700  1.00  0.00     0.012 C 
HETATM   16  C22 UNL     1      -2.492  51.986 -10.641  1.00  0.00     0.018 C 
HETATM   17  C23 UNL     1      -3.631  53.002 -10.877  1.00  0.00     0.023 C 
HETATM   18  C24 UNL     1      -2.662  50.869 -11.683  1.00  0.00     0.023 C 
HETATM   19  C25 UNL     1      -2.670  51.433  -9.218  1.00  0.00     0.135 C 
HETATM   20  O3  UNL     1      -3.411  50.482  -8.969  1.00  0.00    -0.297 OA
HETATM   21  C26 UNL     1      -1.933  52.159  -8.108  1.00  0.00     0.080 C 
HETATM   22  C27 UNL     1      -0.417  52.147  -8.312  1.00  0.00     0.018 C 
HETATM   23  C28 UNL     1       0.012  52.147  -9.805  1.00  0.00    -0.022 C 
HETATM   24  C29 UNL     1       0.321  50.660 -10.164  1.00  0.00     0.017 C 
ENDROOT
BRANCH  13  25
HETATM   25  O2  UNL     1       1.929  52.872 -12.598  1.00  0.00    -0.394 OA
HETATM   26  H29 UNL     1       1.796  51.912 -12.675  1.00  0.00     0.210 HD
ENDBRANCH  13  25
BRANCH   1  27
HETATM   27  C6  UNL     1       6.101  55.036  -7.942  1.00  0.00    -0.014 C 
HETATM   28  C7  UNL     1       7.005  54.344  -8.981  1.00  0.00     0.010 C 
BRANCH  27  29
HETATM   29  C5  UNL     1       6.886  56.172  -7.246  1.00  0.00     0.008 C 
BRANCH  29  30
HETATM   30  C4  UNL     1       7.176  55.897  -5.763  1.00  0.00     0.028 C 
BRANCH  30  31
HETATM   31  C3  UNL     1       8.624  55.545  -5.542  1.00  0.00    -0.013 C 
HETATM   32  C2  UNL     1       9.637  56.356  -5.175  1.00  0.00     0.008 C 
HETATM   33  C1  UNL     1      11.038  55.835  -5.023  1.00  0.00     0.055 C 
BRANCH  32  34
HETATM   34  C30 UNL     1       9.415  57.786  -4.845  1.00  0.00     0.171 C 
HETATM   35  O4  UNL     1       9.892  58.759  -5.403  1.00  0.00    -0.646 OA
BRANCH  34  36
HETATM   36  O5  UNL     1       8.564  57.933  -3.815  1.00  0.00    -0.773 OA
HETATM   37  H46 UNL     1       8.499  58.905  -3.719  1.00  0.00     0.167 HD
ENDBRANCH  34  36
ENDBRANCH  32  34
ENDBRANCH  30  31
ENDBRANCH  29  30
ENDBRANCH  27  29
ENDBRANCH   1  27
TORSDOF 7
ENDMDL
MODEL 2
REMARK minimizedAffinity -7.40239954
REMARK CNNscore 0.756261766
REMARK CNNaffinity 6.63416433
REMARK  7 active torsions:
REMARK  status: ('A' for Active; 'I' for Inactive)
REMARK    1  A    between atoms: C2_2  and  C30_33 
REMARK    2  A    between atoms: C3_3  and  C4_4 
REMARK    3  A    between atoms: C4_4  and  C5_5 
REMARK    4  A    between atoms: C5_5  and  C6_6 
REMARK    5  A    between atoms: C6_6  and  C8_8 
REMARK    6  A    between atoms: C19_20  and  O2_21 
REMARK    7  A    between atoms: C30_33  and  O5_35 
ROOT
HETATM    1  C8  UNL     1       5.058  55.233  -8.700  1.00  0.00    -0.002 C 
HETATM    2  C9  UNL     1       5.285  55.519 -10.210  1.00  0.00     0.007 C 
HETATM    3  C10 UNL     1       4.079  54.896 -10.958  1.00  0.00     0.018 C 
HETATM    4  C11 UNL     1       3.355  54.051  -9.894  1.00  0.00     0.025 C 
HETATM    5  C12 UNL     1       4.075  52.674  -9.883  1.00  0.00     0.024 C 
HETATM    6  C13 UNL     1       1.858  53.790 -10.109  1.00  0.00     0.147 C 
HETATM    7  O1  UNL     1       1.369  53.929 -11.231  1.00  0.00    -0.296 OA
HETATM    8  C14 UNL     1       1.021  53.234  -8.891  1.00  0.00     0.055 C 
HETATM    9  C15 UNL     1       1.532  53.853  -7.546  1.00  0.00     0.021 C 
HETATM   10  C16 UNL     1       3.033  54.169  -7.414  1.00  0.00     0.012 C 
HETATM   11  C17 UNL     1       3.531  54.950  -8.634  1.00  0.00    -0.026 C 
HETATM   12  C18 UNL     1       2.734  56.286  -8.727  1.00  0.00     0.016 C 
HETATM   13  C19 UNL     1       1.140  51.666  -8.979  1.00  0.00     0.135 C 
HETATM   14  C20 UNL     1      -0.222  51.094  -9.414  1.00  0.00     0.039 C 
HETATM   15  C21 UNL     1      -0.945  52.288 -10.023  1.00  0.00     0.012 C 
HETATM   16  C22 UNL     1      -2.452  52.138 -10.366  1.00  0.00     0.018 C 
HETATM   17  C23 UNL     1      -2.597  51.574 -11.796  1.00  0.00     0.023 C 
HETATM   18  C24 UNL     1      -3.229  51.201  -9.429  1.00  0.00     0.023 C 
HETATM   19  C25 UNL     1      -3.076  53.543 -10.371  1.00  0.00     0.135 C 
HETATM   20  O3  UNL     1      -4.281  53.728 -10.194  1.00  0.00    -0.297 OA
HETATM   21  C26 UNL     1      -2.145  54.702 -10.670  1.00  0.00     0.080 C 
HETATM   22  C27 UNL     1      -1.012  54.816  -9.648  1.00  0.00     0.018 C 
HETATM   23  C28 UNL     1      -0.563  53.451  -9.060  1.00  0.00    -0.022 C 
HETATM   24  C29 UNL     1      -1.294  53.314  -7.686  1.00  0.00     0.017 C 
ENDROOT
BRANCH  13  25
HETATM   25  O2  UNL     1       1.585  51.053  -7.779  1.00  0.00    -0.394 OA
HETATM   26  H29 UNL     1       0.854  51.047  -7.139  1.00  0.00     0.210 HD
ENDBRANCH  13  25
BRANCH   1  27
HETATM   27  C6  UNL     1       5.707  56.228  -7.692  1.00  0.00    -0.014 C 
HETATM   28  C7  UNL     1       4.651  57.279  -7.295  1.00  0.00     0.010 C 
BRANCH  27  29
HETATM   29  C5  UNL     1       6.322  55.604  -6.418  1.00  0.00     0.008 C 
BRANCH  29  30
HETATM   30  C4  UNL     1       7.081  56.615  -5.546  1.00  0.00     0.028 C 
BRANCH  30  31
HETATM   31  C3  UNL     1       8.520  56.209  -5.361  1.00  0.00    -0.013 C 
HETATM   32  C2  UNL     1       9.585  56.993  -5.094  1.00  0.00     0.008 C 
HETATM   33  C1  UNL     1      10.966  56.417  -4.964  1.00  0.00     0.055 C 
BRANCH  32  34
HETATM   34  C30 UNL     1       9.444  58.451  -4.857  1.00  0.00     0.171 C 
HETATM   35  O4  UNL     1       8.543  59.024  -4.270  1.00  0.00    -0.646 OA
BRANCH  34  36
HETATM   36  O5  UNL     1      10.481  59.140  -5.363  1.00  0.00    -0.773 OA
HETATM   37  H46 UNL     1      10.269  60.066  -5.126  1.00  0.00     0.167 HD
ENDBRANCH  34  36
ENDBRANCH  32  34
ENDBRANCH  30  31
ENDBRANCH  29  30
ENDBRANCH  27  29
ENDBRANCH   1  27
TORSDOF 7
ENDMDL
MODEL 3
REMARK minimizedAffinity -7.9597249
REMARK CNNscore 0.710412025
REMARK CNNaffinity 6.3837142
REMARK  7 active torsions:
REMARK  status: ('A' for Active; 'I' for Inactive)
REMARK    1  A    between atoms: C2_2  and  C30_33 
REMARK    2  A    between atoms: C3_3  and  C4_4 
REMARK    3  A    between atoms: C4_4  and  C5_5 
REMARK    4  A    between atoms: C5_5  and  C6_6 
REMARK    5  A    between atoms: C6_6  and  C8_8 
REMARK    6  A    between atoms: C19_20  and  O2_21 
REMARK    7  A    between atoms: C30_33  and  O5_35 
ROOT
HETATM    1  C8  UNL     1     -12.525  46.074 -27.181  1.00  0.00    -0.002 C 
HETATM    2  C9  UNL     1     -13.289  45.342 -28.319  1.00  0.00     0.007 C 
HETATM    3  C10 UNL     1     -12.404  45.461 -29.586  1.00  0.00     0.018 C 
HETATM    4  C11 UNL     1     -11.313  46.478 -29.204  1.00  0.00     0.025 C 
HETATM    5  C12 UNL     1     -11.921  47.880 -29.482  1.00  0.00     0.024 C 
HETATM    6  C13 UNL     1      -9.981  46.391 -29.963  1.00  0.00     0.147 C 
HETATM    7  O1  UNL     1      -9.933  45.803 -31.044  1.00  0.00    -0.296 OA
HETATM    8  C14 UNL     1      -8.741  47.173 -29.375  1.00  0.00     0.055 C 
HETATM    9  C15 UNL     1      -8.764  47.138 -27.809  1.00  0.00     0.021 C 
HETATM   10  C16 UNL     1     -10.131  47.146 -27.100  1.00  0.00     0.012 C 
HETATM   11  C17 UNL     1     -11.065  46.098 -27.714  1.00  0.00    -0.026 C 
HETATM   12  C18 UNL     1     -10.412  44.693 -27.547  1.00  0.00     0.016 C 
HETATM   13  C19 UNL     1      -8.817  48.616 -30.001  1.00  0.00     0.135 C 
HETATM   14  C20 UNL     1      -7.678  48.767 -31.025  1.00  0.00     0.039 C 
HETATM   15  C21 UNL     1      -7.272  47.333 -31.338  1.00  0.00     0.012 C 
HETATM   16  C22 UNL     1      -5.982  47.099 -32.171  1.00  0.00     0.018 C 
HETATM   17  C23 UNL     1      -6.333  47.117 -33.674  1.00  0.00     0.023 C 
HETATM   18  C24 UNL     1      -4.882  48.149 -31.951  1.00  0.00     0.023 C 
HETATM   19  C25 UNL     1      -5.461  45.690 -31.847  1.00  0.00     0.135 C 
HETATM   20  O3  UNL     1      -4.282  45.372 -32.006  1.00  0.00    -0.297 OA
HETATM   21  C26 UNL     1      -6.486  44.674 -31.379  1.00  0.00     0.080 C 
HETATM   22  C27 UNL     1      -7.183  45.105 -30.087  1.00  0.00     0.018 C 
HETATM   23  C28 UNL     1      -7.333  46.644 -29.943  1.00  0.00    -0.022 C 
HETATM   24  C29 UNL     1      -6.155  47.108 -29.028  1.00  0.00     0.017 C 
ENDROOT
BRANCH  13  25
HETATM   25  O2  UNL     1      -8.778  49.662 -29.044  1.00  0.00    -0.394 OA
HETATM   26  H29 UNL     1      -7.867  49.758 -28.719  1.00  0.00     0.210 HD
ENDBRANCH  13  25
BRANCH   1  27
HETATM   27  C6  UNL     1     -12.813  45.602 -25.725  1.00  0.00    -0.014 C 
HETATM   28  C7  UNL     1     -12.705  46.821 -24.787  1.00  0.00     0.010 C 
BRANCH  27  29
HETATM   29  C5  UNL     1     -14.164  44.888 -25.494  1.00  0.00     0.008 C 
BRANCH  29  30
HETATM   30  C4  UNL     1     -15.356  45.850 -25.390  1.00  0.00     0.028 C 
BRANCH  30  31
HETATM   31  C3  UNL     1     -16.545  45.336 -26.160  1.00  0.00    -0.013 C 
HETATM   32  C2  UNL     1     -17.855  45.530 -25.905  1.00  0.00     0.008 C 
HETATM   33  C1  UNL     1     -18.918  44.918 -26.774  1.00  0.00     0.055 C 
BRANCH  32  34
HETATM   34  C30 UNL     1     -18.318  46.401 -24.797  1.00  0.00     0.171 C 
HETATM   35  O4  UNL     1     -18.797  47.518 -24.881  1.00  0.00    -0.646 OA
BRANCH  34  36
HETATM   36  O5  UNL     1     -18.174  45.803 -23.601  1.00  0.00    -0.773 OA
HETATM   37  H46 UNL     1     -18.526  46.470 -22.976  1.00  0.00     0.167 HD
ENDBRANCH  34  36
ENDBRANCH  32  34
ENDBRANCH  30  31
ENDBRANCH  29  30
ENDBRANCH  27  29
ENDBRANCH   1  27
TORSDOF 7
ENDMDL
MODEL 4
REMARK minimizedAffinity -7.21186113
REMARK CNNscore 0.704653978
REMARK CNNaffinity 6.93523073
REMARK  7 active torsions:
REMARK  status: ('A' for Active; 'I' for Inactive)
REMARK    1  A    between atoms: C2_2  and  C30_33 
REMARK    2  A    between atoms: C3_3  and  C4_4 
REMARK    3  A    between atoms: C4_4  and  C5_5 
REMARK    4  A    between atoms: C5_5  and  C6_6 
REMARK    5  A    between atoms: C6_6  and  C8_8 
REMARK    6  A    between atoms: C19_20  and  O2_21 
REMARK    7  A    between atoms: C30_33  and  O5_35 
ROOT
HETATM    1  C8  UNL     1       1.458  55.215  -9.762  1.00  0.00    -0.002 C 
HETATM    2  C9  UNL     1       0.879  55.695  -8.402  1.00  0.00     0.007 C 
HETATM    3  C10 UNL     1      -0.449  54.923  -8.195  1.00  0.00     0.018 C 
HETATM    4  C11 UNL     1      -0.718  54.243  -9.550  1.00  0.00     0.025 C 
HETATM    5  C12 UNL     1      -1.454  55.300 -10.418  1.00  0.00     0.024 C 
HETATM    6  C13 UNL     1      -1.581  52.973  -9.534  1.00  0.00     0.147 C 
HETATM    7  O1  UNL     1      -2.306  52.740  -8.566  1.00  0.00    -0.296 OA
HETATM    8  C14 UNL     1      -1.592  52.070 -10.830  1.00  0.00     0.055 C 
HETATM    9  C15 UNL     1      -0.178  52.058 -11.502  1.00  0.00     0.021 C 
HETATM   10  C16 UNL     1       0.679  53.335 -11.418  1.00  0.00     0.012 C 
HETATM   11  C17 UNL     1       0.729  53.860  -9.980  1.00  0.00    -0.026 C 
HETATM   12  C18 UNL     1       1.360  52.761  -9.073  1.00  0.00     0.016 C 
HETATM   13  C19 UNL     1      -2.745  52.646 -11.735  1.00  0.00     0.135 C 
HETATM   14  C20 UNL     1      -3.913  51.642 -11.741  1.00  0.00     0.039 C 
HETATM   15  C21 UNL     1      -3.656  50.772 -10.518  1.00  0.00     0.012 C 
HETATM   16  C22 UNL     1      -4.515  49.492 -10.333  1.00  0.00     0.018 C 
HETATM   17  C23 UNL     1      -5.804  49.848  -9.562  1.00  0.00     0.023 C 
HETATM   18  C24 UNL     1      -4.945  48.817 -11.645  1.00  0.00     0.023 C 
HETATM   19  C25 UNL     1      -3.721  48.514  -9.453  1.00  0.00     0.135 C 
HETATM   20  O3  UNL     1      -3.925  47.299  -9.470  1.00  0.00    -0.297 OA
HETATM   21  C26 UNL     1      -2.704  49.120  -8.504  1.00  0.00     0.080 C 
HETATM   22  C27 UNL     1      -1.617  49.905  -9.241  1.00  0.00     0.018 C 
HETATM   23  C28 UNL     1      -2.111  50.574 -10.553  1.00  0.00    -0.022 C 
HETATM   24  C29 UNL     1      -1.688  49.615 -11.710  1.00  0.00     0.017 C 
ENDROOT
BRANCH  13  25
HETATM   25  O2  UNL     1      -2.338  52.956 -13.058  1.00  0.00    -0.394 OA
HETATM   26  H29 UNL     1      -2.242  52.129 -13.559  1.00  0.00     0.210 HD
ENDBRANCH  13  25
BRANCH   1  27
HETATM   27  C6  UNL     1       3.002  55.303  -9.938  1.00  0.00    -0.014 C 
HETATM   28  C7  UNL     1       3.311  56.348 -11.029  1.00  0.00     0.010 C 
BRANCH  27  29
HETATM   29  C5  UNL     1       3.817  55.627  -8.665  1.00  0.00     0.008 C 
BRANCH  29  30
HETATM   30  C4  UNL     1       5.337  55.594  -8.885  1.00  0.00     0.028 C 
BRANCH  30  31
HETATM   31  C3  UNL     1       5.788  54.254  -9.404  1.00  0.00    -0.013 C 
HETATM   32  C2  UNL     1       6.258  53.200  -8.705  1.00  0.00     0.008 C 
HETATM   33  C1  UNL     1       6.688  51.936  -9.394  1.00  0.00     0.055 C 
BRANCH  32  34
HETATM   34  C30 UNL     1       6.320  53.208  -7.223  1.00  0.00     0.171 C 
HETATM   35  O4  UNL     1       6.965  53.957  -6.510  1.00  0.00    -0.646 OA
BRANCH  34  36
HETATM   36  O5  UNL     1       5.530  52.261  -6.686  1.00  0.00    -0.773 OA
HETATM   37  H46 UNL     1       5.655  52.388  -5.723  1.00  0.00     0.167 HD
ENDBRANCH  34  36
ENDBRANCH  32  34
ENDBRANCH  30  31
ENDBRANCH  29  30
ENDBRANCH  27  29
ENDBRANCH   1  27
TORSDOF 7
ENDMDL
MODEL 5
REMARK minimizedAffinity -6.93520355
REMARK CNNscore 0.649977684
REMARK CNNaffinity 6.67416334
REMARK  7 active torsions:
REMARK  status: ('A' for Active; 'I' for Inactive)
REMARK    1  A    between atoms: C2_2  and  C30_33 
REMARK    2  A    between atoms: C3_3  and  C4_4 
REMARK    3  A    between atoms: C4_4  and  C5_5 
REMARK    4  A    between atoms: C5_5  and  C6_6 
REMARK    5  A    between atoms: C6_6  and  C8_8 
REMARK    6  A    between atoms: C19_20  and  O2_21 
REMARK    7  A    between atoms: C30_33  and  O5_35 
ROOT
HETATM    1  C8  UNL     1       1.719  54.811 -10.055  1.00  0.00    -0.002 C 
HETATM    2  C9  UNL     1       1.272  55.214  -8.623  1.00  0.00     0.007 C 
HETATM    3  C10 UNL     1      -0.039  54.437  -8.340  1.00  0.00     0.018 C 
HETATM    4  C11 UNL     1      -0.438  53.839  -9.701  1.00  0.00     0.025 C 
HETATM    5  C12 UNL     1      -1.239  54.949 -10.437  1.00  0.00     0.024 C 
HETATM    6  C13 UNL     1      -1.309  52.575  -9.681  1.00  0.00     0.147 C 
HETATM    7  O1  UNL     1      -1.944  52.288  -8.665  1.00  0.00    -0.296 OA
HETATM    8  C14 UNL     1      -1.447  51.748 -11.020  1.00  0.00     0.055 C 
HETATM    9  C15 UNL     1      -0.100  51.769 -11.819  1.00  0.00     0.021 C 
HETATM   10  C16 UNL     1       0.774  53.035 -11.740  1.00  0.00     0.012 C 
HETATM   11  C17 UNL     1       0.960  53.474 -10.284  1.00  0.00    -0.026 C 
HETATM   12  C18 UNL     1       1.660  52.321  -9.503  1.00  0.00     0.016 C 
HETATM   13  C19 UNL     1      -2.672  52.382 -11.781  1.00  0.00     0.135 C 
HETATM   14  C20 UNL     1      -3.845  51.386 -11.739  1.00  0.00     0.039 C 
HETATM   15  C21 UNL     1      -3.486  50.445 -10.596  1.00  0.00     0.012 C 
HETATM   16  C22 UNL     1      -4.338  49.160 -10.408  1.00  0.00     0.018 C 
HETATM   17  C23 UNL     1      -5.548  49.477  -9.503  1.00  0.00     0.023 C 
HETATM   18  C24 UNL     1      -4.893  48.565 -11.712  1.00  0.00     0.023 C 
HETATM   19  C25 UNL     1      -3.477  48.128  -9.662  1.00  0.00     0.135 C 
HETATM   20  O3  UNL     1      -3.694  46.918  -9.730  1.00  0.00    -0.297 OA
HETATM   21  C26 UNL     1      -2.372  48.673  -8.777  1.00  0.00     0.080 C 
HETATM   22  C27 UNL     1      -1.349  49.495  -9.564  1.00  0.00     0.018 C 
HETATM   23  C28 UNL     1      -1.954  50.242 -10.784  1.00  0.00    -0.022 C 
HETATM   24  C29 UNL     1      -1.647  49.350 -12.028  1.00  0.00     0.017 C 
ENDROOT
BRANCH  13  25
HETATM   25  O2  UNL     1      -2.384  52.767 -13.116  1.00  0.00    -0.394 OA
HETATM   26  H29 UNL     1      -2.342  51.970 -13.671  1.00  0.00     0.210 HD
ENDBRANCH  13  25
BRANCH   1  27
HETATM   27  C6  UNL     1       3.243  54.902 -10.367  1.00  0.00    -0.014 C 
HETATM   28  C7  UNL     1       3.520  56.250 -11.061  1.00  0.00     0.010 C 
BRANCH  27  29
HETATM   29  C5  UNL     1       4.197  54.734  -9.162  1.00  0.00     0.008 C 
BRANCH  29  30
HETATM   30  C4  UNL     1       5.571  55.386  -9.373  1.00  0.00     0.028 C 
BRANCH  30  31
HETATM   31  C3  UNL     1       6.189  55.800  -8.063  1.00  0.00    -0.013 C 
HETATM   32  C2  UNL     1       5.683  56.622  -7.120  1.00  0.00     0.008 C 
HETATM   33  C1  UNL     1       6.455  56.947  -5.873  1.00  0.00     0.055 C 
BRANCH  32  34
HETATM   34  C30 UNL     1       4.323  57.202  -7.235  1.00  0.00     0.171 C 
HETATM   35  O4  UNL     1       3.935  58.033  -8.037  1.00  0.00    -0.646 OA
BRANCH  34  36
HETATM   36  O5  UNL     1       3.481  56.679  -6.326  1.00  0.00    -0.773 OA
HETATM   37  H46 UNL     1       2.635  57.130  -6.522  1.00  0.00     0.167 HD
ENDBRANCH  34  36
ENDBRANCH  32  34
ENDBRANCH  30  31
ENDBRANCH  29  30
ENDBRANCH  27  29
ENDBRANCH   1  27
TORSDOF 7
ENDMDL
MODEL 6
REMARK minimizedAffinity -7.84844828
REMARK CNNscore 0.590636969
REMARK CNNaffinity 6.23840475
REMARK  7 active torsions:
REMARK  status: ('A' for Active; 'I' for Inactive)
REMARK    1  A    between atoms: C2_2  and  C30_33 
REMARK    2  A    between atoms: C3_3  and  C4_4 
REMARK    3  A    between atoms: C4_4  and  C5_5 
REMARK    4  A    between atoms: C5_5  and  C6_6 
REMARK    5  A    between atoms: C6_6  and  C8_8 
REMARK    6  A    between atoms: C19_20  and  O2_21 
REMARK    7  A    between atoms: C30_33  and  O5_35 
ROOT
HETATM    1  C8  UNL     1     -13.423  45.849 -26.868  1.00  0.00    -0.002 C 
HETATM    2  C9  UNL     1     -12.895  46.984 -25.948  1.00  0.00     0.007 C 
HETATM    3  C10 UNL     1     -11.454  47.298 -26.423  1.00  0.00     0.018 C 
HETATM    4  C11 UNL     1     -11.112  46.162 -27.405  1.00  0.00     0.025 C 
HETATM    5  C12 UNL     1     -10.582  44.991 -26.532  1.00  0.00     0.024 C 
HETATM    6  C13 UNL     1     -10.053  46.460 -28.475  1.00  0.00     0.147 C 
HETATM    7  O1  UNL     1      -9.275  47.402 -28.318  1.00  0.00    -0.296 OA
HETATM    8  C14 UNL     1      -9.927  45.460 -29.691  1.00  0.00     0.055 C 
HETATM    9  C15 UNL     1     -11.338  44.916 -30.102  1.00  0.00     0.021 C 
HETATM   10  C16 UNL     1     -12.390  44.712 -28.996  1.00  0.00     0.012 C 
HETATM   11  C17 UNL     1     -12.488  45.955 -28.105  1.00  0.00    -0.026 C 
HETATM   12  C18 UNL     1     -12.906  47.167 -28.990  1.00  0.00     0.016 C 
HETATM   13  C19 UNL     1      -8.908  44.354 -29.223  1.00  0.00     0.135 C 
HETATM   14  C20 UNL     1      -7.593  44.537 -30.002  1.00  0.00     0.039 C 
HETATM   15  C21 UNL     1      -7.672  45.965 -30.525  1.00  0.00     0.012 C 
HETATM   16  C22 UNL     1      -6.610  46.428 -31.559  1.00  0.00     0.018 C 
HETATM   17  C23 UNL     1      -5.376  46.981 -30.813  1.00  0.00     0.023 C 
HETATM   18  C24 UNL     1      -6.109  45.321 -32.500  1.00  0.00     0.023 C 
HETATM   19  C25 UNL     1      -7.210  47.594 -32.362  1.00  0.00     0.135 C 
HETATM   20  O3  UNL     1      -6.810  47.892 -33.488  1.00  0.00    -0.297 OA
HETATM   21  C26 UNL     1      -8.287  48.412 -31.675  1.00  0.00     0.080 C 
HETATM   22  C27 UNL     1      -9.507  47.569 -31.299  1.00  0.00     0.018 C 
HETATM   23  C28 UNL     1      -9.163  46.093 -30.955  1.00  0.00    -0.022 C 
HETATM   24  C29 UNL     1      -9.454  45.271 -32.251  1.00  0.00     0.017 C 
ENDROOT
BRANCH  13  25
HETATM   25  O2  UNL     1      -9.395  43.028 -29.358  1.00  0.00    -0.394 OA
HETATM   26  H29 UNL     1      -9.368  42.777 -30.297  1.00  0.00     0.210 HD
ENDBRANCH  13  25
BRANCH   1  27
HETATM   27  C6  UNL     1     -14.965  45.765 -27.066  1.00  0.00    -0.014 C 
HETATM   28  C7  UNL     1     -15.262  44.703 -28.144  1.00  0.00     0.010 C 
BRANCH  27  29
HETATM   29  C5  UNL     1     -15.800  45.465 -25.800  1.00  0.00     0.008 C 
BRANCH  29  30
HETATM   30  C4  UNL     1     -16.065  46.704 -24.933  1.00  0.00     0.028 C 
BRANCH  30  31
HETATM   31  C3  UNL     1     -16.741  46.334 -23.638  1.00  0.00    -0.013 C 
HETATM   32  C2  UNL     1     -18.061  46.256 -23.375  1.00  0.00     0.008 C 
HETATM   33  C1  UNL     1     -18.564  45.891 -22.006  1.00  0.00     0.055 C 
BRANCH  32  34
HETATM   34  C30 UNL     1     -19.084  46.467 -24.428  1.00  0.00     0.171 C 
HETATM   35  O4  UNL     1     -19.845  45.640 -24.900  1.00  0.00    -0.646 OA
BRANCH  34  36
HETATM   36  O5  UNL     1     -19.121  47.747 -24.838  1.00  0.00    -0.773 OA
HETATM   37  H46 UNL     1     -19.836  47.745 -25.507  1.00  0.00     0.167 HD
ENDBRANCH  34  36
ENDBRANCH  32  34
ENDBRANCH  30  31
ENDBRANCH  29  30
ENDBRANCH  27  29
ENDBRANCH   1  27
TORSDOF 7
ENDMDL
MODEL 7
REMARK minimizedAffinity -7.06136465
REMARK CNNscore 0.539424419
REMARK CNNaffinity 6.7987771
REMARK  7 active torsions:
REMARK  status: ('A' for Active; 'I' for Inactive)
REMARK    1  A    between atoms: C2_2  and  C30_33 
REMARK    2  A    between atoms: C3_3  and  C4_4 
REMARK    3  A    between atoms: C4_4  and  C5_5 
REMARK    4  A    between atoms: C5_5  and  C6_6 
REMARK    5  A    between atoms: C6_6  and  C8_8 
REMARK    6  A    between atoms: C19_20  and  O2_21 
REMARK    7  A    between atoms: C30_33  and  O5_35 
ROOT
HETATM    1  C8  UNL     1      -3.706  51.166 -10.516  1.00  0.00    -0.002 C 
HETATM    2  C9  UNL     1      -3.744  51.532 -12.025  1.00  0.00     0.007 C 
HETATM    3  C10 UNL     1      -2.580  52.527 -12.263  1.00  0.00     0.018 C 
HETATM    4  C11 UNL     1      -2.095  52.903 -10.852  1.00  0.00     0.025 C 
HETATM    5  C12 UNL     1      -3.011  54.067 -10.382  1.00  0.00     0.024 C 
HETATM    6  C13 UNL     1      -0.640  53.374 -10.715  1.00  0.00     0.147 C 
HETATM    7  O1  UNL     1      -0.034  53.776 -11.709  1.00  0.00    -0.296 OA
HETATM    8  C14 UNL     1      -0.015  53.435  -9.266  1.00  0.00     0.055 C 
HETATM    9  C15 UNL     1      -0.551  52.255  -8.387  1.00  0.00     0.021 C 
HETATM   10  C16 UNL     1      -1.994  51.769  -8.621  1.00  0.00     0.012 C 
HETATM   11  C17 UNL     1      -2.252  51.540 -10.114  1.00  0.00    -0.026 C 
HETATM   12  C18 UNL     1      -1.258  50.455 -10.628  1.00  0.00     0.016 C 
HETATM   13  C19 UNL     1      -0.359  54.871  -8.719  1.00  0.00     0.135 C 
HETATM   14  C20 UNL     1       0.936  55.703  -8.672  1.00  0.00     0.039 C 
HETATM   15  C21 UNL     1       1.884  54.958  -9.604  1.00  0.00     0.012 C 
HETATM   16  C22 UNL     1       3.376  55.385  -9.627  1.00  0.00     0.018 C 
HETATM   17  C23 UNL     1       3.569  56.517 -10.659  1.00  0.00     0.023 C 
HETATM   18  C24 UNL     1       3.913  55.903  -8.284  1.00  0.00     0.023 C 
HETATM   19  C25 UNL     1       4.203  54.185 -10.116  1.00  0.00     0.135 C 
HETATM   20  O3  UNL     1       5.400  54.059  -9.854  1.00  0.00    -0.297 OA
HETATM   21  C26 UNL     1       3.489  53.180 -11.000  1.00  0.00     0.080 C 
HETATM   22  C27 UNL     1       2.295  52.531 -10.296  1.00  0.00     0.018 C 
HETATM   23  C28 UNL     1       1.592  53.465  -9.272  1.00  0.00    -0.022 C 
HETATM   24  C29 UNL     1       2.162  53.072  -7.872  1.00  0.00     0.017 C 
ENDROOT
BRANCH  13  25
HETATM   25  O2  UNL     1      -1.002  54.866  -7.454  1.00  0.00    -0.394 OA
HETATM   26  H29 UNL     1      -0.344  54.669  -6.767  1.00  0.00     0.210 HD
ENDBRANCH  13  25
BRANCH   1  27
HETATM   27  C6  UNL     1      -4.290  49.779 -10.115  1.00  0.00    -0.014 C 
HETATM   28  C7  UNL     1      -3.703  49.379  -8.746  1.00  0.00     0.010 C 
BRANCH  27  29
HETATM   29  C5  UNL     1      -5.831  49.675 -10.068  1.00  0.00     0.008 C 
BRANCH  29  30
HETATM   30  C4  UNL     1      -6.356  48.247 -10.277  1.00  0.00     0.028 C 
BRANCH  30  31
HETATM   31  C3  UNL     1      -7.858  48.225 -10.389  1.00  0.00    -0.013 C 
HETATM   32  C2  UNL     1      -8.772  48.227  -9.397  1.00  0.00     0.008 C 
HETATM   33  C1  UNL     1     -10.245  48.178  -9.692  1.00  0.00     0.055 C 
BRANCH  32  34
HETATM   34  C30 UNL     1      -8.380  48.337  -7.970  1.00  0.00     0.171 C 
HETATM   35  O4  UNL     1      -8.041  47.437  -7.222  1.00  0.00    -0.646 OA
BRANCH  34  36
HETATM   36  O5  UNL     1      -8.411  49.611  -7.542  1.00  0.00    -0.773 OA
HETATM   37  H46 UNL     1      -8.120  49.539  -6.610  1.00  0.00     0.167 HD
ENDBRANCH  34  36
ENDBRANCH  32  34
ENDBRANCH  30  31
ENDBRANCH  29  30
ENDBRANCH  27  29
ENDBRANCH   1  27
TORSDOF 7
ENDMDL
MODEL 8
REMARK minimizedAffinity -8.28152657
REMARK CNNscore 0.516685367
REMARK CNNaffinity 6.44786119
REMARK  7 active torsions:
REMARK  status: ('A' for Active; 'I' for Inactive)
REMARK    1  A    between atoms: C2_2  and  C30_33 
REMARK    2  A    between atoms: C3_3  and  C4_4 
REMARK    3  A    between atoms: C4_4  and  C5_5 
REMARK    4  A    between atoms: C5_5  and  C6_6 
REMARK    5  A    between atoms: C6_6  and  C8_8 
REMARK    6  A    between atoms: C19_20  and  O2_21 
REMARK    7  A    between atoms: C30_33  and  O5_35 
ROOT
HETATM    1  C8  UNL     1      -7.260  47.478 -19.859  1.00  0.00    -0.002 C 
HETATM    2  C9  UNL     1      -6.039  46.748 -19.234  1.00  0.00     0.007 C 
HETATM    3  C10 UNL     1      -4.820  47.091 -20.129  1.00  0.00     0.018 C 
HETATM    4  C11 UNL     1      -5.428  47.769 -21.370  1.00  0.00     0.025 C 
HETATM    5  C12 UNL     1      -5.826  46.616 -22.333  1.00  0.00     0.024 C 
HETATM    6  C13 UNL     1      -4.525  48.734 -22.151  1.00  0.00     0.147 C 
HETATM    7  O1  UNL     1      -3.302  48.675 -22.010  1.00  0.00    -0.296 OA
HETATM    8  C14 UNL     1      -5.204  49.695 -23.205  1.00  0.00     0.055 C 
HETATM    9  C15 UNL     1      -6.609  50.162 -22.695  1.00  0.00     0.021 C 
HETATM   10  C16 UNL     1      -7.440  49.181 -21.848  1.00  0.00     0.012 C 
HETATM   11  C17 UNL     1      -6.589  48.582 -20.723  1.00  0.00    -0.026 C 
HETATM   12  C18 UNL     1      -6.082  49.741 -19.813  1.00  0.00     0.016 C 
HETATM   13  C19 UNL     1      -5.231  48.885 -24.556  1.00  0.00     0.135 C 
HETATM   14  C20 UNL     1      -4.210  49.512 -25.524  1.00  0.00     0.039 C 
HETATM   15  C21 UNL     1      -3.292  50.321 -24.617  1.00  0.00     0.012 C 
HETATM   16  C22 UNL     1      -2.269  51.284 -25.278  1.00  0.00     0.018 C 
HETATM   17  C23 UNL     1      -0.964  50.516 -25.580  1.00  0.00     0.023 C 
HETATM   18  C24 UNL     1      -2.742  51.908 -26.600  1.00  0.00     0.023 C 
HETATM   19  C25 UNL     1      -1.921  52.377 -24.254  1.00  0.00     0.135 C 
HETATM   20  O3  UNL     1      -1.489  53.480 -24.591  1.00  0.00    -0.297 OA
HETATM   21  C26 UNL     1      -2.074  52.014 -22.790  1.00  0.00     0.080 C 
HETATM   22  C27 UNL     1      -3.512  51.632 -22.433  1.00  0.00     0.018 C 
HETATM   23  C28 UNL     1      -4.285  50.954 -23.597  1.00  0.00    -0.022 C 
HETATM   24  C29 UNL     1      -5.138  52.081 -24.260  1.00  0.00     0.017 C 
ENDROOT
BRANCH  13  25
HETATM   25  O2  UNL     1      -6.514  48.809 -25.156  1.00  0.00    -0.394 OA
HETATM   26  H29 UNL     1      -6.722  49.665 -25.565  1.00  0.00     0.210 HD
ENDBRANCH  13  25
BRANCH   1  27
HETATM   27  C6  UNL     1      -8.425  47.849 -18.895  1.00  0.00    -0.014 C 
HETATM   28  C7  UNL     1      -7.955  48.997 -17.979  1.00  0.00     0.010 C 
BRANCH  27  29
HETATM   29  C5  UNL     1      -9.766  48.233 -19.561  1.00  0.00     0.008 C 
BRANCH  29  30
HETATM   30  C4  UNL     1     -10.990  47.964 -18.673  1.00  0.00     0.028 C 
BRANCH  30  31
HETATM   31  C3  UNL     1     -12.231  47.747 -19.500  1.00  0.00    -0.013 C 
HETATM   32  C2  UNL     1     -13.512  47.674 -19.085  1.00  0.00     0.008 C 
HETATM   33  C1  UNL     1     -14.633  47.426 -20.054  1.00  0.00     0.055 C 
BRANCH  32  34
HETATM   34  C30 UNL     1     -13.890  47.892 -17.667  1.00  0.00     0.171 C 
HETATM   35  O4  UNL     1     -13.448  47.321 -16.685  1.00  0.00    -0.646 OA
BRANCH  34  36
HETATM   36  O5  UNL     1     -14.816  48.859 -17.541  1.00  0.00    -0.773 OA
HETATM   37  H46 UNL     1     -14.956  48.906 -16.574  1.00  0.00     0.167 HD
ENDBRANCH  34  36
ENDBRANCH  32  34
ENDBRANCH  30  31
ENDBRANCH  29  30
ENDBRANCH  27  29
ENDBRANCH   1  27
TORSDOF 7
ENDMDL
MODEL 9
REMARK minimizedAffinity -8.98730755
REMARK CNNscore 0.447330475
REMARK CNNaffinity 6.58447504
REMARK  7 active torsions:
REMARK  status: ('A' for Active; 'I' for Inactive)
REMARK    1  A    between atoms: C2_2  and  C30_33 
REMARK    2  A    between atoms: C3_3  and  C4_4 
REMARK    3  A    between atoms: C4_4  and  C5_5 
REMARK    4  A    between atoms: C5_5  and  C6_6 
REMARK    5  A    between atoms: C6_6  and  C8_8 
REMARK    6  A    between atoms: C19_20  and  O2_21 
REMARK    7  A    between atoms: C30_33  and  O5_35 
ROOT
HETATM    1  C8  UNL     1      -6.454  48.242 -22.816  1.00  0.00    -0.002 C 
HETATM    2  C9  UNL     1      -7.037  49.537 -23.446  1.00  0.00     0.007 C 
HETATM    3  C10 UNL     1      -6.158  50.706 -22.935  1.00  0.00     0.018 C 
HETATM    4  C11 UNL     1      -5.286  50.083 -21.831  1.00  0.00     0.025 C 
HETATM    5  C12 UNL     1      -6.138  50.140 -20.532  1.00  0.00     0.024 C 
HETATM    6  C13 UNL     1      -3.942  50.763 -21.533  1.00  0.00     0.147 C 
HETATM    7  O1  UNL     1      -3.757  51.928 -21.890  1.00  0.00    -0.296 OA
HETATM    8  C14 UNL     1      -2.886  49.970 -20.668  1.00  0.00     0.055 C 
HETATM    9  C15 UNL     1      -2.943  48.441 -21.000  1.00  0.00     0.021 C 
HETATM   10  C16 UNL     1      -4.305  47.826 -21.369  1.00  0.00     0.012 C 
HETATM   11  C17 UNL     1      -5.011  48.673 -22.433  1.00  0.00    -0.026 C 
HETATM   12  C18 UNL     1      -4.111  48.723 -23.704  1.00  0.00     0.016 C 
HETATM   13  C19 UNL     1      -3.213  50.331 -19.170  1.00  0.00     0.135 C 
HETATM   14  C20 UNL     1      -2.096  51.240 -18.628  1.00  0.00     0.039 C 
HETATM   15  C21 UNL     1      -1.421  51.781 -19.882  1.00  0.00     0.012 C 
HETATM   16  C22 UNL     1      -0.090  52.563 -19.721  1.00  0.00     0.018 C 
HETATM   17  C23 UNL     1      -0.398  54.057 -19.484  1.00  0.00     0.023 C 
HETATM   18  C24 UNL     1       0.790  52.092 -18.552  1.00  0.00     0.023 C 
HETATM   19  C25 UNL     1       0.677  52.467 -21.050  1.00  0.00     0.135 C 
HETATM   20  O3  UNL     1       1.898  52.609 -21.117  1.00  0.00    -0.297 OA
HETATM   21  C26 UNL     1      -0.153  52.252 -22.302  1.00  0.00     0.080 C 
HETATM   22  C27 UNL     1      -0.951  50.947 -22.253  1.00  0.00     0.018 C 
HETATM   23  C28 UNL     1      -1.390  50.538 -20.820  1.00  0.00    -0.022 C 
HETATM   24  C29 UNL     1      -0.343  49.486 -20.334  1.00  0.00     0.017 C 
ENDROOT
BRANCH  13  25
HETATM   25  O2  UNL     1      -3.395  49.200 -18.333  1.00  0.00    -0.394 OA
HETATM   26  H29 UNL     1      -2.526  48.809 -18.138  1.00  0.00     0.210 HD
ENDBRANCH  13  25
BRANCH   1  27
HETATM   27  C6  UNL     1      -6.686  46.915 -23.597  1.00  0.00    -0.014 C 
HETATM   28  C7  UNL     1      -7.221  45.856 -22.612  1.00  0.00     0.010 C 
BRANCH  27  29
HETATM   29  C5  UNL     1      -7.622  47.000 -24.825  1.00  0.00     0.008 C 
BRANCH  29  30
HETATM   30  C4  UNL     1      -6.948  47.597 -26.069  1.00  0.00     0.028 C 
BRANCH  30  31
HETATM   31  C3  UNL     1      -7.847  47.512 -27.275  1.00  0.00    -0.013 C 
HETATM   32  C2  UNL     1      -9.092  48.009 -27.428  1.00  0.00     0.008 C 
HETATM   33  C1  UNL     1      -9.861  47.808 -28.703  1.00  0.00     0.055 C 
BRANCH  32  34
HETATM   34  C30 UNL     1      -9.745  48.825 -26.375  1.00  0.00     0.171 C 
HETATM   35  O4  UNL     1     -10.600  48.469 -25.583  1.00  0.00    -0.646 OA
BRANCH  34  36
HETATM   36  O5  UNL     1      -9.264  50.081 -26.349  1.00  0.00    -0.773 OA
HETATM   37  H46 UNL     1      -9.761  50.493 -25.613  1.00  0.00     0.167 HD
ENDBRANCH  34  36
ENDBRANCH  32  34
ENDBRANCH  30  31
ENDBRANCH  29  30
ENDBRANCH  27  29
ENDBRANCH   1  27
TORSDOF 7
ENDMDL
