MODEL 1
REMARK minimizedAffinity -9.97348022
REMARK  9 active torsions:
REMARK  status: ('A' for Active; 'I' for Inactive)
REMARK    1  A    between atoms: C2_2  and  C3_3 
REMARK    2  A    between atoms: C2_2  and  C9_12 
REMARK    3  A    between atoms: C3_3  and  C4_4 
REMARK    4  A    between atoms: C4_4  and  O1_5 
REMARK    5  A    between atoms: C4_4  and  C5_6 
REMARK    6  A    between atoms: C5_6  and  O2_7 
REMARK    7  A    between atoms: C5_6  and  C6_8 
REMARK    8  A    between atoms: C6_8  and  O3_11 
REMARK    9  A    between atoms: C15_18  and  O4_19 
ROOT
HETATM    1  C9  UNL     1      -7.229   7.229  14.018  1.00  0.00    -0.002 C 
HETATM    2  C10 UNL     1      -7.115   8.503  14.913  1.00  0.00     0.006 C 
HETATM    3  C11 UNL     1      -5.655   8.619  15.389  1.00  0.00     0.011 C 
HETATM    4  C12 UNL     1      -4.875   7.634  14.508  1.00  0.00    -0.030 C 
HETATM    5  C13 UNL     1      -4.591   8.374  13.162  1.00  0.00     0.016 C 
HETATM    6  C14 UNL     1      -3.539   7.090  15.105  1.00  0.00     0.032 C 
HETATM    7  C15 UNL     1      -2.517   8.174  15.515  1.00  0.00     0.124 C 
HETATM    8  C16 UNL     1      -1.543   8.665  14.448  1.00  0.00     0.038 C 
HETATM    9  C17 UNL     1      -1.065   7.674  13.372  1.00  0.00     0.012 C 
HETATM   10  C18 UNL     1       0.494   7.550  13.221  1.00  0.00     0.018 C 
HETATM   11  C19 UNL     1       1.089   8.868  12.691  1.00  0.00     0.023 C 
HETATM   12  C20 UNL     1       1.213   7.166  14.525  1.00  0.00     0.023 C 
HETATM   13  C21 UNL     1       0.803   6.467  12.167  1.00  0.00     0.135 C 
HETATM   14  O5  UNL     1       1.922   5.955  12.061  1.00  0.00    -0.297 OA
HETATM   15  C22 UNL     1      -0.306   6.104  11.210  1.00  0.00     0.080 C 
HETATM   16  C23 UNL     1      -1.528   5.604  11.979  1.00  0.00     0.018 C 
HETATM   17  C24 UNL     1      -1.716   6.294  13.332  1.00  0.00    -0.026 A 
HETATM   18  C25 UNL     1      -1.635   5.401  14.549  1.00  0.00     0.021 A 
HETATM   19  C26 UNL     1      -2.973   5.996  14.171  1.00  0.00    -0.025 A 
HETATM   20  C27 UNL     1      -3.993   4.936  13.726  1.00  0.00     0.011 C 
HETATM   21  C28 UNL     1      -5.373   5.478  13.328  1.00  0.00     0.011 C 
HETATM   22  C29 UNL     1      -5.923   6.453  14.382  1.00  0.00    -0.032 C 
HETATM   23  C30 UNL     1      -6.171   5.670  15.712  1.00  0.00     0.016 C 
ENDROOT
BRANCH   1  24
HETATM   24  C2  UNL     1      -8.626   6.542  14.155  1.00  0.00    -0.011 C 
HETATM   25  C1  UNL     1      -8.956   5.660  12.947  1.00  0.00     0.010 C 
BRANCH  24  26
HETATM   26  C3  UNL     1      -9.729   7.622  14.358  1.00  0.00     0.039 C 
BRANCH  26  27
HETATM   27  C4  UNL     1     -11.185   7.117  14.286  1.00  0.00     0.150 C 
BRANCH  27  28
HETATM   28  O1  UNL     1     -11.913   7.572  15.431  1.00  0.00    -0.393 OA
HETATM   29  H8  UNL     1     -11.808   8.540  15.485  1.00  0.00     0.210 HD
ENDBRANCH  27  28
BRANCH  27  30
HETATM   30  C5  UNL     1     -11.887   7.577  12.975  1.00  0.00     0.180 C 
BRANCH  30  31
HETATM   31  O2  UNL     1     -13.148   6.914  12.839  1.00  0.00    -0.390 OA
HETATM   32  H10 UNL     1     -12.980   6.024  12.484  1.00  0.00     0.210 HD
ENDBRANCH  30  31
BRANCH  30  33
HETATM   33  C6  UNL     1     -12.075   9.124  12.869  1.00  0.00     0.079 C 
HETATM   34  C7  UNL     1     -11.203   9.903  13.860  1.00  0.00     0.048 C 
HETATM   35  C8  UNL     1     -13.545   9.498  13.106  1.00  0.00     0.048 C 
BRANCH  33  36
HETATM   36  O3  UNL     1     -11.756   9.565  11.540  1.00  0.00    -0.388 OA
HETATM   37  H17 UNL     1     -10.827   9.301  11.372  1.00  0.00     0.210 HD
ENDBRANCH  33  36
ENDBRANCH  30  33
ENDBRANCH  27  30
ENDBRANCH  26  27
ENDBRANCH  24  26
ENDBRANCH   1  24
BRANCH   7  38
HETATM   38  O4  UNL     1      -1.751   7.691  16.632  1.00  0.00    -0.395 OA
HETATM   39  H28 UNL     1      -1.243   8.440  16.990  1.00  0.00     0.210 HD
ENDBRANCH   7  38
TORSDOF 9
ENDMDL
MODEL 2
REMARK minimizedAffinity -9.38949966
REMARK  9 active torsions:
REMARK  status: ('A' for Active; 'I' for Inactive)
REMARK    1  A    between atoms: C2_2  and  C3_3 
REMARK    2  A    between atoms: C2_2  and  C9_12 
REMARK    3  A    between atoms: C3_3  and  C4_4 
REMARK    4  A    between atoms: C4_4  and  O1_5 
REMARK    5  A    between atoms: C4_4  and  C5_6 
REMARK    6  A    between atoms: C5_6  and  O2_7 
REMARK    7  A    between atoms: C5_6  and  C6_8 
REMARK    8  A    between atoms: C6_8  and  O3_11 
REMARK    9  A    between atoms: C15_18  and  O4_19 
ROOT
HETATM    1  C9  UNL     1      -4.048   8.610  13.535  1.00  0.00    -0.002 C 
HETATM    2  C10 UNL     1      -3.554   9.942  14.180  1.00  0.00     0.006 C 
HETATM    3  C11 UNL     1      -2.023   9.857  14.330  1.00  0.00     0.011 C 
HETATM    4  C12 UNL     1      -1.611   8.652  13.474  1.00  0.00    -0.030 C 
HETATM    5  C13 UNL     1      -1.530   9.164  12.000  1.00  0.00     0.016 C 
HETATM    6  C14 UNL     1      -0.269   7.958  13.867  1.00  0.00     0.032 C 
HETATM    7  C15 UNL     1       0.965   8.887  13.891  1.00  0.00     0.124 C 
HETATM    8  C16 UNL     1       1.737   9.068  12.588  1.00  0.00     0.038 C 
HETATM    9  C17 UNL     1       1.814   7.887  11.604  1.00  0.00     0.012 C 
HETATM   10  C18 UNL     1       3.264   7.474  11.164  1.00  0.00     0.018 C 
HETATM   11  C19 UNL     1       3.911   8.594  10.328  1.00  0.00     0.023 C 
HETATM   12  C20 UNL     1       4.193   7.130  12.341  1.00  0.00     0.023 C 
HETATM   13  C21 UNL     1       3.170   6.235  10.251  1.00  0.00     0.135 C 
HETATM   14  O5  UNL     1       4.149   5.526  10.003  1.00  0.00    -0.297 OA
HETATM   15  C22 UNL     1       1.834   5.960   9.604  1.00  0.00     0.080 C 
HETATM   16  C23 UNL     1       0.755   5.778  10.670  1.00  0.00     0.018 C 
HETATM   17  C24 UNL     1       0.976   6.648  11.910  1.00  0.00    -0.026 A 
HETATM   18  C25 UNL     1       1.196   5.907  13.210  1.00  0.00     0.021 A 
HETATM   19  C26 UNL     1      -0.091   6.678  13.020  1.00  0.00    -0.025 A 
HETATM   20  C27 UNL     1      -1.327   5.767  12.958  1.00  0.00     0.011 C 
HETATM   21  C28 UNL     1      -2.669   6.490  12.766  1.00  0.00     0.011 C 
HETATM   22  C29 UNL     1      -2.821   7.666  13.746  1.00  0.00    -0.032 C 
HETATM   23  C30 UNL     1      -2.877   7.104  15.203  1.00  0.00     0.016 C 
ENDROOT
BRANCH   1  24
HETATM   24  C2  UNL     1      -5.464   8.200  14.055  1.00  0.00    -0.011 C 
HETATM   25  C1  UNL     1      -5.682   8.602  15.517  1.00  0.00     0.010 C 
BRANCH  24  26
HETATM   26  C3  UNL     1      -5.670   6.668  13.875  1.00  0.00     0.039 C 
BRANCH  26  27
HETATM   27  C4  UNL     1      -6.927   6.075  14.545  1.00  0.00     0.150 C 
BRANCH  27  28
HETATM   28  O1  UNL     1      -8.097   6.727  14.045  1.00  0.00    -0.393 OA
HETATM   29  H8  UNL     1      -8.076   6.670  13.072  1.00  0.00     0.210 HD
ENDBRANCH  27  28
BRANCH  27  30
HETATM   30  C5  UNL     1      -7.022   4.537  14.325  1.00  0.00     0.180 C 
BRANCH  30  31
HETATM   31  O2  UNL     1      -7.850   3.950  15.334  1.00  0.00    -0.390 OA
HETATM   32  H10 UNL     1      -7.310   3.842  16.137  1.00  0.00     0.210 HD
ENDBRANCH  30  31
BRANCH  30  33
HETATM   33  C6  UNL     1      -7.533   4.133  12.905  1.00  0.00     0.079 C 
HETATM   34  C7  UNL     1      -6.408   3.665  11.975  1.00  0.00     0.048 C 
HETATM   35  C8  UNL     1      -8.258   5.314  12.246  1.00  0.00     0.048 C 
BRANCH  33  36
HETATM   36  O3  UNL     1      -8.499   3.077  13.015  1.00  0.00    -0.388 OA
HETATM   37  H17 UNL     1      -8.050   2.330  13.464  1.00  0.00     0.210 HD
ENDBRANCH  33  36
ENDBRANCH  30  33
ENDBRANCH  27  30
ENDBRANCH  26  27
ENDBRANCH  24  26
ENDBRANCH   1  24
BRANCH   7  38
HETATM   38  O4  UNL     1       1.883   8.415  14.893  1.00  0.00    -0.395 OA
HETATM   39  H28 UNL     1       2.561   9.101  15.021  1.00  0.00     0.210 HD
ENDBRANCH   7  38
TORSDOF 9
ENDMDL
MODEL 3
REMARK minimizedAffinity -9.38094425
REMARK  9 active torsions:
REMARK  status: ('A' for Active; 'I' for Inactive)
REMARK    1  A    between atoms: C2_2  and  C3_3 
REMARK    2  A    between atoms: C2_2  and  C9_12 
REMARK    3  A    between atoms: C3_3  and  C4_4 
REMARK    4  A    between atoms: C4_4  and  O1_5 
REMARK    5  A    between atoms: C4_4  and  C5_6 
REMARK    6  A    between atoms: C5_6  and  O2_7 
REMARK    7  A    between atoms: C5_6  and  C6_8 
REMARK    8  A    between atoms: C6_8  and  O3_11 
REMARK    9  A    between atoms: C15_18  and  O4_19 
ROOT
HETATM    1  C9  UNL     1      -4.912   7.508  13.384  1.00  0.00    -0.002 C 
HETATM    2  C10 UNL     1      -4.921   8.785  14.280  1.00  0.00     0.006 C 
HETATM    3  C11 UNL     1      -3.495   8.989  14.826  1.00  0.00     0.011 C 
HETATM    4  C12 UNL     1      -2.614   8.055  13.986  1.00  0.00    -0.030 C 
HETATM    5  C13 UNL     1      -2.311   8.812  12.654  1.00  0.00     0.016 C 
HETATM    6  C14 UNL     1      -1.278   7.592  14.648  1.00  0.00     0.032 C 
HETATM    7  C15 UNL     1      -0.345   8.736  15.106  1.00  0.00     0.124 C 
HETATM    8  C16 UNL     1       0.647   9.287  14.086  1.00  0.00     0.038 C 
HETATM    9  C17 UNL     1       1.237   8.328  13.036  1.00  0.00     0.012 C 
HETATM   10  C18 UNL     1       2.805   8.300  12.961  1.00  0.00     0.018 C 
HETATM   11  C19 UNL     1       3.345   9.652  12.459  1.00  0.00     0.023 C 
HETATM   12  C20 UNL     1       3.483   7.959  14.300  1.00  0.00     0.023 C 
HETATM   13  C21 UNL     1       3.232   7.239  11.926  1.00  0.00     0.135 C 
HETATM   14  O5  UNL     1       4.383   6.796  11.875  1.00  0.00    -0.297 OA
HETATM   15  C22 UNL     1       2.195   6.810  10.917  1.00  0.00     0.080 C 
HETATM   16  C23 UNL     1       0.969   6.235  11.627  1.00  0.00     0.018 C 
HETATM   17  C24 UNL     1       0.674   6.911  12.968  1.00  0.00    -0.026 A 
HETATM   18  C25 UNL     1       0.750   6.023  14.189  1.00  0.00     0.021 A 
HETATM   19  C26 UNL     1      -0.602   6.536  13.746  1.00  0.00    -0.025 A 
HETATM   20  C27 UNL     1      -1.532   5.417  13.254  1.00  0.00     0.011 C 
HETATM   21  C28 UNL     1      -2.922   5.873  12.787  1.00  0.00     0.011 C 
HETATM   22  C29 UNL     1      -3.581   6.812  13.813  1.00  0.00    -0.032 C 
HETATM   23  C30 UNL     1      -3.844   6.014  15.130  1.00  0.00     0.016 C 
ENDROOT
BRANCH   1  24
HETATM   24  C2  UNL     1      -6.270   6.736  13.454  1.00  0.00    -0.011 C 
HETATM   25  C1  UNL     1      -7.047   7.051  14.737  1.00  0.00     0.010 C 
BRANCH  24  26
HETATM   26  C3  UNL     1      -6.016   5.206  13.334  1.00  0.00     0.039 C 
BRANCH  26  27
HETATM   27  C4  UNL     1      -7.268   4.331  13.114  1.00  0.00     0.150 C 
BRANCH  27  28
HETATM   28  O1  UNL     1      -8.012   4.821  11.995  1.00  0.00    -0.393 OA
HETATM   29  H8  UNL     1      -7.403   4.879  11.236  1.00  0.00     0.210 HD
ENDBRANCH  27  28
BRANCH  27  30
HETATM   30  C5  UNL     1      -6.893   2.835  12.906  1.00  0.00     0.180 C 
BRANCH  30  31
HETATM   31  O2  UNL     1      -8.075   2.063  12.677  1.00  0.00    -0.390 OA
HETATM   32  H10 UNL     1      -8.485   1.881  13.541  1.00  0.00     0.210 HD
ENDBRANCH  30  31
BRANCH  30  33
HETATM   33  C6  UNL     1      -5.860   2.596  11.758  1.00  0.00     0.079 C 
HETATM   34  C7  UNL     1      -5.955   1.193  11.150  1.00  0.00     0.048 C 
HETATM   35  C8  UNL     1      -4.432   2.815  12.275  1.00  0.00     0.048 C 
BRANCH  33  36
HETATM   36  O3  UNL     1      -6.062   3.558  10.711  1.00  0.00    -0.388 OA
HETATM   37  H17 UNL     1      -6.984   3.444  10.399  1.00  0.00     0.210 HD
ENDBRANCH  33  36
ENDBRANCH  30  33
ENDBRANCH  27  30
ENDBRANCH  26  27
ENDBRANCH  24  26
ENDBRANCH   1  24
BRANCH   7  38
HETATM   38  O4  UNL     1       0.394   8.300  16.260  1.00  0.00    -0.395 OA
HETATM   39  H28 UNL     1       0.837   9.079  16.640  1.00  0.00     0.210 HD
ENDBRANCH   7  38
TORSDOF 9
ENDMDL
MODEL 4
REMARK minimizedAffinity -9.28340816
REMARK  9 active torsions:
REMARK  status: ('A' for Active; 'I' for Inactive)
REMARK    1  A    between atoms: C2_2  and  C3_3 
REMARK    2  A    between atoms: C2_2  and  C9_12 
REMARK    3  A    between atoms: C3_3  and  C4_4 
REMARK    4  A    between atoms: C4_4  and  O1_5 
REMARK    5  A    between atoms: C4_4  and  C5_6 
REMARK    6  A    between atoms: C5_6  and  O2_7 
REMARK    7  A    between atoms: C5_6  and  C6_8 
REMARK    8  A    between atoms: C6_8  and  O3_11 
REMARK    9  A    between atoms: C15_18  and  O4_19 
ROOT
HETATM    1  C9  UNL     1      -2.179   6.162  13.711  1.00  0.00    -0.002 C 
HETATM    2  C10 UNL     1      -2.308   5.311  12.410  1.00  0.00     0.006 C 
HETATM    3  C11 UNL     1      -1.149   5.701  11.473  1.00  0.00     0.011 C 
HETATM    4  C12 UNL     1      -0.182   6.501  12.356  1.00  0.00    -0.030 C 
HETATM    5  C13 UNL     1       0.678   5.454  13.132  1.00  0.00     0.016 C 
HETATM    6  C14 UNL     1       0.752   7.507  11.612  1.00  0.00     0.032 C 
HETATM    7  C15 UNL     1       1.628   6.886  10.500  1.00  0.00     0.124 C 
HETATM    8  C16 UNL     1       2.985   6.319  10.905  1.00  0.00     0.038 C 
HETATM    9  C17 UNL     1       3.753   6.991  12.058  1.00  0.00     0.012 C 
HETATM   10  C18 UNL     1       5.225   7.421  11.721  1.00  0.00     0.018 C 
HETATM   11  C19 UNL     1       6.103   6.182  11.468  1.00  0.00     0.023 C 
HETATM   12  C20 UNL     1       5.332   8.364  10.511  1.00  0.00     0.023 C 
HETATM   13  C21 UNL     1       5.821   8.145  12.946  1.00  0.00     0.135 C 
HETATM   14  O5  UNL     1       6.836   8.843  12.866  1.00  0.00    -0.297 OA
HETATM   15  C22 UNL     1       5.150   7.908  14.277  1.00  0.00     0.080 C 
HETATM   16  C23 UNL     1       3.682   8.329  14.213  1.00  0.00     0.018 C 
HETATM   17  C24 UNL     1       3.042   8.090  12.844  1.00  0.00    -0.026 A 
HETATM   18  C25 UNL     1       2.551   9.322  12.117  1.00  0.00     0.021 A 
HETATM   19  C26 UNL     1       1.534   8.340  12.653  1.00  0.00    -0.025 A 
HETATM   20  C27 UNL     1       0.677   8.928  13.784  1.00  0.00     0.011 C 
HETATM   21  C28 UNL     1      -0.377   7.979  14.373  1.00  0.00     0.011 C 
HETATM   22  C29 UNL     1      -1.203   7.298  13.269  1.00  0.00    -0.032 C 
HETATM   23  C30 UNL     1      -2.027   8.388  12.511  1.00  0.00     0.016 C 
ENDROOT
BRANCH   1  24
HETATM   24  C2  UNL     1      -3.576   6.509  14.322  1.00  0.00    -0.011 C 
HETATM   25  C1  UNL     1      -3.554   6.502  15.854  1.00  0.00     0.010 C 
BRANCH  24  26
HETATM   26  C3  UNL     1      -4.648   5.514  13.789  1.00  0.00     0.039 C 
BRANCH  26  27
HETATM   27  C4  UNL     1      -6.107   5.821  14.186  1.00  0.00     0.150 C 
BRANCH  27  28
HETATM   28  O1  UNL     1      -6.682   6.736  13.249  1.00  0.00    -0.393 OA
HETATM   29  H8  UNL     1      -6.562   6.362  12.357  1.00  0.00     0.210 HD
ENDBRANCH  27  28
BRANCH  27  30
HETATM   30  C5  UNL     1      -6.962   4.524  14.278  1.00  0.00     0.180 C 
BRANCH  30  31
HETATM   31  O2  UNL     1      -8.014   4.699  15.231  1.00  0.00    -0.390 OA
HETATM   32  H10 UNL     1      -7.639   4.561  16.118  1.00  0.00     0.210 HD
ENDBRANCH  30  31
BRANCH  30  33
HETATM   33  C6  UNL     1      -7.547   4.055  12.906  1.00  0.00     0.079 C 
HETATM   34  C7  UNL     1      -6.468   3.589  11.923  1.00  0.00     0.048 C 
HETATM   35  C8  UNL     1      -8.350   5.191  12.256  1.00  0.00     0.048 C 
BRANCH  33  36
HETATM   36  O3  UNL     1      -8.470   2.975  13.112  1.00  0.00    -0.388 OA
HETATM   37  H17 UNL     1      -7.970   2.258  13.556  1.00  0.00     0.210 HD
ENDBRANCH  33  36
ENDBRANCH  30  33
ENDBRANCH  27  30
ENDBRANCH  26  27
ENDBRANCH  24  26
ENDBRANCH   1  24
BRANCH   7  38
HETATM   38  O4  UNL     1       1.842   7.870   9.473  1.00  0.00    -0.395 OA
HETATM   39  H28 UNL     1       2.237   7.418   8.707  1.00  0.00     0.210 HD
ENDBRANCH   7  38
TORSDOF 9
ENDMDL
MODEL 5
REMARK minimizedAffinity -9.24427319
REMARK  9 active torsions:
REMARK  status: ('A' for Active; 'I' for Inactive)
REMARK    1  A    between atoms: C2_2  and  C3_3 
REMARK    2  A    between atoms: C2_2  and  C9_12 
REMARK    3  A    between atoms: C3_3  and  C4_4 
REMARK    4  A    between atoms: C4_4  and  O1_5 
REMARK    5  A    between atoms: C4_4  and  C5_6 
REMARK    6  A    between atoms: C5_6  and  O2_7 
REMARK    7  A    between atoms: C5_6  and  C6_8 
REMARK    8  A    between atoms: C6_8  and  O3_11 
REMARK    9  A    between atoms: C15_18  and  O4_19 
ROOT
HETATM    1  C9  UNL     1       1.856   7.126  13.598  1.00  0.00    -0.002 C 
HETATM    2  C10 UNL     1       1.997   7.814  14.991  1.00  0.00     0.006 C 
HETATM    3  C11 UNL     1       0.608   8.341  15.401  1.00  0.00     0.011 C 
HETATM    4  C12 UNL     1      -0.370   7.667  14.431  1.00  0.00    -0.030 C 
HETATM    5  C13 UNL     1      -0.644   6.238  15.001  1.00  0.00     0.016 C 
HETATM    6  C14 UNL     1      -1.723   8.411  14.195  1.00  0.00     0.032 C 
HETATM    7  C15 UNL     1      -2.543   8.699  15.473  1.00  0.00     0.124 C 
HETATM    8  C16 UNL     1      -3.511   7.620  15.947  1.00  0.00     0.038 C 
HETATM    9  C17 UNL     1      -4.209   6.738  14.895  1.00  0.00     0.012 C 
HETATM   10  C18 UNL     1      -5.775   6.689  14.995  1.00  0.00     0.018 C 
HETATM   11  C19 UNL     1      -6.211   5.992  16.297  1.00  0.00     0.023 C 
HETATM   12  C20 UNL     1      -6.443   8.074  14.923  1.00  0.00     0.023 C 
HETATM   13  C21 UNL     1      -6.318   5.836  13.830  1.00  0.00     0.135 C 
HETATM   14  O5  UNL     1      -7.504   5.870  13.488  1.00  0.00    -0.297 OA
HETATM   15  C22 UNL     1      -5.349   4.891  13.163  1.00  0.00     0.080 C 
HETATM   16  C23 UNL     1      -4.158   5.665  12.597  1.00  0.00     0.018 C 
HETATM   17  C24 UNL     1      -3.770   6.881  13.441  1.00  0.00    -0.026 A 
HETATM   18  C25 UNL     1      -3.889   8.226  12.759  1.00  0.00     0.021 A 
HETATM   19  C26 UNL     1      -2.511   7.690  13.077  1.00  0.00    -0.025 A 
HETATM   20  C27 UNL     1      -1.693   7.365  11.818  1.00  0.00     0.011 C 
HETATM   21  C28 UNL     1      -0.282   6.815  12.074  1.00  0.00     0.011 C 
HETATM   22  C29 UNL     1       0.482   7.674  13.096  1.00  0.00    -0.032 C 
HETATM   23  C30 UNL     1       0.711   9.095  12.488  1.00  0.00     0.016 C 
ENDROOT
BRANCH   1  24
HETATM   24  C2  UNL     1       3.144   7.296  12.730  1.00  0.00    -0.011 C 
HETATM   25  C1  UNL     1       3.473   8.769  12.466  1.00  0.00     0.010 C 
BRANCH  24  26
HETATM   26  C3  UNL     1       2.982   6.526  11.387  1.00  0.00     0.039 C 
BRANCH  26  27
HETATM   27  C4  UNL     1       3.636   7.182  10.152  1.00  0.00     0.150 C 
BRANCH  27  28
HETATM   28  O1  UNL     1       5.047   6.949  10.170  1.00  0.00    -0.393 OA
HETATM   29  H8  UNL     1       5.189   5.989  10.258  1.00  0.00     0.210 HD
ENDBRANCH  27  28
BRANCH  27  30
HETATM   30  C5  UNL     1       3.013   6.656   8.826  1.00  0.00     0.180 C 
BRANCH  30  31
HETATM   31  O2  UNL     1       2.145   5.552   9.099  1.00  0.00    -0.390 OA
HETATM   32  H10 UNL     1       2.698   4.757   9.201  1.00  0.00     0.210 HD
ENDBRANCH  30  31
BRANCH  30  33
HETATM   33  C6  UNL     1       2.256   7.750   8.007  1.00  0.00     0.079 C 
HETATM   34  C7  UNL     1       1.018   8.290   8.732  1.00  0.00     0.048 C 
HETATM   35  C8  UNL     1       1.824   7.190   6.645  1.00  0.00     0.048 C 
BRANCH  33  36
HETATM   36  O3  UNL     1       3.135   8.851   7.731  1.00  0.00    -0.388 OA
HETATM   37  H17 UNL     1       3.439   9.193   8.598  1.00  0.00     0.210 HD
ENDBRANCH  33  36
ENDBRANCH  30  33
ENDBRANCH  27  30
ENDBRANCH  26  27
ENDBRANCH  24  26
ENDBRANCH   1  24
BRANCH   7  38
HETATM   38  O4  UNL     1      -3.285   9.916  15.285  1.00  0.00    -0.395 OA
HETATM   39  H28 UNL     1      -3.650  10.177  16.148  1.00  0.00     0.210 HD
ENDBRANCH   7  38
TORSDOF 9
ENDMDL
MODEL 6
REMARK minimizedAffinity -9.08448219
REMARK  9 active torsions:
REMARK  status: ('A' for Active; 'I' for Inactive)
REMARK    1  A    between atoms: C2_2  and  C3_3 
REMARK    2  A    between atoms: C2_2  and  C9_12 
REMARK    3  A    between atoms: C3_3  and  C4_4 
REMARK    4  A    between atoms: C4_4  and  O1_5 
REMARK    5  A    between atoms: C4_4  and  C5_6 
REMARK    6  A    between atoms: C5_6  and  O2_7 
REMARK    7  A    between atoms: C5_6  and  C6_8 
REMARK    8  A    between atoms: C6_8  and  O3_11 
REMARK    9  A    between atoms: C15_18  and  O4_19 
ROOT
HETATM    1  C9  UNL     1      -4.304   5.675  13.962  1.00  0.00    -0.002 C 
HETATM    2  C10 UNL     1      -3.179   5.556  12.887  1.00  0.00     0.006 C 
HETATM    3  C11 UNL     1      -2.365   6.863  12.907  1.00  0.00     0.011 C 
HETATM    4  C12 UNL     1      -2.792   7.573  14.198  1.00  0.00    -0.030 C 
HETATM    5  C13 UNL     1      -1.960   6.929  15.353  1.00  0.00     0.016 C 
HETATM    6  C14 UNL     1      -2.615   9.124  14.219  1.00  0.00     0.032 C 
HETATM    7  C15 UNL     1      -1.180   9.622  13.931  1.00  0.00     0.124 C 
HETATM    8  C16 UNL     1      -0.228   9.753  15.115  1.00  0.00     0.038 C 
HETATM    9  C17 UNL     1      -0.805  10.146  16.487  1.00  0.00     0.012 C 
HETATM   10  C18 UNL     1      -0.125  11.387  17.169  1.00  0.00     0.018 C 
HETATM   11  C19 UNL     1       1.332  11.062  17.546  1.00  0.00     0.023 C 
HETATM   12  C20 UNL     1      -0.145  12.657  16.301  1.00  0.00     0.023 C 
HETATM   13  C21 UNL     1      -0.867  11.696  18.485  1.00  0.00     0.135 C 
HETATM   14  O5  UNL     1      -0.745  12.777  19.070  1.00  0.00    -0.297 OA
HETATM   15  C22 UNL     1      -1.701  10.587  19.079  1.00  0.00     0.080 C 
HETATM   16  C23 UNL     1      -2.775  10.142  18.087  1.00  0.00     0.018 C 
HETATM   17  C24 UNL     1      -2.323  10.226  16.627  1.00  0.00    -0.026 A 
HETATM   18  C25 UNL     1      -3.100  11.178  15.746  1.00  0.00     0.021 A 
HETATM   19  C26 UNL     1      -3.242   9.691  15.512  1.00  0.00    -0.025 A 
HETATM   20  C27 UNL     1      -4.653   9.170  15.828  1.00  0.00     0.011 C 
HETATM   21  C28 UNL     1      -4.862   7.664  15.611  1.00  0.00     0.011 C 
HETATM   22  C29 UNL     1      -4.335   7.212  14.239  1.00  0.00    -0.032 C 
HETATM   23  C30 UNL     1      -5.184   7.898  13.122  1.00  0.00     0.016 C 
ENDROOT
BRANCH   1  24
HETATM   24  C2  UNL     1      -5.604   4.920  13.534  1.00  0.00    -0.011 C 
HETATM   25  C1  UNL     1      -5.383   4.048  12.294  1.00  0.00     0.010 C 
BRANCH  24  26
HETATM   26  C3  UNL     1      -6.751   5.942  13.283  1.00  0.00     0.039 C 
BRANCH  26  27
HETATM   27  C4  UNL     1      -8.183   5.415  13.514  1.00  0.00     0.150 C 
BRANCH  27  28
HETATM   28  O1  UNL     1      -8.175   4.423  14.545  1.00  0.00    -0.393 OA
HETATM   29  H8  UNL     1      -7.741   4.811  15.327  1.00  0.00     0.210 HD
ENDBRANCH  27  28
BRANCH  27  30
HETATM   30  C5  UNL     1      -9.167   6.566  13.873  1.00  0.00     0.180 C 
BRANCH  30  31
HETATM   31  O2  UNL     1     -10.517   6.098  13.791  1.00  0.00    -0.390 OA
HETATM   32  H10 UNL     1     -10.780   6.111  12.855  1.00  0.00     0.210 HD
ENDBRANCH  30  31
BRANCH  30  33
HETATM   33  C6  UNL     1      -8.902   7.211  15.271  1.00  0.00     0.079 C 
HETATM   34  C7  UNL     1      -8.226   8.583  15.179  1.00  0.00     0.048 C 
HETATM   35  C8  UNL     1      -8.024   6.285  16.124  1.00  0.00     0.048 C 
BRANCH  33  36
HETATM   36  O3  UNL     1     -10.140   7.362  15.982  1.00  0.00    -0.388 OA
HETATM   37  H17 UNL     1     -10.717   7.927  15.427  1.00  0.00     0.210 HD
ENDBRANCH  33  36
ENDBRANCH  30  33
ENDBRANCH  27  30
ENDBRANCH  26  27
ENDBRANCH  24  26
ENDBRANCH   1  24
BRANCH   7  38
HETATM   38  O4  UNL     1      -1.255  10.898  13.272  1.00  0.00    -0.395 OA
HETATM   39  H28 UNL     1      -0.366  11.113  12.940  1.00  0.00     0.210 HD
ENDBRANCH   7  38
TORSDOF 9
ENDMDL
MODEL 7
REMARK minimizedAffinity -9.02592659
REMARK  9 active torsions:
REMARK  status: ('A' for Active; 'I' for Inactive)
REMARK    1  A    between atoms: C2_2  and  C3_3 
REMARK    2  A    between atoms: C2_2  and  C9_12 
REMARK    3  A    between atoms: C3_3  and  C4_4 
REMARK    4  A    between atoms: C4_4  and  O1_5 
REMARK    5  A    between atoms: C4_4  and  C5_6 
REMARK    6  A    between atoms: C5_6  and  O2_7 
REMARK    7  A    between atoms: C5_6  and  C6_8 
REMARK    8  A    between atoms: C6_8  and  O3_11 
REMARK    9  A    between atoms: C15_18  and  O4_19 
ROOT
HETATM    1  C9  UNL     1       1.908   7.069  10.416  1.00  0.00    -0.002 C 
HETATM    2  C10 UNL     1       2.187   5.563  10.716  1.00  0.00     0.006 C 
HETATM    3  C11 UNL     1       1.288   5.141  11.893  1.00  0.00     0.011 C 
HETATM    4  C12 UNL     1       0.268   6.278  12.037  1.00  0.00    -0.030 C 
HETATM    5  C13 UNL     1      -0.844   6.013  10.973  1.00  0.00     0.016 C 
HETATM    6  C14 UNL     1      -0.378   6.446  13.448  1.00  0.00     0.032 C 
HETATM    7  C15 UNL     1      -1.086   5.186  13.997  1.00  0.00     0.124 C 
HETATM    8  C16 UNL     1      -2.553   4.986  13.629  1.00  0.00     0.038 C 
HETATM    9  C17 UNL     1      -3.447   6.227  13.453  1.00  0.00     0.012 C 
HETATM   10  C18 UNL     1      -4.764   6.231  14.308  1.00  0.00     0.018 C 
HETATM   11  C19 UNL     1      -5.715   5.116  13.836  1.00  0.00     0.023 C 
HETATM   12  C20 UNL     1      -4.521   6.073  15.819  1.00  0.00     0.023 C 
HETATM   13  C21 UNL     1      -5.498   7.568  14.079  1.00  0.00     0.135 C 
HETATM   14  O5  UNL     1      -6.389   7.966  14.835  1.00  0.00    -0.297 OA
HETATM   15  C22 UNL     1      -5.133   8.348  12.840  1.00  0.00     0.080 C 
HETATM   16  C23 UNL     1      -3.642   8.683  12.844  1.00  0.00     0.018 C 
HETATM   17  C24 UNL     1      -2.779   7.599  13.495  1.00  0.00    -0.026 A 
HETATM   18  C25 UNL     1      -2.015   8.014  14.732  1.00  0.00     0.021 A 
HETATM   19  C26 UNL     1      -1.244   7.725  13.463  1.00  0.00    -0.025 A 
HETATM   20  C27 UNL     1      -0.562   8.974  12.883  1.00  0.00     0.011 C 
HETATM   21  C28 UNL     1       0.238   8.747  11.592  1.00  0.00     0.011 C 
HETATM   22  C29 UNL     1       1.178   7.536  11.715  1.00  0.00    -0.032 C 
HETATM   23  C30 UNL     1       2.256   7.844  12.803  1.00  0.00     0.016 C 
ENDROOT
BRANCH   1  24
HETATM   24  C2  UNL     1       3.189   7.812   9.915  1.00  0.00    -0.011 C 
HETATM   25  C1  UNL     1       3.102   8.176   8.429  1.00  0.00     0.010 C 
BRANCH  24  26
HETATM   26  C3  UNL     1       4.448   6.937  10.187  1.00  0.00     0.039 C 
BRANCH  26  27
HETATM   27  C4  UNL     1       5.667   7.679  10.774  1.00  0.00     0.150 C 
BRANCH  27  28
HETATM   28  O1  UNL     1       5.252   8.929  11.332  1.00  0.00    -0.393 OA
HETATM   29  H8  UNL     1       4.530   8.748  11.962  1.00  0.00     0.210 HD
ENDBRANCH  27  28
BRANCH  27  30
HETATM   30  C5  UNL     1       6.400   6.820  11.845  1.00  0.00     0.180 C 
BRANCH  30  31
HETATM   31  O2  UNL     1       7.688   6.429  11.359  1.00  0.00    -0.390 OA
HETATM   32  H10 UNL     1       7.565   5.663  10.771  1.00  0.00     0.210 HD
ENDBRANCH  30  31
BRANCH  30  33
HETATM   33  C6  UNL     1       6.537   7.523  13.234  1.00  0.00     0.079 C 
HETATM   34  C7  UNL     1       5.414   8.529  13.508  1.00  0.00     0.048 C 
HETATM   35  C8  UNL     1       7.885   8.251  13.330  1.00  0.00     0.048 C 
BRANCH  33  36
HETATM   36  O3  UNL     1       6.533   6.541  14.281  1.00  0.00    -0.388 OA
HETATM   37  H17 UNL     1       5.687   6.052  14.205  1.00  0.00     0.210 HD
ENDBRANCH  33  36
ENDBRANCH  30  33
ENDBRANCH  27  30
ENDBRANCH  26  27
ENDBRANCH  24  26
ENDBRANCH   1  24
BRANCH   7  38
HETATM   38  O4  UNL     1      -0.978   5.179  15.430  1.00  0.00    -0.395 OA
HETATM   39  H28 UNL     1      -1.266   4.304  15.745  1.00  0.00     0.210 HD
ENDBRANCH   7  38
TORSDOF 9
ENDMDL
MODEL 8
REMARK minimizedAffinity -8.77906799
REMARK  9 active torsions:
REMARK  status: ('A' for Active; 'I' for Inactive)
REMARK    1  A    between atoms: C2_2  and  C3_3 
REMARK    2  A    between atoms: C2_2  and  C9_12 
REMARK    3  A    between atoms: C3_3  and  C4_4 
REMARK    4  A    between atoms: C4_4  and  O1_5 
REMARK    5  A    between atoms: C4_4  and  C5_6 
REMARK    6  A    between atoms: C5_6  and  O2_7 
REMARK    7  A    between atoms: C5_6  and  C6_8 
REMARK    8  A    between atoms: C6_8  and  O3_11 
REMARK    9  A    between atoms: C15_18  and  O4_19 
ROOT
HETATM    1  C9  UNL     1      -3.209   6.213  13.868  1.00  0.00    -0.002 C 
HETATM    2  C10 UNL     1      -1.706   5.813  13.749  1.00  0.00     0.006 C 
HETATM    3  C11 UNL     1      -0.858   7.039  14.135  1.00  0.00     0.011 C 
HETATM    4  C12 UNL     1      -1.847   8.009  14.794  1.00  0.00    -0.030 C 
HETATM    5  C13 UNL     1      -2.007   7.540  16.275  1.00  0.00     0.016 C 
HETATM    6  C14 UNL     1      -1.453   9.520  14.757  1.00  0.00     0.032 C 
HETATM    7  C15 UNL     1      -0.076   9.852  15.376  1.00  0.00     0.124 C 
HETATM    8  C16 UNL     1      -0.027  10.138  16.873  1.00  0.00     0.038 C 
HETATM    9  C17 UNL     1      -1.236  10.824  17.535  1.00  0.00     0.012 C 
HETATM   10  C18 UNL     1      -0.903  12.121  18.356  1.00  0.00     0.018 C 
HETATM   11  C19 UNL     1      -0.052  11.772  19.591  1.00  0.00     0.023 C 
HETATM   12  C20 UNL     1      -0.176  13.202  17.538  1.00  0.00     0.023 C 
HETATM   13  C21 UNL     1      -2.222  12.725  18.881  1.00  0.00     0.135 C 
HETATM   14  O5  UNL     1      -2.293  13.886  19.296  1.00  0.00    -0.297 OA
HETATM   15  C22 UNL     1      -3.421  11.811  18.937  1.00  0.00     0.080 C 
HETATM   16  C23 UNL     1      -3.736  11.262  17.546  1.00  0.00     0.018 C 
HETATM   17  C24 UNL     1      -2.488  11.035  16.688  1.00  0.00    -0.026 A 
HETATM   18  C25 UNL     1      -2.397  11.855  15.421  1.00  0.00     0.021 A 
HETATM   19  C26 UNL     1      -2.624  10.364  15.308  1.00  0.00    -0.025 A 
HETATM   20  C27 UNL     1      -4.002  10.014  14.727  1.00  0.00     0.011 C 
HETATM   21  C28 UNL     1      -4.295   8.513  14.588  1.00  0.00     0.011 C 
HETATM   22  C29 UNL     1      -3.135   7.773  13.902  1.00  0.00    -0.032 C 
HETATM   23  C30 UNL     1      -3.004   8.292  12.434  1.00  0.00     0.016 C 
ENDROOT
BRANCH   1  24
HETATM   24  C2  UNL     1      -4.094   5.483  12.805  1.00  0.00    -0.011 C 
HETATM   25  C1  UNL     1      -5.288   4.765  13.442  1.00  0.00     0.010 C 
BRANCH  24  26
HETATM   26  C3  UNL     1      -3.224   4.479  11.993  1.00  0.00     0.039 C 
BRANCH  26  27
HETATM   27  C4  UNL     1      -3.903   3.141  11.632  1.00  0.00     0.150 C 
BRANCH  27  28
HETATM   28  O1  UNL     1      -4.415   3.201  10.298  1.00  0.00    -0.393 OA
HETATM   29  H8  UNL     1      -3.686   3.471   9.711  1.00  0.00     0.210 HD
ENDBRANCH  27  28
BRANCH  27  30
HETATM   30  C5  UNL     1      -2.923   1.941  11.787  1.00  0.00     0.180 C 
BRANCH  30  31
HETATM   31  O2  UNL     1      -3.596   0.718  11.471  1.00  0.00    -0.390 OA
HETATM   32  H10 UNL     1      -4.109   0.451  12.254  1.00  0.00     0.210 HD
ENDBRANCH  30  31
BRANCH  30  33
HETATM   33  C6  UNL     1      -1.620   2.076  10.935  1.00  0.00     0.079 C 
HETATM   34  C7  UNL     1      -0.924   0.734  10.688  1.00  0.00     0.048 C 
HETATM   35  C8  UNL     1      -0.631   3.025  11.626  1.00  0.00     0.048 C 
BRANCH  33  36
HETATM   36  O3  UNL     1      -1.927   2.669   9.664  1.00  0.00    -0.388 OA
HETATM   37  H17 UNL     1      -2.583   2.083   9.231  1.00  0.00     0.210 HD
ENDBRANCH  33  36
ENDBRANCH  30  33
ENDBRANCH  27  30
ENDBRANCH  26  27
ENDBRANCH  24  26
ENDBRANCH   1  24
BRANCH   7  38
HETATM   38  O4  UNL     1       0.483  10.982  14.685  1.00  0.00    -0.395 OA
HETATM   39  H28 UNL     1       1.413  11.067  14.959  1.00  0.00     0.210 HD
ENDBRANCH   7  38
TORSDOF 9
ENDMDL
MODEL 9
REMARK minimizedAffinity -8.63637257
REMARK  9 active torsions:
REMARK  status: ('A' for Active; 'I' for Inactive)
REMARK    1  A    between atoms: C2_2  and  C3_3 
REMARK    2  A    between atoms: C2_2  and  C9_12 
REMARK    3  A    between atoms: C3_3  and  C4_4 
REMARK    4  A    between atoms: C4_4  and  O1_5 
REMARK    5  A    between atoms: C4_4  and  C5_6 
REMARK    6  A    between atoms: C5_6  and  O2_7 
REMARK    7  A    between atoms: C5_6  and  C6_8 
REMARK    8  A    between atoms: C6_8  and  O3_11 
REMARK    9  A    between atoms: C15_18  and  O4_19 
ROOT
HETATM    1  C9  UNL     1      -3.481   6.723  13.034  1.00  0.00    -0.002 C 
HETATM    2  C10 UNL     1      -4.112   7.868  13.885  1.00  0.00     0.006 C 
HETATM    3  C11 UNL     1      -2.981   8.539  14.688  1.00  0.00     0.011 C 
HETATM    4  C12 UNL     1      -1.686   8.022  14.049  1.00  0.00    -0.030 C 
HETATM    5  C13 UNL     1      -1.434   8.902  12.783  1.00  0.00     0.016 C 
HETATM    6  C14 UNL     1      -0.419   8.034  14.962  1.00  0.00     0.032 C 
HETATM    7  C15 UNL     1      -0.059   9.411  15.564  1.00  0.00     0.124 C 
HETATM    8  C16 UNL     1       0.839  10.328  14.740  1.00  0.00     0.038 C 
HETATM    9  C17 UNL     1       1.916   9.694  13.841  1.00  0.00     0.012 C 
HETATM   10  C18 UNL     1       3.375  10.230  14.065  1.00  0.00     0.018 C 
HETATM   11  C19 UNL     1       3.476  11.708  13.646  1.00  0.00     0.023 C 
HETATM   12  C20 UNL     1       3.871  10.087  15.515  1.00  0.00     0.023 C 
HETATM   13  C21 UNL     1       4.336   9.442  13.152  1.00  0.00     0.135 C 
HETATM   14  O5  UNL     1       5.558   9.441  13.329  1.00  0.00    -0.297 OA
HETATM   15  C22 UNL     1       3.727   8.722  11.973  1.00  0.00     0.080 C 
HETATM   16  C23 UNL     1       2.681   7.715  12.450  1.00  0.00     0.018 C 
HETATM   17  C24 UNL     1       1.921   8.175  13.696  1.00  0.00    -0.026 A 
HETATM   18  C25 UNL     1       2.084   7.313  14.928  1.00  0.00     0.021 A 
HETATM   19  C26 UNL     1       0.745   7.333  14.226  1.00  0.00    -0.025 A 
HETATM   20  C27 UNL     1       0.386   5.981  13.590  1.00  0.00     0.011 C 
HETATM   21  C28 UNL     1      -0.964   5.935  12.859  1.00  0.00     0.011 C 
HETATM   22  C29 UNL     1      -2.092   6.526  13.721  1.00  0.00    -0.032 C 
HETATM   23  C30 UNL     1      -2.290   5.623  14.980  1.00  0.00     0.016 C 
ENDROOT
BRANCH   1  24
HETATM   24  C2  UNL     1      -4.460   5.517  12.861  1.00  0.00    -0.011 C 
HETATM   25  C1  UNL     1      -5.570   5.518  13.917  1.00  0.00     0.010 C 
BRANCH  24  26
HETATM   26  C3  UNL     1      -3.665   4.180  12.909  1.00  0.00     0.039 C 
BRANCH  26  27
HETATM   27  C4  UNL     1      -3.763   3.293  11.649  1.00  0.00     0.150 C 
BRANCH  27  28
HETATM   28  O1  UNL     1      -3.340   4.034  10.501  1.00  0.00    -0.393 OA
HETATM   29  H8  UNL     1      -2.455   4.395  10.689  1.00  0.00     0.210 HD
ENDBRANCH  27  28
BRANCH  27  30
HETATM   30  C5  UNL     1      -2.925   1.991  11.798  1.00  0.00     0.180 C 
BRANCH  30  31
HETATM   31  O2  UNL     1      -3.733   0.852  11.487  1.00  0.00    -0.390 OA
HETATM   32  H10 UNL     1      -4.269   0.644  12.272  1.00  0.00     0.210 HD
ENDBRANCH  30  31
BRANCH  30  33
HETATM   33  C6  UNL     1      -1.620   1.978  10.938  1.00  0.00     0.079 C 
HETATM   34  C7  UNL     1      -1.003   0.581  10.807  1.00  0.00     0.048 C 
HETATM   35  C8  UNL     1      -0.575   2.924  11.546  1.00  0.00     0.048 C 
BRANCH  33  36
HETATM   36  O3  UNL     1      -1.898   2.477   9.621  1.00  0.00    -0.388 OA
HETATM   37  H17 UNL     1      -2.588   1.895   9.239  1.00  0.00     0.210 HD
ENDBRANCH  33  36
ENDBRANCH  30  33
ENDBRANCH  27  30
ENDBRANCH  26  27
ENDBRANCH  24  26
ENDBRANCH   1  24
BRANCH   7  38
HETATM   38  O4  UNL     1       0.560   9.210  16.846  1.00  0.00    -0.395 OA
HETATM   39  H28 UNL     1       0.617  10.076  17.287  1.00  0.00     0.210 HD
ENDBRANCH   7  38
TORSDOF 9
ENDMDL
