MODEL 1
REMARK minimizedAffinity -7.65718079
REMARK CNNscore 0.599510252
REMARK CNNaffinity 6.81689262
REMARK  13 active torsions:
REMARK  status: ('A' for Active; 'I' for Inactive)
REMARK    1  A    between atoms: C3_3  and  O1_4 
REMARK    2  A    between atoms: N1_14  and  O2_16 
REMARK    3  A    between atoms: O2_16  and  C13_17 
REMARK    4  A    between atoms: C13_17  and  C14_18 
REMARK       I    between atoms: C14_18  and  N2_20 
REMARK    5  A    between atoms: N2_20  and  C15_21 
REMARK    6  A    between atoms: C15_21  and  C16_22 
REMARK    7  A    between atoms: C15_21  and  C21_33 
REMARK       I    between atoms: C16_22  and  N3_24 
REMARK    8  A    between atoms: N3_24  and  C17_25 
REMARK    9  A    between atoms: C17_25  and  C18_26 
REMARK   10  A    between atoms: C17_25  and  C20_30 
REMARK   11  A    between atoms: C18_26  and  C19_27 
REMARK   12  A    between atoms: C19_27  and  O6_29 
REMARK   13  A    between atoms: C20_30  and  O8_32 
ROOT
HETATM    1  C1  UNL     1      -4.499   5.165  12.487  1.00  0.00     0.015 C 
HETATM    2  C2  UNL     1      -3.565   5.716  13.010  1.00  0.00    -0.078 C 
HETATM    3  C3  UNL     1      -2.386   6.387  13.601  1.00  0.00     0.128 C 
HETATM    4  C4  UNL     1      -2.056   7.661  12.812  1.00  0.00     0.052 C 
HETATM    5  C5  UNL     1      -2.886   8.776  13.465  1.00  0.00     0.010 C 
HETATM    6  C6  UNL     1      -3.479   8.190  14.767  1.00  0.00     0.002 C 
HETATM    7  C7  UNL     1      -3.661   9.152  15.972  1.00  0.00    -0.004 C 
HETATM    8  C8  UNL     1      -4.207  10.529  15.543  1.00  0.00     0.010 C 
HETATM    9  C9  UNL     1      -3.162  11.634  15.535  1.00  0.00     0.035 C 
HETATM   10  C10 UNL     1      -2.414  11.768  16.835  1.00  0.00    -0.069 C 
HETATM   11  C11 UNL     1      -1.804  12.935  17.114  1.00  0.00     0.030 C 
HETATM   12  C12 UNL     1      -1.007  13.141  18.354  1.00  0.00     0.032 C 
HETATM   13  N1  UNL     1      -0.489  14.322  18.548  1.00  0.00    -0.271 N 
ATOM     14  H1  UNL     1      -0.617  15.114  17.918  1.00  0.00     0.194 HD
HETATM   15  C24 UNL     1      -0.860  11.973  19.314  1.00  0.00     0.060 C 
HETATM   16  C25 UNL     1      -1.040  10.643  18.587  1.00  0.00     0.020 C 
HETATM   17  C26 UNL     1      -2.357  10.559  17.761  1.00  0.00    -0.016 C 
HETATM   18  C27 UNL     1      -3.549  10.626  18.756  1.00  0.00     0.020 C 
HETATM   19  C28 UNL     1      -2.448   9.205  16.956  1.00  0.00     0.002 C 
HETATM   20  C29 UNL     1      -1.164   8.769  16.237  1.00  0.00     0.007 C 
HETATM   21  C30 UNL     1      -1.257   7.326  15.724  1.00  0.00     0.014 C 
HETATM   22  C31 UNL     1      -2.612   6.940  15.047  1.00  0.00     0.003 C 
HETATM   23  C32 UNL     1      -3.339   5.930  15.960  1.00  0.00     0.020 C 
ENDROOT
BRANCH   3  24
HETATM   24  O1  UNL     1      -1.296   5.475  13.553  1.00  0.00    -0.377 OA
HETATM   25  H2  UNL     1      -1.198   5.195  12.625  1.00  0.00     0.211 HD
ENDBRANCH   3  24
BRANCH  13  26
HETATM   26  O2  UNL     1       0.262  14.367  19.729  1.00  0.00    -0.271 OA
BRANCH  26  27
HETATM   27  C13 UNL     1       1.621  14.026  19.440  1.00  0.00     0.303 C 
BRANCH  27  28
HETATM   28  C14 UNL     1       2.271  13.475  20.700  1.00  0.00     0.244 C 
HETATM   29  O3  UNL     1       1.984  13.883  21.822  1.00  0.00    -0.271 OA
HETATM   30  N2  UNL     1       3.176  12.463  20.457  1.00  0.00    -0.346 N 
HETATM   31  H16 UNL     1       3.366  12.253  19.483  1.00  0.00     0.163 HD
BRANCH  30  32
HETATM   32  C15 UNL     1       4.051  11.921  21.505  1.00  0.00     0.180 C 
BRANCH  32  33
HETATM   33  C16 UNL     1       5.538  12.050  21.085  1.00  0.00     0.241 C 
HETATM   34  O4  UNL     1       6.023  11.395  20.166  1.00  0.00    -0.271 OA
HETATM   35  N3  UNL     1       6.233  13.060  21.730  1.00  0.00    -0.344 N 
HETATM   36  H18 UNL     1       5.909  13.223  22.678  1.00  0.00     0.163 HD
BRANCH  35  37
HETATM   37  C17 UNL     1       7.679  13.222  21.524  1.00  0.00     0.192 C 
BRANCH  37  38
HETATM   38  C18 UNL     1       8.024  14.684  21.247  1.00  0.00     0.146 C 
BRANCH  38  39
HETATM   39  C19 UNL     1       9.505  14.861  21.078  1.00  0.00     0.141 C 
HETATM   40  O5  UNL     1      10.257  15.525  21.770  1.00  0.00    -0.650 OA
BRANCH  39  41
HETATM   41  O6  UNL     1       9.994  14.127  20.055  1.00  0.00    -0.776 OA
HETATM   42  H22 UNL     1      10.945  14.360  20.028  1.00  0.00     0.167 HD
ENDBRANCH  39  41
ENDBRANCH  38  39
ENDBRANCH  37  38
BRANCH  37  43
HETATM   43  C20 UNL     1       8.442  12.763  22.769  1.00  0.00     0.164 C 
HETATM   44  O7  UNL     1       8.977  11.677  22.927  1.00  0.00    -0.648 OA
BRANCH  43  45
HETATM   45  O8  UNL     1       8.574  13.725  23.713  1.00  0.00    -0.775 OA
HETATM   46  H23 UNL     1       9.023  13.272  24.457  1.00  0.00     0.167 HD
ENDBRANCH  43  45
ENDBRANCH  37  43
ENDBRANCH  35  37
ENDBRANCH  32  33
BRANCH  32  47
HETATM   47  C21 UNL     1       3.655  10.463  21.834  1.00  0.00     0.009 C 
HETATM   48  C22 UNL     1       3.693  10.127  23.329  1.00  0.00     0.012 C 
HETATM   49  C23 UNL     1       2.278  10.112  21.264  1.00  0.00     0.012 C 
ENDBRANCH  32  47
ENDBRANCH  30  32
ENDBRANCH  27  28
ENDBRANCH  26  27
ENDBRANCH  13  26
TORSDOF 13
ENDMDL
MODEL 2
REMARK minimizedAffinity -9.54351234
REMARK CNNscore 0.591744125
REMARK CNNaffinity 7.57383347
REMARK  13 active torsions:
REMARK  status: ('A' for Active; 'I' for Inactive)
REMARK    1  A    between atoms: C3_3  and  O1_4 
REMARK    2  A    between atoms: N1_14  and  O2_16 
REMARK    3  A    between atoms: O2_16  and  C13_17 
REMARK    4  A    between atoms: C13_17  and  C14_18 
REMARK       I    between atoms: C14_18  and  N2_20 
REMARK    5  A    between atoms: N2_20  and  C15_21 
REMARK    6  A    between atoms: C15_21  and  C16_22 
REMARK    7  A    between atoms: C15_21  and  C21_33 
REMARK       I    between atoms: C16_22  and  N3_24 
REMARK    8  A    between atoms: N3_24  and  C17_25 
REMARK    9  A    between atoms: C17_25  and  C18_26 
REMARK   10  A    between atoms: C17_25  and  C20_30 
REMARK   11  A    between atoms: C18_26  and  C19_27 
REMARK   12  A    between atoms: C19_27  and  O6_29 
REMARK   13  A    between atoms: C20_30  and  O8_32 
ROOT
HETATM    1  C1  UNL     1     -14.548   9.347  15.420  1.00  0.00     0.015 C 
HETATM    2  C2  UNL     1     -13.722   9.043  14.598  1.00  0.00    -0.078 C 
HETATM    3  C3  UNL     1     -12.722   8.719  13.557  1.00  0.00     0.128 C 
HETATM    4  C4  UNL     1     -11.685   9.846  13.456  1.00  0.00     0.052 C 
HETATM    5  C5  UNL     1     -10.589   9.488  14.470  1.00  0.00     0.010 C 
HETATM    6  C6  UNL     1     -10.876   8.047  14.952  1.00  0.00     0.002 C 
HETATM    7  C7  UNL     1      -9.660   7.148  15.301  1.00  0.00    -0.004 C 
HETATM    8  C8  UNL     1      -8.572   7.914  16.081  1.00  0.00     0.010 C 
HETATM    9  C9  UNL     1      -7.353   8.280  15.248  1.00  0.00     0.035 C 
HETATM   10  C10 UNL     1      -6.734   7.106  14.536  1.00  0.00    -0.069 C 
HETATM   11  C11 UNL     1      -5.450   7.191  14.142  1.00  0.00     0.030 C 
HETATM   12  C12 UNL     1      -4.772   6.098  13.395  1.00  0.00     0.032 C 
HETATM   13  N1  UNL     1      -3.514   6.264  13.094  1.00  0.00    -0.271 N 
ATOM     14  H1  UNL     1      -2.965   7.082  13.359  1.00  0.00     0.194 HD
HETATM   15  C24 UNL     1      -5.580   4.860  13.045  1.00  0.00     0.060 C 
HETATM   16  C25 UNL     1      -7.071   5.180  12.988  1.00  0.00     0.020 C 
HETATM   17  C26 UNL     1      -7.606   5.886  14.268  1.00  0.00    -0.016 C 
HETATM   18  C27 UNL     1      -7.465   4.891  15.454  1.00  0.00     0.020 C 
HETATM   19  C28 UNL     1      -9.126   6.279  14.118  1.00  0.00     0.002 C 
HETATM   20  C29 UNL     1      -9.523   6.910  12.776  1.00  0.00     0.007 C 
HETATM   21  C30 UNL     1     -11.046   6.998  12.613  1.00  0.00     0.014 C 
HETATM   22  C31 UNL     1     -11.831   7.474  13.878  1.00  0.00     0.003 C 
HETATM   23  C32 UNL     1     -12.652   6.283  14.416  1.00  0.00     0.020 C 
ENDROOT
BRANCH   3  24
HETATM   24  O1  UNL     1     -13.412   8.566  12.323  1.00  0.00    -0.377 OA
HETATM   25  H2  UNL     1     -13.921   9.383  12.176  1.00  0.00     0.211 HD
ENDBRANCH   3  24
BRANCH  13  26
HETATM   26  O2  UNL     1      -3.011   5.180  12.363  1.00  0.00    -0.271 OA
BRANCH  26  27
HETATM   27  C13 UNL     1      -1.818   4.699  12.989  1.00  0.00     0.303 C 
BRANCH  27  28
HETATM   28  C14 UNL     1      -0.682   4.732  11.978  1.00  0.00     0.244 C 
HETATM   29  O3  UNL     1      -0.491   3.826  11.171  1.00  0.00    -0.271 OA
HETATM   30  N2  UNL     1       0.077   5.883  12.038  1.00  0.00    -0.346 N 
HETATM   31  H16 UNL     1      -0.148   6.532  12.784  1.00  0.00     0.163 HD
BRANCH  30  32
HETATM   32  C15 UNL     1       1.328   6.040  11.285  1.00  0.00     0.180 C 
BRANCH  32  33
HETATM   33  C16 UNL     1       2.368   6.823  12.127  1.00  0.00     0.241 C 
HETATM   34  O4  UNL     1       2.086   7.352  13.199  1.00  0.00    -0.271 OA
HETATM   35  N3  UNL     1       3.666   6.755  11.647  1.00  0.00    -0.344 N 
HETATM   36  H18 UNL     1       3.713   6.684  10.635  1.00  0.00     0.163 HD
BRANCH  35  37
HETATM   37  C17 UNL     1       4.736   7.547  12.270  1.00  0.00     0.192 C 
BRANCH  37  38
HETATM   38  C18 UNL     1       6.022   6.727  12.376  1.00  0.00     0.146 C 
BRANCH  38  39
HETATM   39  C19 UNL     1       6.484   6.283  11.018  1.00  0.00     0.141 C 
HETATM   40  O5  UNL     1       6.249   5.222  10.464  1.00  0.00    -0.650 OA
BRANCH  39  41
HETATM   41  O6  UNL     1       7.189   7.240  10.380  1.00  0.00    -0.776 OA
HETATM   42  H22 UNL     1       7.461   6.817   9.540  1.00  0.00     0.167 HD
ENDBRANCH  39  41
ENDBRANCH  38  39
ENDBRANCH  37  38
BRANCH  37  43
HETATM   43  C20 UNL     1       5.018   8.799  11.436  1.00  0.00     0.164 C 
HETATM   44  O7  UNL     1       5.707   9.749  11.773  1.00  0.00    -0.648 OA
BRANCH  43  45
HETATM   45  O8  UNL     1       4.496   8.751  10.188  1.00  0.00    -0.775 OA
HETATM   46  H23 UNL     1       4.706   9.629   9.805  1.00  0.00     0.167 HD
ENDBRANCH  43  45
ENDBRANCH  37  43
ENDBRANCH  35  37
ENDBRANCH  32  33
BRANCH  32  47
HETATM   47  C21 UNL     1       1.052   6.708   9.918  1.00  0.00     0.009 C 
HETATM   48  C22 UNL     1       0.685   8.194  10.011  1.00  0.00     0.012 C 
HETATM   49  C23 UNL     1       2.229   6.528   8.956  1.00  0.00     0.012 C 
ENDBRANCH  32  47
ENDBRANCH  30  32
ENDBRANCH  27  28
ENDBRANCH  26  27
ENDBRANCH  13  26
TORSDOF 13
ENDMDL
MODEL 3
REMARK minimizedAffinity -8.15159702
REMARK CNNscore 0.489883959
REMARK CNNaffinity 6.8822341
REMARK  13 active torsions:
REMARK  status: ('A' for Active; 'I' for Inactive)
REMARK    1  A    between atoms: C3_3  and  O1_4 
REMARK    2  A    between atoms: N1_14  and  O2_16 
REMARK    3  A    between atoms: O2_16  and  C13_17 
REMARK    4  A    between atoms: C13_17  and  C14_18 
REMARK       I    between atoms: C14_18  and  N2_20 
REMARK    5  A    between atoms: N2_20  and  C15_21 
REMARK    6  A    between atoms: C15_21  and  C16_22 
REMARK    7  A    between atoms: C15_21  and  C21_33 
REMARK       I    between atoms: C16_22  and  N3_24 
REMARK    8  A    between atoms: N3_24  and  C17_25 
REMARK    9  A    between atoms: C17_25  and  C18_26 
REMARK   10  A    between atoms: C17_25  and  C20_30 
REMARK   11  A    between atoms: C18_26  and  C19_27 
REMARK   12  A    between atoms: C19_27  and  O6_29 
REMARK   13  A    between atoms: C20_30  and  O8_32 
ROOT
HETATM    1  C1  UNL     1      -7.096   5.625  13.739  1.00  0.00     0.015 C 
HETATM    2  C2  UNL     1      -6.171   6.177  14.277  1.00  0.00    -0.078 C 
HETATM    3  C3  UNL     1      -5.051   6.832  14.990  1.00  0.00     0.128 C 
HETATM    4  C4  UNL     1      -4.142   5.772  15.626  1.00  0.00     0.052 C 
HETATM    5  C5  UNL     1      -3.109   5.416  14.548  1.00  0.00     0.010 C 
HETATM    6  C6  UNL     1      -3.274   6.448  13.409  1.00  0.00     0.002 C 
HETATM    7  C7  UNL     1      -2.001   6.869  12.628  1.00  0.00    -0.004 C 
HETATM    8  C8  UNL     1      -1.080   5.671  12.321  1.00  0.00     0.010 C 
HETATM    9  C9  UNL     1       0.159   5.600  13.199  1.00  0.00     0.035 C 
HETATM   10  C10 UNL     1       0.967   6.872  13.206  1.00  0.00    -0.069 C 
HETATM   11  C11 UNL     1       2.264   6.813  13.562  1.00  0.00     0.030 C 
HETATM   12  C12 UNL     1       3.125   8.024  13.639  1.00  0.00     0.032 C 
HETATM   13  N1  UNL     1       4.378   7.853  13.956  1.00  0.00    -0.271 N 
ATOM     14  H1  UNL     1       4.806   6.944  14.131  1.00  0.00     0.194 HD
HETATM   15  C24 UNL     1       2.495   9.372  13.329  1.00  0.00     0.060 C 
HETATM   16  C25 UNL     1       0.990   9.338  13.572  1.00  0.00     0.020 C 
HETATM   17  C26 UNL     1       0.266   8.173  12.837  1.00  0.00    -0.016 C 
HETATM   18  C27 UNL     1       0.411   8.411  11.307  1.00  0.00     0.020 C 
HETATM   19  C28 UNL     1      -1.269   8.128  13.197  1.00  0.00     0.002 C 
HETATM   20  C29 UNL     1      -1.613   8.314  14.681  1.00  0.00     0.007 C 
HETATM   21  C30 UNL     1      -3.115   8.536  14.897  1.00  0.00     0.014 C 
HETATM   22  C31 UNL     1      -4.059   7.609  14.065  1.00  0.00     0.003 C 
HETATM   23  C32 UNL     1      -4.786   8.476  13.014  1.00  0.00     0.020 C 
ENDROOT
BRANCH   3  24
HETATM   24  O1  UNL     1      -5.607   7.677  15.990  1.00  0.00    -0.377 OA
HETATM   25  H2  UNL     1      -6.189   7.123  16.541  1.00  0.00     0.211 HD
ENDBRANCH   3  24
BRANCH  13  26
HETATM   26  O2  UNL     1       5.063   9.073  14.027  1.00  0.00    -0.271 OA
BRANCH  26  27
HETATM   27  C13 UNL     1       5.296   9.407  15.398  1.00  0.00     0.303 C 
BRANCH  27  28
HETATM   28  C14 UNL     1       6.777   9.696  15.591  1.00  0.00     0.244 C 
HETATM   29  O3  UNL     1       7.228  10.839  15.617  1.00  0.00    -0.271 OA
HETATM   30  N2  UNL     1       7.542   8.562  15.766  1.00  0.00    -0.346 N 
HETATM   31  H16 UNL     1       7.061   7.675  15.670  1.00  0.00     0.163 HD
BRANCH  30  32
HETATM   32  C15 UNL     1       9.010   8.599  15.780  1.00  0.00     0.180 C 
BRANCH  32  33
HETATM   33  C16 UNL     1       9.514   9.589  16.862  1.00  0.00     0.241 C 
HETATM   34  O4  UNL     1       9.612   9.279  18.046  1.00  0.00    -0.271 OA
HETATM   35  N3  UNL     1       9.979  10.796  16.365  1.00  0.00    -0.344 N 
HETATM   36  H18 UNL     1       9.493  11.094  15.525  1.00  0.00     0.163 HD
BRANCH  35  37
HETATM   37  C17 UNL     1      10.373  11.878  17.279  1.00  0.00     0.192 C 
BRANCH  37  38
HETATM   38  C18 UNL     1      10.069  11.498  18.727  1.00  0.00     0.146 C 
BRANCH  38  39
HETATM   39  C19 UNL     1      11.284  11.672  19.592  1.00  0.00     0.141 C 
HETATM   40  O5  UNL     1      11.705  12.708  20.078  1.00  0.00    -0.650 OA
BRANCH  39  41
HETATM   41  O6  UNL     1      11.894  10.499  19.860  1.00  0.00    -0.776 OA
HETATM   42  H22 UNL     1      12.678  10.753  20.387  1.00  0.00     0.167 HD
ENDBRANCH  39  41
ENDBRANCH  38  39
ENDBRANCH  37  38
BRANCH  37  43
HETATM   43  C20 UNL     1      11.872  12.159  17.147  1.00  0.00     0.164 C 
HETATM   44  O7  UNL     1      12.388  13.253  16.984  1.00  0.00    -0.648 OA
BRANCH  43  45
HETATM   45  O8  UNL     1      12.648  11.063  17.322  1.00  0.00    -0.775 OA
HETATM   46  H23 UNL     1      13.559  11.385  17.154  1.00  0.00     0.167 HD
ENDBRANCH  43  45
ENDBRANCH  37  43
ENDBRANCH  35  37
ENDBRANCH  32  33
BRANCH  32  47
HETATM   47  C21 UNL     1       9.553   8.937  14.372  1.00  0.00     0.009 C 
HETATM   48  C22 UNL     1      10.030  10.386  14.218  1.00  0.00     0.012 C 
HETATM   49  C23 UNL     1      10.673   7.980  13.956  1.00  0.00     0.012 C 
ENDBRANCH  32  47
ENDBRANCH  30  32
ENDBRANCH  27  28
ENDBRANCH  26  27
ENDBRANCH  13  26
TORSDOF 13
ENDMDL
MODEL 4
REMARK minimizedAffinity -8.69248009
REMARK CNNscore 0.46252951
REMARK CNNaffinity 6.7169385
REMARK  13 active torsions:
REMARK  status: ('A' for Active; 'I' for Inactive)
REMARK    1  A    between atoms: C3_3  and  O1_4 
REMARK    2  A    between atoms: N1_14  and  O2_16 
REMARK    3  A    between atoms: O2_16  and  C13_17 
REMARK    4  A    between atoms: C13_17  and  C14_18 
REMARK       I    between atoms: C14_18  and  N2_20 
REMARK    5  A    between atoms: N2_20  and  C15_21 
REMARK    6  A    between atoms: C15_21  and  C16_22 
REMARK    7  A    between atoms: C15_21  and  C21_33 
REMARK       I    between atoms: C16_22  and  N3_24 
REMARK    8  A    between atoms: N3_24  and  C17_25 
REMARK    9  A    between atoms: C17_25  and  C18_26 
REMARK   10  A    between atoms: C17_25  and  C20_30 
REMARK   11  A    between atoms: C18_26  and  C19_27 
REMARK   12  A    between atoms: C19_27  and  O6_29 
REMARK   13  A    between atoms: C20_30  and  O8_32 
ROOT
HETATM    1  C1  UNL     1      -8.619   5.385  11.710  1.00  0.00     0.015 C 
HETATM    2  C2  UNL     1      -7.864   5.356  12.647  1.00  0.00    -0.078 C 
HETATM    3  C3  UNL     1      -6.931   5.262  13.792  1.00  0.00     0.128 C 
HETATM    4  C4  UNL     1      -5.597   4.656  13.336  1.00  0.00     0.052 C 
HETATM    5  C5  UNL     1      -4.743   5.846  12.874  1.00  0.00     0.010 C 
HETATM    6  C6  UNL     1      -5.488   7.129  13.307  1.00  0.00     0.002 C 
HETATM    7  C7  UNL     1      -4.632   8.359  13.710  1.00  0.00    -0.004 C 
HETATM    8  C8  UNL     1      -3.427   8.565  12.771  1.00  0.00     0.010 C 
HETATM    9  C9  UNL     1      -2.094   8.142  13.370  1.00  0.00     0.035 C 
HETATM   10  C10 UNL     1      -1.807   8.771  14.708  1.00  0.00    -0.069 C 
HETATM   11  C11 UNL     1      -0.531   8.840  15.131  1.00  0.00     0.030 C 
HETATM   12  C12 UNL     1      -0.160   9.404  16.457  1.00  0.00     0.032 C 
HETATM   13  N1  UNL     1       1.107   9.460  16.755  1.00  0.00    -0.271 N 
ATOM     14  H1  UNL     1       1.857   9.165  16.129  1.00  0.00     0.194 HD
HETATM   15  C24 UNL     1      -1.277   9.888  17.367  1.00  0.00     0.060 C 
HETATM   16  C25 UNL     1      -2.591   9.187  17.039  1.00  0.00     0.020 C 
HETATM   17  C26 UNL     1      -2.984   9.273  15.535  1.00  0.00    -0.016 C 
HETATM   18  C27 UNL     1      -3.243  10.768  15.195  1.00  0.00     0.020 C 
HETATM   19  C28 UNL     1      -4.298   8.453  15.234  1.00  0.00     0.002 C 
HETATM   20  C29 UNL     1      -4.381   7.064  15.881  1.00  0.00     0.007 C 
HETATM   21  C30 UNL     1      -5.789   6.464  15.770  1.00  0.00     0.014 C 
HETATM   22  C31 UNL     1      -6.487   6.640  14.383  1.00  0.00     0.003 C 
HETATM   23  C32 UNL     1      -7.669   7.618  14.556  1.00  0.00     0.020 C 
ENDROOT
BRANCH   3  24
HETATM   24  O1  UNL     1      -7.539   4.439  14.781  1.00  0.00    -0.377 OA
HETATM   25  H2  UNL     1      -7.763   3.594  14.352  1.00  0.00     0.211 HD
ENDBRANCH   3  24
BRANCH  13  26
HETATM   26  O2  UNL     1       1.313   9.977  18.040  1.00  0.00    -0.271 OA
BRANCH  26  27
HETATM   27  C13 UNL     1       2.325  10.986  17.989  1.00  0.00     0.303 C 
BRANCH  27  28
HETATM   28  C14 UNL     1       3.056  11.020  19.323  1.00  0.00     0.244 C 
HETATM   29  O3  UNL     1       3.136  10.038  20.057  1.00  0.00    -0.271 OA
HETATM   30  N2  UNL     1       3.640  12.238  19.601  1.00  0.00    -0.346 N 
HETATM   31  H16 UNL     1       3.457  12.986  18.941  1.00  0.00     0.163 HD
BRANCH  30  32
HETATM   32  C15 UNL     1       4.231  12.547  20.910  1.00  0.00     0.180 C 
BRANCH  32  33
HETATM   33  C16 UNL     1       5.657  11.949  21.012  1.00  0.00     0.241 C 
HETATM   34  O4  UNL     1       5.881  10.749  20.876  1.00  0.00    -0.271 OA
HETATM   35  N3  UNL     1       6.669  12.889  21.124  1.00  0.00    -0.344 N 
HETATM   36  H18 UNL     1       6.382  13.724  21.624  1.00  0.00     0.163 HD
BRANCH  35  37
HETATM   37  C17 UNL     1       8.059  12.468  21.352  1.00  0.00     0.192 C 
BRANCH  37  38
HETATM   38  C18 UNL     1       9.032  13.436  20.680  1.00  0.00     0.146 C 
BRANCH  38  39
HETATM   39  C19 UNL     1      10.381  12.801  20.506  1.00  0.00     0.141 C 
HETATM   40  O5  UNL     1      10.709  11.663  20.797  1.00  0.00    -0.650 OA
BRANCH  39  41
HETATM   41  O6  UNL     1      11.262  13.627  19.903  1.00  0.00    -0.776 OA
HETATM   42  H22 UNL     1      12.096  13.117  19.887  1.00  0.00     0.167 HD
ENDBRANCH  39  41
ENDBRANCH  38  39
ENDBRANCH  37  38
BRANCH  37  43
HETATM   43  C20 UNL     1       8.358  12.431  22.853  1.00  0.00     0.164 C 
HETATM   44  O7  UNL     1       8.186  13.344  23.644  1.00  0.00    -0.648 OA
BRANCH  43  45
HETATM   45  O8  UNL     1       8.769  11.219  23.296  1.00  0.00    -0.775 OA
HETATM   46  H23 UNL     1       8.972  11.367  24.244  1.00  0.00     0.167 HD
ENDBRANCH  43  45
ENDBRANCH  37  43
ENDBRANCH  35  37
ENDBRANCH  32  33
BRANCH  32  47
HETATM   47  C21 UNL     1       3.303  12.057  22.047  1.00  0.00     0.009 C 
HETATM   48  C22 UNL     1       3.970  11.078  23.019  1.00  0.00     0.012 C 
HETATM   49  C23 UNL     1       2.703  13.230  22.827  1.00  0.00     0.012 C 
ENDBRANCH  32  47
ENDBRANCH  30  32
ENDBRANCH  27  28
ENDBRANCH  26  27
ENDBRANCH  13  26
TORSDOF 13
ENDMDL
MODEL 5
REMARK minimizedAffinity -9.60726643
REMARK CNNscore 0.441323668
REMARK CNNaffinity 7.57826614
REMARK  13 active torsions:
REMARK  status: ('A' for Active; 'I' for Inactive)
REMARK    1  A    between atoms: C3_3  and  O1_4 
REMARK    2  A    between atoms: N1_14  and  O2_16 
REMARK    3  A    between atoms: O2_16  and  C13_17 
REMARK    4  A    between atoms: C13_17  and  C14_18 
REMARK       I    between atoms: C14_18  and  N2_20 
REMARK    5  A    between atoms: N2_20  and  C15_21 
REMARK    6  A    between atoms: C15_21  and  C16_22 
REMARK    7  A    between atoms: C15_21  and  C21_33 
REMARK       I    between atoms: C16_22  and  N3_24 
REMARK    8  A    between atoms: N3_24  and  C17_25 
REMARK    9  A    between atoms: C17_25  and  C18_26 
REMARK   10  A    between atoms: C17_25  and  C20_30 
REMARK   11  A    between atoms: C18_26  and  C19_27 
REMARK   12  A    between atoms: C19_27  and  O6_29 
REMARK   13  A    between atoms: C20_30  and  O8_32 
ROOT
HETATM    1  C1  UNL     1     -14.639   9.639  15.465  1.00  0.00     0.015 C 
HETATM    2  C2  UNL     1     -13.850   9.269  14.634  1.00  0.00    -0.078 C 
HETATM    3  C3  UNL     1     -12.894   8.864  13.581  1.00  0.00     0.128 C 
HETATM    4  C4  UNL     1     -11.816   9.942  13.405  1.00  0.00     0.052 C 
HETATM    5  C5  UNL     1     -10.707   9.581  14.404  1.00  0.00     0.010 C 
HETATM    6  C6  UNL     1     -11.037   8.173  14.951  1.00  0.00     0.002 C 
HETATM    7  C7  UNL     1      -9.848   7.240  15.303  1.00  0.00    -0.004 C 
HETATM    8  C8  UNL     1      -8.709   7.991  16.022  1.00  0.00     0.010 C 
HETATM    9  C9  UNL     1      -7.501   8.274  15.142  1.00  0.00     0.035 C 
HETATM   10  C10 UNL     1      -6.949   7.048  14.461  1.00  0.00    -0.069 C 
HETATM   11  C11 UNL     1      -5.675   7.065  14.030  1.00  0.00     0.030 C 
HETATM   12  C12 UNL     1      -5.062   5.917  13.309  1.00  0.00     0.032 C 
HETATM   13  N1  UNL     1      -3.808   6.019  12.968  1.00  0.00    -0.271 N 
ATOM     14  H1  UNL     1      -3.219   6.823  13.184  1.00  0.00     0.194 HD
HETATM   15  C24 UNL     1      -5.928   4.699  13.033  1.00  0.00     0.060 C 
HETATM   16  C25 UNL     1      -7.406   5.078  13.002  1.00  0.00     0.020 C 
HETATM   17  C26 UNL     1      -7.876   5.855  14.267  1.00  0.00    -0.016 C 
HETATM   18  C27 UNL     1      -7.740   4.902  15.489  1.00  0.00     0.020 C 
HETATM   19  C28 UNL     1      -9.383   6.303  14.142  1.00  0.00     0.002 C 
HETATM   20  C29 UNL     1      -9.793   6.896  12.788  1.00  0.00     0.007 C 
HETATM   21  C30 UNL     1     -11.316   7.039  12.662  1.00  0.00     0.014 C 
HETATM   22  C31 UNL     1     -12.044   7.598  13.927  1.00  0.00     0.003 C 
HETATM   23  C32 UNL     1     -12.896   6.463  14.536  1.00  0.00     0.020 C 
ENDROOT
BRANCH   3  24
HETATM   24  O1  UNL     1     -13.625   8.690  12.373  1.00  0.00    -0.377 OA
HETATM   25  H2  UNL     1     -14.105   9.521  12.207  1.00  0.00     0.211 HD
ENDBRANCH   3  24
BRANCH  13  26
HETATM   26  O2  UNL     1      -3.370   4.887  12.269  1.00  0.00    -0.271 OA
BRANCH  26  27
HETATM   27  C13 UNL     1      -2.074   4.509  12.743  1.00  0.00     0.303 C 
BRANCH  27  28
HETATM   28  C14 UNL     1      -1.020   5.064  11.798  1.00  0.00     0.244 C 
HETATM   29  O3  UNL     1      -0.670   4.472  10.780  1.00  0.00    -0.271 OA
HETATM   30  N2  UNL     1      -0.532   6.297  12.177  1.00  0.00    -0.346 N 
HETATM   31  H16 UNL     1      -0.861   6.657  13.067  1.00  0.00     0.163 HD
BRANCH  30  32
HETATM   32  C15 UNL     1       0.619   6.925  11.516  1.00  0.00     0.180 C 
BRANCH  32  33
HETATM   33  C16 UNL     1       1.844   6.941  12.467  1.00  0.00     0.241 C 
HETATM   34  O4  UNL     1       2.951   6.538  12.122  1.00  0.00    -0.271 OA
HETATM   35  N3  UNL     1       1.624   7.576  13.678  1.00  0.00    -0.344 N 
HETATM   36  H18 UNL     1       0.669   7.484  14.008  1.00  0.00     0.163 HD
BRANCH  35  37
HETATM   37  C17 UNL     1       2.654   7.562  14.727  1.00  0.00     0.192 C 
BRANCH  37  38
HETATM   38  C18 UNL     1       3.661   8.691  14.508  1.00  0.00     0.146 C 
BRANCH  38  39
HETATM   39  C19 UNL     1       5.039   8.139  14.278  1.00  0.00     0.141 C 
HETATM   40  O5  UNL     1       5.875   8.539  13.486  1.00  0.00    -0.650 OA
BRANCH  39  41
HETATM   41  O6  UNL     1       5.330   7.123  15.117  1.00  0.00    -0.776 OA
HETATM   42  H22 UNL     1       6.222   6.833  14.840  1.00  0.00     0.167 HD
ENDBRANCH  39  41
ENDBRANCH  38  39
ENDBRANCH  37  38
BRANCH  37  43
HETATM   43  C20 UNL     1       2.007   7.740  16.103  1.00  0.00     0.164 C 
HETATM   44  O7  UNL     1       2.358   8.525  16.969  1.00  0.00    -0.648 OA
BRANCH  43  45
HETATM   45  O8  UNL     1       0.895   6.988  16.282  1.00  0.00    -0.775 OA
HETATM   46  H23 UNL     1       0.634   7.163  17.211  1.00  0.00     0.167 HD
ENDBRANCH  43  45
ENDBRANCH  37  43
ENDBRANCH  35  37
ENDBRANCH  32  33
BRANCH  32  47
HETATM   47  C21 UNL     1       0.243   8.339  11.014  1.00  0.00     0.009 C 
HETATM   48  C22 UNL     1       0.101   8.445   9.492  1.00  0.00     0.012 C 
HETATM   49  C23 UNL     1      -1.032   8.854  11.687  1.00  0.00     0.012 C 
ENDBRANCH  32  47
ENDBRANCH  30  32
ENDBRANCH  27  28
ENDBRANCH  26  27
ENDBRANCH  13  26
TORSDOF 13
ENDMDL
MODEL 6
REMARK minimizedAffinity -7.53160429
REMARK CNNscore 0.413423896
REMARK CNNaffinity 6.62478113
REMARK  13 active torsions:
REMARK  status: ('A' for Active; 'I' for Inactive)
REMARK    1  A    between atoms: C3_3  and  O1_4 
REMARK    2  A    between atoms: N1_14  and  O2_16 
REMARK    3  A    between atoms: O2_16  and  C13_17 
REMARK    4  A    between atoms: C13_17  and  C14_18 
REMARK       I    between atoms: C14_18  and  N2_20 
REMARK    5  A    between atoms: N2_20  and  C15_21 
REMARK    6  A    between atoms: C15_21  and  C16_22 
REMARK    7  A    between atoms: C15_21  and  C21_33 
REMARK       I    between atoms: C16_22  and  N3_24 
REMARK    8  A    between atoms: N3_24  and  C17_25 
REMARK    9  A    between atoms: C17_25  and  C18_26 
REMARK   10  A    between atoms: C17_25  and  C20_30 
REMARK   11  A    between atoms: C18_26  and  C19_27 
REMARK   12  A    between atoms: C19_27  and  O6_29 
REMARK   13  A    between atoms: C20_30  and  O8_32 
ROOT
HETATM    1  C1  UNL     1      -4.722  16.402  21.712  1.00  0.00     0.015 C 
HETATM    2  C2  UNL     1      -4.845  15.983  20.590  1.00  0.00    -0.078 C 
HETATM    3  C3  UNL     1      -5.000  15.525  19.191  1.00  0.00     0.128 C 
HETATM    4  C4  UNL     1      -3.871  16.094  18.323  1.00  0.00     0.052 C 
HETATM    5  C5  UNL     1      -2.726  15.076  18.418  1.00  0.00     0.010 C 
HETATM    6  C6  UNL     1      -3.297  13.823  19.121  1.00  0.00     0.002 C 
HETATM    7  C7  UNL     1      -2.738  12.439  18.694  1.00  0.00    -0.004 C 
HETATM    8  C8  UNL     1      -1.209  12.462  18.497  1.00  0.00     0.010 C 
HETATM    9  C9  UNL     1      -0.772  12.465  17.040  1.00  0.00     0.035 C 
HETATM   10  C10 UNL     1      -1.371  11.346  16.228  1.00  0.00    -0.069 C 
HETATM   11  C11 UNL     1      -0.757  10.971  15.091  1.00  0.00     0.030 C 
HETATM   12  C12 UNL     1      -1.302   9.907  14.205  1.00  0.00     0.032 C 
HETATM   13  N1  UNL     1      -0.610   9.592  13.146  1.00  0.00    -0.271 N 
ATOM     14  H1  UNL     1       0.287  10.010  12.902  1.00  0.00     0.194 HD
HETATM   15  C24 UNL     1      -2.615   9.250  14.597  1.00  0.00     0.060 C 
HETATM   16  C25 UNL     1      -3.444  10.175  15.484  1.00  0.00     0.020 C 
HETATM   17  C26 UNL     1      -2.666  10.713  16.721  1.00  0.00    -0.016 C 
HETATM   18  C27 UNL     1      -2.323   9.500  17.632  1.00  0.00     0.020 C 
HETATM   19  C28 UNL     1      -3.536  11.736  17.549  1.00  0.00     0.002 C 
HETATM   20  C29 UNL     1      -4.308  12.775  16.726  1.00  0.00     0.007 C 
HETATM   21  C30 UNL     1      -5.331  13.536  17.579  1.00  0.00     0.014 C 
HETATM   22  C31 UNL     1      -4.830  13.983  18.990  1.00  0.00     0.003 C 
HETATM   23  C32 UNL     1      -5.586  13.161  20.056  1.00  0.00     0.020 C 
ENDROOT
BRANCH   3  24
HETATM   24  O1  UNL     1      -6.265  15.978  18.723  1.00  0.00    -0.377 OA
HETATM   25  H2  UNL     1      -6.290  16.942  18.853  1.00  0.00     0.211 HD
ENDBRANCH   3  24
BRANCH  13  26
HETATM   26  O2  UNL     1      -1.252   8.606  12.386  1.00  0.00    -0.271 OA
BRANCH  26  27
HETATM   27  C13 UNL     1      -0.980   8.825  10.998  1.00  0.00     0.303 C 
BRANCH  27  28
HETATM   28  C14 UNL     1       0.420   8.320  10.684  1.00  0.00     0.244 C 
HETATM   29  O3  UNL     1       1.432   8.898  11.072  1.00  0.00    -0.271 OA
HETATM   30  N2  UNL     1       0.434   7.146   9.960  1.00  0.00    -0.346 N 
HETATM   31  H16 UNL     1      -0.467   6.796   9.653  1.00  0.00     0.163 HD
BRANCH  30  32
HETATM   32  C15 UNL     1       1.667   6.587   9.390  1.00  0.00     0.180 C 
BRANCH  32  33
HETATM   33  C16 UNL     1       2.827   6.686  10.415  1.00  0.00     0.241 C 
HETATM   34  O4  UNL     1       2.855   6.020  11.446  1.00  0.00    -0.271 OA
HETATM   35  N3  UNL     1       3.891   7.473  10.004  1.00  0.00    -0.344 N 
HETATM   36  H18 UNL     1       3.608   8.247   9.411  1.00  0.00     0.163 HD
BRANCH  35  37
HETATM   37  C17 UNL     1       5.006   7.759  10.919  1.00  0.00     0.192 C 
BRANCH  37  38
HETATM   38  C18 UNL     1       4.506   7.868  12.359  1.00  0.00     0.146 C 
BRANCH  38  39
HETATM   39  C19 UNL     1       4.764   9.240  12.911  1.00  0.00     0.141 C 
HETATM   40  O5  UNL     1       5.728   9.609  13.560  1.00  0.00    -0.650 OA
BRANCH  39  41
HETATM   41  O6  UNL     1       3.804  10.121  12.561  1.00  0.00    -0.776 OA
HETATM   42  H22 UNL     1       4.066  10.951  13.010  1.00  0.00     0.167 HD
ENDBRANCH  39  41
ENDBRANCH  38  39
ENDBRANCH  37  38
BRANCH  37  43
HETATM   43  C20 UNL     1       6.049   6.641  10.843  1.00  0.00     0.164 C 
HETATM   44  O7  UNL     1       7.230   6.738  11.133  1.00  0.00    -0.648 OA
BRANCH  43  45
HETATM   45  O8  UNL     1       5.533   5.438  10.496  1.00  0.00    -0.775 OA
HETATM   46  H23 UNL     1       6.316   4.850  10.434  1.00  0.00     0.167 HD
ENDBRANCH  43  45
ENDBRANCH  37  43
ENDBRANCH  35  37
ENDBRANCH  32  33
BRANCH  32  47
HETATM   47  C21 UNL     1       2.002   7.282   8.050  1.00  0.00     0.009 C 
HETATM   48  C22 UNL     1       3.034   8.410   8.172  1.00  0.00     0.012 C 
HETATM   49  C23 UNL     1       2.465   6.275   6.994  1.00  0.00     0.012 C 
ENDBRANCH  32  47
ENDBRANCH  30  32
ENDBRANCH  27  28
ENDBRANCH  26  27
ENDBRANCH  13  26
TORSDOF 13
ENDMDL
MODEL 7
REMARK minimizedAffinity -7.81963921
REMARK CNNscore 0.343819797
REMARK CNNaffinity 6.17471123
REMARK  13 active torsions:
REMARK  status: ('A' for Active; 'I' for Inactive)
REMARK    1  A    between atoms: C3_3  and  O1_4 
REMARK    2  A    between atoms: N1_14  and  O2_16 
REMARK    3  A    between atoms: O2_16  and  C13_17 
REMARK    4  A    between atoms: C13_17  and  C14_18 
REMARK       I    between atoms: C14_18  and  N2_20 
REMARK    5  A    between atoms: N2_20  and  C15_21 
REMARK    6  A    between atoms: C15_21  and  C16_22 
REMARK    7  A    between atoms: C15_21  and  C21_33 
REMARK       I    between atoms: C16_22  and  N3_24 
REMARK    8  A    between atoms: N3_24  and  C17_25 
REMARK    9  A    between atoms: C17_25  and  C18_26 
REMARK   10  A    between atoms: C17_25  and  C20_30 
REMARK   11  A    between atoms: C18_26  and  C19_27 
REMARK   12  A    between atoms: C19_27  and  O6_29 
REMARK   13  A    between atoms: C20_30  and  O8_32 
ROOT
HETATM    1  C1  UNL     1      -4.003   3.806   9.959  1.00  0.00     0.015 C 
HETATM    2  C2  UNL     1      -3.460   3.951  11.024  1.00  0.00    -0.078 C 
HETATM    3  C3  UNL     1      -2.771   4.074  12.328  1.00  0.00     0.128 C 
HETATM    4  C4  UNL     1      -1.258   3.904  12.140  1.00  0.00     0.052 C 
HETATM    5  C5  UNL     1      -0.719   5.310  11.843  1.00  0.00     0.010 C 
HETATM    6  C6  UNL     1      -1.875   6.300  12.113  1.00  0.00     0.002 C 
HETATM    7  C7  UNL     1      -1.508   7.704  12.664  1.00  0.00    -0.004 C 
HETATM    8  C8  UNL     1      -0.263   8.296  11.972  1.00  0.00     0.010 C 
HETATM    9  C9  UNL     1       0.999   8.248  12.819  1.00  0.00     0.035 C 
HETATM   10  C10 UNL     1       0.835   8.866  14.182  1.00  0.00    -0.069 C 
HETATM   11  C11 UNL     1       1.933   9.281  14.842  1.00  0.00     0.030 C 
HETATM   12  C12 UNL     1       1.869   9.862  16.210  1.00  0.00     0.032 C 
HETATM   13  N1  UNL     1       2.986  10.268  16.745  1.00  0.00    -0.271 N 
ATOM     14  H1  UNL     1       3.892  10.233  16.277  1.00  0.00     0.194 HD
HETATM   15  C24 UNL     1       0.511   9.958  16.885  1.00  0.00     0.060 C 
HETATM   16  C25 UNL     1      -0.455   8.923  16.316  1.00  0.00     0.020 C 
HETATM   17  C26 UNL     1      -0.570   8.965  14.764  1.00  0.00    -0.016 C 
HETATM   18  C27 UNL     1      -1.187  10.337  14.369  1.00  0.00     0.020 C 
HETATM   19  C28 UNL     1      -1.505   7.816  14.223  1.00  0.00     0.002 C 
HETATM   20  C29 UNL     1      -1.296   6.433  14.853  1.00  0.00     0.007 C 
HETATM   21  C30 UNL     1      -2.419   5.457  14.478  1.00  0.00     0.014 C 
HETATM   22  C31 UNL     1      -2.868   5.491  12.981  1.00  0.00     0.003 C 
HETATM   23  C32 UNL     1      -4.295   6.076  12.917  1.00  0.00     0.020 C 
ENDROOT
BRANCH   3  24
HETATM   24  O1  UNL     1      -3.284   3.063  13.188  1.00  0.00    -0.377 OA
HETATM   25  H2  UNL     1      -3.166   2.212  12.730  1.00  0.00     0.211 HD
ENDBRANCH   3  24
BRANCH  13  26
HETATM   26  O2  UNL     1       2.788  10.759  18.042  1.00  0.00    -0.271 OA
BRANCH  26  27
HETATM   27  C13 UNL     1       3.811  11.710  18.350  1.00  0.00     0.303 C 
BRANCH  27  28
HETATM   28  C14 UNL     1       4.242  11.521  19.796  1.00  0.00     0.244 C 
HETATM   29  O3  UNL     1       5.292  10.961  20.104  1.00  0.00    -0.271 OA
HETATM   30  N2  UNL     1       3.364  12.065  20.710  1.00  0.00    -0.346 N 
HETATM   31  H16 UNL     1       2.506  12.453  20.333  1.00  0.00     0.163 HD
BRANCH  30  32
HETATM   32  C15 UNL     1       3.488  11.834  22.155  1.00  0.00     0.180 C 
BRANCH  32  33
HETATM   33  C16 UNL     1       4.979  11.870  22.580  1.00  0.00     0.241 C 
HETATM   34  O4  UNL     1       5.577  10.872  22.972  1.00  0.00    -0.271 OA
HETATM   35  N3  UNL     1       5.615  13.078  22.345  1.00  0.00    -0.344 N 
HETATM   36  H18 UNL     1       4.995  13.877  22.431  1.00  0.00     0.163 HD
BRANCH  35  37
HETATM   37  C17 UNL     1       6.993  13.300  22.808  1.00  0.00     0.192 C 
BRANCH  37  38
HETATM   38  C18 UNL     1       7.990  13.020  21.685  1.00  0.00     0.146 C 
BRANCH  38  39
HETATM   39  C19 UNL     1       9.067  12.082  22.149  1.00  0.00     0.141 C 
HETATM   40  O5  UNL     1      10.181  11.940  21.675  1.00  0.00    -0.650 OA
BRANCH  39  41
HETATM   41  O6  UNL     1       8.704  11.392  23.250  1.00  0.00    -0.776 OA
HETATM   42  H22 UNL     1       9.464  10.799  23.421  1.00  0.00     0.167 HD
ENDBRANCH  39  41
ENDBRANCH  38  39
ENDBRANCH  37  38
BRANCH  37  43
HETATM   43  C20 UNL     1       7.165  14.749  23.271  1.00  0.00     0.164 C 
HETATM   44  O7  UNL     1       6.277  15.494  23.653  1.00  0.00    -0.648 OA
BRANCH  43  45
HETATM   45  O8  UNL     1       8.456  15.155  23.318  1.00  0.00    -0.775 OA
HETATM   46  H23 UNL     1       8.401  16.101  23.570  1.00  0.00     0.167 HD
ENDBRANCH  43  45
ENDBRANCH  37  43
ENDBRANCH  35  37
ENDBRANCH  32  33
BRANCH  32  47
HETATM   47  C21 UNL     1       2.795  10.508  22.548  1.00  0.00     0.009 C 
HETATM   48  C22 UNL     1       2.721   9.481  21.413  1.00  0.00     0.012 C 
HETATM   49  C23 UNL     1       3.452   9.872  23.776  1.00  0.00     0.012 C 
ENDBRANCH  32  47
ENDBRANCH  30  32
ENDBRANCH  27  28
ENDBRANCH  26  27
ENDBRANCH  13  26
TORSDOF 13
ENDMDL
MODEL 8
REMARK minimizedAffinity -7.11507034
REMARK CNNscore 0.289128691
REMARK CNNaffinity 6.15883827
REMARK  13 active torsions:
REMARK  status: ('A' for Active; 'I' for Inactive)
REMARK    1  A    between atoms: C3_3  and  O1_4 
REMARK    2  A    between atoms: N1_14  and  O2_16 
REMARK    3  A    between atoms: O2_16  and  C13_17 
REMARK    4  A    between atoms: C13_17  and  C14_18 
REMARK       I    between atoms: C14_18  and  N2_20 
REMARK    5  A    between atoms: N2_20  and  C15_21 
REMARK    6  A    between atoms: C15_21  and  C16_22 
REMARK    7  A    between atoms: C15_21  and  C21_33 
REMARK       I    between atoms: C16_22  and  N3_24 
REMARK    8  A    between atoms: N3_24  and  C17_25 
REMARK    9  A    between atoms: C17_25  and  C18_26 
REMARK   10  A    between atoms: C17_25  and  C20_30 
REMARK   11  A    between atoms: C18_26  and  C19_27 
REMARK   12  A    between atoms: C19_27  and  O6_29 
REMARK   13  A    between atoms: C20_30  and  O8_32 
ROOT
HETATM    1  C1  UNL     1      -3.692   3.860  10.009  1.00  0.00     0.015 C 
HETATM    2  C2  UNL     1      -3.276   4.054  11.121  1.00  0.00    -0.078 C 
HETATM    3  C3  UNL     1      -2.737   4.239  12.487  1.00  0.00     0.128 C 
HETATM    4  C4  UNL     1      -1.204   4.171  12.462  1.00  0.00     0.052 C 
HETATM    5  C5  UNL     1      -0.734   5.608  12.196  1.00  0.00     0.010 C 
HETATM    6  C6  UNL     1      -1.976   6.519  12.327  1.00  0.00     0.002 C 
HETATM    7  C7  UNL     1      -1.764   7.950  12.888  1.00  0.00    -0.004 C 
HETATM    8  C8  UNL     1      -0.496   8.619  12.318  1.00  0.00     0.010 C 
HETATM    9  C9  UNL     1       0.670   8.667  13.293  1.00  0.00     0.035 C 
HETATM   10  C10 UNL     1       0.323   9.288  14.620  1.00  0.00    -0.069 C 
HETATM   11  C11 UNL     1       1.315   9.784  15.383  1.00  0.00     0.030 C 
HETATM   12  C12 UNL     1       1.068  10.375  16.726  1.00  0.00     0.032 C 
HETATM   13  N1  UNL     1       2.093  10.863  17.367  1.00  0.00    -0.271 N 
ATOM     14  H1  UNL     1       3.043  10.885  16.997  1.00  0.00     0.194 HD
HETATM   15  C24 UNL     1      -0.357  10.385  17.254  1.00  0.00     0.060 C 
HETATM   16  C25 UNL     1      -1.186   9.279  16.607  1.00  0.00     0.020 C 
HETATM   17  C26 UNL     1      -1.139   9.296  15.051  1.00  0.00    -0.016 C 
HETATM   18  C27 UNL     1      -1.802  10.617  14.568  1.00  0.00     0.020 C 
HETATM   19  C28 UNL     1      -1.933   8.080  14.436  1.00  0.00     0.002 C 
HETATM   20  C29 UNL     1      -1.698   6.721  15.109  1.00  0.00     0.007 C 
HETATM   21  C30 UNL     1      -2.708   5.666  14.638  1.00  0.00     0.014 C 
HETATM   22  C31 UNL     1      -2.998   5.653  13.102  1.00  0.00     0.003 C 
HETATM   23  C32 UNL     1      -4.446   6.137  12.878  1.00  0.00     0.020 C 
ENDROOT
BRANCH   3  24
HETATM   24  O1  UNL     1      -3.268   3.205  13.308  1.00  0.00    -0.377 OA
HETATM   25  H2  UNL     1      -3.046   2.358  12.880  1.00  0.00     0.211 HD
ENDBRANCH   3  24
BRANCH  13  26
HETATM   26  O2  UNL     1       1.727  11.353  18.627  1.00  0.00    -0.271 OA
BRANCH  26  27
HETATM   27  C13 UNL     1       2.144  10.427  19.635  1.00  0.00     0.303 C 
BRANCH  27  28
HETATM   28  C14 UNL     1       3.452  10.913  20.241  1.00  0.00     0.244 C 
HETATM   29  O3  UNL     1       4.302  10.142  20.680  1.00  0.00    -0.271 OA
HETATM   30  N2  UNL     1       3.598  12.284  20.214  1.00  0.00    -0.346 N 
HETATM   31  H16 UNL     1       2.803  12.814  19.874  1.00  0.00     0.163 HD
BRANCH  30  32
HETATM   32  C15 UNL     1       4.692  12.973  20.910  1.00  0.00     0.180 C 
BRANCH  32  33
HETATM   33  C16 UNL     1       6.060  12.545  20.320  1.00  0.00     0.241 C 
HETATM   34  O4  UNL     1       6.190  11.558  19.603  1.00  0.00    -0.271 OA
HETATM   35  N3  UNL     1       7.091  13.443  20.548  1.00  0.00    -0.344 N 
HETATM   36  H18 UNL     1       6.998  13.940  21.428  1.00  0.00     0.163 HD
BRANCH  35  37
HETATM   37  C17 UNL     1       8.469  13.115  20.155  1.00  0.00     0.192 C 
BRANCH  37  38
HETATM   38  C18 UNL     1       9.058  14.222  19.282  1.00  0.00     0.146 C 
BRANCH  38  39
HETATM   39  C19 UNL     1       8.369  14.275  17.949  1.00  0.00     0.141 C 
HETATM   40  O5  UNL     1       8.759  13.808  16.893  1.00  0.00    -0.650 OA
BRANCH  39  41
HETATM   41  O6  UNL     1       7.163  14.877  18.021  1.00  0.00    -0.776 OA
HETATM   42  H22 UNL     1       6.844  14.882  17.095  1.00  0.00     0.167 HD
ENDBRANCH  39  41
ENDBRANCH  38  39
ENDBRANCH  37  38
BRANCH  37  43
HETATM   43  C20 UNL     1       9.345  12.948  21.398  1.00  0.00     0.164 C 
HETATM   44  O7  UNL     1       9.827  13.849  22.067  1.00  0.00    -0.648 OA
BRANCH  43  45
HETATM   45  O8  UNL     1       9.493  11.661  21.791  1.00  0.00    -0.775 OA
HETATM   46  H23 UNL     1      10.114  11.711  22.549  1.00  0.00     0.167 HD
ENDBRANCH  43  45
ENDBRANCH  37  43
ENDBRANCH  35  37
ENDBRANCH  32  33
BRANCH  32  47
HETATM   47  C21 UNL     1       4.601  12.721  22.434  1.00  0.00     0.009 C 
HETATM   48  C22 UNL     1       3.201  12.331  22.920  1.00  0.00     0.012 C 
HETATM   49  C23 UNL     1       5.615  11.668  22.890  1.00  0.00     0.012 C 
ENDBRANCH  32  47
ENDBRANCH  30  32
ENDBRANCH  27  28
ENDBRANCH  26  27
ENDBRANCH  13  26
TORSDOF 13
ENDMDL
MODEL 9
REMARK minimizedAffinity -7.36931372
REMARK CNNscore 0.280299455
REMARK CNNaffinity 6.4984417
REMARK  13 active torsions:
REMARK  status: ('A' for Active; 'I' for Inactive)
REMARK    1  A    between atoms: C3_3  and  O1_4 
REMARK    2  A    between atoms: N1_14  and  O2_16 
REMARK    3  A    between atoms: O2_16  and  C13_17 
REMARK    4  A    between atoms: C13_17  and  C14_18 
REMARK       I    between atoms: C14_18  and  N2_20 
REMARK    5  A    between atoms: N2_20  and  C15_21 
REMARK    6  A    between atoms: C15_21  and  C16_22 
REMARK    7  A    between atoms: C15_21  and  C21_33 
REMARK       I    between atoms: C16_22  and  N3_24 
REMARK    8  A    between atoms: N3_24  and  C17_25 
REMARK    9  A    between atoms: C17_25  and  C18_26 
REMARK   10  A    between atoms: C17_25  and  C20_30 
REMARK   11  A    between atoms: C18_26  and  C19_27 
REMARK   12  A    between atoms: C19_27  and  O6_29 
REMARK   13  A    between atoms: C20_30  and  O8_32 
ROOT
HETATM    1  C1  UNL     1      -5.124  17.596  20.286  1.00  0.00     0.015 C 
HETATM    2  C2  UNL     1      -5.135  16.881  19.318  1.00  0.00    -0.078 C 
HETATM    3  C3  UNL     1      -5.146  16.050  18.093  1.00  0.00     0.128 C 
HETATM    4  C4  UNL     1      -3.882  16.319  17.264  1.00  0.00     0.052 C 
HETATM    5  C5  UNL     1      -2.828  15.336  17.793  1.00  0.00     0.010 C 
HETATM    6  C6  UNL     1      -3.562  14.350  18.730  1.00  0.00     0.002 C 
HETATM    7  C7  UNL     1      -3.048  12.887  18.783  1.00  0.00    -0.004 C 
HETATM    8  C8  UNL     1      -1.508  12.810  18.799  1.00  0.00     0.010 C 
HETATM    9  C9  UNL     1      -0.895  12.388  17.473  1.00  0.00     0.035 C 
HETATM   10  C10 UNL     1      -1.461  11.104  16.927  1.00  0.00    -0.069 C 
HETATM   11  C11 UNL     1      -0.737  10.405  16.032  1.00  0.00     0.030 C 
HETATM   12  C12 UNL     1      -1.237   9.150  15.409  1.00  0.00     0.032 C 
HETATM   13  N1  UNL     1      -0.442   8.529  14.584  1.00  0.00    -0.271 N 
ATOM     14  H1  UNL     1       0.504   8.835  14.360  1.00  0.00     0.194 HD
HETATM   15  C24 UNL     1      -2.630   8.668  15.783  1.00  0.00     0.060 C 
HETATM   16  C25 UNL     1      -3.498   9.830  16.257  1.00  0.00     0.020 C 
HETATM   17  C26 UNL     1      -2.846  10.672  17.393  1.00  0.00    -0.016 C 
HETATM   18  C27 UNL     1      -2.700   9.757  18.641  1.00  0.00     0.020 C 
HETATM   19  C28 UNL     1      -3.742  11.912  17.779  1.00  0.00     0.002 C 
HETATM   20  C29 UNL     1      -4.336  12.698  16.602  1.00  0.00     0.007 C 
HETATM   21  C30 UNL     1      -5.405  13.698  17.063  1.00  0.00     0.014 C 
HETATM   22  C31 UNL     1      -5.054  14.511  18.351  1.00  0.00     0.003 C 
HETATM   23  C32 UNL     1      -5.989  14.045  19.488  1.00  0.00     0.020 C 
ENDROOT
BRANCH   3  24
HETATM   24  O1  UNL     1      -6.310  16.389  17.349  1.00  0.00    -0.377 OA
HETATM   25  H2  UNL     1      -6.287  17.351  17.203  1.00  0.00     0.211 HD
ENDBRANCH   3  24
BRANCH  13  26
HETATM   26  O2  UNL     1      -1.048   7.387  14.045  1.00  0.00    -0.271 OA
BRANCH  26  27
HETATM   27  C13 UNL     1      -1.390   7.632  12.677  1.00  0.00     0.303 C 
BRANCH  27  28
HETATM   28  C14 UNL     1      -0.113   7.708  11.855  1.00  0.00     0.244 C 
HETATM   29  O3  UNL     1       0.754   8.555  12.059  1.00  0.00    -0.271 OA
HETATM   30  N2  UNL     1      -0.015   6.722  10.895  1.00  0.00    -0.346 N 
HETATM   31  H16 UNL     1      -0.821   6.116  10.789  1.00  0.00     0.163 HD
BRANCH  30  32
HETATM   32  C15 UNL     1       1.039   6.722   9.873  1.00  0.00     0.180 C 
BRANCH  32  33
HETATM   33  C16 UNL     1       2.398   6.319  10.500  1.00  0.00     0.241 C 
HETATM   34  O4  UNL     1       2.819   5.166  10.478  1.00  0.00    -0.271 OA
HETATM   35  N3  UNL     1       3.160   7.384  10.955  1.00  0.00    -0.344 N 
HETATM   36  H18 UNL     1       2.598   8.156  11.300  1.00  0.00     0.163 HD
BRANCH  35  37
HETATM   37  C17 UNL     1       4.415   7.148  11.684  1.00  0.00     0.192 C 
BRANCH  37  38
HETATM   38  C18 UNL     1       5.619   7.489  10.806  1.00  0.00     0.146 C 
BRANCH  38  39
HETATM   39  C19 UNL     1       6.731   6.503  11.020  1.00  0.00     0.141 C 
HETATM   40  O5  UNL     1       6.797   5.358  10.607  1.00  0.00    -0.650 OA
BRANCH  39  41
HETATM   41  O6  UNL     1       7.762   7.037  11.709  1.00  0.00    -0.776 OA
HETATM   42  H22 UNL     1       8.390   6.293  11.813  1.00  0.00     0.167 HD
ENDBRANCH  39  41
ENDBRANCH  38  39
ENDBRANCH  37  38
BRANCH  37  43
HETATM   43  C20 UNL     1       4.463   8.014  12.945  1.00  0.00     0.164 C 
HETATM   44  O7  UNL     1       4.268   9.218  13.000  1.00  0.00    -0.648 OA
BRANCH  43  45
HETATM   45  O8  UNL     1       4.659   7.308  14.083  1.00  0.00    -0.775 OA
HETATM   46  H23 UNL     1       4.723   7.992  14.782  1.00  0.00     0.167 HD
ENDBRANCH  43  45
ENDBRANCH  37  43
ENDBRANCH  35  37
ENDBRANCH  32  33
BRANCH  32  47
HETATM   47  C21 UNL     1       1.100   8.095   9.164  1.00  0.00     0.009 C 
HETATM   48  C22 UNL     1       2.086   8.150   7.991  1.00  0.00     0.012 C 
HETATM   49  C23 UNL     1      -0.285   8.546   8.692  1.00  0.00     0.012 C 
ENDBRANCH  32  47
ENDBRANCH  30  32
ENDBRANCH  27  28
ENDBRANCH  26  27
ENDBRANCH  13  26
TORSDOF 13
ENDMDL
