MODEL 1
REMARK minimizedAffinity -7.40766191
REMARK CNNscore 0.474373013
REMARK CNNaffinity 6.81253004
REMARK  18 active torsions:
REMARK  status: ('A' for Active; 'I' for Inactive)
REMARK    1  A    between atoms: C4_4  and  C5_5 
REMARK    2  A    between atoms: C5_5  and  C6_6 
REMARK    3  A    between atoms: C6_6  and  C7_7 
REMARK    4  A    between atoms: C9_9  and  C10_10 
REMARK    5  A    between atoms: C10_10  and  O1_11 
REMARK    6  A    between atoms: C10_10  and  C11_12 
REMARK    7  A    between atoms: C11_12  and  C12_13 
REMARK    8  A    between atoms: C14_15  and  C15_16 
REMARK    9  A    between atoms: C15_16  and  C16_17 
REMARK   10  A    between atoms: C16_17  and  C17_18 
REMARK   11  A    between atoms: C17_18  and  C18_19 
REMARK   12  A    between atoms: C18_19  and  O2_20 
REMARK   13  A    between atoms: C19_21  and  C20_22 
REMARK   14  A    between atoms: C20_22  and  C21_23 
REMARK   15  A    between atoms: C21_23  and  C22_24 
REMARK   16  A    between atoms: C22_24  and  O3_25 
REMARK   17  A    between atoms: C24_27  and  C26_29 
REMARK   18  A    between atoms: C29_33  and  O5_35 
ROOT
HETATM    1  C17 UNL     1      -1.504   7.131  13.928  1.00  0.00     0.019 C 
HETATM    2  C19 UNL     1      -1.189   6.630  12.430  1.00  0.00     0.029 C 
HETATM    3  C23 UNL     1       0.317   6.588  12.108  1.00  0.00    -0.066 C 
HETATM    4  C24 UNL     1       0.913   7.020  10.963  1.00  0.00    -0.021 C 
HETATM    5  C25 UNL     1       2.399   6.959  10.702  1.00  0.00     0.052 C 
HETATM    6  C27 UNL     1       1.136   6.144  13.297  1.00  0.00     0.038 C 
HETATM    7  C28 UNL     1       1.026   7.158  14.440  1.00  0.00     0.042 C 
HETATM    8  C29 UNL     1      -0.284   7.994  14.463  1.00  0.00     0.065 C 
HETATM    9  C30 UNL     1      -0.069   9.332  13.734  1.00  0.00     0.047 C 
ENDROOT
BRANCH   1  10
HETATM   10  C16 UNL     1      -2.875   7.921  14.000  1.00  0.00     0.019 C 
BRANCH  10  11
HETATM   11  C15 UNL     1      -3.974   7.610  12.972  1.00  0.00     0.028 C 
BRANCH  11  12
HETATM   12  C14 UNL     1      -5.049   6.746  13.578  1.00  0.00    -0.024 C 
HETATM   13  C12 UNL     1      -6.070   7.121  14.376  1.00  0.00    -0.085 C 
HETATM   14  C13 UNL     1      -6.302   8.522  14.874  1.00  0.00     0.043 C 
BRANCH  13  15
HETATM   15  C11 UNL     1      -7.087   6.088  14.850  1.00  0.00     0.069 C 
BRANCH  15  16
HETATM   16  C10 UNL     1      -7.656   5.198  13.723  1.00  0.00     0.145 C 
BRANCH  16  17
HETATM   17  C9  UNL     1      -8.811   5.874  13.033  1.00  0.00     0.007 C 
HETATM   18  C7  UNL     1      -9.768   6.651  13.581  1.00  0.00    -0.085 C 
HETATM   19  C8  UNL     1      -9.868   6.927  15.061  1.00  0.00     0.043 C 
BRANCH  18  20
HETATM   20  C6  UNL     1     -10.876   7.327  12.777  1.00  0.00     0.037 C 
BRANCH  20  21
HETATM   21  C5  UNL     1     -11.996   8.081  13.516  1.00  0.00     0.031 C 
BRANCH  21  22
HETATM   22  C4  UNL     1     -13.359   7.833  12.921  1.00  0.00    -0.024 C 
HETATM   23  C2  UNL     1     -14.252   6.880  13.253  1.00  0.00    -0.091 C 
HETATM   24  C1  UNL     1     -14.075   5.855  14.338  1.00  0.00     0.042 C 
HETATM   25  C3  UNL     1     -15.570   6.784  12.527  1.00  0.00     0.042 C 
ENDBRANCH  21  22
ENDBRANCH  20  21
ENDBRANCH  18  20
ENDBRANCH  16  17
BRANCH  16  26
HETATM   26  O1  UNL     1      -8.166   3.963  14.230  1.00  0.00    -0.391 OA
HETATM   27  H17 UNL     1      -8.194   4.021  15.201  1.00  0.00     0.210 HD
ENDBRANCH  16  26
ENDBRANCH  15  16
ENDBRANCH  13  15
ENDBRANCH  11  12
ENDBRANCH  10  11
ENDBRANCH   1  10
BRANCH   1  28
HETATM   28  C18 UNL     1      -1.710   5.914  14.918  1.00  0.00     0.177 C 
BRANCH  28  29
HETATM   29  O2  UNL     1      -0.514   5.548  15.599  1.00  0.00    -0.400 OA
HETATM   30  H30 UNL     1       0.166   5.404  14.905  1.00  0.00     0.209 HD
ENDBRANCH  28  29
ENDBRANCH   1  28
BRANCH   2  31
HETATM   31  C20 UNL     1      -1.921   5.300  12.094  1.00  0.00     0.012 C 
BRANCH  31  32
HETATM   32  C21 UNL     1      -1.264   4.383  11.059  1.00  0.00     0.027 C 
BRANCH  32  33
HETATM   33  C22 UNL     1      -0.706   3.089  11.635  1.00  0.00     0.164 C 
BRANCH  33  34
HETATM   34  O3  UNL     1      -1.118   2.018  10.798  1.00  0.00    -0.401 OA
HETATM   35  H38 UNL     1      -0.759   1.197  11.177  1.00  0.00     0.209 HD
ENDBRANCH  33  34
ENDBRANCH  32  33
ENDBRANCH  31  32
ENDBRANCH   2  31
BRANCH   8  36
HETATM   36  O5  UNL     1      -0.484   8.337  15.851  1.00  0.00    -0.389 OA
HETATM   37  H50 UNL     1      -1.066   9.118  15.898  1.00  0.00     0.210 HD
ENDBRANCH   8  36
BRANCH   4  38
HETATM   38  C26 UNL     1       0.150   7.635   9.826  1.00  0.00     0.265 C 
HETATM   39  O4  UNL     1       0.093   8.846   9.643  1.00  0.00    -0.302 OA
ENDBRANCH   4  38
TORSDOF 18
ENDMDL
MODEL 2
REMARK minimizedAffinity -8.00976086
REMARK CNNscore 0.469878167
REMARK CNNaffinity 7.13134146
REMARK  18 active torsions:
REMARK  status: ('A' for Active; 'I' for Inactive)
REMARK    1  A    between atoms: C4_4  and  C5_5 
REMARK    2  A    between atoms: C5_5  and  C6_6 
REMARK    3  A    between atoms: C6_6  and  C7_7 
REMARK    4  A    between atoms: C9_9  and  C10_10 
REMARK    5  A    between atoms: C10_10  and  O1_11 
REMARK    6  A    between atoms: C10_10  and  C11_12 
REMARK    7  A    between atoms: C11_12  and  C12_13 
REMARK    8  A    between atoms: C14_15  and  C15_16 
REMARK    9  A    between atoms: C15_16  and  C16_17 
REMARK   10  A    between atoms: C16_17  and  C17_18 
REMARK   11  A    between atoms: C17_18  and  C18_19 
REMARK   12  A    between atoms: C18_19  and  O2_20 
REMARK   13  A    between atoms: C19_21  and  C20_22 
REMARK   14  A    between atoms: C20_22  and  C21_23 
REMARK   15  A    between atoms: C21_23  and  C22_24 
REMARK   16  A    between atoms: C22_24  and  O3_25 
REMARK   17  A    between atoms: C24_27  and  C26_29 
REMARK   18  A    between atoms: C29_33  and  O5_35 
ROOT
HETATM    1  C17 UNL     1      -0.422   6.530  13.074  1.00  0.00     0.019 C 
HETATM    2  C19 UNL     1      -0.327   6.319  11.480  1.00  0.00     0.029 C 
HETATM    3  C23 UNL     1       1.070   6.633  10.908  1.00  0.00    -0.066 C 
HETATM    4  C24 UNL     1       1.340   7.335   9.773  1.00  0.00    -0.021 C 
HETATM    5  C25 UNL     1       2.731   7.618   9.260  1.00  0.00     0.052 C 
HETATM    6  C27 UNL     1       2.173   6.207  11.846  1.00  0.00     0.038 C 
HETATM    7  C28 UNL     1       2.114   7.006  13.152  1.00  0.00     0.042 C 
HETATM    8  C29 UNL     1       0.708   7.543  13.540  1.00  0.00     0.065 C 
HETATM    9  C30 UNL     1       0.534   8.985  13.031  1.00  0.00     0.047 C 
ENDROOT
BRANCH   1  10
HETATM   10  C16 UNL     1      -1.868   7.002  13.513  1.00  0.00     0.019 C 
BRANCH  10  11
HETATM   11  C15 UNL     1      -2.565   8.120  12.718  1.00  0.00     0.028 C 
BRANCH  11  12
HETATM   12  C14 UNL     1      -3.747   8.662  13.478  1.00  0.00    -0.024 C 
HETATM   13  C12 UNL     1      -3.900   8.777  14.812  1.00  0.00    -0.085 C 
HETATM   14  C13 UNL     1      -2.899   8.313  15.836  1.00  0.00     0.043 C 
BRANCH  13  15
HETATM   15  C11 UNL     1      -5.168   9.403  15.384  1.00  0.00     0.069 C 
BRANCH  15  16
HETATM   16  C10 UNL     1      -6.361   8.428  15.492  1.00  0.00     0.145 C 
BRANCH  16  17
HETATM   17  C9  UNL     1      -6.155   7.225  14.610  1.00  0.00     0.007 C 
HETATM   18  C7  UNL     1      -6.677   5.989  14.752  1.00  0.00    -0.085 C 
HETATM   19  C8  UNL     1      -7.547   5.584  15.917  1.00  0.00     0.043 C 
BRANCH  18  20
HETATM   20  C6  UNL     1      -6.436   4.846  13.770  1.00  0.00     0.037 C 
BRANCH  20  21
HETATM   21  C5  UNL     1      -7.626   3.998  13.288  1.00  0.00     0.031 C 
BRANCH  21  22
HETATM   22  C4  UNL     1      -7.198   2.723  12.606  1.00  0.00    -0.024 C 
HETATM   23  C2  UNL     1      -6.118   2.519  11.825  1.00  0.00    -0.091 C 
HETATM   24  C1  UNL     1      -5.073   3.546  11.490  1.00  0.00     0.042 C 
HETATM   25  C3  UNL     1      -5.863   1.163  11.216  1.00  0.00     0.042 C 
ENDBRANCH  21  22
ENDBRANCH  20  21
ENDBRANCH  18  20
ENDBRANCH  16  17
BRANCH  16  26
HETATM   26  O1  UNL     1      -7.581   9.032  15.056  1.00  0.00    -0.391 OA
HETATM   27  H17 UNL     1      -7.364   9.880  14.629  1.00  0.00     0.210 HD
ENDBRANCH  16  26
ENDBRANCH  15  16
ENDBRANCH  13  15
ENDBRANCH  11  12
ENDBRANCH  10  11
ENDBRANCH   1  10
BRANCH   1  28
HETATM   28  C18 UNL     1      -0.208   5.171  13.855  1.00  0.00     0.177 C 
BRANCH  28  29
HETATM   29  O2  UNL     1      -0.636   5.241  15.212  1.00  0.00    -0.400 OA
HETATM   30  H30 UNL     1      -0.182   6.017  15.605  1.00  0.00     0.209 HD
ENDBRANCH  28  29
ENDBRANCH   1  28
BRANCH   2  31
HETATM   31  C20 UNL     1      -0.864   4.926  11.043  1.00  0.00     0.012 C 
BRANCH  31  32
HETATM   32  C21 UNL     1      -0.312   3.703  11.779  1.00  0.00     0.027 C 
BRANCH  32  33
HETATM   33  C22 UNL     1      -0.809   2.370  11.236  1.00  0.00     0.164 C 
BRANCH  33  34
HETATM   34  O3  UNL     1      -1.806   2.634  10.259  1.00  0.00    -0.401 OA
HETATM   35  H38 UNL     1      -2.119   1.776   9.922  1.00  0.00     0.209 HD
ENDBRANCH  33  34
ENDBRANCH  32  33
ENDBRANCH  31  32
ENDBRANCH   2  31
BRANCH   8  36
HETATM   36  O5  UNL     1       0.730   7.640  14.981  1.00  0.00    -0.389 OA
HETATM   37  H50 UNL     1       0.040   8.270  15.261  1.00  0.00     0.210 HD
ENDBRANCH   8  36
BRANCH   4  38
HETATM   38  C26 UNL     1       0.270   7.931   8.906  1.00  0.00     0.265 C 
HETATM   39  O4  UNL     1      -0.238   9.023   9.135  1.00  0.00    -0.302 OA
ENDBRANCH   4  38
TORSDOF 18
ENDMDL
MODEL 3
REMARK minimizedAffinity -6.21604776
REMARK CNNscore 0.420643032
REMARK CNNaffinity 6.4006362
REMARK  18 active torsions:
REMARK  status: ('A' for Active; 'I' for Inactive)
REMARK    1  A    between atoms: C4_4  and  C5_5 
REMARK    2  A    between atoms: C5_5  and  C6_6 
REMARK    3  A    between atoms: C6_6  and  C7_7 
REMARK    4  A    between atoms: C9_9  and  C10_10 
REMARK    5  A    between atoms: C10_10  and  O1_11 
REMARK    6  A    between atoms: C10_10  and  C11_12 
REMARK    7  A    between atoms: C11_12  and  C12_13 
REMARK    8  A    between atoms: C14_15  and  C15_16 
REMARK    9  A    between atoms: C15_16  and  C16_17 
REMARK   10  A    between atoms: C16_17  and  C17_18 
REMARK   11  A    between atoms: C17_18  and  C18_19 
REMARK   12  A    between atoms: C18_19  and  O2_20 
REMARK   13  A    between atoms: C19_21  and  C20_22 
REMARK   14  A    between atoms: C20_22  and  C21_23 
REMARK   15  A    between atoms: C21_23  and  C22_24 
REMARK   16  A    between atoms: C22_24  and  O3_25 
REMARK   17  A    between atoms: C24_27  and  C26_29 
REMARK   18  A    between atoms: C29_33  and  O5_35 
ROOT
HETATM    1  C17 UNL     1       1.728   7.438  11.920  1.00  0.00     0.019 C 
HETATM    2  C19 UNL     1       2.972   6.907  11.045  1.00  0.00     0.029 C 
HETATM    3  C23 UNL     1       2.661   6.819   9.539  1.00  0.00    -0.066 C 
HETATM    4  C24 UNL     1       2.992   5.798   8.702  1.00  0.00    -0.021 C 
HETATM    5  C25 UNL     1       2.657   5.762   7.230  1.00  0.00     0.052 C 
HETATM    6  C27 UNL     1       1.776   7.952   9.078  1.00  0.00     0.038 C 
HETATM    7  C28 UNL     1       0.401   7.874   9.749  1.00  0.00     0.042 C 
HETATM    8  C29 UNL     1       0.376   7.168  11.133  1.00  0.00     0.065 C 
HETATM    9  C30 UNL     1       0.014   5.682  10.962  1.00  0.00     0.047 C 
ENDROOT
BRANCH   1  10
HETATM   10  C16 UNL     1       1.718   6.796  13.367  1.00  0.00     0.019 C 
BRANCH  10  11
HETATM   11  C15 UNL     1       0.377   6.615  14.098  1.00  0.00     0.028 C 
BRANCH  11  12
HETATM   12  C14 UNL     1       0.174   7.698  15.125  1.00  0.00    -0.024 C 
HETATM   13  C12 UNL     1      -0.976   8.088  15.711  1.00  0.00    -0.085 C 
HETATM   14  C13 UNL     1      -2.336   7.527  15.393  1.00  0.00     0.043 C 
BRANCH  13  15
HETATM   15  C11 UNL     1      -0.959   9.183  16.772  1.00  0.00     0.069 C 
BRANCH  15  16
HETATM   16  C10 UNL     1      -0.797  10.611  16.204  1.00  0.00     0.145 C 
BRANCH  16  17
HETATM   17  C9  UNL     1      -1.446  11.627  17.106  1.00  0.00     0.007 C 
HETATM   18  C7  UNL     1      -2.744  11.714  17.463  1.00  0.00    -0.085 C 
HETATM   19  C8  UNL     1      -3.814  10.791  16.935  1.00  0.00     0.043 C 
BRANCH  18  20
HETATM   20  C6  UNL     1      -3.292  12.765  18.424  1.00  0.00     0.037 C 
BRANCH  20  21
HETATM   21  C5  UNL     1      -4.350  12.361  19.466  1.00  0.00     0.031 C 
BRANCH  21  22
HETATM   22  C4  UNL     1      -5.436  13.395  19.629  1.00  0.00    -0.024 C 
HETATM   23  C2  UNL     1      -6.091  13.744  20.754  1.00  0.00    -0.091 C 
HETATM   24  C1  UNL     1      -5.844  13.175  22.123  1.00  0.00     0.042 C 
HETATM   25  C3  UNL     1      -7.165  14.802  20.713  1.00  0.00     0.042 C 
ENDBRANCH  21  22
ENDBRANCH  20  21
ENDBRANCH  18  20
ENDBRANCH  16  17
BRANCH  16  26
HETATM   26  O1  UNL     1      -1.430  10.750  14.930  1.00  0.00    -0.391 OA
HETATM   27  H17 UNL     1      -1.971   9.957  14.772  1.00  0.00     0.210 HD
ENDBRANCH  16  26
ENDBRANCH  15  16
ENDBRANCH  13  15
ENDBRANCH  11  12
ENDBRANCH  10  11
ENDBRANCH   1  10
BRANCH   1  28
HETATM   28  C18 UNL     1       1.829   8.994  12.191  1.00  0.00     0.177 C 
BRANCH  28  29
HETATM   29  O2  UNL     1       2.492   9.299  13.415  1.00  0.00    -0.400 OA
HETATM   30  H30 UNL     1       2.030   8.789  14.114  1.00  0.00     0.209 HD
ENDBRANCH  28  29
ENDBRANCH   1  28
BRANCH   2  31
HETATM   31  C20 UNL     1       4.278   7.692  11.353  1.00  0.00     0.012 C 
BRANCH  31  32
HETATM   32  C21 UNL     1       4.841   8.576  10.237  1.00  0.00     0.027 C 
BRANCH  32  33
HETATM   33  C22 UNL     1       6.078   9.370  10.633  1.00  0.00     0.164 C 
BRANCH  33  34
HETATM   34  O3  UNL     1       7.049   8.460  11.129  1.00  0.00    -0.401 OA
HETATM   35  H38 UNL     1       7.833   8.979  11.382  1.00  0.00     0.209 HD
ENDBRANCH  33  34
ENDBRANCH  32  33
ENDBRANCH  31  32
ENDBRANCH   2  31
BRANCH   8  36
HETATM   36  O5  UNL     1      -0.738   7.760  11.835  1.00  0.00    -0.389 OA
HETATM   37  H50 UNL     1      -1.020   7.151  12.542  1.00  0.00     0.210 HD
ENDBRANCH   8  36
BRANCH   4  38
HETATM   38  C26 UNL     1       3.718   4.567   9.162  1.00  0.00     0.265 C 
HETATM   39  O4  UNL     1       4.376   3.862   8.404  1.00  0.00    -0.302 OA
ENDBRANCH   4  38
TORSDOF 18
ENDMDL
MODEL 4
REMARK minimizedAffinity -6.82072449
REMARK CNNscore 0.411771327
REMARK CNNaffinity 6.61307716
REMARK  18 active torsions:
REMARK  status: ('A' for Active; 'I' for Inactive)
REMARK    1  A    between atoms: C4_4  and  C5_5 
REMARK    2  A    between atoms: C5_5  and  C6_6 
REMARK    3  A    between atoms: C6_6  and  C7_7 
REMARK    4  A    between atoms: C9_9  and  C10_10 
REMARK    5  A    between atoms: C10_10  and  O1_11 
REMARK    6  A    between atoms: C10_10  and  C11_12 
REMARK    7  A    between atoms: C11_12  and  C12_13 
REMARK    8  A    between atoms: C14_15  and  C15_16 
REMARK    9  A    between atoms: C15_16  and  C16_17 
REMARK   10  A    between atoms: C16_17  and  C17_18 
REMARK   11  A    between atoms: C17_18  and  C18_19 
REMARK   12  A    between atoms: C18_19  and  O2_20 
REMARK   13  A    between atoms: C19_21  and  C20_22 
REMARK   14  A    between atoms: C20_22  and  C21_23 
REMARK   15  A    between atoms: C21_23  and  C22_24 
REMARK   16  A    between atoms: C22_24  and  O3_25 
REMARK   17  A    between atoms: C24_27  and  C26_29 
REMARK   18  A    between atoms: C29_33  and  O5_35 
ROOT
HETATM    1  C17 UNL     1      -7.394   5.516  13.944  1.00  0.00     0.019 C 
HETATM    2  C19 UNL     1      -5.889   5.719  13.407  1.00  0.00     0.029 C 
HETATM    3  C23 UNL     1      -4.907   6.165  14.508  1.00  0.00    -0.066 C 
HETATM    4  C24 UNL     1      -3.955   7.133  14.400  1.00  0.00    -0.021 C 
HETATM    5  C25 UNL     1      -3.020   7.535  15.514  1.00  0.00     0.052 C 
HETATM    6  C27 UNL     1      -5.209   5.511  15.834  1.00  0.00     0.038 C 
HETATM    7  C28 UNL     1      -6.581   5.950  16.356  1.00  0.00     0.042 C 
HETATM    8  C29 UNL     1      -7.603   6.373  15.264  1.00  0.00     0.065 C 
HETATM    9  C30 UNL     1      -7.556   7.898  15.059  1.00  0.00     0.047 C 
ENDROOT
BRANCH   1  10
HETATM   10  C16 UNL     1      -8.461   5.864  12.828  1.00  0.00     0.019 C 
BRANCH  10  11
HETATM   11  C15 UNL     1      -9.955   5.873  13.195  1.00  0.00     0.028 C 
BRANCH  11  12
HETATM   12  C14 UNL     1     -10.516   7.269  13.129  1.00  0.00    -0.024 C 
HETATM   13  C12 UNL     1     -11.625   7.752  13.725  1.00  0.00    -0.085 C 
HETATM   14  C13 UNL     1     -12.578   6.938  14.558  1.00  0.00     0.043 C 
BRANCH  13  15
HETATM   15  C11 UNL     1     -11.998   9.223  13.567  1.00  0.00     0.069 C 
BRANCH  15  16
HETATM   16  C10 UNL     1     -11.138  10.187  14.414  1.00  0.00     0.145 C 
BRANCH  16  17
HETATM   17  C9  UNL     1     -11.740  10.387  15.780  1.00  0.00     0.007 C 
HETATM   18  C7  UNL     1     -11.339   9.854  16.953  1.00  0.00    -0.085 C 
HETATM   19  C8  UNL     1     -10.201   8.871  17.072  1.00  0.00     0.043 C 
BRANCH  18  20
HETATM   20  C6  UNL     1     -11.999  10.160  18.295  1.00  0.00     0.037 C 
BRANCH  20  21
HETATM   21  C5  UNL     1     -11.671   9.284  19.517  1.00  0.00     0.031 C 
BRANCH  21  22
HETATM   22  C4  UNL     1     -11.266  10.093  20.724  1.00  0.00    -0.024 C 
HETATM   23  C2  UNL     1     -10.719  11.324  20.757  1.00  0.00    -0.091 C 
HETATM   24  C1  UNL     1     -10.418  12.180  19.558  1.00  0.00     0.042 C 
HETATM   25  C3  UNL     1     -10.368  11.968  22.074  1.00  0.00     0.042 C 
ENDBRANCH  21  22
ENDBRANCH  20  21
ENDBRANCH  18  20
ENDBRANCH  16  17
BRANCH  16  26
HETATM   26  O1  UNL     1     -11.059  11.486  13.824  1.00  0.00    -0.391 OA
HETATM   27  H17 UNL     1     -11.703  11.528  13.095  1.00  0.00     0.210 HD
ENDBRANCH  16  26
ENDBRANCH  15  16
ENDBRANCH  13  15
ENDBRANCH  11  12
ENDBRANCH  10  11
ENDBRANCH   1  10
BRANCH   1  28
HETATM   28  C18 UNL     1      -7.688   4.002  14.297  1.00  0.00     0.177 C 
BRANCH  28  29
HETATM   29  O2  UNL     1      -8.370   3.314  13.253  1.00  0.00    -0.400 OA
HETATM   30  H30 UNL     1      -9.166   3.850  13.044  1.00  0.00     0.209 HD
ENDBRANCH  28  29
ENDBRANCH   1  28
BRANCH   2  31
HETATM   31  C20 UNL     1      -5.385   4.485  12.606  1.00  0.00     0.012 C 
BRANCH  31  32
HETATM   32  C21 UNL     1      -3.879   4.208  12.623  1.00  0.00     0.027 C 
BRANCH  32  33
HETATM   33  C22 UNL     1      -3.469   2.938  11.891  1.00  0.00     0.164 C 
BRANCH  33  34
HETATM   34  O3  UNL     1      -3.982   3.004  10.568  1.00  0.00    -0.401 OA
HETATM   35  H38 UNL     1      -3.717   2.186  10.112  1.00  0.00     0.209 HD
ENDBRANCH  33  34
ENDBRANCH  32  33
ENDBRANCH  31  32
ENDBRANCH   2  31
BRANCH   8  36
HETATM   36  O5  UNL     1      -8.899   6.099  15.839  1.00  0.00    -0.389 OA
HETATM   37  H50 UNL     1      -9.566   6.638  15.374  1.00  0.00     0.210 HD
ENDBRANCH   8  36
BRANCH   4  38
HETATM   38  C26 UNL     1      -3.743   7.933  13.148  1.00  0.00     0.265 C 
HETATM   39  O4  UNL     1      -4.545   8.772  12.752  1.00  0.00    -0.302 OA
ENDBRANCH   4  38
TORSDOF 18
ENDMDL
MODEL 5
REMARK minimizedAffinity -7.89091253
REMARK CNNscore 0.385889977
REMARK CNNaffinity 7.14368391
REMARK  18 active torsions:
REMARK  status: ('A' for Active; 'I' for Inactive)
REMARK    1  A    between atoms: C4_4  and  C5_5 
REMARK    2  A    between atoms: C5_5  and  C6_6 
REMARK    3  A    between atoms: C6_6  and  C7_7 
REMARK    4  A    between atoms: C9_9  and  C10_10 
REMARK    5  A    between atoms: C10_10  and  O1_11 
REMARK    6  A    between atoms: C10_10  and  C11_12 
REMARK    7  A    between atoms: C11_12  and  C12_13 
REMARK    8  A    between atoms: C14_15  and  C15_16 
REMARK    9  A    between atoms: C15_16  and  C16_17 
REMARK   10  A    between atoms: C16_17  and  C17_18 
REMARK   11  A    between atoms: C17_18  and  C18_19 
REMARK   12  A    between atoms: C18_19  and  O2_20 
REMARK   13  A    between atoms: C19_21  and  C20_22 
REMARK   14  A    between atoms: C20_22  and  C21_23 
REMARK   15  A    between atoms: C21_23  and  C22_24 
REMARK   16  A    between atoms: C22_24  and  O3_25 
REMARK   17  A    between atoms: C24_27  and  C26_29 
REMARK   18  A    between atoms: C29_33  and  O5_35 
ROOT
HETATM    1  C17 UNL     1      -1.445   6.450  13.166  1.00  0.00     0.019 C 
HETATM    2  C19 UNL     1      -0.301   5.733  12.288  1.00  0.00     0.029 C 
HETATM    3  C23 UNL     1       1.052   6.467  12.338  1.00  0.00    -0.066 C 
HETATM    4  C24 UNL     1       1.876   6.719  11.283  1.00  0.00    -0.021 C 
HETATM    5  C25 UNL     1       3.192   7.450  11.388  1.00  0.00     0.052 C 
HETATM    6  C27 UNL     1       1.329   7.050  13.703  1.00  0.00     0.038 C 
HETATM    7  C28 UNL     1       0.302   8.133  14.048  1.00  0.00     0.042 C 
HETATM    8  C29 UNL     1      -1.081   7.983  13.355  1.00  0.00     0.065 C 
HETATM    9  C30 UNL     1      -1.118   8.821  12.064  1.00  0.00     0.047 C 
ENDROOT
BRANCH   1  10
HETATM   10  C16 UNL     1      -2.880   6.249  12.527  1.00  0.00     0.019 C 
BRANCH  10  11
HETATM   11  C15 UNL     1      -3.319   4.838  12.100  1.00  0.00     0.028 C 
BRANCH  11  12
HETATM   12  C14 UNL     1      -4.654   4.485  12.701  1.00  0.00    -0.024 C 
HETATM   13  C12 UNL     1      -5.549   3.574  12.269  1.00  0.00    -0.085 C 
HETATM   14  C13 UNL     1      -5.398   2.744  11.023  1.00  0.00     0.043 C 
BRANCH  13  15
HETATM   15  C11 UNL     1      -6.833   3.333  13.056  1.00  0.00     0.069 C 
BRANCH  15  16
HETATM   16  C10 UNL     1      -8.051   4.128  12.535  1.00  0.00     0.145 C 
BRANCH  16  17
HETATM   17  C9  UNL     1      -8.022   5.548  13.037  1.00  0.00     0.007 C 
HETATM   18  C7  UNL     1      -7.770   5.983  14.289  1.00  0.00    -0.085 C 
HETATM   19  C8  UNL     1      -7.526   5.059  15.456  1.00  0.00     0.043 C 
BRANCH  18  20
HETATM   20  C6  UNL     1      -7.722   7.457  14.682  1.00  0.00     0.037 C 
BRANCH  20  21
HETATM   21  C5  UNL     1      -8.977   8.125  15.271  1.00  0.00     0.031 C 
BRANCH  21  22
HETATM   22  C4  UNL     1     -10.218   7.283  15.111  1.00  0.00    -0.024 C 
HETATM   23  C2  UNL     1     -11.229   7.448  14.235  1.00  0.00    -0.091 C 
HETATM   24  C1  UNL     1     -11.313   8.523  13.188  1.00  0.00     0.042 C 
HETATM   25  C3  UNL     1     -12.401   6.500  14.237  1.00  0.00     0.042 C 
ENDBRANCH  21  22
ENDBRANCH  20  21
ENDBRANCH  18  20
ENDBRANCH  16  17
BRANCH  16  26
HETATM   26  O1  UNL     1      -9.284   3.572  12.996  1.00  0.00    -0.391 OA
HETATM   27  H17 UNL     1      -9.082   2.906  13.676  1.00  0.00     0.210 HD
ENDBRANCH  16  26
ENDBRANCH  15  16
ENDBRANCH  13  15
ENDBRANCH  11  12
ENDBRANCH  10  11
ENDBRANCH   1  10
BRANCH   1  28
HETATM   28  C18 UNL     1      -1.571   5.800  14.603  1.00  0.00     0.177 C 
BRANCH  28  29
HETATM   29  O2  UNL     1      -0.309   5.436  15.156  1.00  0.00    -0.400 OA
HETATM   30  H30 UNL     1       0.134   4.872  14.486  1.00  0.00     0.209 HD
ENDBRANCH  28  29
ENDBRANCH   1  28
BRANCH   2  31
HETATM   31  C20 UNL     1      -0.183   4.216  12.612  1.00  0.00     0.012 C 
BRANCH  31  32
HETATM   32  C21 UNL     1       0.023   3.263  11.432  1.00  0.00     0.027 C 
BRANCH  32  33
HETATM   33  C22 UNL     1      -1.022   2.161  11.330  1.00  0.00     0.164 C 
BRANCH  33  34
HETATM   34  O3  UNL     1      -1.548   2.171  10.010  1.00  0.00    -0.401 OA
HETATM   35  H38 UNL     1      -2.216   1.465   9.957  1.00  0.00     0.209 HD
ENDBRANCH  33  34
ENDBRANCH  32  33
ENDBRANCH  31  32
ENDBRANCH   2  31
BRANCH   8  36
HETATM   36  O5  UNL     1      -2.019   8.614  14.253  1.00  0.00    -0.389 OA
HETATM   37  H50 UNL     1      -2.817   8.858  13.749  1.00  0.00     0.210 HD
ENDBRANCH   8  36
BRANCH   4  38
HETATM   38  C26 UNL     1       1.549   6.312   9.876  1.00  0.00     0.265 C 
HETATM   39  O4  UNL     1       2.267   5.566   9.218  1.00  0.00    -0.302 OA
ENDBRANCH   4  38
TORSDOF 18
ENDMDL
MODEL 6
REMARK minimizedAffinity -6.76780558
REMARK CNNscore 0.383877575
REMARK CNNaffinity 6.40367174
REMARK  18 active torsions:
REMARK  status: ('A' for Active; 'I' for Inactive)
REMARK    1  A    between atoms: C4_4  and  C5_5 
REMARK    2  A    between atoms: C5_5  and  C6_6 
REMARK    3  A    between atoms: C6_6  and  C7_7 
REMARK    4  A    between atoms: C9_9  and  C10_10 
REMARK    5  A    between atoms: C10_10  and  O1_11 
REMARK    6  A    between atoms: C10_10  and  C11_12 
REMARK    7  A    between atoms: C11_12  and  C12_13 
REMARK    8  A    between atoms: C14_15  and  C15_16 
REMARK    9  A    between atoms: C15_16  and  C16_17 
REMARK   10  A    between atoms: C16_17  and  C17_18 
REMARK   11  A    between atoms: C17_18  and  C18_19 
REMARK   12  A    between atoms: C18_19  and  O2_20 
REMARK   13  A    between atoms: C19_21  and  C20_22 
REMARK   14  A    between atoms: C20_22  and  C21_23 
REMARK   15  A    between atoms: C21_23  and  C22_24 
REMARK   16  A    between atoms: C22_24  and  O3_25 
REMARK   17  A    between atoms: C24_27  and  C26_29 
REMARK   18  A    between atoms: C29_33  and  O5_35 
ROOT
HETATM    1  C17 UNL     1     -13.543   8.270  14.058  1.00  0.00     0.019 C 
HETATM    2  C19 UNL     1     -14.246   9.298  13.037  1.00  0.00     0.029 C 
HETATM    3  C23 UNL     1     -15.673   9.695  13.461  1.00  0.00    -0.066 C 
HETATM    4  C24 UNL     1     -16.763   9.784  12.650  1.00  0.00    -0.021 C 
HETATM    5  C25 UNL     1     -18.143  10.173  13.120  1.00  0.00     0.052 C 
HETATM    6  C27 UNL     1     -15.800   9.831  14.959  1.00  0.00     0.038 C 
HETATM    7  C28 UNL     1     -15.564   8.484  15.649  1.00  0.00     0.042 C 
HETATM    8  C29 UNL     1     -14.659   7.488  14.871  1.00  0.00     0.065 C 
HETATM    9  C30 UNL     1     -15.525   6.535  14.028  1.00  0.00     0.047 C 
ENDROOT
BRANCH   1  10
HETATM   10  C16 UNL     1     -12.552   7.290  13.306  1.00  0.00     0.019 C 
BRANCH  10  11
HETATM   11  C15 UNL     1     -11.308   7.870  12.611  1.00  0.00     0.028 C 
BRANCH  11  12
HETATM   12  C14 UNL     1     -10.350   6.776  12.222  1.00  0.00    -0.024 C 
HETATM   13  C12 UNL     1      -9.335   6.259  12.944  1.00  0.00    -0.085 C 
HETATM   14  C13 UNL     1      -8.919   6.739  14.309  1.00  0.00     0.043 C 
BRANCH  13  15
HETATM   15  C11 UNL     1      -8.504   5.111  12.381  1.00  0.00     0.069 C 
BRANCH  15  16
HETATM   16  C10 UNL     1      -7.642   4.379  13.434  1.00  0.00     0.145 C 
BRANCH  16  17
HETATM   17  C9  UNL     1      -6.215   4.257  12.970  1.00  0.00     0.007 C 
HETATM   18  C7  UNL     1      -5.667   3.287  12.209  1.00  0.00    -0.085 C 
HETATM   19  C8  UNL     1      -6.431   2.076  11.731  1.00  0.00     0.043 C 
BRANCH  18  20
HETATM   20  C6  UNL     1      -4.209   3.282  11.757  1.00  0.00     0.037 C 
BRANCH  20  21
HETATM   21  C5  UNL     1      -3.314   4.493  12.074  1.00  0.00     0.031 C 
BRANCH  21  22
HETATM   22  C4  UNL     1      -3.567   5.065  13.447  1.00  0.00    -0.024 C 
HETATM   23  C2  UNL     1      -2.803   5.931  14.142  1.00  0.00    -0.091 C 
HETATM   24  C1  UNL     1      -1.518   6.545  13.662  1.00  0.00     0.042 C 
HETATM   25  C3  UNL     1      -3.222   6.380  15.519  1.00  0.00     0.042 C 
ENDBRANCH  21  22
ENDBRANCH  20  21
ENDBRANCH  18  20
ENDBRANCH  16  17
BRANCH  16  26
HETATM   26  O1  UNL     1      -8.100   3.044  13.660  1.00  0.00    -0.391 OA
HETATM   27  H17 UNL     1      -8.759   2.830  12.977  1.00  0.00     0.210 HD
ENDBRANCH  16  26
ENDBRANCH  15  16
ENDBRANCH  13  15
ENDBRANCH  11  12
ENDBRANCH  10  11
ENDBRANCH   1  10
BRANCH   1  28
HETATM   28  C18 UNL     1     -12.620   9.023  15.100  1.00  0.00     0.177 C 
BRANCH  28  29
HETATM   29  O2  UNL     1     -11.789   8.137  15.843  1.00  0.00    -0.400 OA
HETATM   30  H30 UNL     1     -12.386   7.462  16.234  1.00  0.00     0.209 HD
ENDBRANCH  28  29
ENDBRANCH   1  28
BRANCH   2  31
HETATM   31  C20 UNL     1     -13.340  10.525  12.729  1.00  0.00     0.012 C 
BRANCH  31  32
HETATM   32  C21 UNL     1     -13.976  11.912  12.853  1.00  0.00     0.027 C 
BRANCH  32  33
HETATM   33  C22 UNL     1     -13.130  12.921  13.615  1.00  0.00     0.164 C 
BRANCH  33  34
HETATM   34  O3  UNL     1     -11.877  12.318  13.908  1.00  0.00    -0.401 OA
HETATM   35  H38 UNL     1     -11.347  12.970  14.398  1.00  0.00     0.209 HD
ENDBRANCH  33  34
ENDBRANCH  32  33
ENDBRANCH  31  32
ENDBRANCH   2  31
BRANCH   8  36
HETATM   36  O5  UNL     1     -14.052   6.663  15.888  1.00  0.00    -0.389 OA
HETATM   37  H50 UNL     1     -13.757   5.829  15.477  1.00  0.00     0.210 HD
ENDBRANCH   8  36
BRANCH   4  38
HETATM   38  C26 UNL     1     -16.716   9.480  11.181  1.00  0.00     0.265 C 
HETATM   39  O4  UNL     1     -16.271   8.428  10.734  1.00  0.00    -0.302 OA
ENDBRANCH   4  38
TORSDOF 18
ENDMDL
MODEL 7
REMARK minimizedAffinity -6.76564121
REMARK CNNscore 0.354603767
REMARK CNNaffinity 5.99495316
REMARK  18 active torsions:
REMARK  status: ('A' for Active; 'I' for Inactive)
REMARK    1  A    between atoms: C4_4  and  C5_5 
REMARK    2  A    between atoms: C5_5  and  C6_6 
REMARK    3  A    between atoms: C6_6  and  C7_7 
REMARK    4  A    between atoms: C9_9  and  C10_10 
REMARK    5  A    between atoms: C10_10  and  O1_11 
REMARK    6  A    between atoms: C10_10  and  C11_12 
REMARK    7  A    between atoms: C11_12  and  C12_13 
REMARK    8  A    between atoms: C14_15  and  C15_16 
REMARK    9  A    between atoms: C15_16  and  C16_17 
REMARK   10  A    between atoms: C16_17  and  C17_18 
REMARK   11  A    between atoms: C17_18  and  C18_19 
REMARK   12  A    between atoms: C18_19  and  O2_20 
REMARK   13  A    between atoms: C19_21  and  C20_22 
REMARK   14  A    between atoms: C20_22  and  C21_23 
REMARK   15  A    between atoms: C21_23  and  C22_24 
REMARK   16  A    between atoms: C22_24  and  O3_25 
REMARK   17  A    between atoms: C24_27  and  C26_29 
REMARK   18  A    between atoms: C29_33  and  O5_35 
ROOT
HETATM    1  C17 UNL     1       5.910   8.869  14.589  1.00  0.00     0.019 C 
HETATM    2  C19 UNL     1       6.114   9.448  13.100  1.00  0.00     0.029 C 
HETATM    3  C23 UNL     1       7.560   9.901  12.818  1.00  0.00    -0.066 C 
HETATM    4  C24 UNL     1       7.940  11.043  12.181  1.00  0.00    -0.021 C 
HETATM    5  C25 UNL     1       9.375  11.442  11.935  1.00  0.00     0.052 C 
HETATM    6  C27 UNL     1       8.574   9.000  13.480  1.00  0.00     0.038 C 
HETATM    7  C28 UNL     1       8.449   9.071  15.005  1.00  0.00     0.042 C 
HETATM    8  C29 UNL     1       7.040   9.450  15.540  1.00  0.00     0.065 C 
HETATM    9  C30 UNL     1       6.960  10.966  15.790  1.00  0.00     0.047 C 
ENDROOT
BRANCH   1  10
HETATM   10  C16 UNL     1       4.454   9.170  15.135  1.00  0.00     0.019 C 
BRANCH  10  11
HETATM   11  C15 UNL     1       3.292   9.299  14.137  1.00  0.00     0.028 C 
BRANCH  11  12
HETATM   12  C14 UNL     1       2.617   7.970  13.921  1.00  0.00    -0.024 C 
HETATM   13  C12 UNL     1       1.681   7.647  13.006  1.00  0.00    -0.085 C 
HETATM   14  C13 UNL     1       1.071   8.611  12.023  1.00  0.00     0.043 C 
BRANCH  13  15
HETATM   15  C11 UNL     1       1.156   6.218  12.922  1.00  0.00     0.069 C 
BRANCH  15  16
HETATM   16  C10 UNL     1       0.445   5.883  11.592  1.00  0.00     0.145 C 
BRANCH  16  17
HETATM   17  C9  UNL     1      -0.636   4.856  11.803  1.00  0.00     0.007 C 
HETATM   18  C7  UNL     1      -1.870   5.039  12.315  1.00  0.00    -0.085 C 
HETATM   19  C8  UNL     1      -2.361   6.365  12.844  1.00  0.00     0.043 C 
BRANCH  18  20
HETATM   20  C6  UNL     1      -2.910   3.930  12.445  1.00  0.00     0.037 C 
BRANCH  20  21
HETATM   21  C5  UNL     1      -4.099   3.889  11.468  1.00  0.00     0.031 C 
BRANCH  21  22
HETATM   22  C4  UNL     1      -5.348   3.317  12.091  1.00  0.00    -0.024 C 
HETATM   23  C2  UNL     1      -6.219   3.926  12.919  1.00  0.00    -0.091 C 
HETATM   24  C1  UNL     1      -6.135   5.353  13.383  1.00  0.00     0.042 C 
HETATM   25  C3  UNL     1      -7.414   3.176  13.453  1.00  0.00     0.042 C 
ENDBRANCH  21  22
ENDBRANCH  20  21
ENDBRANCH  18  20
ENDBRANCH  16  17
BRANCH  16  26
HETATM   26  O1  UNL     1       1.346   5.317  10.637  1.00  0.00    -0.391 OA
HETATM   27  H17 UNL     1       2.182   5.114  11.092  1.00  0.00     0.210 HD
ENDBRANCH  16  26
ENDBRANCH  15  16
ENDBRANCH  13  15
ENDBRANCH  11  12
ENDBRANCH  10  11
ENDBRANCH   1  10
BRANCH   1  28
HETATM   28  C18 UNL     1       6.012   7.291  14.619  1.00  0.00     0.177 C 
BRANCH  28  29
HETATM   29  O2  UNL     1       5.237   6.707  15.662  1.00  0.00    -0.400 OA
HETATM   30  H30 UNL     1       5.511   7.153  16.492  1.00  0.00     0.209 HD
ENDBRANCH  28  29
ENDBRANCH   1  28
BRANCH   2  31
HETATM   31  C20 UNL     1       5.558   8.480  12.017  1.00  0.00     0.012 C 
BRANCH  31  32
HETATM   32  C21 UNL     1       5.949   7.005  12.130  1.00  0.00     0.027 C 
BRANCH  32  33
HETATM   33  C22 UNL     1       6.792   6.491  10.972  1.00  0.00     0.164 C 
BRANCH  33  34
HETATM   34  O3  UNL     1       6.349   5.180  10.650  1.00  0.00    -0.401 OA
HETATM   35  H38 UNL     1       6.896   4.860   9.911  1.00  0.00     0.209 HD
ENDBRANCH  33  34
ENDBRANCH  32  33
ENDBRANCH  31  32
ENDBRANCH   2  31
BRANCH   8  36
HETATM   36  O5  UNL     1       6.959   8.837  16.845  1.00  0.00    -0.389 OA
HETATM   37  H50 UNL     1       6.275   9.299  17.364  1.00  0.00     0.210 HD
ENDBRANCH   8  36
BRANCH   4  38
HETATM   38  C26 UNL     1       6.961  12.057  11.665  1.00  0.00     0.265 C 
HETATM   39  O4  UNL     1       5.836  11.756  11.280  1.00  0.00    -0.302 OA
ENDBRANCH   4  38
TORSDOF 18
ENDMDL
MODEL 8
REMARK minimizedAffinity -6.44772339
REMARK CNNscore 0.333448172
REMARK CNNaffinity 5.79981995
REMARK  18 active torsions:
REMARK  status: ('A' for Active; 'I' for Inactive)
REMARK    1  A    between atoms: C4_4  and  C5_5 
REMARK    2  A    between atoms: C5_5  and  C6_6 
REMARK    3  A    between atoms: C6_6  and  C7_7 
REMARK    4  A    between atoms: C9_9  and  C10_10 
REMARK    5  A    between atoms: C10_10  and  O1_11 
REMARK    6  A    between atoms: C10_10  and  C11_12 
REMARK    7  A    between atoms: C11_12  and  C12_13 
REMARK    8  A    between atoms: C14_15  and  C15_16 
REMARK    9  A    between atoms: C15_16  and  C16_17 
REMARK   10  A    between atoms: C16_17  and  C17_18 
REMARK   11  A    between atoms: C17_18  and  C18_19 
REMARK   12  A    between atoms: C18_19  and  O2_20 
REMARK   13  A    between atoms: C19_21  and  C20_22 
REMARK   14  A    between atoms: C20_22  and  C21_23 
REMARK   15  A    between atoms: C21_23  and  C22_24 
REMARK   16  A    between atoms: C22_24  and  O3_25 
REMARK   17  A    between atoms: C24_27  and  C26_29 
REMARK   18  A    between atoms: C29_33  and  O5_35 
ROOT
HETATM    1  C17 UNL     1       0.138   7.942  14.219  1.00  0.00     0.019 C 
HETATM    2  C19 UNL     1      -1.135   6.955  14.201  1.00  0.00     0.029 C 
HETATM    3  C23 UNL     1      -2.351   7.548  13.464  1.00  0.00    -0.066 C 
HETATM    4  C24 UNL     1      -3.648   7.503  13.876  1.00  0.00    -0.021 C 
HETATM    5  C25 UNL     1      -4.804   8.107  13.116  1.00  0.00     0.052 C 
HETATM    6  C27 UNL     1      -1.942   8.359  12.258  1.00  0.00     0.038 C 
HETATM    7  C28 UNL     1      -1.126   9.585  12.682  1.00  0.00     0.042 C 
HETATM    8  C29 UNL     1      -0.352   9.438  14.021  1.00  0.00     0.065 C 
HETATM    9  C30 UNL     1      -1.191  10.003  15.181  1.00  0.00     0.047 C 
ENDROOT
BRANCH   1  10
HETATM   10  C16 UNL     1       0.995   7.761  15.538  1.00  0.00     0.019 C 
BRANCH  10  11
HETATM   11  C15 UNL     1       1.924   8.900  15.991  1.00  0.00     0.028 C 
BRANCH  11  12
HETATM   12  C14 UNL     1       1.435   9.513  17.277  1.00  0.00    -0.024 C 
HETATM   13  C12 UNL     1       1.856  10.646  17.874  1.00  0.00    -0.085 C 
HETATM   14  C13 UNL     1       2.978  11.516  17.375  1.00  0.00     0.043 C 
BRANCH  13  15
HETATM   15  C11 UNL     1       1.192  11.123  19.162  1.00  0.00     0.069 C 
BRANCH  15  16
HETATM   16  C10 UNL     1       1.797  10.517  20.447  1.00  0.00     0.145 C 
BRANCH  16  17
HETATM   17  C9  UNL     1       2.698  11.507  21.137  1.00  0.00     0.007 C 
HETATM   18  C7  UNL     1       3.277  11.400  22.351  1.00  0.00    -0.085 C 
HETATM   19  C8  UNL     1       3.047  10.234  23.281  1.00  0.00     0.043 C 
BRANCH  18  20
HETATM   20  C6  UNL     1       4.215  12.450  22.941  1.00  0.00     0.037 C 
BRANCH  20  21
HETATM   21  C5  UNL     1       5.712  12.130  23.090  1.00  0.00     0.031 C 
BRANCH  21  22
HETATM   22  C4  UNL     1       6.575  13.367  23.118  1.00  0.00    -0.024 C 
HETATM   23  C2  UNL     1       7.920  13.444  23.099  1.00  0.00    -0.091 C 
HETATM   24  C1  UNL     1       8.863  12.277  23.015  1.00  0.00     0.042 C 
HETATM   25  C3  UNL     1       8.607  14.786  23.146  1.00  0.00     0.042 C 
ENDBRANCH  21  22
ENDBRANCH  20  21
ENDBRANCH  18  20
ENDBRANCH  16  17
BRANCH  16  26
HETATM   26  O1  UNL     1       2.608   9.375  20.164  1.00  0.00    -0.391 OA
HETATM   27  H17 UNL     1       2.737   9.325  19.201  1.00  0.00     0.210 HD
ENDBRANCH  16  26
ENDBRANCH  15  16
ENDBRANCH  13  15
ENDBRANCH  11  12
ENDBRANCH  10  11
ENDBRANCH   1  10
BRANCH   1  28
HETATM   28  C18 UNL     1       1.153   7.605  13.053  1.00  0.00     0.177 C 
BRANCH  28  29
HETATM   29  O2  UNL     1       2.251   6.809  13.490  1.00  0.00    -0.400 OA
HETATM   30  H30 UNL     1       2.646   7.279  14.256  1.00  0.00     0.209 HD
ENDBRANCH  28  29
ENDBRANCH   1  28
BRANCH   2  31
HETATM   31  C20 UNL     1      -0.760   5.529  13.707  1.00  0.00     0.012 C 
BRANCH  31  32
HETATM   32  C21 UNL     1      -1.701   4.869  12.696  1.00  0.00     0.027 C 
BRANCH  32  33
HETATM   33  C22 UNL     1      -1.025   3.862  11.777  1.00  0.00     0.164 C 
BRANCH  33  34
HETATM   34  O3  UNL     1       0.333   4.250  11.618  1.00  0.00    -0.401 OA
HETATM   35  H38 UNL     1       0.754   3.602  11.027  1.00  0.00     0.209 HD
ENDBRANCH  33  34
ENDBRANCH  32  33
ENDBRANCH  31  32
ENDBRANCH   2  31
BRANCH   8  36
HETATM   36  O5  UNL     1       0.782  10.324  13.895  1.00  0.00    -0.389 OA
HETATM   37  H50 UNL     1       1.107  10.542  14.789  1.00  0.00     0.210 HD
ENDBRANCH   8  36
BRANCH   4  38
HETATM   38  C26 UNL     1      -4.074   6.859  15.164  1.00  0.00     0.265 C 
HETATM   39  O4  UNL     1      -4.312   5.660  15.259  1.00  0.00    -0.302 OA
ENDBRANCH   4  38
TORSDOF 18
ENDMDL
MODEL 9
REMARK minimizedAffinity -6.22029352
REMARK CNNscore 0.311133713
REMARK CNNaffinity 5.89005327
REMARK  18 active torsions:
REMARK  status: ('A' for Active; 'I' for Inactive)
REMARK    1  A    between atoms: C4_4  and  C5_5 
REMARK    2  A    between atoms: C5_5  and  C6_6 
REMARK    3  A    between atoms: C6_6  and  C7_7 
REMARK    4  A    between atoms: C9_9  and  C10_10 
REMARK    5  A    between atoms: C10_10  and  O1_11 
REMARK    6  A    between atoms: C10_10  and  C11_12 
REMARK    7  A    between atoms: C11_12  and  C12_13 
REMARK    8  A    between atoms: C14_15  and  C15_16 
REMARK    9  A    between atoms: C15_16  and  C16_17 
REMARK   10  A    between atoms: C16_17  and  C17_18 
REMARK   11  A    between atoms: C17_18  and  C18_19 
REMARK   12  A    between atoms: C18_19  and  O2_20 
REMARK   13  A    between atoms: C19_21  and  C20_22 
REMARK   14  A    between atoms: C20_22  and  C21_23 
REMARK   15  A    between atoms: C21_23  and  C22_24 
REMARK   16  A    between atoms: C22_24  and  O3_25 
REMARK   17  A    between atoms: C24_27  and  C26_29 
REMARK   18  A    between atoms: C29_33  and  O5_35 
ROOT
HETATM    1  C17 UNL     1       1.679  11.744  18.931  1.00  0.00     0.019 C 
HETATM    2  C19 UNL     1       2.916  11.197  19.806  1.00  0.00     0.029 C 
HETATM    3  C23 UNL     1       3.759  12.322  20.436  1.00  0.00    -0.066 C 
HETATM    4  C24 UNL     1       5.118  12.387  20.482  1.00  0.00    -0.021 C 
HETATM    5  C25 UNL     1       5.895  13.519  21.110  1.00  0.00     0.052 C 
HETATM    6  C27 UNL     1       2.906  13.484  20.884  1.00  0.00     0.038 C 
HETATM    7  C28 UNL     1       2.226  14.152  19.684  1.00  0.00     0.042 C 
HETATM    8  C29 UNL     1       1.984  13.228  18.458  1.00  0.00     0.065 C 
HETATM    9  C30 UNL     1       3.146  13.363  17.458  1.00  0.00     0.047 C 
ENDROOT
BRANCH   1  10
HETATM   10  C16 UNL     1       1.356  10.782  17.716  1.00  0.00     0.019 C 
BRANCH  10  11
HETATM   11  C15 UNL     1      -0.105  10.387  17.442  1.00  0.00     0.028 C 
BRANCH  11  12
HETATM   12  C14 UNL     1      -0.213   9.571  16.180  1.00  0.00    -0.024 C 
HETATM   13  C12 UNL     1      -1.263   8.846  15.742  1.00  0.00    -0.085 C 
HETATM   14  C13 UNL     1      -2.555   8.664  16.492  1.00  0.00     0.043 C 
BRANCH  13  15
HETATM   15  C11 UNL     1      -1.185   8.124  14.401  1.00  0.00     0.069 C 
BRANCH  15  16
HETATM   16  C10 UNL     1      -0.764   6.642  14.505  1.00  0.00     0.145 C 
BRANCH  16  17
HETATM   17  C9  UNL     1      -1.962   5.734  14.428  1.00  0.00     0.007 C 
HETATM   18  C7  UNL     1      -2.391   5.008  13.375  1.00  0.00    -0.085 C 
HETATM   19  C8  UNL     1      -1.733   5.045  12.018  1.00  0.00     0.043 C 
BRANCH  18  20
HETATM   20  C6  UNL     1      -3.602   4.080  13.420  1.00  0.00     0.037 C 
BRANCH  20  21
HETATM   21  C5  UNL     1      -4.581   4.055  12.233  1.00  0.00     0.031 C 
BRANCH  21  22
HETATM   22  C4  UNL     1      -5.927   4.646  12.571  1.00  0.00    -0.024 C 
HETATM   23  C2  UNL     1      -7.081   3.998  12.824  1.00  0.00    -0.091 C 
HETATM   24  C1  UNL     1      -7.260   2.506  12.848  1.00  0.00     0.042 C 
HETATM   25  C3  UNL     1      -8.338   4.772  13.135  1.00  0.00     0.042 C 
ENDBRANCH  21  22
ENDBRANCH  20  21
ENDBRANCH  18  20
ENDBRANCH  16  17
BRANCH  16  26
HETATM   26  O1  UNL     1      -0.131   6.356  15.754  1.00  0.00    -0.391 OA
HETATM   27  H17 UNL     1      -0.251   7.125  16.338  1.00  0.00     0.210 HD
ENDBRANCH  16  26
ENDBRANCH  15  16
ENDBRANCH  13  15
ENDBRANCH  11  12
ENDBRANCH  10  11
ENDBRANCH   1  10
BRANCH   1  28
HETATM   28  C18 UNL     1       0.338  11.767  19.770  1.00  0.00     0.177 C 
BRANCH  28  29
HETATM   29  O2  UNL     1      -0.409  12.966  19.584  1.00  0.00    -0.400 OA
HETATM   30  H30 UNL     1       0.207  13.706  19.773  1.00  0.00     0.209 HD
ENDBRANCH  28  29
ENDBRANCH   1  28
BRANCH   2  31
HETATM   31  C20 UNL     1       2.471  10.121  20.836  1.00  0.00     0.012 C 
BRANCH  31  32
HETATM   32  C21 UNL     1       3.517   9.646  21.848  1.00  0.00     0.027 C 
BRANCH  32  33
HETATM   33  C22 UNL     1       2.973   8.709  22.917  1.00  0.00     0.164 C 
BRANCH  33  34
HETATM   34  O3  UNL     1       1.985   7.882  22.319  1.00  0.00    -0.401 OA
HETATM   35  H38 UNL     1       1.642   7.290  23.012  1.00  0.00     0.209 HD
ENDBRANCH  33  34
ENDBRANCH  32  33
ENDBRANCH  31  32
ENDBRANCH   2  31
BRANCH   8  36
HETATM   36  O5  UNL     1       0.832  13.787  17.791  1.00  0.00    -0.389 OA
HETATM   37  H50 UNL     1       0.831  13.484  16.864  1.00  0.00     0.210 HD
ENDBRANCH   8  36
BRANCH   4  38
HETATM   38  C26 UNL     1       6.007  11.334  19.886  1.00  0.00     0.265 C 
HETATM   39  O4  UNL     1       7.194  11.527  19.643  1.00  0.00    -0.302 OA
ENDBRANCH   4  38
TORSDOF 18
ENDMDL
