MODEL 1
REMARK minimizedAffinity -7.62427759
REMARK CNNscore 0.882687867
REMARK CNNaffinity 6.76497412
REMARK  12 active torsions:
REMARK  status: ('A' for Active; 'I' for Inactive)
REMARK    1  A    between atoms: C3_4  and  O2_5 
REMARK    2  A    between atoms: O2_5  and  C4_6 
REMARK    3  A    between atoms: C7_9  and  C8_10 
REMARK    4  A    between atoms: N1_11  and  C9_13 
REMARK    5  A    between atoms: C9_13  and  C10_14 
REMARK    6  A    between atoms: C10_14  and  C11_15 
REMARK    7  A    between atoms: C11_15  and  O3_16 
REMARK    8  A    between atoms: C17_22  and  C18_23 
REMARK    9  A    between atoms: C24_31  and  O6_32 
REMARK   10  A    between atoms: C28_36  and  O7_37 
REMARK   11  A    between atoms: C31_40  and  O8_41 
REMARK   12  A    between atoms: C32_42  and  O9_43 
ROOT
HETATM    1  C4  UNL     1      -4.810  44.425 -18.788  1.00  0.00     0.127 C 
HETATM    2  C5  UNL     1      -4.900  44.342 -20.316  1.00  0.00     0.033 C 
HETATM    3  C6  UNL     1      -4.150  45.485 -20.988  1.00  0.00     0.021 C 
HETATM    4  C7  UNL     1      -4.636  46.915 -20.570  1.00  0.00     0.026 C 
HETATM    5  C12 UNL     1      -3.355  47.821 -20.356  1.00  0.00     0.009 C 
HETATM    6  C13 UNL     1      -2.460  47.950 -21.608  1.00  0.00     0.007 C 
HETATM    7  C14 UNL     1      -1.184  48.732 -21.316  1.00  0.00     0.013 C 
HETATM    8  C15 UNL     1      -1.443  50.157 -20.746  1.00  0.00    -0.005 C 
HETATM    9  C16 UNL     1      -2.008  51.036 -21.879  1.00  0.00     0.019 C 
HETATM   10  C17 UNL     1      -0.088  50.692 -20.155  1.00  0.00     0.028 C 
HETATM   11  C22 UNL     1      -0.093  50.262 -18.669  1.00  0.00     0.013 C 
HETATM   12  C23 UNL     1      -1.433  49.573 -18.400  1.00  0.00     0.040 C 
HETATM   13  C24 UNL     1      -2.375  50.074 -19.506  1.00  0.00     0.070 C 
HETATM   14  C25 UNL     1      -3.652  49.208 -19.727  1.00  0.00     0.026 C 
HETATM   15  C26 UNL     1      -4.462  49.032 -18.430  1.00  0.00     0.011 C 
HETATM   16  C27 UNL     1      -5.739  48.241 -18.661  1.00  0.00     0.039 C 
HETATM   17  C28 UNL     1      -5.514  46.849 -19.269  1.00  0.00     0.073 C 
HETATM   18  C29 UNL     1      -4.893  45.869 -18.252  1.00  0.00     0.071 C 
ENDROOT
BRANCH   1  19
HETATM   19  O2  UNL     1      -5.845  43.661 -18.151  1.00  0.00    -0.356 OA
BRANCH  19  20
HETATM   20  C3  UNL     1      -5.873  42.288 -18.535  1.00  0.00     0.263 C 
HETATM   21  O1  UNL     1      -6.281  41.432 -17.465  1.00  0.00    -0.354 OA
HETATM   22  C2  UNL     1      -5.352  41.265 -16.381  1.00  0.00     0.151 C 
HETATM   23  C1  UNL     1      -5.286  42.476 -15.456  1.00  0.00     0.042 C 
HETATM   24  C32 UNL     1      -3.975  40.827 -16.896  1.00  0.00     0.175 C 
HETATM   25  C31 UNL     1      -3.475  41.769 -17.995  1.00  0.00     0.154 C 
HETATM   26  C30 UNL     1      -4.513  41.895 -19.101  1.00  0.00     0.095 C 
BRANCH  24  27
HETATM   27  O9  UNL     1      -4.065  39.501 -17.461  1.00  0.00    -0.390 OA
HETATM   28  H49 UNL     1      -4.983  39.386 -17.779  1.00  0.00     0.210 HD
ENDBRANCH  24  27
BRANCH  25  29
HETATM   29  O8  UNL     1      -2.265  41.250 -18.554  1.00  0.00    -0.393 OA
HETATM   30  H47 UNL     1      -2.389  40.279 -18.612  1.00  0.00     0.210 HD
ENDBRANCH  25  29
ENDBRANCH  19  20
ENDBRANCH   1  19
BRANCH  17  31
HETATM   31  O7  UNL     1      -6.830  46.352 -19.576  1.00  0.00    -0.389 OA
HETATM   32  H41 UNL     1      -7.268  46.120 -18.737  1.00  0.00     0.210 HD
ENDBRANCH  17  31
BRANCH   4  33
HETATM   33  C8  UNL     1      -5.563  47.402 -21.695  1.00  0.00     0.068 C 
HETATM   34  N1  UNL     1      -6.196  46.600 -22.476  1.00  0.00    -0.401 N 
ATOM     35  H1  UNL     1      -6.145  45.587 -22.375  1.00  0.00     0.158 HD
BRANCH  34  36
HETATM   36  C9  UNL     1      -6.997  47.247 -23.521  1.00  0.00     0.121 C 
BRANCH  36  37
HETATM   37  C10 UNL     1      -7.909  48.285 -22.872  1.00  0.00     0.045 C 
BRANCH  37  38
HETATM   38  C11 UNL     1      -7.977  49.570 -23.688  1.00  0.00     0.165 C 
BRANCH  38  39
HETATM   39  O3  UNL     1      -6.725  49.861 -24.292  1.00  0.00    -0.401 OA
HETATM   40  H18 UNL     1      -6.496  49.105 -24.861  1.00  0.00     0.209 HD
ENDBRANCH  38  39
ENDBRANCH  37  38
ENDBRANCH  36  37
ENDBRANCH  34  36
ENDBRANCH   4  33
BRANCH  13  41
HETATM   41  O6  UNL     1      -2.775  51.404 -19.149  1.00  0.00    -0.389 OA
HETATM   42  H35 UNL     1      -3.243  51.374 -18.297  1.00  0.00     0.210 HD
ENDBRANCH  13  41
BRANCH  10  43
HETATM   43  C18 UNL     1       0.260  52.150 -20.327  1.00  0.00    -0.045 A 
HETATM   44  C19 UNL     1       0.992  52.646 -21.326  1.00  0.00     0.087 A 
HETATM   45  C20 UNL     1       1.133  54.080 -21.093  1.00  0.00     0.283 A 
HETATM   46  O4  UNL     1       1.742  54.843 -21.820  1.00  0.00    -0.260 OA
HETATM   47  O5  UNL     1       0.492  54.409 -19.942  1.00  0.00    -0.314 OA
HETATM   48  C21 UNL     1      -0.123  53.239 -19.394  1.00  0.00     0.213 A 
ENDBRANCH  10  43
TORSDOF 12
ENDMDL
MODEL 2
REMARK minimizedAffinity -7.63204336
REMARK CNNscore 0.8499282
REMARK CNNaffinity 6.96535921
REMARK  12 active torsions:
REMARK  status: ('A' for Active; 'I' for Inactive)
REMARK    1  A    between atoms: C3_4  and  O2_5 
REMARK    2  A    between atoms: O2_5  and  C4_6 
REMARK    3  A    between atoms: C7_9  and  C8_10 
REMARK    4  A    between atoms: N1_11  and  C9_13 
REMARK    5  A    between atoms: C9_13  and  C10_14 
REMARK    6  A    between atoms: C10_14  and  C11_15 
REMARK    7  A    between atoms: C11_15  and  O3_16 
REMARK    8  A    between atoms: C17_22  and  C18_23 
REMARK    9  A    between atoms: C24_31  and  O6_32 
REMARK   10  A    between atoms: C28_36  and  O7_37 
REMARK   11  A    between atoms: C31_40  and  O8_41 
REMARK   12  A    between atoms: C32_42  and  O9_43 
ROOT
HETATM    1  C4  UNL     1      -5.334  44.868 -18.761  1.00  0.00     0.127 C 
HETATM    2  C5  UNL     1      -5.032  44.475 -20.213  1.00  0.00     0.033 C 
HETATM    3  C6  UNL     1      -4.077  45.460 -20.875  1.00  0.00     0.021 C 
HETATM    4  C7  UNL     1      -4.581  46.944 -20.889  1.00  0.00     0.026 C 
HETATM    5  C12 UNL     1      -3.354  47.878 -20.528  1.00  0.00     0.009 C 
HETATM    6  C13 UNL     1      -2.162  47.753 -21.503  1.00  0.00     0.007 C 
HETATM    7  C14 UNL     1      -0.966  48.581 -21.046  1.00  0.00     0.013 C 
HETATM    8  C15 UNL     1      -1.290  50.091 -20.854  1.00  0.00    -0.005 C 
HETATM    9  C16 UNL     1      -1.499  50.720 -22.246  1.00  0.00     0.019 C 
HETATM   10  C17 UNL     1      -0.107  50.739 -20.047  1.00  0.00     0.028 C 
HETATM   11  C22 UNL     1      -0.516  50.619 -18.559  1.00  0.00     0.013 C 
HETATM   12  C23 UNL     1      -1.913  49.995 -18.521  1.00  0.00     0.040 C 
HETATM   13  C24 UNL     1      -2.512  50.259 -19.911  1.00  0.00     0.070 C 
HETATM   14  C25 UNL     1      -3.732  49.363 -20.285  1.00  0.00     0.026 C 
HETATM   15  C26 UNL     1      -4.856  49.452 -19.236  1.00  0.00     0.011 C 
HETATM   16  C27 UNL     1      -6.069  48.628 -19.634  1.00  0.00     0.039 C 
HETATM   17  C28 UNL     1      -5.766  47.142 -19.877  1.00  0.00     0.073 C 
HETATM   18  C29 UNL     1      -5.478  46.390 -18.560  1.00  0.00     0.071 C 
ENDROOT
BRANCH   1  19
HETATM   19  O2  UNL     1      -6.535  44.245 -18.280  1.00  0.00    -0.356 OA
BRANCH  19  20
HETATM   20  C3  UNL     1      -7.191  43.426 -19.245  1.00  0.00     0.263 C 
HETATM   21  O1  UNL     1      -8.337  44.066 -19.812  1.00  0.00    -0.354 OA
HETATM   22  C2  UNL     1      -9.478  44.229 -18.952  1.00  0.00     0.151 C 
HETATM   23  C1  UNL     1      -9.300  45.342 -17.926  1.00  0.00     0.042 C 
HETATM   24  C32 UNL     1      -9.891  42.892 -18.324  1.00  0.00     0.175 C 
HETATM   25  C31 UNL     1      -8.699  42.214 -17.642  1.00  0.00     0.154 C 
HETATM   26  C30 UNL     1      -7.535  42.082 -18.614  1.00  0.00     0.095 C 
BRANCH  24  27
HETATM   27  O9  UNL     1     -10.376  42.000 -19.351  1.00  0.00    -0.390 OA
HETATM   28  H49 UNL     1      -9.935  42.255 -20.186  1.00  0.00     0.210 HD
ENDBRANCH  24  27
BRANCH  25  29
HETATM   29  O8  UNL     1      -9.082  40.909 -17.199  1.00  0.00    -0.393 OA
HETATM   30  H47 UNL     1      -9.652  40.541 -17.906  1.00  0.00     0.210 HD
ENDBRANCH  25  29
ENDBRANCH  19  20
ENDBRANCH   1  19
BRANCH  17  31
HETATM   31  O7  UNL     1      -6.983  46.590 -20.414  1.00  0.00    -0.389 OA
HETATM   32  H41 UNL     1      -7.633  46.531 -19.690  1.00  0.00     0.210 HD
ENDBRANCH  17  31
BRANCH   4  33
HETATM   33  C8  UNL     1      -5.162  47.191 -22.290  1.00  0.00     0.068 C 
HETATM   34  N1  UNL     1      -4.903  48.246 -22.978  1.00  0.00    -0.401 N 
ATOM     35  H1  UNL     1      -4.268  48.972 -22.647  1.00  0.00     0.158 HD
BRANCH  34  36
HETATM   36  C9  UNL     1      -5.586  48.331 -24.274  1.00  0.00     0.121 C 
BRANCH  36  37
HETATM   37  C10 UNL     1      -4.536  48.403 -25.380  1.00  0.00     0.045 C 
BRANCH  37  38
HETATM   38  C11 UNL     1      -3.578  49.571 -25.179  1.00  0.00     0.165 C 
BRANCH  38  39
HETATM   39  O3  UNL     1      -4.224  50.812 -25.425  1.00  0.00    -0.401 OA
HETATM   40  H18 UNL     1      -4.975  50.874 -24.808  1.00  0.00     0.209 HD
ENDBRANCH  38  39
ENDBRANCH  37  38
ENDBRANCH  36  37
ENDBRANCH  34  36
ENDBRANCH   4  33
BRANCH  13  41
HETATM   41  O6  UNL     1      -2.922  51.633 -19.939  1.00  0.00    -0.389 OA
HETATM   42  H35 UNL     1      -3.595  51.775 -19.251  1.00  0.00     0.210 HD
ENDBRANCH  13  41
BRANCH  10  43
HETATM   43  C18 UNL     1       0.348  52.131 -20.403  1.00  0.00    -0.045 A 
HETATM   44  C19 UNL     1       0.890  52.481 -21.571  1.00  0.00     0.087 A 
HETATM   45  C20 UNL     1       1.229  53.898 -21.488  1.00  0.00     0.283 A 
HETATM   46  O4  UNL     1       1.742  54.541 -22.387  1.00  0.00    -0.260 OA
HETATM   47  O5  UNL     1       0.896  54.364 -20.258  1.00  0.00    -0.314 OA
HETATM   48  C21 UNL     1       0.295  53.309 -19.501  1.00  0.00     0.213 A 
ENDBRANCH  10  43
TORSDOF 12
ENDMDL
MODEL 3
REMARK minimizedAffinity -7.22756529
REMARK CNNscore 0.808908939
REMARK CNNaffinity 6.62333488
REMARK  12 active torsions:
REMARK  status: ('A' for Active; 'I' for Inactive)
REMARK    1  A    between atoms: C3_4  and  O2_5 
REMARK    2  A    between atoms: O2_5  and  C4_6 
REMARK    3  A    between atoms: C7_9  and  C8_10 
REMARK    4  A    between atoms: N1_11  and  C9_13 
REMARK    5  A    between atoms: C9_13  and  C10_14 
REMARK    6  A    between atoms: C10_14  and  C11_15 
REMARK    7  A    between atoms: C11_15  and  O3_16 
REMARK    8  A    between atoms: C17_22  and  C18_23 
REMARK    9  A    between atoms: C24_31  and  O6_32 
REMARK   10  A    between atoms: C28_36  and  O7_37 
REMARK   11  A    between atoms: C31_40  and  O8_41 
REMARK   12  A    between atoms: C32_42  and  O9_43 
ROOT
HETATM    1  C4  UNL     1      -4.975  44.552 -18.615  1.00  0.00     0.127 C 
HETATM    2  C5  UNL     1      -4.981  44.388 -20.140  1.00  0.00     0.033 C 
HETATM    3  C6  UNL     1      -4.178  45.486 -20.827  1.00  0.00     0.021 C 
HETATM    4  C7  UNL     1      -4.668  46.941 -20.513  1.00  0.00     0.026 C 
HETATM    5  C12 UNL     1      -3.389  47.844 -20.274  1.00  0.00     0.009 C 
HETATM    6  C13 UNL     1      -2.424  47.897 -21.478  1.00  0.00     0.007 C 
HETATM    7  C14 UNL     1      -1.156  48.681 -21.155  1.00  0.00     0.013 C 
HETATM    8  C15 UNL     1      -1.428  50.136 -20.676  1.00  0.00    -0.005 C 
HETATM    9  C16 UNL     1      -1.916  50.959 -21.884  1.00  0.00     0.019 C 
HETATM   10  C17 UNL     1      -0.101  50.688 -20.038  1.00  0.00     0.028 C 
HETATM   11  C22 UNL     1      -0.196  50.338 -18.534  1.00  0.00     0.013 C 
HETATM   12  C23 UNL     1      -1.558  49.677 -18.306  1.00  0.00     0.040 C 
HETATM   13  C24 UNL     1      -2.429  50.129 -19.488  1.00  0.00     0.070 C 
HETATM   14  C25 UNL     1      -3.703  49.265 -19.736  1.00  0.00     0.026 C 
HETATM   15  C26 UNL     1      -4.587  49.167 -18.480  1.00  0.00     0.011 C 
HETATM   16  C27 UNL     1      -5.860  48.378 -18.742  1.00  0.00     0.039 C 
HETATM   17  C28 UNL     1      -5.619  46.953 -19.262  1.00  0.00     0.073 C 
HETATM   18  C29 UNL     1      -5.070  46.023 -18.161  1.00  0.00     0.071 C 
ENDROOT
BRANCH   1  19
HETATM   19  O2  UNL     1      -6.055  43.832 -17.999  1.00  0.00    -0.356 OA
BRANCH  19  20
HETATM   20  C3  UNL     1      -6.436  44.339 -16.722  1.00  0.00     0.263 C 
HETATM   21  O1  UNL     1      -5.817  43.627 -15.648  1.00  0.00    -0.354 OA
HETATM   22  C2  UNL     1      -6.271  42.282 -15.417  1.00  0.00     0.151 C 
HETATM   23  C1  UNL     1      -5.745  41.288 -16.447  1.00  0.00     0.042 C 
HETATM   24  C32 UNL     1      -7.795  42.233 -15.258  1.00  0.00     0.175 C 
HETATM   25  C31 UNL     1      -8.493  42.925 -16.434  1.00  0.00     0.154 C 
HETATM   26  C30 UNL     1      -7.957  44.338 -16.613  1.00  0.00     0.095 C 
BRANCH  24  27
HETATM   27  O9  UNL     1      -8.182  42.924 -14.050  1.00  0.00    -0.390 OA
HETATM   28  H49 UNL     1      -7.497  43.600 -13.873  1.00  0.00     0.210 HD
ENDBRANCH  24  27
BRANCH  25  29
HETATM   29  O8  UNL     1      -9.899  42.991 -16.181  1.00  0.00    -0.393 OA
HETATM   30  H47 UNL     1      -9.992  43.199 -15.228  1.00  0.00     0.210 HD
ENDBRANCH  25  29
ENDBRANCH  19  20
ENDBRANCH   1  19
BRANCH  17  31
HETATM   31  O7  UNL     1      -6.922  46.455 -19.617  1.00  0.00    -0.389 OA
HETATM   32  H41 UNL     1      -7.410  46.271 -18.793  1.00  0.00     0.210 HD
ENDBRANCH  17  31
BRANCH   4  33
HETATM   33  C8  UNL     1      -5.524  47.377 -21.712  1.00  0.00     0.068 C 
HETATM   34  N1  UNL     1      -6.169  46.545 -22.451  1.00  0.00    -0.401 N 
ATOM     35  H1  UNL     1      -6.176  45.542 -22.265  1.00  0.00     0.158 HD
BRANCH  34  36
HETATM   36  C9  UNL     1      -6.893  47.140 -23.579  1.00  0.00     0.121 C 
BRANCH  36  37
HETATM   37  C10 UNL     1      -7.988  48.055 -23.034  1.00  0.00     0.045 C 
BRANCH  37  38
HETATM   38  C11 UNL     1      -8.082  49.357 -23.821  1.00  0.00     0.165 C 
BRANCH  38  39
HETATM   39  O3  UNL     1      -6.819  49.726 -24.357  1.00  0.00    -0.401 OA
HETATM   40  H18 UNL     1      -6.526  48.998 -24.933  1.00  0.00     0.209 HD
ENDBRANCH  38  39
ENDBRANCH  37  38
ENDBRANCH  36  37
ENDBRANCH  34  36
ENDBRANCH   4  33
BRANCH  13  41
HETATM   41  O6  UNL     1      -2.831  51.479 -19.225  1.00  0.00    -0.389 OA
HETATM   42  H35 UNL     1      -3.347  51.500 -18.401  1.00  0.00     0.210 HD
ENDBRANCH  13  41
BRANCH  10  43
HETATM   43  C18 UNL     1       0.276  52.130 -20.265  1.00  0.00    -0.045 A 
HETATM   44  C19 UNL     1       1.073  52.565 -21.243  1.00  0.00     0.087 A 
HETATM   45  C20 UNL     1       1.218  54.008 -21.079  1.00  0.00     0.283 A 
HETATM   46  O4  UNL     1       1.880  54.725 -21.807  1.00  0.00    -0.260 OA
HETATM   47  O5  UNL     1       0.513  54.405 -19.989  1.00  0.00    -0.314 OA
HETATM   48  C21 UNL     1      -0.150  53.272 -19.418  1.00  0.00     0.213 A 
ENDBRANCH  10  43
TORSDOF 12
ENDMDL
MODEL 4
REMARK minimizedAffinity -6.73046494
REMARK CNNscore 0.684881032
REMARK CNNaffinity 6.29173899
REMARK  12 active torsions:
REMARK  status: ('A' for Active; 'I' for Inactive)
REMARK    1  A    between atoms: C3_4  and  O2_5 
REMARK    2  A    between atoms: O2_5  and  C4_6 
REMARK    3  A    between atoms: C7_9  and  C8_10 
REMARK    4  A    between atoms: N1_11  and  C9_13 
REMARK    5  A    between atoms: C9_13  and  C10_14 
REMARK    6  A    between atoms: C10_14  and  C11_15 
REMARK    7  A    between atoms: C11_15  and  O3_16 
REMARK    8  A    between atoms: C17_22  and  C18_23 
REMARK    9  A    between atoms: C24_31  and  O6_32 
REMARK   10  A    between atoms: C28_36  and  O7_37 
REMARK   11  A    between atoms: C31_40  and  O8_41 
REMARK   12  A    between atoms: C32_42  and  O9_43 
ROOT
HETATM    1  C4  UNL     1      -6.548  43.178 -20.477  1.00  0.00     0.127 C 
HETATM    2  C5  UNL     1      -7.589  44.031 -21.211  1.00  0.00     0.033 C 
HETATM    3  C6  UNL     1      -7.039  45.405 -21.571  1.00  0.00     0.021 C 
HETATM    4  C7  UNL     1      -6.530  46.242 -20.348  1.00  0.00     0.026 C 
HETATM    5  C12 UNL     1      -5.169  46.936 -20.765  1.00  0.00     0.009 C 
HETATM    6  C13 UNL     1      -5.289  47.872 -21.987  1.00  0.00     0.007 C 
HETATM    7  C14 UNL     1      -3.934  48.420 -22.419  1.00  0.00     0.013 C 
HETATM    8  C15 UNL     1      -3.180  49.179 -21.288  1.00  0.00    -0.005 C 
HETATM    9  C16 UNL     1      -3.907  50.514 -21.034  1.00  0.00     0.019 C 
HETATM   10  C17 UNL     1      -1.685  49.358 -21.743  1.00  0.00     0.028 C 
HETATM   11  C22 UNL     1      -0.942  48.116 -21.195  1.00  0.00     0.013 C 
HETATM   12  C23 UNL     1      -1.956  47.296 -20.395  1.00  0.00     0.040 C 
HETATM   13  C24 UNL     1      -3.073  48.284 -20.024  1.00  0.00     0.070 C 
HETATM   14  C25 UNL     1      -4.420  47.626 -19.594  1.00  0.00     0.026 C 
HETATM   15  C26 UNL     1      -4.232  46.632 -18.434  1.00  0.00     0.011 C 
HETATM   16  C27 UNL     1      -5.555  46.040 -17.974  1.00  0.00     0.039 C 
HETATM   17  C28 UNL     1      -6.342  45.328 -19.084  1.00  0.00     0.073 C 
HETATM   18  C29 UNL     1      -5.689  43.988 -19.484  1.00  0.00     0.071 C 
ENDROOT
BRANCH   1  19
HETATM   19  O2  UNL     1      -7.159  42.100 -19.751  1.00  0.00    -0.356 OA
BRANCH  19  20
HETATM   20  C3  UNL     1      -7.484  40.969 -20.555  1.00  0.00     0.263 C 
HETATM   21  O1  UNL     1      -8.028  39.893 -19.786  1.00  0.00    -0.354 OA
HETATM   22  C2  UNL     1      -7.121  39.201 -18.911  1.00  0.00     0.151 C 
HETATM   23  C1  UNL     1      -6.777  39.994 -17.655  1.00  0.00     0.042 C 
HETATM   24  C32 UNL     1      -5.881  38.715 -19.673  1.00  0.00     0.175 C 
HETATM   25  C31 UNL     1      -5.230  39.863 -20.451  1.00  0.00     0.154 C 
HETATM   26  C30 UNL     1      -6.253  40.544 -21.348  1.00  0.00     0.095 C 
BRANCH  24  27
HETATM   27  O9  UNL     1      -6.263  37.699 -20.626  1.00  0.00    -0.390 OA
HETATM   28  H49 UNL     1      -7.194  37.870 -20.873  1.00  0.00     0.210 HD
ENDBRANCH  24  27
BRANCH  25  29
HETATM   29  O8  UNL     1      -4.172  39.347 -21.263  1.00  0.00    -0.393 OA
HETATM   30  H47 UNL     1      -4.498  38.495 -21.621  1.00  0.00     0.210 HD
ENDBRANCH  25  29
ENDBRANCH  19  20
ENDBRANCH   1  19
BRANCH  17  31
HETATM   31  O7  UNL     1      -7.618  45.010 -18.499  1.00  0.00    -0.389 OA
HETATM   32  H41 UNL     1      -7.488  44.281 -17.866  1.00  0.00     0.210 HD
ENDBRANCH  17  31
BRANCH   4  33
HETATM   33  C8  UNL     1      -7.654  47.232 -20.003  1.00  0.00     0.068 C 
HETATM   34  N1  UNL     1      -8.901  46.938 -20.111  1.00  0.00    -0.401 N 
ATOM     35  H1  UNL     1      -9.221  46.015 -20.404  1.00  0.00     0.158 HD
BRANCH  34  36
HETATM   36  C9  UNL     1      -9.831  48.024 -19.783  1.00  0.00     0.121 C 
BRANCH  36  37
HETATM   37  C10 UNL     1      -9.540  48.510 -18.365  1.00  0.00     0.045 C 
BRANCH  37  38
HETATM   38  C11 UNL     1     -10.248  47.660 -17.317  1.00  0.00     0.165 C 
BRANCH  38  39
HETATM   39  O3  UNL     1     -10.243  48.299 -16.048  1.00  0.00    -0.401 OA
HETATM   40  H18 UNL     1     -10.693  49.156 -16.155  1.00  0.00     0.209 HD
ENDBRANCH  38  39
ENDBRANCH  37  38
ENDBRANCH  36  37
ENDBRANCH  34  36
ENDBRANCH   4  33
BRANCH  13  41
HETATM   41  O6  UNL     1      -2.584  49.085 -18.940  1.00  0.00    -0.389 OA
HETATM   42  H35 UNL     1      -2.384  48.506 -18.185  1.00  0.00     0.210 HD
ENDBRANCH  13  41
BRANCH  10  43
HETATM   43  C18 UNL     1      -0.969  50.643 -21.413  1.00  0.00    -0.045 A 
HETATM   44  C19 UNL     1      -0.269  50.862 -20.298  1.00  0.00     0.087 A 
HETATM   45  C20 UNL     1       0.217  52.237 -20.351  1.00  0.00     0.283 A 
HETATM   46  O4  UNL     1       0.895  52.765 -19.489  1.00  0.00    -0.260 OA
HETATM   47  O5  UNL     1      -0.220  52.820 -21.496  1.00  0.00    -0.314 OA
HETATM   48  C21 UNL     1      -0.965  51.864 -22.257  1.00  0.00     0.213 A 
ENDBRANCH  10  43
TORSDOF 12
ENDMDL
MODEL 5
REMARK minimizedAffinity -6.76793003
REMARK CNNscore 0.574216783
REMARK CNNaffinity 5.96918821
REMARK  12 active torsions:
REMARK  status: ('A' for Active; 'I' for Inactive)
REMARK    1  A    between atoms: C3_4  and  O2_5 
REMARK    2  A    between atoms: O2_5  and  C4_6 
REMARK    3  A    between atoms: C7_9  and  C8_10 
REMARK    4  A    between atoms: N1_11  and  C9_13 
REMARK    5  A    between atoms: C9_13  and  C10_14 
REMARK    6  A    between atoms: C10_14  and  C11_15 
REMARK    7  A    between atoms: C11_15  and  O3_16 
REMARK    8  A    between atoms: C17_22  and  C18_23 
REMARK    9  A    between atoms: C24_31  and  O6_32 
REMARK   10  A    between atoms: C28_36  and  O7_37 
REMARK   11  A    between atoms: C31_40  and  O8_41 
REMARK   12  A    between atoms: C32_42  and  O9_43 
ROOT
HETATM    1  C4  UNL     1      -0.427  53.809  -9.990  1.00  0.00     0.127 C 
HETATM    2  C5  UNL     1      -1.166  55.035  -9.439  1.00  0.00     0.033 C 
HETATM    3  C6  UNL     1      -0.238  55.937  -8.635  1.00  0.00     0.021 C 
HETATM    4  C7  UNL     1       0.463  55.233  -7.423  1.00  0.00     0.026 C 
HETATM    5  C12 UNL     1       1.974  55.706  -7.393  1.00  0.00     0.009 C 
HETATM    6  C13 UNL     1       2.152  57.233  -7.246  1.00  0.00     0.007 C 
HETATM    7  C14 UNL     1       3.616  57.647  -7.341  1.00  0.00     0.013 C 
HETATM    8  C15 UNL     1       4.532  56.941  -6.300  1.00  0.00    -0.005 C 
HETATM    9  C16 UNL     1       4.211  57.516  -4.906  1.00  0.00     0.019 C 
HETATM   10  C17 UNL     1       6.024  57.165  -6.741  1.00  0.00     0.028 C 
HETATM   11  C22 UNL     1       6.370  55.953  -7.639  1.00  0.00     0.013 C 
HETATM   12  C23 UNL     1       5.147  55.033  -7.650  1.00  0.00     0.040 C 
HETATM   13  C24 UNL     1       4.352  55.401  -6.388  1.00  0.00     0.070 C 
HETATM   14  C25 UNL     1       2.865  54.933  -6.385  1.00  0.00     0.026 C 
HETATM   15  C26 UNL     1       2.736  53.418  -6.627  1.00  0.00     0.011 C 
HETATM   16  C27 UNL     1       1.290  52.954  -6.561  1.00  0.00     0.039 C 
HETATM   17  C28 UNL     1       0.356  53.670  -7.547  1.00  0.00     0.073 C 
HETATM   18  C29 UNL     1       0.606  53.228  -9.003  1.00  0.00     0.071 C 
ENDROOT
BRANCH   1  19
HETATM   19  O2  UNL     1      -1.336  52.756 -10.345  1.00  0.00    -0.356 OA
BRANCH  19  20
HETATM   20  C3  UNL     1      -1.840  52.847 -11.675  1.00  0.00     0.263 C 
HETATM   21  O1  UNL     1      -3.263  52.715 -11.727  1.00  0.00    -0.354 OA
HETATM   22  C2  UNL     1      -3.801  51.410 -11.451  1.00  0.00     0.151 C 
HETATM   23  C1  UNL     1      -3.770  51.050  -9.970  1.00  0.00     0.042 C 
HETATM   24  C32 UNL     1      -3.151  50.345 -12.342  1.00  0.00     0.175 C 
HETATM   25  C31 UNL     1      -1.623  50.411 -12.252  1.00  0.00     0.154 C 
HETATM   26  C30 UNL     1      -1.134  51.821 -12.553  1.00  0.00     0.095 C 
BRANCH  24  27
HETATM   27  O9  UNL     1      -3.520  50.570 -13.720  1.00  0.00    -0.390 OA
HETATM   28  H49 UNL     1      -3.699  51.527 -13.818  1.00  0.00     0.210 HD
ENDBRANCH  24  27
BRANCH  25  29
HETATM   29  O8  UNL     1      -1.050  49.509 -13.203  1.00  0.00    -0.393 OA
HETATM   30  H47 UNL     1      -1.602  49.581 -14.009  1.00  0.00     0.210 HD
ENDBRANCH  25  29
ENDBRANCH  19  20
ENDBRANCH   1  19
BRANCH  17  31
HETATM   31  O7  UNL     1      -0.970  53.229  -7.200  1.00  0.00    -0.389 OA
HETATM   32  H41 UNL     1      -1.067  52.304  -7.491  1.00  0.00     0.210 HD
ENDBRANCH  17  31
BRANCH   4  33
HETATM   33  C8  UNL     1      -0.338  55.625  -6.172  1.00  0.00     0.068 C 
HETATM   34  N1  UNL     1      -0.135  55.097  -5.018  1.00  0.00    -0.401 N 
ATOM     35  H1  UNL     1       0.597  54.404  -4.855  1.00  0.00     0.158 HD
BRANCH  34  36
HETATM   36  C9  UNL     1      -1.028  55.561  -3.951  1.00  0.00     0.121 C 
BRANCH  36  37
HETATM   37  C10 UNL     1      -1.845  54.375  -3.441  1.00  0.00     0.045 C 
BRANCH  37  38
HETATM   38  C11 UNL     1      -3.291  54.763  -3.157  1.00  0.00     0.165 C 
BRANCH  38  39
HETATM   39  O3  UNL     1      -4.148  54.354  -4.214  1.00  0.00    -0.401 OA
HETATM   40  H18 UNL     1      -4.063  53.388  -4.299  1.00  0.00     0.209 HD
ENDBRANCH  38  39
ENDBRANCH  37  38
ENDBRANCH  36  37
ENDBRANCH  34  36
ENDBRANCH   4  33
BRANCH  13  41
HETATM   41  O6  UNL     1       5.027  54.800  -5.274  1.00  0.00    -0.389 OA
HETATM   42  H35 UNL     1       5.038  53.835  -5.395  1.00  0.00     0.210 HD
ENDBRANCH  13  41
BRANCH  10  43
HETATM   43  C18 UNL     1       7.071  57.410  -5.684  1.00  0.00    -0.045 A 
HETATM   44  C19 UNL     1       7.320  58.591  -5.116  1.00  0.00     0.087 A 
HETATM   45  C20 UNL     1       8.432  58.404  -4.189  1.00  0.00     0.283 A 
HETATM   46  O4  UNL     1       8.914  59.285  -3.500  1.00  0.00    -0.260 OA
HETATM   47  O5  UNL     1       8.837  57.110  -4.235  1.00  0.00    -0.314 OA
HETATM   48  C21 UNL     1       8.003  56.387  -5.146  1.00  0.00     0.213 A 
ENDBRANCH  10  43
TORSDOF 12
ENDMDL
MODEL 6
REMARK minimizedAffinity -7.26562977
REMARK CNNscore 0.516391397
REMARK CNNaffinity 6.67002344
REMARK  12 active torsions:
REMARK  status: ('A' for Active; 'I' for Inactive)
REMARK    1  A    between atoms: C3_4  and  O2_5 
REMARK    2  A    between atoms: O2_5  and  C4_6 
REMARK    3  A    between atoms: C7_9  and  C8_10 
REMARK    4  A    between atoms: N1_11  and  C9_13 
REMARK    5  A    between atoms: C9_13  and  C10_14 
REMARK    6  A    between atoms: C10_14  and  C11_15 
REMARK    7  A    between atoms: C11_15  and  O3_16 
REMARK    8  A    between atoms: C17_22  and  C18_23 
REMARK    9  A    between atoms: C24_31  and  O6_32 
REMARK   10  A    between atoms: C28_36  and  O7_37 
REMARK   11  A    between atoms: C31_40  and  O8_41 
REMARK   12  A    between atoms: C32_42  and  O9_43 
ROOT
HETATM    1  C4  UNL     1      -7.626  47.101 -22.031  1.00  0.00     0.127 C 
HETATM    2  C5  UNL     1      -6.614  46.577 -23.057  1.00  0.00     0.033 C 
HETATM    3  C6  UNL     1      -5.185  46.948 -22.678  1.00  0.00     0.021 C 
HETATM    4  C7  UNL     1      -4.934  48.487 -22.520  1.00  0.00     0.026 C 
HETATM    5  C12 UNL     1      -4.034  48.703 -21.235  1.00  0.00     0.009 C 
HETATM    6  C13 UNL     1      -2.668  47.984 -21.297  1.00  0.00     0.007 C 
HETATM    7  C14 UNL     1      -1.892  48.126 -19.992  1.00  0.00     0.013 C 
HETATM    8  C15 UNL     1      -1.653  49.604 -19.567  1.00  0.00    -0.005 C 
HETATM    9  C16 UNL     1      -0.619  50.222 -20.528  1.00  0.00     0.019 C 
HETATM   10  C17 UNL     1      -1.189  49.604 -18.065  1.00  0.00     0.028 C 
HETATM   11  C22 UNL     1      -2.489  49.736 -17.236  1.00  0.00     0.013 C 
HETATM   12  C23 UNL     1      -3.646  49.882 -18.227  1.00  0.00     0.040 C 
HETATM   13  C24 UNL     1      -3.001  50.375 -19.532  1.00  0.00     0.070 C 
HETATM   14  C25 UNL     1      -3.874  50.187 -20.811  1.00  0.00     0.026 C 
HETATM   15  C26 UNL     1      -5.259  50.843 -20.665  1.00  0.00     0.011 C 
HETATM   16  C27 UNL     1      -6.084  50.714 -21.936  1.00  0.00     0.039 C 
HETATM   17  C28 UNL     1      -6.293  49.266 -22.403  1.00  0.00     0.073 C 
HETATM   18  C29 UNL     1      -7.274  48.501 -21.490  1.00  0.00     0.071 C 
ENDROOT
BRANCH   1  19
HETATM   19  O2  UNL     1      -8.953  47.163 -22.577  1.00  0.00    -0.356 OA
BRANCH  19  20
HETATM   20  C3  UNL     1      -9.006  47.016 -23.994  1.00  0.00     0.263 C 
HETATM   21  O1  UNL     1     -10.250  47.462 -24.541  1.00  0.00    -0.354 OA
HETATM   22  C2  UNL     1     -11.405  46.652 -24.262  1.00  0.00     0.151 C 
HETATM   23  C1  UNL     1     -11.917  46.809 -22.835  1.00  0.00     0.042 C 
HETATM   24  C32 UNL     1     -11.162  45.190 -24.656  1.00  0.00     0.175 C 
HETATM   25  C31 UNL     1      -9.872  44.658 -24.026  1.00  0.00     0.154 C 
HETATM   26  C30 UNL     1      -8.700  45.569 -24.363  1.00  0.00     0.095 C 
BRANCH  24  27
HETATM   27  O9  UNL     1     -11.025  45.088 -26.091  1.00  0.00    -0.390 OA
HETATM   28  H49 UNL     1     -10.683  45.947 -26.409  1.00  0.00     0.210 HD
ENDBRANCH  24  27
BRANCH  25  29
HETATM   29  O8  UNL     1      -9.599  43.348 -24.530  1.00  0.00    -0.393 OA
HETATM   30  H47 UNL     1      -9.830  43.372 -25.483  1.00  0.00     0.210 HD
ENDBRANCH  25  29
ENDBRANCH  19  20
ENDBRANCH   1  19
BRANCH  17  31
HETATM   31  O7  UNL     1      -6.924  49.373 -23.693  1.00  0.00    -0.389 OA
HETATM   32  H41 UNL     1      -7.845  49.659 -23.557  1.00  0.00     0.210 HD
ENDBRANCH  17  31
BRANCH   4  33
HETATM   33  C8  UNL     1      -4.277  48.955 -23.828  1.00  0.00     0.068 C 
HETATM   34  N1  UNL     1      -4.036  50.192 -24.086  1.00  0.00    -0.401 N 
ATOM     35  H1  UNL     1      -4.240  50.938 -23.421  1.00  0.00     0.158 HD
BRANCH  34  36
HETATM   36  C9  UNL     1      -3.449  50.453 -25.404  1.00  0.00     0.121 C 
BRANCH  36  37
HETATM   37  C10 UNL     1      -1.954  50.714 -25.234  1.00  0.00     0.045 C 
BRANCH  37  38
HETATM   38  C11 UNL     1      -1.615  52.192 -25.385  1.00  0.00     0.165 C 
BRANCH  38  39
HETATM   39  O3  UNL     1      -2.413  52.991 -24.522  1.00  0.00    -0.401 OA
HETATM   40  H18 UNL     1      -2.244  52.691 -23.611  1.00  0.00     0.209 HD
ENDBRANCH  38  39
ENDBRANCH  37  38
ENDBRANCH  36  37
ENDBRANCH  34  36
ENDBRANCH   4  33
BRANCH  13  41
HETATM   41  O6  UNL     1      -2.722  51.771 -19.364  1.00  0.00    -0.389 OA
HETATM   42  H35 UNL     1      -3.558  52.242 -19.204  1.00  0.00     0.210 HD
ENDBRANCH  13  41
BRANCH  10  43
HETATM   43  C18 UNL     1      -0.130  50.583 -17.625  1.00  0.00    -0.045 A 
HETATM   44  C19 UNL     1       0.705  50.395 -16.602  1.00  0.00     0.087 A 
HETATM   45  C20 UNL     1       1.530  51.593 -16.486  1.00  0.00     0.283 A 
HETATM   46  O4  UNL     1       2.404  51.755 -15.653  1.00  0.00    -0.260 OA
HETATM   47  O5  UNL     1       1.156  52.486 -17.439  1.00  0.00    -0.314 OA
HETATM   48  C21 UNL     1       0.116  51.913 -18.238  1.00  0.00     0.213 A 
ENDBRANCH  10  43
TORSDOF 12
ENDMDL
MODEL 7
REMARK minimizedAffinity -8.09690857
REMARK CNNscore 0.516115367
REMARK CNNaffinity 6.17865372
REMARK  12 active torsions:
REMARK  status: ('A' for Active; 'I' for Inactive)
REMARK    1  A    between atoms: C3_4  and  O2_5 
REMARK    2  A    between atoms: O2_5  and  C4_6 
REMARK    3  A    between atoms: C7_9  and  C8_10 
REMARK    4  A    between atoms: N1_11  and  C9_13 
REMARK    5  A    between atoms: C9_13  and  C10_14 
REMARK    6  A    between atoms: C10_14  and  C11_15 
REMARK    7  A    between atoms: C11_15  and  O3_16 
REMARK    8  A    between atoms: C17_22  and  C18_23 
REMARK    9  A    between atoms: C24_31  and  O6_32 
REMARK   10  A    between atoms: C28_36  and  O7_37 
REMARK   11  A    between atoms: C31_40  and  O8_41 
REMARK   12  A    between atoms: C32_42  and  O9_43 
ROOT
HETATM    1  C4  UNL     1      -6.906  46.167 -19.098  1.00  0.00     0.127 C 
HETATM    2  C5  UNL     1      -6.730  45.491 -20.463  1.00  0.00     0.033 C 
HETATM    3  C6  UNL     1      -5.614  46.140 -21.273  1.00  0.00     0.021 C 
HETATM    4  C7  UNL     1      -5.808  47.674 -21.533  1.00  0.00     0.026 C 
HETATM    5  C12 UNL     1      -4.408  48.384 -21.324  1.00  0.00     0.009 C 
HETATM    6  C13 UNL     1      -3.293  47.862 -22.257  1.00  0.00     0.007 C 
HETATM    7  C14 UNL     1      -1.943  48.492 -21.935  1.00  0.00     0.013 C 
HETATM    8  C15 UNL     1      -1.950  50.047 -21.996  1.00  0.00    -0.005 C 
HETATM    9  C16 UNL     1      -2.066  50.472 -23.473  1.00  0.00     0.019 C 
HETATM   10  C17 UNL     1      -0.639  50.563 -21.299  1.00  0.00     0.028 C 
HETATM   11  C22 UNL     1      -1.022  50.771 -19.814  1.00  0.00     0.013 C 
HETATM   12  C23 UNL     1      -2.515  50.460 -19.682  1.00  0.00     0.040 C 
HETATM   13  C24 UNL     1      -3.087  50.611 -21.101  1.00  0.00     0.070 C 
HETATM   14  C25 UNL     1      -4.472  49.934 -21.329  1.00  0.00     0.026 C 
HETATM   15  C26 UNL     1      -5.525  50.419 -20.317  1.00  0.00     0.011 C 
HETATM   16  C27 UNL     1      -6.891  49.805 -20.581  1.00  0.00     0.039 C 
HETATM   17  C28 UNL     1      -6.901  48.270 -20.574  1.00  0.00     0.073 C 
HETATM   18  C29 UNL     1      -6.735  47.698 -19.151  1.00  0.00     0.071 C 
ENDROOT
BRANCH   1  19
HETATM   19  O2  UNL     1      -8.194  45.888 -18.529  1.00  0.00    -0.356 OA
BRANCH  19  20
HETATM   20  C3  UNL     1      -9.031  45.080 -19.353  1.00  0.00     0.263 C 
HETATM   21  O1  UNL     1     -10.000  45.852 -20.066  1.00  0.00    -0.354 OA
HETATM   22  C2  UNL     1     -11.065  46.430 -19.290  1.00  0.00     0.151 C 
HETATM   23  C1  UNL     1     -10.624  47.640 -18.475  1.00  0.00     0.042 C 
HETATM   24  C32 UNL     1     -11.774  45.363 -18.447  1.00  0.00     0.175 C 
HETATM   25  C31 UNL     1     -10.768  44.564 -17.612  1.00  0.00     0.154 C 
HETATM   26  C30 UNL     1      -9.675  43.991 -18.503  1.00  0.00     0.095 C 
BRANCH  24  27
HETATM   27  O9  UNL     1     -12.462  44.434 -19.313  1.00  0.00    -0.390 OA
HETATM   28  H49 UNL     1     -11.980  44.423 -20.164  1.00  0.00     0.210 HD
ENDBRANCH  24  27
BRANCH  25  29
HETATM   29  O8  UNL     1     -11.442  43.487 -16.955  1.00  0.00    -0.393 OA
HETATM   30  H47 UNL     1     -12.088  43.137 -17.604  1.00  0.00     0.210 HD
ENDBRANCH  25  29
ENDBRANCH  19  20
ENDBRANCH   1  19
BRANCH  17  31
HETATM   31  O7  UNL     1      -8.218  47.897 -21.021  1.00  0.00    -0.389 OA
HETATM   32  H41 UNL     1      -8.847  48.090 -20.302  1.00  0.00     0.210 HD
ENDBRANCH  17  31
BRANCH   4  33
HETATM   33  C8  UNL     1      -6.366  47.803 -22.959  1.00  0.00     0.068 C 
HETATM   34  N1  UNL     1      -7.103  46.903 -23.506  1.00  0.00    -0.401 N 
ATOM     35  H1  UNL     1      -7.390  46.058 -23.012  1.00  0.00     0.158 HD
BRANCH  34  36
HETATM   36  C9  UNL     1      -7.503  47.177 -24.890  1.00  0.00     0.121 C 
BRANCH  36  37
HETATM   37  C10 UNL     1      -7.983  48.624 -24.988  1.00  0.00     0.045 C 
BRANCH  37  38
HETATM   38  C11 UNL     1      -9.171  48.766 -25.931  1.00  0.00     0.165 C 
BRANCH  38  39
HETATM   39  O3  UNL     1      -9.690  50.088 -25.906  1.00  0.00    -0.401 OA
HETATM   40  H18 UNL     1      -8.970  50.687 -26.170  1.00  0.00     0.209 HD
ENDBRANCH  38  39
ENDBRANCH  37  38
ENDBRANCH  36  37
ENDBRANCH  34  36
ENDBRANCH   4  33
BRANCH  13  41
HETATM   41  O6  UNL     1      -3.212  52.016 -21.357  1.00  0.00    -0.389 OA
HETATM   42  H35 UNL     1      -3.822  52.403 -20.706  1.00  0.00     0.210 HD
ENDBRANCH  13  41
BRANCH  10  43
HETATM   43  C18 UNL     1       0.077  51.757 -21.876  1.00  0.00    -0.045 A 
HETATM   44  C19 UNL     1       0.561  52.775 -21.162  1.00  0.00     0.087 A 
HETATM   45  C20 UNL     1       1.130  53.736 -22.102  1.00  0.00     0.283 A 
HETATM   46  O4  UNL     1       1.661  54.784 -21.783  1.00  0.00    -0.260 OA
HETATM   47  O5  UNL     1       0.958  53.276 -23.368  1.00  0.00    -0.314 OA
HETATM   48  C21 UNL     1       0.317  51.998 -23.322  1.00  0.00     0.213 A 
ENDBRANCH  10  43
TORSDOF 12
ENDMDL
MODEL 8
REMARK minimizedAffinity -6.75027847
REMARK CNNscore 0.509606957
REMARK CNNaffinity 6.06977844
REMARK  12 active torsions:
REMARK  status: ('A' for Active; 'I' for Inactive)
REMARK    1  A    between atoms: C3_4  and  O2_5 
REMARK    2  A    between atoms: O2_5  and  C4_6 
REMARK    3  A    between atoms: C7_9  and  C8_10 
REMARK    4  A    between atoms: N1_11  and  C9_13 
REMARK    5  A    between atoms: C9_13  and  C10_14 
REMARK    6  A    between atoms: C10_14  and  C11_15 
REMARK    7  A    between atoms: C11_15  and  O3_16 
REMARK    8  A    between atoms: C17_22  and  C18_23 
REMARK    9  A    between atoms: C24_31  and  O6_32 
REMARK   10  A    between atoms: C28_36  and  O7_37 
REMARK   11  A    between atoms: C31_40  and  O8_41 
REMARK   12  A    between atoms: C32_42  and  O9_43 
ROOT
HETATM    1  C4  UNL     1       6.543  55.757  -7.119  1.00  0.00     0.127 C 
HETATM    2  C5  UNL     1       7.086  55.272  -8.469  1.00  0.00     0.033 C 
HETATM    3  C6  UNL     1       5.962  54.842  -9.405  1.00  0.00     0.021 C 
HETATM    4  C7  UNL     1       5.043  53.706  -8.837  1.00  0.00     0.026 C 
HETATM    5  C12 UNL     1       3.543  54.074  -9.187  1.00  0.00     0.009 C 
HETATM    6  C13 UNL     1       3.268  54.221 -10.700  1.00  0.00     0.007 C 
HETATM    7  C14 UNL     1       1.844  54.690 -10.976  1.00  0.00     0.013 C 
HETATM    8  C15 UNL     1       0.754  53.764 -10.364  1.00  0.00    -0.005 C 
HETATM    9  C16 UNL     1       0.731  52.448 -11.166  1.00  0.00     0.019 C 
HETATM   10  C17 UNL     1      -0.613  54.541 -10.399  1.00  0.00     0.028 C 
HETATM   11  C22 UNL     1      -0.696  55.280  -9.042  1.00  0.00     0.013 C 
HETATM   12  C23 UNL     1       0.539  54.881  -8.231  1.00  0.00     0.040 C 
HETATM   13  C24 UNL     1       1.018  53.558  -8.847  1.00  0.00     0.070 C 
HETATM   14  C25 UNL     1       2.487  53.164  -8.506  1.00  0.00     0.026 C 
HETATM   15  C26 UNL     1       2.735  53.121  -6.987  1.00  0.00     0.011 C 
HETATM   16  C27 UNL     1       4.150  52.675  -6.655  1.00  0.00     0.039 C 
HETATM   17  C28 UNL     1       5.246  53.545  -7.288  1.00  0.00     0.073 C 
HETATM   18  C29 UNL     1       5.345  54.929  -6.613  1.00  0.00     0.071 C 
ENDROOT
BRANCH   1  19
HETATM   19  O2  UNL     1       7.555  55.734  -6.101  1.00  0.00    -0.356 OA
BRANCH  19  20
HETATM   20  C3  UNL     1       7.041  55.651  -4.773  1.00  0.00     0.263 C 
HETATM   21  O1  UNL     1       6.978  56.928  -4.135  1.00  0.00    -0.354 OA
HETATM   22  C2  UNL     1       8.232  57.533  -3.773  1.00  0.00     0.151 C 
HETATM   23  C1  UNL     1       8.985  58.109  -4.966  1.00  0.00     0.042 C 
HETATM   24  C32 UNL     1       9.083  56.575  -2.930  1.00  0.00     0.175 C 
HETATM   25  C31 UNL     1       9.232  55.217  -3.623  1.00  0.00     0.154 C 
HETATM   26  C30 UNL     1       7.865  54.647  -3.975  1.00  0.00     0.095 C 
BRANCH  24  27
HETATM   27  O9  UNL     1       8.445  56.350  -1.654  1.00  0.00    -0.390 OA
HETATM   28  H49 UNL     1       7.483  56.473  -1.787  1.00  0.00     0.210 HD
ENDBRANCH  24  27
BRANCH  25  29
HETATM   29  O8  UNL     1       9.902  54.306  -2.748  1.00  0.00    -0.393 OA
HETATM   30  H47 UNL     1       9.545  54.481  -1.852  1.00  0.00     0.210 HD
ENDBRANCH  25  29
ENDBRANCH  19  20
ENDBRANCH   1  19
BRANCH  17  31
HETATM   31  O7  UNL     1       6.481  52.859  -7.011  1.00  0.00    -0.389 OA
HETATM   32  H41 UNL     1       6.682  52.967  -6.064  1.00  0.00     0.210 HD
ENDBRANCH  17  31
BRANCH   4  33
HETATM   33  C8  UNL     1       5.529  52.396  -9.477  1.00  0.00     0.068 C 
HETATM   34  N1  UNL     1       4.913  51.277  -9.331  1.00  0.00    -0.401 N 
ATOM     35  H1  UNL     1       4.042  51.197  -8.805  1.00  0.00     0.158 HD
BRANCH  34  36
HETATM   36  C9  UNL     1       5.551  50.123  -9.975  1.00  0.00     0.121 C 
BRANCH  36  37
HETATM   37  C10 UNL     1       7.058  50.364 -10.037  1.00  0.00     0.045 C 
BRANCH  37  38
HETATM   38  C11 UNL     1       7.841  49.057 -10.048  1.00  0.00     0.165 C 
BRANCH  38  39
HETATM   39  O3  UNL     1       8.485  48.856 -11.298  1.00  0.00    -0.401 OA
HETATM   40  H18 UNL     1       9.080  49.613 -11.443  1.00  0.00     0.209 HD
ENDBRANCH  38  39
ENDBRANCH  37  38
ENDBRANCH  36  37
ENDBRANCH  34  36
ENDBRANCH   4  33
BRANCH  13  41
HETATM   41  O6  UNL     1       0.141  52.529  -8.369  1.00  0.00    -0.389 OA
HETATM   42  H35 UNL     1       0.202  52.488  -7.400  1.00  0.00     0.210 HD
ENDBRANCH  13  41
BRANCH  10  43
HETATM   43  C18 UNL     1      -1.878  53.784 -10.715  1.00  0.00    -0.045 A 
HETATM   44  C19 UNL     1      -1.946  52.707 -11.500  1.00  0.00     0.087 A 
HETATM   45  C20 UNL     1      -3.349  52.314 -11.581  1.00  0.00     0.283 A 
HETATM   46  O4  UNL     1      -3.766  51.364 -12.218  1.00  0.00    -0.260 OA
HETATM   47  O5  UNL     1      -4.097  53.182 -10.852  1.00  0.00    -0.314 OA
HETATM   48  C21 UNL     1      -3.236  54.143 -10.235  1.00  0.00     0.213 A 
ENDBRANCH  10  43
TORSDOF 12
ENDMDL
MODEL 9
REMARK minimizedAffinity -7.14683485
REMARK CNNscore 0.500601053
REMARK CNNaffinity 6.65905905
REMARK  12 active torsions:
REMARK  status: ('A' for Active; 'I' for Inactive)
REMARK    1  A    between atoms: C3_4  and  O2_5 
REMARK    2  A    between atoms: O2_5  and  C4_6 
REMARK    3  A    between atoms: C7_9  and  C8_10 
REMARK    4  A    between atoms: N1_11  and  C9_13 
REMARK    5  A    between atoms: C9_13  and  C10_14 
REMARK    6  A    between atoms: C10_14  and  C11_15 
REMARK    7  A    between atoms: C11_15  and  O3_16 
REMARK    8  A    between atoms: C17_22  and  C18_23 
REMARK    9  A    between atoms: C24_31  and  O6_32 
REMARK   10  A    between atoms: C28_36  and  O7_37 
REMARK   11  A    between atoms: C31_40  and  O8_41 
REMARK   12  A    between atoms: C32_42  and  O9_43 
ROOT
HETATM    1  C4  UNL     1      -7.343  46.640 -20.808  1.00  0.00     0.127 C 
HETATM    2  C5  UNL     1      -6.411  46.133 -21.915  1.00  0.00     0.033 C 
HETATM    3  C6  UNL     1      -4.985  46.634 -21.724  1.00  0.00     0.021 C 
HETATM    4  C7  UNL     1      -4.845  48.194 -21.676  1.00  0.00     0.026 C 
HETATM    5  C12 UNL     1      -3.829  48.556 -20.517  1.00  0.00     0.009 C 
HETATM    6  C13 UNL     1      -2.424  47.941 -20.698  1.00  0.00     0.007 C 
HETATM    7  C14 UNL     1      -1.522  48.221 -19.501  1.00  0.00     0.013 C 
HETATM    8  C15 UNL     1      -1.360  49.735 -19.184  1.00  0.00    -0.005 C 
HETATM    9  C16 UNL     1      -0.493  50.371 -20.289  1.00  0.00     0.019 C 
HETATM   10  C17 UNL     1      -0.733  49.862 -17.748  1.00  0.00     0.028 C 
HETATM   11  C22 UNL     1      -1.939  49.946 -16.783  1.00  0.00     0.013 C 
HETATM   12  C23 UNL     1      -3.207  49.943 -17.640  1.00  0.00     0.040 C 
HETATM   13  C24 UNL     1      -2.755  50.402 -19.034  1.00  0.00     0.070 C 
HETATM   14  C25 UNL     1      -3.745  50.071 -20.192  1.00  0.00     0.026 C 
HETATM   15  C26 UNL     1      -5.155  50.627 -19.921  1.00  0.00     0.011 C 
HETATM   16  C27 UNL     1      -6.103  50.359 -21.079  1.00  0.00     0.039 C 
HETATM   17  C28 UNL     1      -6.243  48.873 -21.444  1.00  0.00     0.073 C 
HETATM   18  C29 UNL     1      -7.049  48.094 -20.384  1.00  0.00     0.071 C 
ENDROOT
BRANCH   1  19
HETATM   19  O2  UNL     1      -8.723  46.567 -21.199  1.00  0.00    -0.356 OA
BRANCH  19  20
HETATM   20  C3  UNL     1      -9.348  45.323 -20.895  1.00  0.00     0.263 C 
HETATM   21  O1  UNL     1     -10.774  45.415 -20.903  1.00  0.00    -0.354 OA
HETATM   22  C2  UNL     1     -11.381  46.154 -19.828  1.00  0.00     0.151 C 
HETATM   23  C1  UNL     1     -11.231  47.663 -19.980  1.00  0.00     0.042 C 
HETATM   24  C32 UNL     1     -10.904  45.637 -18.465  1.00  0.00     0.175 C 
HETATM   25  C31 UNL     1      -9.375  45.595 -18.397  1.00  0.00     0.154 C 
HETATM   26  C30 UNL     1      -8.812  44.800 -19.567  1.00  0.00     0.095 C 
BRANCH  24  27
HETATM   27  O9  UNL     1     -11.390  44.292 -18.258  1.00  0.00    -0.390 OA
HETATM   28  H49 UNL     1     -11.504  43.887 -19.141  1.00  0.00     0.210 HD
ENDBRANCH  24  27
BRANCH  25  29
HETATM   29  O8  UNL     1      -8.969  44.972 -17.176  1.00  0.00    -0.393 OA
HETATM   30  H47 UNL     1      -9.591  44.229 -17.032  1.00  0.00     0.210 HD
ENDBRANCH  25  29
ENDBRANCH  19  20
ENDBRANCH   1  19
BRANCH  17  31
HETATM   31  O7  UNL     1      -7.019  48.853 -22.656  1.00  0.00    -0.389 OA
HETATM   32  H41 UNL     1      -7.940  49.076 -22.429  1.00  0.00     0.210 HD
ENDBRANCH  17  31
BRANCH   4  33
HETATM   33  C8  UNL     1      -4.378  48.630 -23.073  1.00  0.00     0.068 C 
HETATM   34  N1  UNL     1      -4.863  48.137 -24.158  1.00  0.00    -0.401 N 
ATOM     35  H1  UNL     1      -5.613  47.445 -24.155  1.00  0.00     0.158 HD
BRANCH  34  36
HETATM   36  C9  UNL     1      -4.261  48.639 -25.397  1.00  0.00     0.121 C 
BRANCH  36  37
HETATM   37  C10 UNL     1      -2.890  49.230 -25.076  1.00  0.00     0.045 C 
BRANCH  37  38
HETATM   38  C11 UNL     1      -2.441  50.230 -26.134  1.00  0.00     0.165 C 
BRANCH  38  39
HETATM   39  O3  UNL     1      -3.553  50.891 -26.721  1.00  0.00    -0.401 OA
HETATM   40  H18 UNL     1      -4.032  51.343 -26.004  1.00  0.00     0.209 HD
ENDBRANCH  38  39
ENDBRANCH  37  38
ENDBRANCH  36  37
ENDBRANCH  34  36
ENDBRANCH   4  33
BRANCH  13  41
HETATM   41  O6  UNL     1      -2.575  51.823 -18.972  1.00  0.00    -0.389 OA
HETATM   42  H35 UNL     1      -3.423  52.239 -18.742  1.00  0.00     0.210 HD
ENDBRANCH  13  41
BRANCH  10  43
HETATM   43  C18 UNL     1       0.284  50.945 -17.486  1.00  0.00    -0.045 A 
HETATM   44  C19 UNL     1       1.155  50.944 -16.475  1.00  0.00     0.087 A 
HETATM   45  C20 UNL     1       1.918  52.185 -16.555  1.00  0.00     0.283 A 
HETATM   46  O4  UNL     1       2.803  52.505 -15.782  1.00  0.00    -0.260 OA
HETATM   47  O5  UNL     1       1.472  52.914 -17.610  1.00  0.00    -0.314 OA
HETATM   48  C21 UNL     1       0.443  52.185 -18.286  1.00  0.00     0.213 A 
ENDBRANCH  10  43
TORSDOF 12
ENDMDL
