MODEL 1
REMARK minimizedAffinity -9.66569519
REMARK CNNscore 0.652631581
REMARK CNNaffinity 6.53970528
REMARK  8 active torsions:
REMARK  status: ('A' for Active; 'I' for Inactive)
REMARK    1  A    between atoms: C11_11  and  O1_12 
REMARK    2  A    between atoms: O1_12  and  C12_13 
REMARK    3  A    between atoms: C14_16  and  O3_17 
REMARK    4  A    between atoms: C15_18  and  O4_19 
REMARK    5  A    between atoms: C16_20  and  O5_21 
REMARK    6  A    between atoms: C19_24  and  C20_25 
REMARK    7  A    between atoms: C21_27  and  O7_28 
REMARK    8  A    between atoms: C24_31  and  C25_32 
ROOT
HETATM    1  C1  UNL     1      -6.163   6.585  13.157  1.00  0.00     0.019 C 
HETATM    2  C2  UNL     1      -7.583   6.148  13.604  1.00  0.00    -0.005 C 
HETATM    3  C3  UNL     1      -8.541   6.505  12.448  1.00  0.00     0.013 C 
HETATM    4  C4  UNL     1     -10.022   6.362  12.778  1.00  0.00     0.007 C 
HETATM    5  C5  UNL     1     -10.462   7.061  14.084  1.00  0.00     0.012 C 
HETATM    6  C6  UNL     1      -9.271   7.775  14.792  1.00  0.00     0.027 C 
HETATM    7  C7  UNL     1      -9.724   8.386  16.138  1.00  0.00     0.012 C 
HETATM    8  C8  UNL     1     -10.913   9.330  15.979  1.00  0.00     0.036 C 
HETATM    9  C9  UNL     1     -12.045   8.636  15.259  1.00  0.00    -0.065 C 
HETATM   10  C10 UNL     1     -13.252   8.539  15.848  1.00  0.00     0.009 C 
HETATM   11  C11 UNL     1     -14.398   7.731  15.321  1.00  0.00     0.148 C 
HETATM   12  C17 UNL     1     -13.863   6.632  14.403  1.00  0.00     0.037 C 
HETATM   13  C18 UNL     1     -12.940   7.215  13.332  1.00  0.00     0.024 C 
HETATM   14  C19 UNL     1     -11.712   7.995  13.907  1.00  0.00     0.040 C 
HETATM   15  C21 UNL     1      -8.024   6.857  14.950  1.00  0.00     0.070 C 
HETATM   16  C22 UNL     1      -8.203   5.722  15.977  1.00  0.00     0.040 C 
HETATM   17  C23 UNL     1      -7.316   4.601  15.460  1.00  0.00     0.013 C 
HETATM   18  C24 UNL     1      -7.607   4.615  13.954  1.00  0.00     0.028 C 
ENDROOT
BRANCH  11  19
HETATM   19  O1  UNL     1     -15.257   8.572  14.554  1.00  0.00    -0.349 OA
BRANCH  19  20
HETATM   20  C12 UNL     1     -15.784   7.951  13.375  1.00  0.00     0.291 C 
HETATM   21  O2  UNL     1     -16.995   7.233  13.629  1.00  0.00    -0.356 OA
HETATM   22  C13 UNL     1     -18.152   8.073  13.552  1.00  0.00     0.205 C 
HETATM   23  C14 UNL     1     -18.399   8.461  12.089  1.00  0.00     0.173 C 
HETATM   24  C15 UNL     1     -17.070   8.687  11.340  1.00  0.00     0.182 C 
HETATM   25  C16 UNL     1     -15.958   9.066  12.316  1.00  0.00     0.204 C 
BRANCH  23  26
HETATM   26  O3  UNL     1     -19.134   7.407  11.445  1.00  0.00    -0.391 OA
HETATM   27  H20 UNL     1     -18.624   6.584  11.550  1.00  0.00     0.210 HD
ENDBRANCH  23  26
BRANCH  24  28
HETATM   28  O4  UNL     1     -17.222   9.736  10.371  1.00  0.00    -0.390 OA
HETATM   29  H22 UNL     1     -16.321   9.903  10.031  1.00  0.00     0.210 HD
ENDBRANCH  24  28
BRANCH  25  30
HETATM   30  O5  UNL     1     -14.735   9.295  11.593  1.00  0.00    -0.388 OA
HETATM   31  H24 UNL     1     -14.100   9.653  12.242  1.00  0.00     0.210 HD
ENDBRANCH  25  30
ENDBRANCH  19  20
ENDBRANCH  11  19
BRANCH  14  32
HETATM   32  C20 UNL     1     -11.399   9.091  12.858  1.00  0.00     0.245 C 
HETATM   33  O6  UNL     1     -11.916   9.204  11.750  1.00  0.00    -0.306 OA
ENDBRANCH  14  32
BRANCH  15  34
HETATM   34  O7  UNL     1      -6.939   7.671  15.416  1.00  0.00    -0.389 OA
HETATM   35  H30 UNL     1      -7.101   7.930  16.338  1.00  0.00     0.210 HD
ENDBRANCH  15  34
BRANCH  18  36
HETATM   36  C25 UNL     1      -6.752   3.678  13.143  1.00  0.00    -0.045 A 
HETATM   37  C26 UNL     1      -7.121   2.587  12.469  1.00  0.00     0.087 A 
HETATM   38  C27 UNL     1      -5.941   2.079  11.777  1.00  0.00     0.283 A 
HETATM   39  O8  UNL     1      -5.927   1.099  11.056  1.00  0.00    -0.260 OA
HETATM   40  O9  UNL     1      -4.881   2.884  12.052  1.00  0.00    -0.314 OA
HETATM   41  C28 UNL     1      -5.303   3.923  12.935  1.00  0.00     0.213 A 
ENDBRANCH  18  36
TORSDOF 8
ENDMDL
MODEL 2
REMARK minimizedAffinity -9.7422123
REMARK CNNscore 0.612861633
REMARK CNNaffinity 6.81200075
REMARK  8 active torsions:
REMARK  status: ('A' for Active; 'I' for Inactive)
REMARK    1  A    between atoms: C11_11  and  O1_12 
REMARK    2  A    between atoms: O1_12  and  C12_13 
REMARK    3  A    between atoms: C14_16  and  O3_17 
REMARK    4  A    between atoms: C15_18  and  O4_19 
REMARK    5  A    between atoms: C16_20  and  O5_21 
REMARK    6  A    between atoms: C19_24  and  C20_25 
REMARK    7  A    between atoms: C21_27  and  O7_28 
REMARK    8  A    between atoms: C24_31  and  C25_32 
ROOT
HETATM    1  C1  UNL     1      -4.327   5.915  15.624  1.00  0.00     0.019 C 
HETATM    2  C2  UNL     1      -3.837   6.374  14.226  1.00  0.00    -0.005 C 
HETATM    3  C3  UNL     1      -2.929   5.249  13.683  1.00  0.00     0.013 C 
HETATM    4  C4  UNL     1      -2.162   5.603  12.415  1.00  0.00     0.007 C 
HETATM    5  C5  UNL     1      -1.391   6.941  12.479  1.00  0.00     0.012 C 
HETATM    6  C6  UNL     1      -1.568   7.650  13.856  1.00  0.00     0.027 C 
HETATM    7  C7  UNL     1      -0.861   9.025  13.856  1.00  0.00     0.012 C 
HETATM    8  C8  UNL     1       0.615   8.921  13.479  1.00  0.00     0.036 C 
HETATM    9  C9  UNL     1       0.772   8.200  12.161  1.00  0.00    -0.065 C 
HETATM   10  C10 UNL     1       1.400   8.808  11.137  1.00  0.00     0.009 C 
HETATM   11  C11 UNL     1       1.469   8.276   9.738  1.00  0.00     0.148 C 
HETATM   12  C17 UNL     1       0.307   7.311   9.507  1.00  0.00     0.037 C 
HETATM   13  C18 UNL     1       0.256   6.243  10.600  1.00  0.00     0.024 C 
HETATM   14  C19 UNL     1       0.113   6.820  12.047  1.00  0.00     0.040 C 
HETATM   15  C21 UNL     1      -3.059   7.752  14.295  1.00  0.00     0.070 C 
HETATM   16  C22 UNL     1      -3.894   8.742  13.462  1.00  0.00     0.040 C 
HETATM   17  C23 UNL     1      -5.302   8.170  13.495  1.00  0.00     0.013 C 
HETATM   18  C24 UNL     1      -5.057   6.672  13.279  1.00  0.00     0.028 C 
ENDROOT
BRANCH  11  19
HETATM   19  O1  UNL     1       2.687   7.555   9.566  1.00  0.00    -0.349 OA
BRANCH  19  20
HETATM   20  C12 UNL     1       3.542   7.567  10.714  1.00  0.00     0.291 C 
HETATM   21  O2  UNL     1       3.723   6.263  11.277  1.00  0.00    -0.356 OA
HETATM   22  C13 UNL     1       4.787   5.542  10.647  1.00  0.00     0.205 C 
HETATM   23  C14 UNL     1       6.128   6.169  11.046  1.00  0.00     0.173 C 
HETATM   24  C15 UNL     1       6.018   7.703  11.149  1.00  0.00     0.182 C 
HETATM   25  C16 UNL     1       4.875   8.222  10.279  1.00  0.00     0.204 C 
BRANCH  23  26
HETATM   26  O3  UNL     1       6.533   5.634  12.318  1.00  0.00    -0.391 OA
HETATM   27  H20 UNL     1       5.815   5.810  12.954  1.00  0.00     0.210 HD
ENDBRANCH  23  26
BRANCH  24  28
HETATM   28  O4  UNL     1       7.246   8.316  10.725  1.00  0.00    -0.390 OA
HETATM   29  H22 UNL     1       7.058   9.275  10.700  1.00  0.00     0.210 HD
ENDBRANCH  24  28
BRANCH  25  30
HETATM   30  O5  UNL     1       4.806   9.657  10.372  1.00  0.00    -0.388 OA
HETATM   31  H24 UNL     1       4.151   9.940   9.707  1.00  0.00     0.210 HD
ENDBRANCH  25  30
ENDBRANCH  19  20
ENDBRANCH  11  19
BRANCH  14  32
HETATM   32  C20 UNL     1       0.839   5.804  12.964  1.00  0.00     0.245 C 
HETATM   33  O6  UNL     1       0.930   5.865  14.187  1.00  0.00    -0.306 OA
ENDBRANCH  14  32
BRANCH  15  34
HETATM   34  O7  UNL     1      -3.083   8.224  15.649  1.00  0.00    -0.389 OA
HETATM   35  H30 UNL     1      -2.815   9.158  15.671  1.00  0.00     0.210 HD
ENDBRANCH  15  34
BRANCH  18  36
HETATM   36  C25 UNL     1      -6.288   5.812  13.400  1.00  0.00    -0.045 A 
HETATM   37  C26 UNL     1      -6.470   4.557  12.984  1.00  0.00     0.087 A 
HETATM   38  C27 UNL     1      -7.802   4.143  13.414  1.00  0.00     0.283 A 
HETATM   39  O8  UNL     1      -8.286   3.045  13.213  1.00  0.00    -0.260 OA
HETATM   40  O9  UNL     1      -8.393   5.167  14.085  1.00  0.00    -0.314 OA
HETATM   41  C28 UNL     1      -7.505   6.283  14.107  1.00  0.00     0.213 A 
ENDBRANCH  18  36
TORSDOF 8
ENDMDL
MODEL 3
REMARK minimizedAffinity -8.88735867
REMARK CNNscore 0.560992658
REMARK CNNaffinity 6.97895765
REMARK  8 active torsions:
REMARK  status: ('A' for Active; 'I' for Inactive)
REMARK    1  A    between atoms: C11_11  and  O1_12 
REMARK    2  A    between atoms: O1_12  and  C12_13 
REMARK    3  A    between atoms: C14_16  and  O3_17 
REMARK    4  A    between atoms: C15_18  and  O4_19 
REMARK    5  A    between atoms: C16_20  and  O5_21 
REMARK    6  A    between atoms: C19_24  and  C20_25 
REMARK    7  A    between atoms: C21_27  and  O7_28 
REMARK    8  A    between atoms: C24_31  and  C25_32 
ROOT
HETATM    1  C1  UNL     1     -12.501   7.848  15.514  1.00  0.00     0.019 C 
HETATM    2  C2  UNL     1     -11.142   8.023  14.787  1.00  0.00    -0.005 C 
HETATM    3  C3  UNL     1     -10.942   6.767  13.913  1.00  0.00     0.013 C 
HETATM    4  C4  UNL     1      -9.559   6.636  13.288  1.00  0.00     0.007 C 
HETATM    5  C5  UNL     1      -8.384   6.800  14.280  1.00  0.00     0.012 C 
HETATM    6  C6  UNL     1      -8.882   7.067  15.733  1.00  0.00     0.027 C 
HETATM    7  C7  UNL     1      -7.687   7.316  16.682  1.00  0.00     0.012 C 
HETATM    8  C8  UNL     1      -6.672   6.177  16.651  1.00  0.00     0.036 C 
HETATM    9  C9  UNL     1      -6.227   5.905  15.233  1.00  0.00    -0.065 C 
HETATM   10  C10 UNL     1      -4.920   5.982  14.917  1.00  0.00     0.009 C 
HETATM   11  C11 UNL     1      -4.371   5.908  13.525  1.00  0.00     0.148 C 
HETATM   12  C17 UNL     1      -5.462   6.303  12.529  1.00  0.00     0.037 C 
HETATM   13  C18 UNL     1      -6.736   5.491  12.763  1.00  0.00     0.024 C 
HETATM   14  C19 UNL     1      -7.330   5.639  14.203  1.00  0.00     0.040 C 
HETATM   15  C21 UNL     1      -9.944   8.204  15.808  1.00  0.00     0.070 C 
HETATM   16  C22 UNL     1      -9.379   9.611  15.539  1.00  0.00     0.040 C 
HETATM   17  C23 UNL     1     -10.541  10.374  14.924  1.00  0.00     0.013 C 
HETATM   18  C24 UNL     1     -11.129   9.351  13.945  1.00  0.00     0.028 C 
ENDROOT
BRANCH  11  19
HETATM   19  O1  UNL     1      -3.976   4.568  13.242  1.00  0.00    -0.349 OA
BRANCH  19  20
HETATM   20  C12 UNL     1      -3.148   4.433  12.081  1.00  0.00     0.291 C 
HETATM   21  O2  UNL     1      -1.890   5.099  12.226  1.00  0.00    -0.356 OA
HETATM   22  C13 UNL     1      -0.910   4.275  12.866  1.00  0.00     0.205 C 
HETATM   23  C14 UNL     1      -0.486   3.154  11.908  1.00  0.00     0.173 C 
HETATM   24  C15 UNL     1      -1.683   2.650  11.076  1.00  0.00     0.182 C 
HETATM   25  C16 UNL     1      -2.999   2.918  11.805  1.00  0.00     0.204 C 
BRANCH  23  26
HETATM   26  O3  UNL     1       0.529   3.657  11.023  1.00  0.00    -0.391 OA
HETATM   27  H20 UNL     1       0.167   4.441  10.572  1.00  0.00     0.210 HD
ENDBRANCH  23  26
BRANCH  24  28
HETATM   28  O4  UNL     1      -1.558   1.240  10.837  1.00  0.00    -0.390 OA
HETATM   29  H22 UNL     1      -2.401   0.975  10.419  1.00  0.00     0.210 HD
ENDBRANCH  24  28
BRANCH  25  30
HETATM   30  O5  UNL     1      -4.098   2.418  11.023  1.00  0.00    -0.388 OA
HETATM   31  H24 UNL     1      -4.890   2.500  11.587  1.00  0.00     0.210 HD
ENDBRANCH  25  30
ENDBRANCH  19  20
ENDBRANCH  11  19
BRANCH  14  32
HETATM   32  C20 UNL     1      -8.022   4.285  14.499  1.00  0.00     0.245 C 
HETATM   33  O6  UNL     1      -7.883   3.245  13.861  1.00  0.00    -0.306 OA
ENDBRANCH  14  32
BRANCH  15  34
HETATM   34  O7  UNL     1     -10.475   8.217  17.140  1.00  0.00    -0.389 OA
HETATM   35  H30 UNL     1      -9.799   8.548  17.755  1.00  0.00     0.210 HD
ENDBRANCH  15  34
BRANCH  18  36
HETATM   36  C25 UNL     1     -12.404   9.788  13.272  1.00  0.00    -0.045 A 
HETATM   37  C26 UNL     1     -13.222   9.075  12.496  1.00  0.00     0.087 A 
HETATM   38  C27 UNL     1     -14.361   9.925  12.164  1.00  0.00     0.283 A 
HETATM   39  O8  UNL     1     -15.308   9.581  11.482  1.00  0.00    -0.260 OA
HETATM   40  O9  UNL     1     -14.200  11.139  12.755  1.00  0.00    -0.314 OA
HETATM   41  C28 UNL     1     -12.965  11.148  13.469  1.00  0.00     0.213 A 
ENDBRANCH  18  36
TORSDOF 8
ENDMDL
MODEL 4
REMARK minimizedAffinity -7.23902225
REMARK CNNscore 0.528053939
REMARK CNNaffinity 6.21176147
REMARK  8 active torsions:
REMARK  status: ('A' for Active; 'I' for Inactive)
REMARK    1  A    between atoms: C11_11  and  O1_12 
REMARK    2  A    between atoms: O1_12  and  C12_13 
REMARK    3  A    between atoms: C14_16  and  O3_17 
REMARK    4  A    between atoms: C15_18  and  O4_19 
REMARK    5  A    between atoms: C16_20  and  O5_21 
REMARK    6  A    between atoms: C19_24  and  C20_25 
REMARK    7  A    between atoms: C21_27  and  O7_28 
REMARK    8  A    between atoms: C24_31  and  C25_32 
ROOT
HETATM    1  C1  UNL     1     -15.445   1.492  27.814  1.00  0.00     0.019 C 
HETATM    2  C2  UNL     1     -14.626   2.656  27.197  1.00  0.00    -0.005 C 
HETATM    3  C3  UNL     1     -15.561   3.884  27.156  1.00  0.00     0.013 C 
HETATM    4  C4  UNL     1     -15.019   5.075  26.376  1.00  0.00     0.007 C 
HETATM    5  C5  UNL     1     -14.504   4.737  24.958  1.00  0.00     0.012 C 
HETATM    6  C6  UNL     1     -14.658   3.221  24.629  1.00  0.00     0.027 C 
HETATM    7  C7  UNL     1     -14.053   2.900  23.243  1.00  0.00     0.012 C 
HETATM    8  C8  UNL     1     -14.647   3.764  22.133  1.00  0.00     0.036 C 
HETATM    9  C9  UNL     1     -14.525   5.228  22.483  1.00  0.00    -0.065 C 
HETATM   10  C10 UNL     1     -13.868   6.061  21.653  1.00  0.00     0.009 C 
HETATM   11  C11 UNL     1     -13.528   7.486  21.964  1.00  0.00     0.148 C 
HETATM   12  C17 UNL     1     -13.504   7.681  23.480  1.00  0.00     0.037 C 
HETATM   13  C18 UNL     1     -14.798   7.174  24.118  1.00  0.00     0.024 C 
HETATM   14  C19 UNL     1     -15.096   5.664  23.837  1.00  0.00     0.040 C 
HETATM   15  C21 UNL     1     -14.090   2.300  25.749  1.00  0.00     0.070 C 
HETATM   16  C22 UNL     1     -12.554   2.317  25.860  1.00  0.00     0.040 C 
HETATM   17  C23 UNL     1     -12.278   2.043  27.330  1.00  0.00     0.013 C 
HETATM   18  C24 UNL     1     -13.320   2.921  28.032  1.00  0.00     0.028 C 
ENDROOT
BRANCH  11  19
HETATM   19  O1  UNL     1     -14.532   8.341  21.422  1.00  0.00    -0.349 OA
BRANCH  19  20
HETATM   20  C12 UNL     1     -14.025   9.364  20.557  1.00  0.00     0.291 C 
HETATM   21  O2  UNL     1     -13.469  10.467  21.280  1.00  0.00    -0.356 OA
HETATM   22  C13 UNL     1     -12.096  10.254  21.626  1.00  0.00     0.205 C 
HETATM   23  C14 UNL     1     -11.237  10.333  20.358  1.00  0.00     0.173 C 
HETATM   24  C15 UNL     1     -11.967   9.715  19.149  1.00  0.00     0.182 C 
HETATM   25  C16 UNL     1     -13.003   8.690  19.610  1.00  0.00     0.204 C 
BRANCH  23  26
HETATM   26  O3  UNL     1     -10.942  11.713  20.081  1.00  0.00    -0.391 OA
HETATM   27  H20 UNL     1     -11.790  12.188  20.008  1.00  0.00     0.210 HD
ENDBRANCH  23  26
BRANCH  24  28
HETATM   28  O4  UNL     1     -11.024   9.070  18.279  1.00  0.00    -0.390 OA
HETATM   29  H22 UNL     1     -11.568   8.604  17.614  1.00  0.00     0.210 HD
ENDBRANCH  24  28
BRANCH  25  30
HETATM   30  O5  UNL     1     -13.655   8.110  18.466  1.00  0.00    -0.388 OA
HETATM   31  H24 UNL     1     -14.206   7.382  18.810  1.00  0.00     0.210 HD
ENDBRANCH  25  30
ENDBRANCH  19  20
ENDBRANCH  11  19
BRANCH  14  32
HETATM   32  C20 UNL     1     -16.641   5.549  23.827  1.00  0.00     0.245 C 
HETATM   33  O6  UNL     1     -17.431   6.345  24.327  1.00  0.00    -0.306 OA
ENDBRANCH  14  32
BRANCH  15  34
HETATM   34  O7  UNL     1     -14.470   0.952  25.439  1.00  0.00    -0.389 OA
HETATM   35  H30 UNL     1     -13.966   0.643  24.667  1.00  0.00     0.210 HD
ENDBRANCH  15  34
BRANCH  18  36
HETATM   36  C25 UNL     1     -13.376   2.752  29.528  1.00  0.00    -0.045 A 
HETATM   37  C26 UNL     1     -12.388   2.437  30.367  1.00  0.00     0.087 A 
HETATM   38  C27 UNL     1     -12.932   2.481  31.720  1.00  0.00     0.283 A 
HETATM   39  O8  UNL     1     -12.294   2.261  32.733  1.00  0.00    -0.260 OA
HETATM   40  O9  UNL     1     -14.246   2.826  31.662  1.00  0.00    -0.314 OA
HETATM   41  C28 UNL     1     -14.622   2.998  30.297  1.00  0.00     0.213 A 
ENDBRANCH  18  36
TORSDOF 8
ENDMDL
MODEL 5
REMARK minimizedAffinity -7.07333422
REMARK CNNscore 0.388117701
REMARK CNNaffinity 6.25465155
REMARK  8 active torsions:
REMARK  status: ('A' for Active; 'I' for Inactive)
REMARK    1  A    between atoms: C11_11  and  O1_12 
REMARK    2  A    between atoms: O1_12  and  C12_13 
REMARK    3  A    between atoms: C14_16  and  O3_17 
REMARK    4  A    between atoms: C15_18  and  O4_19 
REMARK    5  A    between atoms: C16_20  and  O5_21 
REMARK    6  A    between atoms: C19_24  and  C20_25 
REMARK    7  A    between atoms: C21_27  and  O7_28 
REMARK    8  A    between atoms: C24_31  and  C25_32 
ROOT
HETATM    1  C1  UNL     1     -16.534   3.189  25.073  1.00  0.00     0.019 C 
HETATM    2  C2  UNL     1     -15.170   3.925  25.104  1.00  0.00    -0.005 C 
HETATM    3  C3  UNL     1     -15.404   5.264  25.836  1.00  0.00     0.013 C 
HETATM    4  C4  UNL     1     -14.237   6.240  25.775  1.00  0.00     0.007 C 
HETATM    5  C5  UNL     1     -13.676   6.488  24.356  1.00  0.00     0.012 C 
HETATM    6  C6  UNL     1     -14.447   5.670  23.275  1.00  0.00     0.027 C 
HETATM    7  C7  UNL     1     -13.806   5.869  21.882  1.00  0.00     0.012 C 
HETATM    8  C8  UNL     1     -13.711   7.342  21.490  1.00  0.00     0.036 C 
HETATM    9  C9  UNL     1     -12.995   8.127  22.563  1.00  0.00    -0.065 C 
HETATM   10  C10 UNL     1     -11.883   8.822  22.254  1.00  0.00     0.009 C 
HETATM   11  C11 UNL     1     -10.990   9.493  23.251  1.00  0.00     0.148 C 
HETATM   12  C17 UNL     1     -11.168   8.831  24.617  1.00  0.00     0.037 C 
HETATM   13  C18 UNL     1     -12.645   8.776  25.011  1.00  0.00     0.024 C 
HETATM   14  C19 UNL     1     -13.547   8.009  23.988  1.00  0.00     0.040 C 
HETATM   15  C21 UNL     1     -14.594   4.165  23.648  1.00  0.00     0.070 C 
HETATM   16  C22 UNL     1     -13.276   3.370  23.586  1.00  0.00     0.040 C 
HETATM   17  C23 UNL     1     -13.444   2.279  24.632  1.00  0.00     0.013 C 
HETATM   18  C24 UNL     1     -14.075   3.040  25.805  1.00  0.00     0.028 C 
ENDROOT
BRANCH  11  19
HETATM   19  O1  UNL     1     -11.361  10.865  23.370  1.00  0.00    -0.349 OA
BRANCH  19  20
HETATM   20  C12 UNL     1     -10.318  11.786  23.028  1.00  0.00     0.291 C 
HETATM   21  O2  UNL     1     -10.564  12.455  21.787  1.00  0.00    -0.356 OA
HETATM   22  C13 UNL     1     -11.372  13.625  21.951  1.00  0.00     0.205 C 
HETATM   23  C14 UNL     1     -10.552  14.711  22.657  1.00  0.00     0.173 C 
HETATM   24  C15 UNL     1      -9.622  14.102  23.726  1.00  0.00     0.182 C 
HETATM   25  C16 UNL     1     -10.169  12.763  24.218  1.00  0.00     0.204 C 
BRANCH  23  26
HETATM   26  O3  UNL     1      -9.760  15.407  21.679  1.00  0.00    -0.391 OA
HETATM   27  H20 UNL     1      -9.215  14.746  21.215  1.00  0.00     0.210 HD
ENDBRANCH  23  26
BRANCH  24  28
HETATM   28  O4  UNL     1      -9.499  14.998  24.841  1.00  0.00    -0.390 OA
HETATM   29  H22 UNL     1      -9.003  14.496  25.519  1.00  0.00     0.210 HD
ENDBRANCH  24  28
BRANCH  25  30
HETATM   30  O5  UNL     1      -9.299  12.226  25.230  1.00  0.00    -0.388 OA
HETATM   31  H24 UNL     1      -9.758  11.445  25.594  1.00  0.00     0.210 HD
ENDBRANCH  25  30
ENDBRANCH  19  20
ENDBRANCH  11  19
BRANCH  14  32
HETATM   32  C20 UNL     1     -14.936   8.688  24.082  1.00  0.00     0.245 C 
HETATM   33  O6  UNL     1     -15.965   8.316  23.525  1.00  0.00    -0.306 OA
ENDBRANCH  14  32
BRANCH  15  34
HETATM   34  O7  UNL     1     -15.487   3.566  22.698  1.00  0.00    -0.389 OA
HETATM   35  H30 UNL     1     -15.045   3.505  21.834  1.00  0.00     0.210 HD
ENDBRANCH  15  34
BRANCH  18  36
HETATM   36  C25 UNL     1     -14.488   2.171  26.965  1.00  0.00    -0.045 A 
HETATM   37  C26 UNL     1     -15.123   0.999  26.941  1.00  0.00     0.087 A 
HETATM   38  C27 UNL     1     -15.212   0.521  28.317  1.00  0.00     0.283 A 
HETATM   39  O8  UNL     1     -15.720  -0.532  28.655  1.00  0.00    -0.260 OA
HETATM   40  O9  UNL     1     -14.621   1.425  29.143  1.00  0.00    -0.314 OA
HETATM   41  C28 UNL     1     -14.147   2.524  28.366  1.00  0.00     0.213 A 
ENDBRANCH  18  36
TORSDOF 8
ENDMDL
MODEL 6
REMARK minimizedAffinity -7.99782801
REMARK CNNscore 0.356376857
REMARK CNNaffinity 6.54955864
REMARK  8 active torsions:
REMARK  status: ('A' for Active; 'I' for Inactive)
REMARK    1  A    between atoms: C11_11  and  O1_12 
REMARK    2  A    between atoms: O1_12  and  C12_13 
REMARK    3  A    between atoms: C14_16  and  O3_17 
REMARK    4  A    between atoms: C15_18  and  O4_19 
REMARK    5  A    between atoms: C16_20  and  O5_21 
REMARK    6  A    between atoms: C19_24  and  C20_25 
REMARK    7  A    between atoms: C21_27  and  O7_28 
REMARK    8  A    between atoms: C24_31  and  C25_32 
ROOT
HETATM    1  C1  UNL     1     -14.030   8.513  15.338  1.00  0.00     0.019 C 
HETATM    2  C2  UNL     1     -12.809   8.249  14.418  1.00  0.00    -0.005 C 
HETATM    3  C3  UNL     1     -12.225   6.883  14.836  1.00  0.00     0.013 C 
HETATM    4  C4  UNL     1     -10.882   6.541  14.206  1.00  0.00     0.007 C 
HETATM    5  C5  UNL     1      -9.811   7.650  14.328  1.00  0.00     0.012 C 
HETATM    6  C6  UNL     1     -10.351   8.899  15.088  1.00  0.00     0.027 C 
HETATM    7  C7  UNL     1      -9.288  10.022  15.115  1.00  0.00     0.012 C 
HETATM    8  C8  UNL     1      -7.960   9.554  15.704  1.00  0.00     0.036 C 
HETATM    9  C9  UNL     1      -7.469   8.321  14.983  1.00  0.00    -0.065 C 
HETATM   10  C10 UNL     1      -6.260   8.332  14.389  1.00  0.00     0.009 C 
HETATM   11  C11 UNL     1      -5.734   7.247  13.501  1.00  0.00     0.148 C 
HETATM   12  C17 UNL     1      -6.905   6.455  12.920  1.00  0.00     0.037 C 
HETATM   13  C18 UNL     1      -7.847   5.981  14.027  1.00  0.00     0.024 C 
HETATM   14  C19 UNL     1      -8.440   7.138  14.898  1.00  0.00     0.040 C 
HETATM   15  C21 UNL     1     -11.721   9.394  14.538  1.00  0.00     0.070 C 
HETATM   16  C22 UNL     1     -11.642  10.040  13.141  1.00  0.00     0.040 C 
HETATM   17  C23 UNL     1     -12.996   9.748  12.514  1.00  0.00     0.013 C 
HETATM   18  C24 UNL     1     -13.234   8.284  12.905  1.00  0.00     0.028 C 
ENDROOT
BRANCH  11  19
HETATM   19  O1  UNL     1      -4.931   6.353  14.270  1.00  0.00    -0.349 OA
BRANCH  19  20
HETATM   20  C12 UNL     1      -3.524   6.603  14.177  1.00  0.00     0.291 C 
HETATM   21  O2  UNL     1      -3.136   7.083  12.887  1.00  0.00    -0.356 OA
HETATM   22  C13 UNL     1      -3.268   8.504  12.774  1.00  0.00     0.205 C 
HETATM   23  C14 UNL     1      -2.186   9.182  13.623  1.00  0.00     0.173 C 
HETATM   24  C15 UNL     1      -1.932   8.402  14.929  1.00  0.00     0.182 C 
HETATM   25  C16 UNL     1      -3.163   7.585  15.318  1.00  0.00     0.204 C 
BRANCH  23  26
HETATM   26  O3  UNL     1      -0.967   9.245  12.862  1.00  0.00    -0.391 OA
HETATM   27  H20 UNL     1      -0.740   8.337  12.592  1.00  0.00     0.210 HD
ENDBRANCH  23  26
BRANCH  24  28
HETATM   28  O4  UNL     1      -1.617   9.312  15.994  1.00  0.00    -0.390 OA
HETATM   29  H22 UNL     1      -1.593   8.762  16.802  1.00  0.00     0.210 HD
ENDBRANCH  24  28
BRANCH  25  30
HETATM   30  O5  UNL     1      -2.911   6.885  16.550  1.00  0.00    -0.388 OA
HETATM   31  H24 UNL     1      -3.762   6.487  16.813  1.00  0.00     0.210 HD
ENDBRANCH  25  30
ENDBRANCH  19  20
ENDBRANCH  11  19
BRANCH  14  32
HETATM   32  C20 UNL     1      -8.655   6.522  16.302  1.00  0.00     0.245 C 
HETATM   33  O6  UNL     1      -7.968   6.729  17.299  1.00  0.00    -0.306 OA
ENDBRANCH  14  32
BRANCH  15  34
HETATM   34  O7  UNL     1     -12.212  10.401  15.434  1.00  0.00    -0.389 OA
HETATM   35  H30 UNL     1     -11.671  11.204  15.346  1.00  0.00     0.210 HD
ENDBRANCH  15  34
BRANCH  18  36
HETATM   36  C25 UNL     1     -14.590   7.748  12.526  1.00  0.00    -0.045 A 
HETATM   37  C26 UNL     1     -15.075   6.518  12.698  1.00  0.00     0.087 A 
HETATM   38  C27 UNL     1     -16.463   6.527  12.245  1.00  0.00     0.283 A 
HETATM   39  O8  UNL     1     -17.210   5.567  12.276  1.00  0.00    -0.260 OA
HETATM   40  O9  UNL     1     -16.782   7.775  11.809  1.00  0.00    -0.314 OA
HETATM   41  C28 UNL     1     -15.637   8.617  11.933  1.00  0.00     0.213 A 
ENDBRANCH  18  36
TORSDOF 8
ENDMDL
MODEL 7
REMARK minimizedAffinity -10.0159931
REMARK CNNscore 0.326004863
REMARK CNNaffinity 6.44597769
REMARK  8 active torsions:
REMARK  status: ('A' for Active; 'I' for Inactive)
REMARK    1  A    between atoms: C11_11  and  O1_12 
REMARK    2  A    between atoms: O1_12  and  C12_13 
REMARK    3  A    between atoms: C14_16  and  O3_17 
REMARK    4  A    between atoms: C15_18  and  O4_19 
REMARK    5  A    between atoms: C16_20  and  O5_21 
REMARK    6  A    between atoms: C19_24  and  C20_25 
REMARK    7  A    between atoms: C21_27  and  O7_28 
REMARK    8  A    between atoms: C24_31  and  C25_32 
ROOT
HETATM    1  C1  UNL     1       1.904   7.624  12.646  1.00  0.00     0.019 C 
HETATM    2  C2  UNL     1       0.450   7.189  12.325  1.00  0.00    -0.005 C 
HETATM    3  C3  UNL     1      -0.405   8.474  12.316  1.00  0.00     0.013 C 
HETATM    4  C4  UNL     1      -1.909   8.240  12.243  1.00  0.00     0.007 C 
HETATM    5  C5  UNL     1      -2.456   7.231  13.278  1.00  0.00     0.012 C 
HETATM    6  C6  UNL     1      -1.327   6.663  14.190  1.00  0.00     0.027 C 
HETATM    7  C7  UNL     1      -1.890   5.591  15.152  1.00  0.00     0.012 C 
HETATM    8  C8  UNL     1      -3.058   6.113  15.986  1.00  0.00     0.036 C 
HETATM    9  C9  UNL     1      -4.126   6.694  15.091  1.00  0.00    -0.065 C 
HETATM   10  C10 UNL     1      -5.380   6.204  15.142  1.00  0.00     0.009 C 
HETATM   11  C11 UNL     1      -6.480   6.568  14.193  1.00  0.00     0.148 C 
HETATM   12  C17 UNL     1      -5.874   7.084  12.889  1.00  0.00     0.037 C 
HETATM   13  C18 UNL     1      -4.861   8.197  13.158  1.00  0.00     0.024 C 
HETATM   14  C19 UNL     1      -3.682   7.772  14.096  1.00  0.00     0.040 C 
HETATM   15  C21 UNL     1      -0.101   6.145  13.382  1.00  0.00     0.070 C 
HETATM   16  C22 UNL     1      -0.371   4.854  12.586  1.00  0.00     0.040 C 
HETATM   17  C23 UNL     1       0.552   4.951  11.382  1.00  0.00     0.013 C 
HETATM   18  C24 UNL     1       0.390   6.416  10.958  1.00  0.00     0.028 C 
ENDROOT
BRANCH  11  19
HETATM   19  O1  UNL     1      -7.267   7.613  14.761  1.00  0.00    -0.349 OA
BRANCH  19  20
HETATM   20  C12 UNL     1      -8.523   7.177  15.294  1.00  0.00     0.291 C 
HETATM   21  O2  UNL     1      -9.050   8.085  16.266  1.00  0.00    -0.356 OA
HETATM   22  C13 UNL     1      -9.813   9.139  15.669  1.00  0.00     0.205 C 
HETATM   23  C14 UNL     1     -11.129   8.567  15.127  1.00  0.00     0.173 C 
HETATM   24  C15 UNL     1     -10.924   7.157  14.538  1.00  0.00     0.182 C 
HETATM   25  C16 UNL     1      -9.475   6.964  14.093  1.00  0.00     0.204 C 
BRANCH  23  26
HETATM   26  O3  UNL     1     -12.084   8.499  16.201  1.00  0.00    -0.391 OA
HETATM   27  H20 UNL     1     -11.689   7.965  16.913  1.00  0.00     0.210 HD
ENDBRANCH  23  26
BRANCH  24  28
HETATM   28  O4  UNL     1     -11.790   6.964  13.409  1.00  0.00    -0.390 OA
HETATM   29  H22 UNL     1     -11.518   6.109  13.021  1.00  0.00     0.210 HD
ENDBRANCH  24  28
BRANCH  25  30
HETATM   30  O5  UNL     1      -9.313   5.651  13.525  1.00  0.00    -0.388 OA
HETATM   31  H24 UNL     1      -8.413   5.630  13.148  1.00  0.00     0.210 HD
ENDBRANCH  25  30
ENDBRANCH  19  20
ENDBRANCH  11  19
BRANCH  14  32
HETATM   32  C20 UNL     1      -3.277   9.062  14.851  1.00  0.00     0.245 C 
HETATM   33  O6  UNL     1      -4.001  10.029  15.077  1.00  0.00    -0.306 OA
ENDBRANCH  14  32
BRANCH  15  34
HETATM   34  O7  UNL     1       0.944   5.845  14.318  1.00  0.00    -0.389 OA
HETATM   35  H30 UNL     1       0.704   5.053  14.827  1.00  0.00     0.210 HD
ENDBRANCH  15  34
BRANCH  18  36
HETATM   36  C25 UNL     1       1.307   6.850   9.845  1.00  0.00    -0.045 A 
HETATM   37  C26 UNL     1       1.258   7.964   9.113  1.00  0.00     0.087 A 
HETATM   38  C27 UNL     1       2.418   7.957   8.227  1.00  0.00     0.283 A 
HETATM   39  O8  UNL     1       2.690   8.838   7.432  1.00  0.00    -0.260 OA
HETATM   40  O9  UNL     1       3.144   6.830   8.450  1.00  0.00    -0.314 OA
HETATM   41  C28 UNL     1       2.497   6.052   9.455  1.00  0.00     0.213 A 
ENDBRANCH  18  36
TORSDOF 8
ENDMDL
MODEL 8
REMARK minimizedAffinity -7.0209837
REMARK CNNscore 0.2858257
REMARK CNNaffinity 6.09241915
REMARK  8 active torsions:
REMARK  status: ('A' for Active; 'I' for Inactive)
REMARK    1  A    between atoms: C11_11  and  O1_12 
REMARK    2  A    between atoms: O1_12  and  C12_13 
REMARK    3  A    between atoms: C14_16  and  O3_17 
REMARK    4  A    between atoms: C15_18  and  O4_19 
REMARK    5  A    between atoms: C16_20  and  O5_21 
REMARK    6  A    between atoms: C19_24  and  C20_25 
REMARK    7  A    between atoms: C21_27  and  O7_28 
REMARK    8  A    between atoms: C24_31  and  C25_32 
ROOT
HETATM    1  C1  UNL     1      -5.023 -12.712   3.309  1.00  0.00     0.019 C 
HETATM    2  C2  UNL     1      -5.391 -11.340   2.686  1.00  0.00    -0.005 C 
HETATM    3  C3  UNL     1      -6.924 -11.331   2.506  1.00  0.00     0.013 C 
HETATM    4  C4  UNL     1      -7.466 -10.159   1.698  1.00  0.00     0.007 C 
HETATM    5  C5  UNL     1      -6.758  -9.926   0.343  1.00  0.00     0.012 C 
HETATM    6  C6  UNL     1      -5.623 -10.965   0.094  1.00  0.00     0.027 C 
HETATM    7  C7  UNL     1      -4.877 -10.651  -1.224  1.00  0.00     0.012 C 
HETATM    8  C8  UNL     1      -5.819 -10.571  -2.422  1.00  0.00     0.036 C 
HETATM    9  C9  UNL     1      -6.934  -9.589  -2.151  1.00  0.00    -0.065 C 
HETATM   10  C10 UNL     1      -7.119  -8.543  -2.979  1.00  0.00     0.009 C 
HETATM   11  C11 UNL     1      -8.068  -7.411  -2.728  1.00  0.00     0.148 C 
HETATM   12  C17 UNL     1      -8.345  -7.306  -1.229  1.00  0.00     0.037 C 
HETATM   13  C18 UNL     1      -8.786  -8.655  -0.658  1.00  0.00     0.024 C 
HETATM   14  C19 UNL     1      -7.748  -9.806  -0.870  1.00  0.00     0.040 C 
HETATM   15  C21 UNL     1      -4.653 -11.101   1.304  1.00  0.00     0.070 C 
HETATM   16  C22 UNL     1      -3.746  -9.876   1.525  1.00  0.00     0.040 C 
HETATM   17  C23 UNL     1      -3.496  -9.856   3.025  1.00  0.00     0.013 C 
HETATM   18  C24 UNL     1      -4.886 -10.162   3.597  1.00  0.00     0.028 C 
ENDROOT
BRANCH  11  19
HETATM   19  O1  UNL     1      -9.303  -7.673  -3.391  1.00  0.00    -0.349 OA
BRANCH  19  20
HETATM   20  C12 UNL     1      -9.389  -7.120  -4.709  1.00  0.00     0.291 C 
HETATM   21  O2  UNL     1     -10.238  -7.884  -5.570  1.00  0.00    -0.356 OA
HETATM   22  C13 UNL     1     -11.613  -7.504  -5.456  1.00  0.00     0.205 C 
HETATM   23  C14 UNL     1     -11.808  -6.119  -6.086  1.00  0.00     0.173 C 
HETATM   24  C15 UNL     1     -10.596  -5.206  -5.814  1.00  0.00     0.182 C 
HETATM   25  C16 UNL     1      -9.856  -5.652  -4.554  1.00  0.00     0.204 C 
BRANCH  23  26
HETATM   26  O3  UNL     1     -11.979  -6.273  -7.505  1.00  0.00    -0.391 OA
HETATM   27  H20 UNL     1     -11.202  -6.750  -7.847  1.00  0.00     0.210 HD
ENDBRANCH  23  26
BRANCH  24  28
HETATM   28  O4  UNL     1     -11.028  -3.847  -5.648  1.00  0.00    -0.390 OA
HETATM   29  H22 UNL     1     -10.232  -3.359  -5.360  1.00  0.00     0.210 HD
ENDBRANCH  24  28
BRANCH  25  30
HETATM   30  O5  UNL     1      -8.744  -4.773  -4.307  1.00  0.00    -0.388 OA
HETATM   31  H24 UNL     1      -8.390  -5.025  -3.433  1.00  0.00     0.210 HD
ENDBRANCH  25  30
ENDBRANCH  19  20
ENDBRANCH  11  19
BRANCH  14  32
HETATM   32  C20 UNL     1      -8.592 -11.099  -0.986  1.00  0.00     0.245 C 
HETATM   33  O6  UNL     1      -8.174 -12.215  -1.285  1.00  0.00    -0.306 OA
ENDBRANCH  14  32
BRANCH  15  34
HETATM   34  O7  UNL     1      -3.789 -12.217   1.047  1.00  0.00    -0.389 OA
HETATM   35  H30 UNL     1      -3.171 -11.989   0.333  1.00  0.00     0.210 HD
ENDBRANCH  15  34
BRANCH  18  36
HETATM   36  C25 UNL     1      -4.921 -10.342   5.092  1.00  0.00    -0.045 A 
HETATM   37  C26 UNL     1      -5.983 -10.423   5.895  1.00  0.00     0.087 A 
HETATM   38  C27 UNL     1      -5.493 -10.684   7.244  1.00  0.00     0.283 A 
HETATM   39  O8  UNL     1      -6.200 -10.830   8.224  1.00  0.00    -0.260 OA
HETATM   40  O9  UNL     1      -4.136 -10.757   7.220  1.00  0.00    -0.314 OA
HETATM   41  C28 UNL     1      -3.682 -10.530   5.886  1.00  0.00     0.213 A 
ENDBRANCH  18  36
TORSDOF 8
ENDMDL
MODEL 9
REMARK minimizedAffinity -8.51400757
REMARK CNNscore 0.275705427
REMARK CNNaffinity 5.94413376
REMARK  8 active torsions:
REMARK  status: ('A' for Active; 'I' for Inactive)
REMARK    1  A    between atoms: C11_11  and  O1_12 
REMARK    2  A    between atoms: O1_12  and  C12_13 
REMARK    3  A    between atoms: C14_16  and  O3_17 
REMARK    4  A    between atoms: C15_18  and  O4_19 
REMARK    5  A    between atoms: C16_20  and  O5_21 
REMARK    6  A    between atoms: C19_24  and  C20_25 
REMARK    7  A    between atoms: C21_27  and  O7_28 
REMARK    8  A    between atoms: C24_31  and  C25_32 
ROOT
HETATM    1  C1  UNL     1       0.165   5.591  11.066  1.00  0.00     0.019 C 
HETATM    2  C2  UNL     1       0.658   6.951  11.625  1.00  0.00    -0.005 C 
HETATM    3  C3  UNL     1       1.974   6.668  12.381  1.00  0.00     0.013 C 
HETATM    4  C4  UNL     1       2.506   7.838  13.199  1.00  0.00     0.007 C 
HETATM    5  C5  UNL     1       1.468   8.491  14.141  1.00  0.00     0.012 C 
HETATM    6  C6  UNL     1       0.077   7.794  14.047  1.00  0.00     0.027 C 
HETATM    7  C7  UNL     1      -0.960   8.525  14.931  1.00  0.00     0.012 C 
HETATM    8  C8  UNL     1      -0.505   8.647  16.383  1.00  0.00     0.036 C 
HETATM    9  C9  UNL     1       0.859   9.290  16.455  1.00  0.00    -0.065 C 
HETATM   10  C10 UNL     1       1.029  10.420  17.168  1.00  0.00     0.009 C 
HETATM   11  C11 UNL     1       2.279  11.246  17.178  1.00  0.00     0.148 C 
HETATM   12  C17 UNL     1       3.073  10.977  15.900  1.00  0.00     0.037 C 
HETATM   13  C18 UNL     1       3.294   9.478  15.698  1.00  0.00     0.024 C 
HETATM   14  C19 UNL     1       1.971   8.645  15.620  1.00  0.00     0.040 C 
HETATM   15  C21 UNL     1      -0.414   7.621  12.579  1.00  0.00     0.070 C 
HETATM   16  C22 UNL     1      -0.814   8.940  11.891  1.00  0.00     0.040 C 
HETATM   17  C23 UNL     1      -0.517   8.703  10.418  1.00  0.00     0.013 C 
HETATM   18  C24 UNL     1       0.843   7.995  10.465  1.00  0.00     0.028 C 
ENDROOT
BRANCH  11  19
HETATM   19  O1  UNL     1       3.086  10.868  18.291  1.00  0.00    -0.349 OA
BRANCH  19  20
HETATM   20  C12 UNL     1       2.371  10.774  19.528  1.00  0.00     0.291 C 
HETATM   21  O2  UNL     1       2.827   9.690  20.344  1.00  0.00    -0.356 OA
HETATM   22  C13 UNL     1       3.943  10.056  21.161  1.00  0.00     0.205 C 
HETATM   23  C14 UNL     1       3.471  11.011  22.264  1.00  0.00     0.173 C 
HETATM   24  C15 UNL     1       2.384  11.971  21.743  1.00  0.00     0.182 C 
HETATM   25  C16 UNL     1       2.500  12.148  20.230  1.00  0.00     0.204 C 
BRANCH  23  26
HETATM   26  O3  UNL     1       2.940  10.237  23.354  1.00  0.00    -0.391 OA
HETATM   27  H20 UNL     1       2.232   9.672  22.997  1.00  0.00     0.210 HD
ENDBRANCH  23  26
BRANCH  24  28
HETATM   28  O4  UNL     1       2.513  13.254  22.376  1.00  0.00    -0.390 OA
HETATM   29  H22 UNL     1       1.879  13.834  21.911  1.00  0.00     0.210 HD
ENDBRANCH  24  28
BRANCH  25  30
HETATM   30  O5  UNL     1       1.491  13.066  19.770  1.00  0.00    -0.388 OA
HETATM   31  H24 UNL     1       1.690  13.237  18.830  1.00  0.00     0.210 HD
ENDBRANCH  25  30
ENDBRANCH  19  20
ENDBRANCH  11  19
BRANCH  14  32
HETATM   32  C20 UNL     1       2.333   7.253  16.196  1.00  0.00     0.245 C 
HETATM   33  O6  UNL     1       3.446   6.734  16.195  1.00  0.00    -0.306 OA
ENDBRANCH  14  32
BRANCH  15  34
HETATM   34  O7  UNL     1      -1.585   6.794  12.606  1.00  0.00    -0.389 OA
HETATM   35  H30 UNL     1      -2.324   7.291  12.995  1.00  0.00     0.210 HD
ENDBRANCH  15  34
BRANCH  18  36
HETATM   36  C25 UNL     1       1.340   7.507   9.130  1.00  0.00    -0.045 A 
HETATM   37  C26 UNL     1       1.006   7.934   7.911  1.00  0.00     0.087 A 
HETATM   38  C27 UNL     1       1.827   7.202   6.950  1.00  0.00     0.283 A 
HETATM   39  O8  UNL     1       1.789   7.358   5.744  1.00  0.00    -0.260 OA
HETATM   40  O9  UNL     1       2.643   6.347   7.621  1.00  0.00    -0.314 OA
HETATM   41  C28 UNL     1       2.386   6.459   9.020  1.00  0.00     0.213 A 
ENDBRANCH  18  36
TORSDOF 8
ENDMDL
