MODEL 1
REMARK minimizedAffinity -8.15330505
REMARK CNNscore 0.44284749
REMARK CNNaffinity 6.18883848
REMARK  13 active torsions:
REMARK  status: ('A' for Active; 'I' for Inactive)
REMARK    1  A    between atoms: C3_3  and  O1_4 
REMARK    2  A    between atoms: N1_14  and  O2_16 
REMARK    3  A    between atoms: O2_16  and  C13_17 
REMARK    4  A    between atoms: C13_17  and  C14_18 
REMARK       I    between atoms: C14_18  and  N2_20 
REMARK    5  A    between atoms: N2_20  and  C15_21 
REMARK    6  A    between atoms: C15_21  and  C16_22 
REMARK    7  A    between atoms: C15_21  and  C21_33 
REMARK       I    between atoms: C16_22  and  N3_24 
REMARK    8  A    between atoms: N3_24  and  C17_25 
REMARK    9  A    between atoms: C17_25  and  C18_26 
REMARK   10  A    between atoms: C17_25  and  C20_30 
REMARK   11  A    between atoms: C18_26  and  C19_27 
REMARK   12  A    between atoms: C19_27  and  O6_29 
REMARK   13  A    between atoms: C20_30  and  O8_32 
ROOT
HETATM    1  C1  UNL     1       0.834  50.753 -26.334  1.00  0.00     0.015 C 
HETATM    2  C2  UNL     1      -0.316  51.097 -26.294  1.00  0.00    -0.078 C 
HETATM    3  C3  UNL     1      -1.731  51.531 -26.259  1.00  0.00     0.128 C 
HETATM    4  C4  UNL     1      -2.481  50.951 -27.464  1.00  0.00     0.052 C 
HETATM    5  C5  UNL     1      -3.053  49.612 -26.995  1.00  0.00     0.010 C 
HETATM    6  C6  UNL     1      -2.822  49.523 -25.467  1.00  0.00     0.002 C 
HETATM    7  C7  UNL     1      -3.988  48.802 -24.749  1.00  0.00    -0.004 C 
HETATM    8  C8  UNL     1      -3.523  48.188 -23.404  1.00  0.00     0.010 C 
HETATM    9  C9  UNL     1      -4.619  48.062 -22.349  1.00  0.00     0.035 C 
HETATM   10  C10 UNL     1      -5.936  47.783 -23.009  1.00  0.00    -0.069 C 
HETATM   11  C11 UNL     1      -6.559  46.606 -22.829  1.00  0.00     0.030 C 
HETATM   12  C12 UNL     1      -7.831  46.282 -23.523  1.00  0.00     0.032 C 
HETATM   13  N1  UNL     1      -8.442  45.184 -23.180  1.00  0.00    -0.271 N 
ATOM     14  H1  UNL     1      -8.090  44.524 -22.487  1.00  0.00     0.194 HD
HETATM   15  C24 UNL     1      -8.358  47.255 -24.561  1.00  0.00     0.060 C 
HETATM   16  C25 UNL     1      -7.274  48.202 -25.066  1.00  0.00     0.020 C 
HETATM   17  C26 UNL     1      -6.452  48.882 -23.933  1.00  0.00    -0.016 C 
HETATM   18  C27 UNL     1      -7.387  49.807 -23.124  1.00  0.00     0.020 C 
HETATM   19  C28 UNL     1      -5.261  49.681 -24.611  1.00  0.00     0.002 C 
HETATM   20  C29 UNL     1      -4.896  51.038 -23.979  1.00  0.00     0.007 C 
HETATM   21  C30 UNL     1      -3.851  51.778 -24.820  1.00  0.00     0.014 C 
HETATM   22  C31 UNL     1      -2.533  50.985 -25.030  1.00  0.00     0.003 C 
HETATM   23  C32 UNL     1      -1.710  51.086 -23.729  1.00  0.00     0.020 C 
ENDROOT
BRANCH   3  24
HETATM   24  O1  UNL     1      -1.763  52.951 -26.320  1.00  0.00    -0.377 OA
HETATM   25  H2  UNL     1      -1.166  53.276 -25.623  1.00  0.00     0.211 HD
ENDBRANCH   3  24
BRANCH  13  26
HETATM   26  O2  UNL     1      -9.644  45.022 -23.882  1.00  0.00    -0.271 OA
BRANCH  26  27
HETATM   27  C13 UNL     1     -10.733  45.001 -22.962  1.00  0.00     0.303 C 
BRANCH  27  28
HETATM   28  C14 UNL     1     -12.054  44.721 -23.675  1.00  0.00     0.244 C 
HETATM   29  O3  UNL     1     -12.759  43.751 -23.398  1.00  0.00    -0.271 OA
HETATM   30  N2  UNL     1     -12.392  45.631 -24.646  1.00  0.00    -0.346 N 
HETATM   31  H16 UNL     1     -11.788  46.440 -24.779  1.00  0.00     0.163 HD
BRANCH  30  32
HETATM   32  C15 UNL     1     -13.638  45.580 -25.401  1.00  0.00     0.180 C 
BRANCH  32  33
HETATM   33  C16 UNL     1     -14.652  46.459 -24.635  1.00  0.00     0.241 C 
HETATM   34  O4  UNL     1     -14.330  47.514 -24.086  1.00  0.00    -0.271 OA
HETATM   35  N3  UNL     1     -15.941  45.993 -24.623  1.00  0.00    -0.344 N 
HETATM   36  H18 UNL     1     -16.168  45.095 -25.044  1.00  0.00     0.163 HD
BRANCH  35  37
HETATM   37  C17 UNL     1     -17.035  46.718 -23.972  1.00  0.00     0.192 C 
BRANCH  37  38
HETATM   38  C18 UNL     1     -17.361  46.167 -22.583  1.00  0.00     0.146 C 
BRANCH  38  39
HETATM   39  C19 UNL     1     -17.074  44.698 -22.469  1.00  0.00     0.141 C 
HETATM   40  O5  UNL     1     -16.004  44.168 -22.226  1.00  0.00    -0.650 OA
BRANCH  39  41
HETATM   41  O6  UNL     1     -18.177  43.951 -22.672  1.00  0.00    -0.776 OA
HETATM   42  H22 UNL     1     -17.875  43.025 -22.560  1.00  0.00     0.167 HD
ENDBRANCH  39  41
ENDBRANCH  38  39
ENDBRANCH  37  38
BRANCH  37  43
HETATM   43  C20 UNL     1     -18.246  46.730 -24.908  1.00  0.00     0.164 C 
HETATM   44  O7  UNL     1     -19.263  47.391 -24.759  1.00  0.00    -0.648 OA
BRANCH  43  45
HETATM   45  O8  UNL     1     -18.141  45.868 -25.939  1.00  0.00    -0.775 OA
HETATM   46  H23 UNL     1     -18.978  45.993 -26.437  1.00  0.00     0.167 HD
ENDBRANCH  43  45
ENDBRANCH  37  43
ENDBRANCH  35  37
ENDBRANCH  32  33
BRANCH  32  47
HETATM   47  C21 UNL     1     -13.425  46.008 -26.871  1.00  0.00     0.009 C 
HETATM   48  C22 UNL     1     -14.697  45.876 -27.711  1.00  0.00     0.012 C 
HETATM   49  C23 UNL     1     -12.853  47.424 -27.006  1.00  0.00     0.012 C 
ENDBRANCH  32  47
ENDBRANCH  30  32
ENDBRANCH  27  28
ENDBRANCH  26  27
ENDBRANCH  13  26
TORSDOF 13
ENDMDL
MODEL 2
REMARK minimizedAffinity -8.12849522
REMARK CNNscore 0.321273625
REMARK CNNaffinity 6.71515036
REMARK  13 active torsions:
REMARK  status: ('A' for Active; 'I' for Inactive)
REMARK    1  A    between atoms: C3_3  and  O1_4 
REMARK    2  A    between atoms: N1_14  and  O2_16 
REMARK    3  A    between atoms: O2_16  and  C13_17 
REMARK    4  A    between atoms: C13_17  and  C14_18 
REMARK       I    between atoms: C14_18  and  N2_20 
REMARK    5  A    between atoms: N2_20  and  C15_21 
REMARK    6  A    between atoms: C15_21  and  C16_22 
REMARK    7  A    between atoms: C15_21  and  C21_33 
REMARK       I    between atoms: C16_22  and  N3_24 
REMARK    8  A    between atoms: N3_24  and  C17_25 
REMARK    9  A    between atoms: C17_25  and  C18_26 
REMARK   10  A    between atoms: C17_25  and  C20_30 
REMARK   11  A    between atoms: C18_26  and  C19_27 
REMARK   12  A    between atoms: C19_27  and  O6_29 
REMARK   13  A    between atoms: C20_30  and  O8_32 
ROOT
HETATM    1  C1  UNL     1      -0.164  54.820 -27.554  1.00  0.00     0.015 C 
HETATM    2  C2  UNL     1      -0.207  53.648 -27.298  1.00  0.00    -0.078 C 
HETATM    3  C3  UNL     1      -0.247  52.199 -26.995  1.00  0.00     0.128 C 
HETATM    4  C4  UNL     1       1.032  51.789 -26.256  1.00  0.00     0.052 C 
HETATM    5  C5  UNL     1       0.721  51.941 -24.765  1.00  0.00     0.010 C 
HETATM    6  C6  UNL     1      -0.796  52.224 -24.639  1.00  0.00     0.002 C 
HETATM    7  C7  UNL     1      -1.402  51.566 -23.377  1.00  0.00    -0.004 C 
HETATM    8  C8  UNL     1      -2.688  52.302 -22.925  1.00  0.00     0.010 C 
HETATM    9  C9  UNL     1      -3.694  51.428 -22.179  1.00  0.00     0.035 C 
HETATM   10  C10 UNL     1      -2.972  50.389 -21.373  1.00  0.00    -0.069 C 
HETATM   11  C11 UNL     1      -3.011  50.412 -20.031  1.00  0.00     0.030 C 
HETATM   12  C12 UNL     1      -2.252  49.434 -19.211  1.00  0.00     0.032 C 
HETATM   13  N1  UNL     1      -2.462  49.433 -17.925  1.00  0.00    -0.271 N 
ATOM     14  H1  UNL     1      -3.093  50.075 -17.447  1.00  0.00     0.194 HD
HETATM   15  C24 UNL     1      -1.306  48.478 -19.915  1.00  0.00     0.060 C 
HETATM   16  C25 UNL     1      -0.933  48.963 -21.312  1.00  0.00     0.020 C 
HETATM   17  C26 UNL     1      -2.152  49.386 -22.181  1.00  0.00    -0.016 C 
HETATM   18  C27 UNL     1      -3.027  48.143 -22.454  1.00  0.00     0.020 C 
HETATM   19  C28 UNL     1      -1.595  50.031 -23.519  1.00  0.00     0.002 C 
HETATM   20  C29 UNL     1      -2.374  49.717 -24.810  1.00  0.00     0.007 C 
HETATM   21  C30 UNL     1      -1.644  50.257 -26.044  1.00  0.00     0.014 C 
HETATM   22  C31 UNL     1      -1.390  51.788 -26.007  1.00  0.00     0.003 C 
HETATM   23  C32 UNL     1      -2.717  52.495 -26.352  1.00  0.00     0.020 C 
ENDROOT
BRANCH   3  24
HETATM   24  O1  UNL     1      -0.334  51.489 -28.224  1.00  0.00    -0.377 OA
HETATM   25  H2  UNL     1      -1.076  51.875 -28.720  1.00  0.00     0.211 HD
ENDBRANCH   3  24
BRANCH  13  26
HETATM   26  O2  UNL     1      -1.714  48.438 -17.281  1.00  0.00    -0.271 OA
BRANCH  26  27
HETATM   27  C13 UNL     1      -1.819  48.603 -15.870  1.00  0.00     0.303 C 
BRANCH  27  28
HETATM   28  C14 UNL     1      -1.052  49.836 -15.398  1.00  0.00     0.244 C 
HETATM   29  O3  UNL     1      -1.506  50.974 -15.504  1.00  0.00    -0.271 OA
HETATM   30  N2  UNL     1       0.180  49.576 -14.850  1.00  0.00    -0.346 N 
HETATM   31  H16 UNL     1       0.464  48.604 -14.742  1.00  0.00     0.163 HD
BRANCH  30  32
HETATM   32  C15 UNL     1       1.046  50.605 -14.285  1.00  0.00     0.180 C 
BRANCH  32  33
HETATM   33  C16 UNL     1       1.783  49.952 -13.095  1.00  0.00     0.241 C 
HETATM   34  O4  UNL     1       2.167  48.782 -13.115  1.00  0.00    -0.271 OA
HETATM   35  N3  UNL     1       1.998  50.772 -12.017  1.00  0.00    -0.344 N 
HETATM   36  H18 UNL     1       1.628  51.720 -12.009  1.00  0.00     0.163 HD
BRANCH  35  37
HETATM   37  C17 UNL     1       2.711  50.326 -10.818  1.00  0.00     0.192 C 
BRANCH  37  38
HETATM   38  C18 UNL     1       3.903  49.425 -11.142  1.00  0.00     0.146 C 
BRANCH  38  39
HETATM   39  C19 UNL     1       5.216  50.074 -10.813  1.00  0.00     0.141 C 
HETATM   40  O5  UNL     1       6.315  49.792 -11.257  1.00  0.00    -0.650 OA
BRANCH  39  41
HETATM   41  O6  UNL     1       5.074  51.072  -9.918  1.00  0.00    -0.776 OA
HETATM   42  H22 UNL     1       5.980  51.425  -9.793  1.00  0.00     0.167 HD
ENDBRANCH  39  41
ENDBRANCH  38  39
ENDBRANCH  37  38
BRANCH  37  43
HETATM   43  C20 UNL     1       1.709  49.669  -9.863  1.00  0.00     0.164 C 
HETATM   44  O7  UNL     1       0.615  50.116  -9.552  1.00  0.00    -0.648 OA
BRANCH  43  45
HETATM   45  O8  UNL     1       2.162  48.529  -9.306  1.00  0.00    -0.775 OA
HETATM   46  H23 UNL     1       1.420  48.237  -8.733  1.00  0.00     0.167 HD
ENDBRANCH  43  45
ENDBRANCH  37  43
ENDBRANCH  35  37
ENDBRANCH  32  33
BRANCH  32  47
HETATM   47  C21 UNL     1       1.989  51.199 -15.356  1.00  0.00     0.009 C 
HETATM   48  C22 UNL     1       1.395  52.429 -16.043  1.00  0.00     0.012 C 
HETATM   49  C23 UNL     1       3.384  51.527 -14.810  1.00  0.00     0.012 C 
ENDBRANCH  32  47
ENDBRANCH  30  32
ENDBRANCH  27  28
ENDBRANCH  26  27
ENDBRANCH  13  26
TORSDOF 13
ENDMDL
MODEL 3
REMARK minimizedAffinity -8.54112053
REMARK CNNscore 0.223522604
REMARK CNNaffinity 6.01379442
REMARK  13 active torsions:
REMARK  status: ('A' for Active; 'I' for Inactive)
REMARK    1  A    between atoms: C3_3  and  O1_4 
REMARK    2  A    between atoms: N1_14  and  O2_16 
REMARK    3  A    between atoms: O2_16  and  C13_17 
REMARK    4  A    between atoms: C13_17  and  C14_18 
REMARK       I    between atoms: C14_18  and  N2_20 
REMARK    5  A    between atoms: N2_20  and  C15_21 
REMARK    6  A    between atoms: C15_21  and  C16_22 
REMARK    7  A    between atoms: C15_21  and  C21_33 
REMARK       I    between atoms: C16_22  and  N3_24 
REMARK    8  A    between atoms: N3_24  and  C17_25 
REMARK    9  A    between atoms: C17_25  and  C18_26 
REMARK   10  A    between atoms: C17_25  and  C20_30 
REMARK   11  A    between atoms: C18_26  and  C19_27 
REMARK   12  A    between atoms: C19_27  and  O6_29 
REMARK   13  A    between atoms: C20_30  and  O8_32 
ROOT
HETATM    1  C1  UNL     1       0.702  50.724 -26.398  1.00  0.00     0.015 C 
HETATM    2  C2  UNL     1      -0.393  51.169 -26.185  1.00  0.00    -0.078 C 
HETATM    3  C3  UNL     1      -1.740  51.730 -25.934  1.00  0.00     0.128 C 
HETATM    4  C4  UNL     1      -2.658  51.424 -27.124  1.00  0.00     0.052 C 
HETATM    5  C5  UNL     1      -3.334  50.091 -26.799  1.00  0.00     0.010 C 
HETATM    6  C6  UNL     1      -2.976  49.740 -25.334  1.00  0.00     0.002 C 
HETATM    7  C7  UNL     1      -4.146  49.032 -24.610  1.00  0.00    -0.004 C 
HETATM    8  C8  UNL     1      -3.634  48.171 -23.428  1.00  0.00     0.010 C 
HETATM    9  C9  UNL     1      -4.637  47.988 -22.291  1.00  0.00     0.035 C 
HETATM   10  C10 UNL     1      -6.031  47.948 -22.839  1.00  0.00    -0.069 C 
HETATM   11  C11 UNL     1      -6.765  46.825 -22.769  1.00  0.00     0.030 C 
HETATM   12  C12 UNL     1      -8.124  46.742 -23.363  1.00  0.00     0.032 C 
HETATM   13  N1  UNL     1      -8.822  45.669 -23.121  1.00  0.00    -0.271 N 
ATOM     14  H1  UNL     1      -8.486  44.876 -22.575  1.00  0.00     0.194 HD
HETATM   15  C24 UNL     1      -8.629  47.914 -24.182  1.00  0.00     0.060 C 
HETATM   16  C25 UNL     1      -7.494  48.817 -24.656  1.00  0.00     0.020 C 
HETATM   17  C26 UNL     1      -6.501  49.225 -23.530  1.00  0.00    -0.016 C 
HETATM   18  C27 UNL     1      -7.246  50.098 -22.497  1.00  0.00     0.020 C 
HETATM   19  C28 UNL     1      -5.293  50.000 -24.207  1.00  0.00     0.002 C 
HETATM   20  C29 UNL     1      -4.719  51.197 -23.425  1.00  0.00     0.007 C 
HETATM   21  C30 UNL     1      -3.678  51.954 -24.255  1.00  0.00     0.014 C 
HETATM   22  C31 UNL     1      -2.484  51.079 -24.720  1.00  0.00     0.003 C 
HETATM   23  C32 UNL     1      -1.539  50.890 -23.514  1.00  0.00     0.020 C 
ENDROOT
BRANCH   3  24
HETATM   24  O1  UNL     1      -1.615  53.138 -25.781  1.00  0.00    -0.377 OA
HETATM   25  H2  UNL     1      -0.924  53.287 -25.113  1.00  0.00     0.211 HD
ENDBRANCH   3  24
BRANCH  13  26
HETATM   26  O2  UNL     1     -10.094  45.739 -23.706  1.00  0.00    -0.271 OA
BRANCH  26  27
HETATM   27  C13 UNL     1     -11.085  45.436 -22.727  1.00  0.00     0.303 C 
BRANCH  27  28
HETATM   28  C14 UNL     1     -12.285  46.372 -22.846  1.00  0.00     0.244 C 
HETATM   29  O3  UNL     1     -12.502  47.039 -23.857  1.00  0.00    -0.271 OA
HETATM   30  N2  UNL     1     -13.100  46.412 -21.742  1.00  0.00    -0.346 N 
HETATM   31  H16 UNL     1     -12.889  45.788 -20.965  1.00  0.00     0.163 HD
BRANCH  30  32
HETATM   32  C15 UNL     1     -14.329  47.194 -21.673  1.00  0.00     0.180 C 
BRANCH  32  33
HETATM   33  C16 UNL     1     -15.430  46.340 -22.339  1.00  0.00     0.241 C 
HETATM   34  O4  UNL     1     -15.926  45.355 -21.790  1.00  0.00    -0.271 OA
HETATM   35  N3  UNL     1     -15.831  46.764 -23.579  1.00  0.00    -0.344 N 
HETATM   36  H18 UNL     1     -15.370  47.553 -24.028  1.00  0.00     0.163 HD
BRANCH  35  37
HETATM   37  C17 UNL     1     -16.888  46.092 -24.339  1.00  0.00     0.192 C 
BRANCH  37  38
HETATM   38  C18 UNL     1     -16.573  46.002 -25.832  1.00  0.00     0.146 C 
BRANCH  38  39
HETATM   39  C19 UNL     1     -17.380  44.942 -26.524  1.00  0.00     0.141 C 
HETATM   40  O5  UNL     1     -17.147  43.747 -26.574  1.00  0.00    -0.650 OA
BRANCH  39  41
HETATM   41  O6  UNL     1     -18.468  45.454 -27.133  1.00  0.00    -0.776 OA
HETATM   42  H22 UNL     1     -18.918  44.679 -27.531  1.00  0.00     0.167 HD
ENDBRANCH  39  41
ENDBRANCH  38  39
ENDBRANCH  37  38
BRANCH  37  43
HETATM   43  C20 UNL     1     -18.222  46.785 -24.051  1.00  0.00     0.164 C 
HETATM   44  O7  UNL     1     -18.814  47.544 -24.805  1.00  0.00    -0.648 OA
BRANCH  43  45
HETATM   45  O8  UNL     1     -18.702  46.542 -22.815  1.00  0.00    -0.775 OA
HETATM   46  H23 UNL     1     -19.544  47.046 -22.787  1.00  0.00     0.167 HD
ENDBRANCH  43  45
ENDBRANCH  37  43
ENDBRANCH  35  37
ENDBRANCH  32  33
BRANCH  32  47
HETATM   47  C21 UNL     1     -14.653  47.609 -20.219  1.00  0.00     0.009 C 
HETATM   48  C22 UNL     1     -14.148  46.592 -19.193  1.00  0.00     0.012 C 
HETATM   49  C23 UNL     1     -14.137  49.009 -19.866  1.00  0.00     0.012 C 
ENDBRANCH  32  47
ENDBRANCH  30  32
ENDBRANCH  27  28
ENDBRANCH  26  27
ENDBRANCH  13  26
TORSDOF 13
ENDMDL
MODEL 4
REMARK minimizedAffinity -7.91038179
REMARK CNNscore 0.210278243
REMARK CNNaffinity 6.0299449
REMARK  13 active torsions:
REMARK  status: ('A' for Active; 'I' for Inactive)
REMARK    1  A    between atoms: C3_3  and  O1_4 
REMARK    2  A    between atoms: N1_14  and  O2_16 
REMARK    3  A    between atoms: O2_16  and  C13_17 
REMARK    4  A    between atoms: C13_17  and  C14_18 
REMARK       I    between atoms: C14_18  and  N2_20 
REMARK    5  A    between atoms: N2_20  and  C15_21 
REMARK    6  A    between atoms: C15_21  and  C16_22 
REMARK    7  A    between atoms: C15_21  and  C21_33 
REMARK       I    between atoms: C16_22  and  N3_24 
REMARK    8  A    between atoms: N3_24  and  C17_25 
REMARK    9  A    between atoms: C17_25  and  C18_26 
REMARK   10  A    between atoms: C17_25  and  C20_30 
REMARK   11  A    between atoms: C18_26  and  C19_27 
REMARK   12  A    between atoms: C19_27  and  O6_29 
REMARK   13  A    between atoms: C20_30  and  O8_32 
ROOT
HETATM    1  C1  UNL     1       0.755  51.033 -27.018  1.00  0.00     0.015 C 
HETATM    2  C2  UNL     1      -0.393  51.326 -26.816  1.00  0.00    -0.078 C 
HETATM    3  C3  UNL     1      -1.807  51.697 -26.581  1.00  0.00     0.128 C 
HETATM    4  C4  UNL     1      -2.701  51.015 -27.623  1.00  0.00     0.052 C 
HETATM    5  C5  UNL     1      -3.121  49.680 -27.006  1.00  0.00     0.010 C 
HETATM    6  C6  UNL     1      -2.653  49.690 -25.530  1.00  0.00     0.002 C 
HETATM    7  C7  UNL     1      -3.653  48.958 -24.604  1.00  0.00    -0.004 C 
HETATM    8  C8  UNL     1      -2.955  48.444 -23.319  1.00  0.00     0.010 C 
HETATM    9  C9  UNL     1      -3.867  48.329 -22.100  1.00  0.00     0.035 C 
HETATM   10  C10 UNL     1      -5.253  47.953 -22.531  1.00  0.00    -0.069 C 
HETATM   11  C11 UNL     1      -5.776  46.761 -22.198  1.00  0.00     0.030 C 
HETATM   12  C12 UNL     1      -7.121  46.340 -22.668  1.00  0.00     0.032 C 
HETATM   13  N1  UNL     1      -7.612  45.237 -22.179  1.00  0.00    -0.271 N 
ATOM     14  H1  UNL     1      -7.122  44.634 -21.517  1.00  0.00     0.194 HD
HETATM   15  C24 UNL     1      -7.853  47.227 -23.657  1.00  0.00     0.060 C 
HETATM   16  C25 UNL     1      -6.912  48.192 -24.372  1.00  0.00     0.020 C 
HETATM   17  C26 UNL     1      -5.964  48.973 -23.417  1.00  0.00    -0.016 C 
HETATM   18  C27 UNL     1      -6.812  49.899 -22.517  1.00  0.00     0.020 C 
HETATM   19  C28 UNL     1      -4.936  49.785 -24.312  1.00  0.00     0.002 C 
HETATM   20  C29 UNL     1      -4.552  51.191 -23.813  1.00  0.00     0.007 C 
HETATM   21  C30 UNL     1      -3.690  51.929 -24.843  1.00  0.00     0.014 C 
HETATM   22  C31 UNL     1      -2.380  51.186 -25.217  1.00  0.00     0.003 C 
HETATM   23  C32 UNL     1      -1.373  51.398 -24.067  1.00  0.00     0.020 C 
ENDROOT
BRANCH   3  24
HETATM   24  O1  UNL     1      -1.924  53.108 -26.706  1.00  0.00    -0.377 OA
HETATM   25  H2  UNL     1      -1.245  53.499 -26.129  1.00  0.00     0.211 HD
ENDBRANCH   3  24
BRANCH  13  26
HETATM   26  O2  UNL     1      -8.897  44.980 -22.675  1.00  0.00    -0.271 OA
BRANCH  26  27
HETATM   27  C13 UNL     1      -8.799  44.233 -23.885  1.00  0.00     0.303 C 
BRANCH  27  28
HETATM   28  C14 UNL     1     -10.134  44.203 -24.626  1.00  0.00     0.244 C 
HETATM   29  O3  UNL     1     -10.932  43.274 -24.507  1.00  0.00    -0.271 OA
HETATM   30  N2  UNL     1     -10.373  45.288 -25.433  1.00  0.00    -0.346 N 
HETATM   31  H16 UNL     1      -9.692  46.046 -25.436  1.00  0.00     0.163 HD
BRANCH  30  32
HETATM   32  C15 UNL     1     -11.610  45.482 -26.179  1.00  0.00     0.180 C 
BRANCH  32  33
HETATM   33  C16 UNL     1     -12.590  46.202 -25.225  1.00  0.00     0.241 C 
HETATM   34  O4  UNL     1     -12.568  47.421 -25.050  1.00  0.00    -0.271 OA
HETATM   35  N3  UNL     1     -13.499  45.390 -24.597  1.00  0.00    -0.344 N 
HETATM   36  H18 UNL     1     -13.463  44.381 -24.724  1.00  0.00     0.163 HD
BRANCH  35  37
HETATM   37  C17 UNL     1     -14.520  45.910 -23.685  1.00  0.00     0.192 C 
BRANCH  37  38
HETATM   38  C18 UNL     1     -15.396  46.984 -24.332  1.00  0.00     0.146 C 
BRANCH  38  39
HETATM   39  C19 UNL     1     -16.860  46.682 -24.203  1.00  0.00     0.141 C 
HETATM   40  O5  UNL     1     -17.695  46.665 -25.090  1.00  0.00    -0.650 OA
BRANCH  39  41
HETATM   41  O6  UNL     1     -17.208  46.409 -22.929  1.00  0.00    -0.776 OA
HETATM   42  H22 UNL     1     -18.168  46.216 -22.969  1.00  0.00     0.167 HD
ENDBRANCH  39  41
ENDBRANCH  38  39
ENDBRANCH  37  38
BRANCH  37  43
HETATM   43  C20 UNL     1     -13.839  46.390 -22.401  1.00  0.00     0.164 C 
HETATM   44  O7  UNL     1     -13.429  45.677 -21.496  1.00  0.00    -0.648 OA
BRANCH  43  45
HETATM   45  O8  UNL     1     -13.768  47.732 -22.295  1.00  0.00    -0.775 OA
HETATM   46  H23 UNL     1     -13.314  47.876 -21.437  1.00  0.00     0.167 HD
ENDBRANCH  43  45
ENDBRANCH  37  43
ENDBRANCH  35  37
ENDBRANCH  32  33
BRANCH  32  47
HETATM   47  C21 UNL     1     -11.358  46.240 -27.503  1.00  0.00     0.009 C 
HETATM   48  C22 UNL     1      -9.877  46.274 -27.885  1.00  0.00     0.012 C 
HETATM   49  C23 UNL     1     -12.188  45.697 -28.672  1.00  0.00     0.012 C 
ENDBRANCH  32  47
ENDBRANCH  30  32
ENDBRANCH  27  28
ENDBRANCH  26  27
ENDBRANCH  13  26
TORSDOF 13
ENDMDL
MODEL 5
REMARK minimizedAffinity -7.69445467
REMARK CNNscore 0.194027662
REMARK CNNaffinity 6.62028456
REMARK  13 active torsions:
REMARK  status: ('A' for Active; 'I' for Inactive)
REMARK    1  A    between atoms: C3_3  and  O1_4 
REMARK    2  A    between atoms: N1_14  and  O2_16 
REMARK    3  A    between atoms: O2_16  and  C13_17 
REMARK    4  A    between atoms: C13_17  and  C14_18 
REMARK       I    between atoms: C14_18  and  N2_20 
REMARK    5  A    between atoms: N2_20  and  C15_21 
REMARK    6  A    between atoms: C15_21  and  C16_22 
REMARK    7  A    between atoms: C15_21  and  C21_33 
REMARK       I    between atoms: C16_22  and  N3_24 
REMARK    8  A    between atoms: N3_24  and  C17_25 
REMARK    9  A    between atoms: C17_25  and  C18_26 
REMARK   10  A    between atoms: C17_25  and  C20_30 
REMARK   11  A    between atoms: C18_26  and  C19_27 
REMARK   12  A    between atoms: C19_27  and  O6_29 
REMARK   13  A    between atoms: C20_30  and  O8_32 
ROOT
HETATM    1  C1  UNL     1      -2.383  49.511 -25.303  1.00  0.00     0.015 C 
HETATM    2  C2  UNL     1      -2.763  49.281 -24.187  1.00  0.00    -0.078 C 
HETATM    3  C3  UNL     1      -3.241  48.984 -22.818  1.00  0.00     0.128 C 
HETATM    4  C4  UNL     1      -2.522  47.743 -22.276  1.00  0.00     0.052 C 
HETATM    5  C5  UNL     1      -1.279  48.262 -21.552  1.00  0.00     0.010 C 
HETATM    6  C6  UNL     1      -1.397  49.804 -21.485  1.00  0.00     0.002 C 
HETATM    7  C7  UNL     1      -0.818  50.370 -20.167  1.00  0.00    -0.004 C 
HETATM    8  C8  UNL     1      -0.383  51.848 -20.334  1.00  0.00     0.010 C 
HETATM    9  C9  UNL     1      -0.438  52.678 -19.054  1.00  0.00     0.035 C 
HETATM   10  C10 UNL     1      -0.111  51.817 -17.871  1.00  0.00    -0.069 C 
HETATM   11  C11 UNL     1       1.010  52.024 -17.161  1.00  0.00     0.030 C 
HETATM   12  C12 UNL     1       1.389  51.145 -16.025  1.00  0.00     0.032 C 
HETATM   13  N1  UNL     1       2.410  51.504 -15.299  1.00  0.00    -0.271 N 
ATOM     14  H1  UNL     1       2.977  52.332 -15.477  1.00  0.00     0.194 HD
HETATM   15  C24 UNL     1       0.554  49.907 -15.758  1.00  0.00     0.060 C 
HETATM   16  C25 UNL     1      -0.280  49.503 -16.970  1.00  0.00     0.020 C 
HETATM   17  C26 UNL     1      -1.086  50.674 -17.601  1.00  0.00    -0.016 C 
HETATM   18  C27 UNL     1      -2.142  51.160 -16.584  1.00  0.00     0.020 C 
HETATM   19  C28 UNL     1      -1.746  50.142 -18.942  1.00  0.00     0.002 C 
HETATM   20  C29 UNL     1      -3.166  50.650 -19.258  1.00  0.00     0.007 C 
HETATM   21  C30 UNL     1      -3.750  49.939 -20.482  1.00  0.00     0.014 C 
HETATM   22  C31 UNL     1      -2.896  50.094 -21.769  1.00  0.00     0.003 C 
HETATM   23  C32 UNL     1      -3.151  51.506 -22.337  1.00  0.00     0.020 C 
ENDROOT
BRANCH   3  24
HETATM   24  O1  UNL     1      -4.640  48.733 -22.878  1.00  0.00    -0.377 OA
HETATM   25  H2  UNL     1      -5.039  49.484 -23.351  1.00  0.00     0.211 HD
ENDBRANCH   3  24
BRANCH  13  26
HETATM   26  O2  UNL     1       2.631  50.609 -14.243  1.00  0.00    -0.271 OA
BRANCH  26  27
HETATM   27  C13 UNL     1       3.093  51.326 -13.102  1.00  0.00     0.303 C 
BRANCH  27  28
HETATM   28  C14 UNL     1       2.088  51.245 -11.954  1.00  0.00     0.244 C 
HETATM   29  O3  UNL     1       1.536  50.193 -11.636  1.00  0.00    -0.271 OA
HETATM   30  N2  UNL     1       1.850  52.433 -11.308  1.00  0.00    -0.346 N 
HETATM   31  H16 UNL     1       2.388  53.251 -11.589  1.00  0.00     0.163 HD
BRANCH  30  32
HETATM   32  C15 UNL     1       0.973  52.561 -10.150  1.00  0.00     0.180 C 
BRANCH  32  33
HETATM   33  C16 UNL     1       1.769  53.342  -9.081  1.00  0.00     0.241 C 
HETATM   34  O4  UNL     1       1.371  53.471  -7.923  1.00  0.00    -0.271 OA
HETATM   35  N3  UNL     1       2.960  53.870  -9.507  1.00  0.00    -0.344 N 
HETATM   36  H18 UNL     1       3.241  53.789 -10.481  1.00  0.00     0.163 HD
BRANCH  35  37
HETATM   37  C17 UNL     1       3.857  54.611  -8.616  1.00  0.00     0.192 C 
BRANCH  37  38
HETATM   38  C18 UNL     1       3.871  56.111  -8.911  1.00  0.00     0.146 C 
BRANCH  38  39
HETATM   39  C19 UNL     1       3.050  56.895  -7.929  1.00  0.00     0.141 C 
HETATM   40  O5  UNL     1       3.422  57.807  -7.212  1.00  0.00    -0.650 OA
BRANCH  39  41
HETATM   41  O6  UNL     1       1.768  56.479  -7.899  1.00  0.00    -0.776 OA
HETATM   42  H22 UNL     1       1.332  57.063  -7.243  1.00  0.00     0.167 HD
ENDBRANCH  39  41
ENDBRANCH  38  39
ENDBRANCH  37  38
BRANCH  37  43
HETATM   43  C20 UNL     1       5.249  53.978  -8.678  1.00  0.00     0.164 C 
HETATM   44  O7  UNL     1       5.960  53.901  -9.670  1.00  0.00    -0.648 OA
BRANCH  43  45
HETATM   45  O8  UNL     1       5.643  53.422  -7.515  1.00  0.00    -0.775 OA
HETATM   46  H23 UNL     1       6.536  53.067  -7.714  1.00  0.00     0.167 HD
ENDBRANCH  43  45
ENDBRANCH  37  43
ENDBRANCH  35  37
ENDBRANCH  32  33
BRANCH  32  47
HETATM   47  C21 UNL     1      -0.373  53.219 -10.532  1.00  0.00     0.009 C 
HETATM   48  C22 UNL     1      -0.271  54.741 -10.644  1.00  0.00     0.012 C 
HETATM   49  C23 UNL     1      -0.981  52.639 -11.814  1.00  0.00     0.012 C 
ENDBRANCH  32  47
ENDBRANCH  30  32
ENDBRANCH  27  28
ENDBRANCH  26  27
ENDBRANCH  13  26
TORSDOF 13
ENDMDL
MODEL 6
REMARK minimizedAffinity -9.07579231
REMARK CNNscore 0.182639405
REMARK CNNaffinity 6.45330763
REMARK  13 active torsions:
REMARK  status: ('A' for Active; 'I' for Inactive)
REMARK    1  A    between atoms: C3_3  and  O1_4 
REMARK    2  A    between atoms: N1_14  and  O2_16 
REMARK    3  A    between atoms: O2_16  and  C13_17 
REMARK    4  A    between atoms: C13_17  and  C14_18 
REMARK       I    between atoms: C14_18  and  N2_20 
REMARK    5  A    between atoms: N2_20  and  C15_21 
REMARK    6  A    between atoms: C15_21  and  C16_22 
REMARK    7  A    between atoms: C15_21  and  C21_33 
REMARK       I    between atoms: C16_22  and  N3_24 
REMARK    8  A    between atoms: N3_24  and  C17_25 
REMARK    9  A    between atoms: C17_25  and  C18_26 
REMARK   10  A    between atoms: C17_25  and  C20_30 
REMARK   11  A    between atoms: C18_26  and  C19_27 
REMARK   12  A    between atoms: C19_27  and  O6_29 
REMARK   13  A    between atoms: C20_30  and  O8_32 
ROOT
HETATM    1  C1  UNL     1      -0.416  54.804 -27.749  1.00  0.00     0.015 C 
HETATM    2  C2  UNL     1      -0.394  53.644 -27.438  1.00  0.00    -0.078 C 
HETATM    3  C3  UNL     1      -0.355  52.211 -27.067  1.00  0.00     0.128 C 
HETATM    4  C4  UNL     1       0.952  51.904 -26.327  1.00  0.00     0.052 C 
HETATM    5  C5  UNL     1       0.651  52.111 -24.841  1.00  0.00     0.010 C 
HETATM    6  C6  UNL     1      -0.877  52.320 -24.707  1.00  0.00     0.002 C 
HETATM    7  C7  UNL     1      -1.433  51.692 -23.408  1.00  0.00    -0.004 C 
HETATM    8  C8  UNL     1      -2.752  52.381 -22.972  1.00  0.00     0.010 C 
HETATM    9  C9  UNL     1      -3.701  51.492 -22.172  1.00  0.00     0.035 C 
HETATM   10  C10 UNL     1      -2.917  50.532 -21.329  1.00  0.00    -0.069 C 
HETATM   11  C11 UNL     1      -2.941  50.617 -19.989  1.00  0.00     0.030 C 
HETATM   12  C12 UNL     1      -2.122  49.720 -19.135  1.00  0.00     0.032 C 
HETATM   13  N1  UNL     1      -2.318  49.769 -17.848  1.00  0.00    -0.271 N 
ATOM     14  H1  UNL     1      -2.976  50.400 -17.391  1.00  0.00     0.194 HD
HETATM   15  C24 UNL     1      -1.136  48.782 -19.806  1.00  0.00     0.060 C 
HETATM   16  C25 UNL     1      -0.805  49.218 -21.230  1.00  0.00     0.020 C 
HETATM   17  C26 UNL     1      -2.055  49.536 -22.100  1.00  0.00    -0.016 C 
HETATM   18  C27 UNL     1      -2.866  48.238 -22.302  1.00  0.00     0.020 C 
HETATM   19  C28 UNL     1      -1.547  50.145 -23.474  1.00  0.00     0.002 C 
HETATM   20  C29 UNL     1      -2.323  49.729 -24.739  1.00  0.00     0.007 C 
HETATM   21  C30 UNL     1      -1.637  50.247 -26.007  1.00  0.00     0.014 C 
HETATM   22  C31 UNL     1      -1.463  51.789 -26.044  1.00  0.00     0.003 C 
HETATM   23  C32 UNL     1      -2.830  52.409 -26.405  1.00  0.00     0.020 C 
ENDROOT
BRANCH   3  24
HETATM   24  O1  UNL     1      -0.418  51.440 -28.260  1.00  0.00    -0.377 OA
HETATM   25  H2  UNL     1      -1.185  51.763 -28.763  1.00  0.00     0.211 HD
ENDBRANCH   3  24
BRANCH  13  26
HETATM   26  O2  UNL     1      -1.511  48.846 -17.168  1.00  0.00    -0.271 OA
BRANCH  26  27
HETATM   27  C13 UNL     1      -1.366  49.251 -15.810  1.00  0.00     0.303 C 
BRANCH  27  28
HETATM   28  C14 UNL     1      -0.346  50.380 -15.675  1.00  0.00     0.244 C 
HETATM   29  O3  UNL     1      -0.201  51.243 -16.539  1.00  0.00    -0.271 OA
HETATM   30  N2  UNL     1       0.394  50.356 -14.519  1.00  0.00    -0.346 N 
HETATM   31  H16 UNL     1       0.178  49.644 -13.823  1.00  0.00     0.163 HD
BRANCH  30  32
HETATM   32  C15 UNL     1       1.378  51.374 -14.168  1.00  0.00     0.180 C 
BRANCH  32  33
HETATM   33  C16 UNL     1       1.170  51.687 -12.670  1.00  0.00     0.241 C 
HETATM   34  O4  UNL     1       0.794  50.836 -11.862  1.00  0.00    -0.271 OA
HETATM   35  N3  UNL     1       1.451  52.975 -12.295  1.00  0.00    -0.344 N 
HETATM   36  H18 UNL     1       1.714  53.669 -12.992  1.00  0.00     0.163 HD
BRANCH  35  37
HETATM   37  C17 UNL     1       1.340  53.434 -10.909  1.00  0.00     0.192 C 
BRANCH  37  38
HETATM   38  C18 UNL     1       0.717  54.826 -10.797  1.00  0.00     0.146 C 
BRANCH  38  39
HETATM   39  C19 UNL     1      -0.593  54.809 -10.063  1.00  0.00     0.141 C 
HETATM   40  O5  UNL     1      -0.845  54.253  -9.009  1.00  0.00    -0.650 OA
BRANCH  39  41
HETATM   41  O6  UNL     1      -1.543  55.510 -10.712  1.00  0.00    -0.776 OA
HETATM   42  H22 UNL     1      -2.337  55.441 -10.141  1.00  0.00     0.167 HD
ENDBRANCH  39  41
ENDBRANCH  38  39
ENDBRANCH  37  38
BRANCH  37  43
HETATM   43  C20 UNL     1       2.718  53.344 -10.247  1.00  0.00     0.164 C 
HETATM   44  O7  UNL     1       3.431  54.289  -9.940  1.00  0.00    -0.648 OA
BRANCH  43  45
HETATM   45  O8  UNL     1       3.150  52.080 -10.068  1.00  0.00    -0.775 OA
HETATM   46  H23 UNL     1       4.027  52.189  -9.642  1.00  0.00     0.167 HD
ENDBRANCH  43  45
ENDBRANCH  37  43
ENDBRANCH  35  37
ENDBRANCH  32  33
BRANCH  32  47
HETATM   47  C21 UNL     1       2.813  50.918 -14.519  1.00  0.00     0.009 C 
HETATM   48  C22 UNL     1       3.607  51.996 -15.258  1.00  0.00     0.012 C 
HETATM   49  C23 UNL     1       3.602  50.430 -13.298  1.00  0.00     0.012 C 
ENDBRANCH  32  47
ENDBRANCH  30  32
ENDBRANCH  27  28
ENDBRANCH  26  27
ENDBRANCH  13  26
TORSDOF 13
ENDMDL
MODEL 7
REMARK minimizedAffinity -9.11427402
REMARK CNNscore 0.164334014
REMARK CNNaffinity 6.45919418
REMARK  13 active torsions:
REMARK  status: ('A' for Active; 'I' for Inactive)
REMARK    1  A    between atoms: C3_3  and  O1_4 
REMARK    2  A    between atoms: N1_14  and  O2_16 
REMARK    3  A    between atoms: O2_16  and  C13_17 
REMARK    4  A    between atoms: C13_17  and  C14_18 
REMARK       I    between atoms: C14_18  and  N2_20 
REMARK    5  A    between atoms: N2_20  and  C15_21 
REMARK    6  A    between atoms: C15_21  and  C16_22 
REMARK    7  A    between atoms: C15_21  and  C21_33 
REMARK       I    between atoms: C16_22  and  N3_24 
REMARK    8  A    between atoms: N3_24  and  C17_25 
REMARK    9  A    between atoms: C17_25  and  C18_26 
REMARK   10  A    between atoms: C17_25  and  C20_30 
REMARK   11  A    between atoms: C18_26  and  C19_27 
REMARK   12  A    between atoms: C19_27  and  O6_29 
REMARK   13  A    between atoms: C20_30  and  O8_32 
ROOT
HETATM    1  C1  UNL     1       1.942  51.602 -26.116  1.00  0.00     0.015 C 
HETATM    2  C2  UNL     1       0.769  51.860 -26.114  1.00  0.00    -0.078 C 
HETATM    3  C3  UNL     1      -0.675  52.189 -26.127  1.00  0.00     0.128 C 
HETATM    4  C4  UNL     1      -1.371  51.418 -27.254  1.00  0.00     0.052 C 
HETATM    5  C5  UNL     1      -1.844  50.103 -26.633  1.00  0.00     0.010 C 
HETATM    6  C6  UNL     1      -1.618  50.209 -25.105  1.00  0.00     0.002 C 
HETATM    7  C7  UNL     1      -2.730  49.491 -24.306  1.00  0.00    -0.004 C 
HETATM    8  C8  UNL     1      -2.230  49.073 -22.900  1.00  0.00     0.010 C 
HETATM    9  C9  UNL     1      -3.321  48.988 -21.835  1.00  0.00     0.035 C 
HETATM   10  C10 UNL     1      -4.609  48.536 -22.454  1.00  0.00    -0.069 C 
HETATM   11  C11 UNL     1      -5.143  47.345 -22.139  1.00  0.00     0.030 C 
HETATM   12  C12 UNL     1      -6.383  46.848 -22.788  1.00  0.00     0.032 C 
HETATM   13  N1  UNL     1      -6.912  45.754 -22.318  1.00  0.00    -0.271 N 
ATOM     14  H1  UNL     1      -6.516  45.207 -21.554  1.00  0.00     0.194 HD
HETATM   15  C24 UNL     1      -6.975  47.653 -23.930  1.00  0.00     0.060 C 
HETATM   16  C25 UNL     1      -5.961  48.613 -24.543  1.00  0.00     0.020 C 
HETATM   17  C26 UNL     1      -5.200  49.480 -23.499  1.00  0.00    -0.016 C 
HETATM   18  C27 UNL     1      -6.206  50.419 -22.800  1.00  0.00     0.020 C 
HETATM   19  C28 UNL     1      -4.067  50.282 -24.268  1.00  0.00     0.002 C 
HETATM   20  C29 UNL     1      -3.808  51.726 -23.798  1.00  0.00     0.007 C 
HETATM   21  C30 UNL     1      -2.816  52.441 -24.721  1.00  0.00     0.014 C 
HETATM   22  C31 UNL     1      -1.442  51.730 -24.841  1.00  0.00     0.003 C 
HETATM   23  C32 UNL     1      -0.637  52.041 -23.562  1.00  0.00     0.020 C 
ENDROOT
BRANCH   3  24
HETATM   24  O1  UNL     1      -0.812  53.586 -26.351  1.00  0.00    -0.377 OA
HETATM   25  H2  UNL     1      -0.245  54.032 -25.698  1.00  0.00     0.211 HD
ENDBRANCH   3  24
BRANCH  13  26
HETATM   26  O2  UNL     1      -8.094  45.423 -22.994  1.00  0.00    -0.271 OA
BRANCH  26  27
HETATM   27  C13 UNL     1      -8.045  44.056 -23.396  1.00  0.00     0.303 C 
BRANCH  27  28
HETATM   28  C14 UNL     1      -8.002  43.929 -24.917  1.00  0.00     0.244 C 
HETATM   29  O3  UNL     1      -7.625  42.903 -25.481  1.00  0.00    -0.271 OA
HETATM   30  N2  UNL     1      -8.415  45.044 -25.603  1.00  0.00    -0.346 N 
HETATM   31  H16 UNL     1      -8.770  45.835 -25.069  1.00  0.00     0.163 HD
BRANCH  30  32
HETATM   32  C15 UNL     1      -8.508  45.109 -27.057  1.00  0.00     0.180 C 
BRANCH  32  33
HETATM   33  C16 UNL     1      -9.990  45.392 -27.390  1.00  0.00     0.241 C 
HETATM   34  O4  UNL     1     -10.879  44.557 -27.216  1.00  0.00    -0.271 OA
HETATM   35  N3  UNL     1     -10.252  46.646 -27.879  1.00  0.00    -0.344 N 
HETATM   36  H18 UNL     1      -9.492  47.299 -28.057  1.00  0.00     0.163 HD
BRANCH  35  37
HETATM   37  C17 UNL     1     -11.606  47.094 -28.215  1.00  0.00     0.192 C 
BRANCH  37  38
HETATM   38  C18 UNL     1     -11.667  47.830 -29.553  1.00  0.00     0.146 C 
BRANCH  38  39
HETATM   39  C19 UNL     1     -11.128  47.005 -30.685  1.00  0.00     0.141 C 
HETATM   40  O5  UNL     1     -10.094  46.360 -30.706  1.00  0.00    -0.650 OA
BRANCH  39  41
HETATM   41  O6  UNL     1     -11.938  47.035 -31.761  1.00  0.00    -0.776 OA
HETATM   42  H22 UNL     1     -11.498  46.459 -32.421  1.00  0.00     0.167 HD
ENDBRANCH  39  41
ENDBRANCH  38  39
ENDBRANCH  37  38
BRANCH  37  43
HETATM   43  C20 UNL     1     -12.154  47.924 -27.052  1.00  0.00     0.164 C 
HETATM   44  O7  UNL     1     -13.241  47.775 -26.512  1.00  0.00    -0.648 OA
BRANCH  43  45
HETATM   45  O8  UNL     1     -11.342  48.931 -26.675  1.00  0.00    -0.775 OA
HETATM   46  H23 UNL     1     -11.824  49.359 -25.935  1.00  0.00     0.167 HD
ENDBRANCH  43  45
ENDBRANCH  37  43
ENDBRANCH  35  37
ENDBRANCH  32  33
BRANCH  32  47
HETATM   47  C21 UNL     1      -7.527  46.152 -27.639  1.00  0.00     0.009 C 
HETATM   48  C22 UNL     1      -7.172  45.872 -29.100  1.00  0.00     0.012 C 
HETATM   49  C23 UNL     1      -8.026  47.594 -27.489  1.00  0.00     0.012 C 
ENDBRANCH  32  47
ENDBRANCH  30  32
ENDBRANCH  27  28
ENDBRANCH  26  27
ENDBRANCH  13  26
TORSDOF 13
ENDMDL
MODEL 8
REMARK minimizedAffinity -7.70300817
REMARK CNNscore 0.164087027
REMARK CNNaffinity 6.14946127
REMARK  13 active torsions:
REMARK  status: ('A' for Active; 'I' for Inactive)
REMARK    1  A    between atoms: C3_3  and  O1_4 
REMARK    2  A    between atoms: N1_14  and  O2_16 
REMARK    3  A    between atoms: O2_16  and  C13_17 
REMARK    4  A    between atoms: C13_17  and  C14_18 
REMARK       I    between atoms: C14_18  and  N2_20 
REMARK    5  A    between atoms: N2_20  and  C15_21 
REMARK    6  A    between atoms: C15_21  and  C16_22 
REMARK    7  A    between atoms: C15_21  and  C21_33 
REMARK       I    between atoms: C16_22  and  N3_24 
REMARK    8  A    between atoms: N3_24  and  C17_25 
REMARK    9  A    between atoms: C17_25  and  C18_26 
REMARK   10  A    between atoms: C17_25  and  C20_30 
REMARK   11  A    between atoms: C18_26  and  C19_27 
REMARK   12  A    between atoms: C19_27  and  O6_29 
REMARK   13  A    between atoms: C20_30  and  O8_32 
ROOT
HETATM    1  C1  UNL     1       0.739  51.063 -27.002  1.00  0.00     0.015 C 
HETATM    2  C2  UNL     1      -0.433  51.298 -26.881  1.00  0.00    -0.078 C 
HETATM    3  C3  UNL     1      -1.876  51.599 -26.747  1.00  0.00     0.128 C 
HETATM    4  C4  UNL     1      -2.668  50.812 -27.798  1.00  0.00     0.052 C 
HETATM    5  C5  UNL     1      -3.050  49.489 -27.131  1.00  0.00     0.010 C 
HETATM    6  C6  UNL     1      -2.672  49.604 -25.635  1.00  0.00     0.002 C 
HETATM    7  C7  UNL     1      -3.683  48.865 -24.726  1.00  0.00    -0.004 C 
HETATM    8  C8  UNL     1      -3.035  48.461 -23.378  1.00  0.00     0.010 C 
HETATM    9  C9  UNL     1      -4.010  48.357 -22.208  1.00  0.00     0.035 C 
HETATM   10  C10 UNL     1      -5.345  47.879 -22.694  1.00  0.00    -0.069 C 
HETATM   11  C11 UNL     1      -5.821  46.678 -22.325  1.00  0.00     0.030 C 
HETATM   12  C12 UNL     1      -7.110  46.156 -22.845  1.00  0.00     0.032 C 
HETATM   13  N1  UNL     1      -7.568  45.053 -22.323  1.00  0.00    -0.271 N 
ATOM     14  H1  UNL     1      -7.086  44.516 -21.603  1.00  0.00     0.194 HD
HETATM   15  C24 UNL     1      -7.831  46.946 -23.921  1.00  0.00     0.060 C 
HETATM   16  C25 UNL     1      -6.903  47.924 -24.634  1.00  0.00     0.020 C 
HETATM   17  C26 UNL     1      -6.057  48.808 -23.673  1.00  0.00    -0.016 C 
HETATM   18  C27 UNL     1      -7.006  49.729 -22.875  1.00  0.00     0.020 C 
HETATM   19  C28 UNL     1      -5.024  49.630 -24.553  1.00  0.00     0.002 C 
HETATM   20  C29 UNL     1      -4.748  51.080 -24.112  1.00  0.00     0.007 C 
HETATM   21  C30 UNL     1      -3.869  51.812 -25.132  1.00  0.00     0.014 C 
HETATM   22  C31 UNL     1      -2.500  51.128 -25.390  1.00  0.00     0.003 C 
HETATM   23  C32 UNL     1      -1.575  51.458 -24.199  1.00  0.00     0.020 C 
ENDROOT
BRANCH   3  24
HETATM   24  O1  UNL     1      -2.063  52.992 -26.957  1.00  0.00    -0.377 OA
HETATM   25  H2  UNL     1      -1.442  53.451 -26.365  1.00  0.00     0.211 HD
ENDBRANCH   3  24
BRANCH  13  26
HETATM   26  O2  UNL     1      -8.806  44.697 -22.875  1.00  0.00    -0.271 OA
BRANCH  26  27
HETATM   27  C13 UNL     1      -8.747  43.353 -23.347  1.00  0.00     0.303 C 
BRANCH  27  28
HETATM   28  C14 UNL     1      -8.283  43.298 -24.801  1.00  0.00     0.244 C 
HETATM   29  O3  UNL     1      -7.348  42.587 -25.167  1.00  0.00    -0.271 OA
HETATM   30  N2  UNL     1      -8.987  44.101 -25.664  1.00  0.00    -0.346 N 
HETATM   31  H16 UNL     1      -9.785  44.617 -25.300  1.00  0.00     0.163 HD
BRANCH  30  32
HETATM   32  C15 UNL     1      -8.744  44.150 -27.101  1.00  0.00     0.180 C 
BRANCH  32  33
HETATM   33  C16 UNL     1     -10.120  43.984 -27.785  1.00  0.00     0.241 C 
HETATM   34  O4  UNL     1     -10.237  43.760 -28.990  1.00  0.00    -0.271 OA
HETATM   35  N3  UNL     1     -11.204  44.088 -26.952  1.00  0.00    -0.344 N 
HETATM   36  H18 UNL     1     -11.079  44.321 -25.970  1.00  0.00     0.163 HD
BRANCH  35  37
HETATM   37  C17 UNL     1     -12.580  43.925 -27.427  1.00  0.00     0.192 C 
BRANCH  37  38
HETATM   38  C18 UNL     1     -12.799  42.596 -28.152  1.00  0.00     0.146 C 
BRANCH  38  39
HETATM   39  C19 UNL     1     -12.237  41.431 -27.391  1.00  0.00     0.141 C 
HETATM   40  O5  UNL     1     -12.596  41.010 -26.305  1.00  0.00    -0.650 OA
BRANCH  39  41
HETATM   41  O6  UNL     1     -11.224  40.838 -28.054  1.00  0.00    -0.776 OA
HETATM   42  H22 UNL     1     -10.950  40.094 -27.477  1.00  0.00     0.167 HD
ENDBRANCH  39  41
ENDBRANCH  38  39
ENDBRANCH  37  38
BRANCH  37  43
HETATM   43  C20 UNL     1     -12.955  45.139 -28.281  1.00  0.00     0.164 C 
HETATM   44  O7  UNL     1     -13.950  45.242 -28.984  1.00  0.00    -0.648 OA
BRANCH  43  45
HETATM   45  O8  UNL     1     -12.035  46.123 -28.256  1.00  0.00    -0.775 OA
HETATM   46  H23 UNL     1     -12.414  46.815 -28.839  1.00  0.00     0.167 HD
ENDBRANCH  43  45
ENDBRANCH  37  43
ENDBRANCH  35  37
ENDBRANCH  32  33
BRANCH  32  47
HETATM   47  C21 UNL     1      -7.998  45.443 -27.504  1.00  0.00     0.009 C 
HETATM   48  C22 UNL     1      -7.203  45.281 -28.801  1.00  0.00     0.012 C 
HETATM   49  C23 UNL     1      -8.922  46.661 -27.605  1.00  0.00     0.012 C 
ENDBRANCH  32  47
ENDBRANCH  30  32
ENDBRANCH  27  28
ENDBRANCH  26  27
ENDBRANCH  13  26
TORSDOF 13
ENDMDL
MODEL 9
REMARK minimizedAffinity -7.9774971
REMARK CNNscore 0.134435609
REMARK CNNaffinity 5.30083227
REMARK  13 active torsions:
REMARK  status: ('A' for Active; 'I' for Inactive)
REMARK    1  A    between atoms: C3_3  and  O1_4 
REMARK    2  A    between atoms: N1_14  and  O2_16 
REMARK    3  A    between atoms: O2_16  and  C13_17 
REMARK    4  A    between atoms: C13_17  and  C14_18 
REMARK       I    between atoms: C14_18  and  N2_20 
REMARK    5  A    between atoms: N2_20  and  C15_21 
REMARK    6  A    between atoms: C15_21  and  C16_22 
REMARK    7  A    between atoms: C15_21  and  C21_33 
REMARK       I    between atoms: C16_22  and  N3_24 
REMARK    8  A    between atoms: N3_24  and  C17_25 
REMARK    9  A    between atoms: C17_25  and  C18_26 
REMARK   10  A    between atoms: C17_25  and  C20_30 
REMARK   11  A    between atoms: C18_26  and  C19_27 
REMARK   12  A    between atoms: C19_27  and  O6_29 
REMARK   13  A    between atoms: C20_30  and  O8_32 
ROOT
HETATM    1  C1  UNL     1     -16.122  49.333 -17.995  1.00  0.00     0.015 C 
HETATM    2  C2  UNL     1     -15.609  48.358 -18.472  1.00  0.00    -0.078 C 
HETATM    3  C3  UNL     1     -14.991  47.153 -19.071  1.00  0.00     0.128 C 
HETATM    4  C4  UNL     1     -14.597  47.441 -20.524  1.00  0.00     0.052 C 
HETATM    5  C5  UNL     1     -13.156  47.952 -20.474  1.00  0.00     0.010 C 
HETATM    6  C6  UNL     1     -12.648  47.751 -19.025  1.00  0.00     0.002 C 
HETATM    7  C7  UNL     1     -11.148  47.373 -18.988  1.00  0.00    -0.004 C 
HETATM    8  C8  UNL     1     -10.508  47.754 -17.629  1.00  0.00     0.010 C 
HETATM    9  C9  UNL     1      -9.319  46.888 -17.220  1.00  0.00     0.035 C 
HETATM   10  C10 UNL     1      -8.555  46.456 -18.436  1.00  0.00    -0.069 C 
HETATM   11  C11 UNL     1      -7.304  46.894 -18.652  1.00  0.00     0.030 C 
HETATM   12  C12 UNL     1      -6.552  46.534 -19.881  1.00  0.00     0.032 C 
HETATM   13  N1  UNL     1      -5.297  46.876 -19.941  1.00  0.00    -0.271 N 
ATOM     14  H1  UNL     1      -4.808  47.396 -19.213  1.00  0.00     0.194 HD
HETATM   15  C24 UNL     1      -7.274  45.766 -20.972  1.00  0.00     0.060 C 
HETATM   16  C25 UNL     1      -8.790  45.871 -20.844  1.00  0.00     0.020 C 
HETATM   17  C26 UNL     1      -9.325  45.572 -19.413  1.00  0.00    -0.016 C 
HETATM   18  C27 UNL     1      -9.037  44.094 -19.070  1.00  0.00     0.020 C 
HETATM   19  C28 UNL     1     -10.877  45.899 -19.398  1.00  0.00     0.002 C 
HETATM   20  C29 UNL     1     -11.771  44.953 -18.574  1.00  0.00     0.007 C 
HETATM   21  C30 UNL     1     -13.255  45.275 -18.775  1.00  0.00     0.014 C 
HETATM   22  C31 UNL     1     -13.640  46.732 -18.401  1.00  0.00     0.003 C 
HETATM   23  C32 UNL     1     -13.721  46.818 -16.862  1.00  0.00     0.020 C 
ENDROOT
BRANCH   3  24
HETATM   24  O1  UNL     1     -15.945  46.099 -19.038  1.00  0.00    -0.377 OA
HETATM   25  H2  UNL     1     -16.269  46.042 -18.123  1.00  0.00     0.211 HD
ENDBRANCH   3  24
BRANCH  13  26
HETATM   26  O2  UNL     1      -4.701  46.441 -21.133  1.00  0.00    -0.271 OA
BRANCH  26  27
HETATM   27  C13 UNL     1      -3.587  47.275 -21.439  1.00  0.00     0.303 C 
BRANCH  27  28
HETATM   28  C14 UNL     1      -4.009  48.474 -22.285  1.00  0.00     0.244 C 
HETATM   29  O3  UNL     1      -4.794  49.327 -21.872  1.00  0.00    -0.271 OA
HETATM   30  N2  UNL     1      -3.450  48.525 -23.538  1.00  0.00    -0.346 N 
HETATM   31  H16 UNL     1      -2.764  47.815 -23.788  1.00  0.00     0.163 HD
BRANCH  30  32
HETATM   32  C15 UNL     1      -3.674  49.616 -24.479  1.00  0.00     0.180 C 
BRANCH  32  33
HETATM   33  C16 UNL     1      -2.352  50.412 -24.552  1.00  0.00     0.241 C 
HETATM   34  O4  UNL     1      -1.427  50.233 -23.758  1.00  0.00    -0.271 OA
HETATM   35  N3  UNL     1      -2.271  51.322 -25.575  1.00  0.00    -0.344 N 
HETATM   36  H18 UNL     1      -3.069  51.482 -26.186  1.00  0.00     0.163 HD
BRANCH  35  37
HETATM   37  C17 UNL     1      -1.078  52.137 -25.811  1.00  0.00     0.192 C 
BRANCH  37  38
HETATM   38  C18 UNL     1      -0.961  53.307 -24.834  1.00  0.00     0.146 C 
BRANCH  38  39
HETATM   39  C19 UNL     1       0.261  54.142 -25.086  1.00  0.00     0.141 C 
HETATM   40  O5  UNL     1       1.253  54.236 -24.385  1.00  0.00    -0.650 OA
BRANCH  39  41
HETATM   41  O6  UNL     1       0.168  54.835 -26.239  1.00  0.00    -0.776 OA
HETATM   42  H22 UNL     1       1.015  55.324 -26.304  1.00  0.00     0.167 HD
ENDBRANCH  39  41
ENDBRANCH  38  39
ENDBRANCH  37  38
BRANCH  37  43
HETATM   43  C20 UNL     1      -1.065  52.580 -27.277  1.00  0.00     0.164 C 
HETATM   44  O7  UNL     1      -0.155  52.400 -28.074  1.00  0.00    -0.648 OA
BRANCH  43  45
HETATM   45  O8  UNL     1      -2.159  53.278 -27.640  1.00  0.00    -0.775 OA
HETATM   46  H23 UNL     1      -2.003  53.485 -28.587  1.00  0.00     0.167 HD
ENDBRANCH  43  45
ENDBRANCH  37  43
ENDBRANCH  35  37
ENDBRANCH  32  33
BRANCH  32  47
HETATM   47  C21 UNL     1      -4.164  49.089 -25.847  1.00  0.00     0.009 C 
HETATM   48  C22 UNL     1      -3.073  48.333 -26.608  1.00  0.00     0.012 C 
HETATM   49  C23 UNL     1      -5.424  48.223 -25.740  1.00  0.00     0.012 C 
ENDBRANCH  32  47
ENDBRANCH  30  32
ENDBRANCH  27  28
ENDBRANCH  26  27
ENDBRANCH  13  26
TORSDOF 13
ENDMDL
