MODEL 1
REMARK minimizedAffinity -5.97885227
REMARK CNNscore 0.440478444
REMARK CNNaffinity 6.14347839
REMARK  5 active torsions:
REMARK  status: ('A' for Active; 'I' for Inactive)
REMARK    1  A    between atoms: C2_2  and  C3_3 
REMARK    2  A    between atoms: C3_3  and  N1_4 
REMARK    3  A    between atoms: C4_5  and  S1_6 
REMARK    4  A    between atoms: S1_6  and  C5_7 
REMARK    5  A    between atoms: C21_31  and  C22_32 
ROOT
HETATM    1  C5  UNL     1      12.369  63.268   5.259  1.00  0.00     0.093 A 
HETATM    2  C6  UNL     1      12.353  64.484   5.875  1.00  0.00    -0.016 A 
HETATM    3  C7  UNL     1      11.553  64.750   7.143  1.00  0.00     0.042 C 
HETATM    4  C8  UNL     1      11.309  66.213   7.485  1.00  0.00     0.005 C 
HETATM    5  C9  UNL     1      12.612  66.979   7.412  1.00  0.00     0.005 C 
HETATM    6  C10 UNL     1      13.138  66.951   5.985  1.00  0.00     0.041 C 
HETATM    7  C11 UNL     1      13.201  65.575   5.336  1.00  0.00    -0.025 A 
HETATM    8  C12 UNL     1      14.002  65.360   4.260  1.00  0.00     0.096 A 
HETATM    9  C13 UNL     1      14.813  66.402   3.706  1.00  0.00     0.104 C 
HETATM   10  N2  UNL     1      15.439  67.289   3.294  1.00  0.00    -0.191 NA
HETATM   11  C14 UNL     1      14.014  64.087   3.619  1.00  0.00     0.135 A 
HETATM   12  N3  UNL     1      14.713  63.697   2.576  1.00  0.00    -0.339 N 
ATOM     13  H3  UNL     1      15.401  64.242   2.056  1.00  0.00     0.167 HD
HETATM   14  C15 UNL     1      14.328  62.414   2.335  1.00  0.00     0.061 A 
HETATM   15  C16 UNL     1      14.776  61.555   1.317  1.00  0.00     0.032 A 
HETATM   16  C17 UNL     1      14.229  60.276   1.217  1.00  0.00     0.002 A 
HETATM   17  C18 UNL     1      13.246  59.862   2.109  1.00  0.00     0.002 A 
HETATM   18  C19 UNL     1      12.791  60.707   3.129  1.00  0.00     0.032 A 
HETATM   19  C20 UNL     1      13.357  61.991   3.242  1.00  0.00     0.068 A 
HETATM   20  N4  UNL     1      13.180  63.078   4.109  1.00  0.00    -0.287 N 
ENDROOT
BRANCH   1  21
HETATM   21  S1  UNL     1      11.450  61.927   5.908  1.00  0.00    -0.033 SA
BRANCH  21  22
HETATM   22  C4  UNL     1      12.664  61.295   6.977  1.00  0.00     0.169 A 
HETATM   23  N1  UNL     1      12.403  60.415   7.994  1.00  0.00    -0.307 N 
HETATM   24  C21 UNL     1      13.625  60.166   8.590  1.00  0.00     0.135 A 
HETATM   25  N6  UNL     1      14.542  60.894   7.981  1.00  0.00    -0.283 N 
HETATM   26  N5  UNL     1      13.942  61.588   6.960  1.00  0.00    -0.278 N 
ATOM     27  H6  UNL     1      15.531  60.935   8.228  1.00  0.00     0.188 HD
ATOM     28  H5  UNL     1      14.407  62.218   6.306  1.00  0.00     0.189 HD
BRANCH  23  29
HETATM   29  C3  UNL     1      11.107  59.948   8.454  1.00  0.00     0.159 C 
BRANCH  29  30
HETATM   30  C2  UNL     1      10.686  60.593   9.745  1.00  0.00    -0.017 C 
HETATM   31  C1  UNL     1      10.846  61.893  10.029  1.00  0.00     0.008 C 
ENDBRANCH  29  30
ENDBRANCH  23  29
BRANCH  24  32
HETATM   32  C22 UNL     1      13.863  59.293   9.732  1.00  0.00     0.009 A 
HETATM   33  C23 UNL     1      13.524  57.936   9.651  1.00  0.00     0.015 A 
HETATM   34  C24 UNL     1      13.752  57.086  10.734  1.00  0.00     0.001 A 
HETATM   35  C25 UNL     1      14.310  57.586  11.910  1.00  0.00     0.000 A 
HETATM   36  C26 UNL     1      14.631  58.939  12.007  1.00  0.00     0.001 A 
HETATM   37  C27 UNL     1      14.403  59.791  10.924  1.00  0.00     0.015 A 
ENDBRANCH  24  32
ENDBRANCH  21  22
ENDBRANCH   1  21
TORSDOF 5
ENDMDL
MODEL 2
REMARK minimizedAffinity -6.03809404
REMARK CNNscore 0.326039732
REMARK CNNaffinity 6.0623126
REMARK  5 active torsions:
REMARK  status: ('A' for Active; 'I' for Inactive)
REMARK    1  A    between atoms: C2_2  and  C3_3 
REMARK    2  A    between atoms: C3_3  and  N1_4 
REMARK    3  A    between atoms: C4_5  and  S1_6 
REMARK    4  A    between atoms: S1_6  and  C5_7 
REMARK    5  A    between atoms: C21_31  and  C22_32 
ROOT
HETATM    1  C5  UNL     1      12.628  62.713   5.564  1.00  0.00     0.093 A 
HETATM    2  C6  UNL     1      13.261  63.850   5.156  1.00  0.00    -0.016 A 
HETATM    3  C7  UNL     1      13.724  64.060   3.721  1.00  0.00     0.042 C 
HETATM    4  C8  UNL     1      14.744  65.168   3.503  1.00  0.00     0.005 C 
HETATM    5  C9  UNL     1      14.277  66.434   4.186  1.00  0.00     0.005 C 
HETATM    6  C10 UNL     1      14.204  66.203   5.688  1.00  0.00     0.041 C 
HETATM    7  C11 UNL     1      13.445  64.958   6.124  1.00  0.00    -0.025 A 
HETATM    8  C12 UNL     1      12.968  64.854   7.392  1.00  0.00     0.096 A 
HETATM    9  C13 UNL     1      13.152  65.900   8.353  1.00  0.00     0.104 C 
HETATM   10  N2  UNL     1      13.343  66.776   9.091  1.00  0.00    -0.191 NA
HETATM   11  C14 UNL     1      12.310  63.663   7.814  1.00  0.00     0.135 A 
HETATM   12  N3  UNL     1      11.790  63.381   8.989  1.00  0.00    -0.339 N 
ATOM     13  H3  UNL     1      11.745  63.991   9.806  1.00  0.00     0.167 HD
HETATM   14  C15 UNL     1      11.325  62.107   8.889  1.00  0.00     0.061 A 
HETATM   15  C16 UNL     1      10.692  61.338   9.880  1.00  0.00     0.032 A 
HETATM   16  C17 UNL     1      10.316  60.026   9.588  1.00  0.00     0.002 A 
HETATM   17  C18 UNL     1      10.575  59.487   8.333  1.00  0.00     0.002 A 
HETATM   18  C19 UNL     1      11.205  60.241   7.335  1.00  0.00     0.032 A 
HETATM   19  C20 UNL     1      11.567  61.571   7.624  1.00  0.00     0.068 A 
HETATM   20  N4  UNL     1      12.178  62.609   6.907  1.00  0.00    -0.287 N 
ENDROOT
BRANCH   1  21
HETATM   21  S1  UNL     1      12.314  61.412   4.435  1.00  0.00    -0.033 SA
BRANCH  21  22
HETATM   22  C4  UNL     1      13.656  60.395   4.859  1.00  0.00     0.169 A 
HETATM   23  N1  UNL     1      13.808  59.108   4.415  1.00  0.00    -0.307 N 
HETATM   24  C21 UNL     1      14.990  58.661   4.974  1.00  0.00     0.135 A 
HETATM   25  N6  UNL     1      15.479  59.620   5.737  1.00  0.00    -0.283 N 
HETATM   26  N5  UNL     1      14.652  60.711   5.651  1.00  0.00    -0.278 N 
ATOM     27  H6  UNL     1      16.330  59.561   6.297  1.00  0.00     0.188 HD
ATOM     28  H5  UNL     1      14.788  61.608   6.119  1.00  0.00     0.189 HD
BRANCH  23  29
HETATM   29  C3  UNL     1      12.865  58.317   3.642  1.00  0.00     0.159 C 
BRANCH  29  30
HETATM   30  C2  UNL     1      13.275  58.174   2.204  1.00  0.00    -0.017 C 
HETATM   31  C1  UNL     1      13.495  59.203   1.374  1.00  0.00     0.008 C 
ENDBRANCH  29  30
ENDBRANCH  23  29
BRANCH  24  32
HETATM   32  C22 UNL     1      15.577  57.338   4.802  1.00  0.00     0.009 A 
HETATM   33  C23 UNL     1      15.059  56.251   5.516  1.00  0.00     0.015 A 
HETATM   34  C24 UNL     1      15.606  54.976   5.358  1.00  0.00     0.001 A 
HETATM   35  C25 UNL     1      16.681  54.780   4.493  1.00  0.00     0.000 A 
HETATM   36  C26 UNL     1      17.218  55.861   3.794  1.00  0.00     0.001 A 
HETATM   37  C27 UNL     1      16.671  57.136   3.951  1.00  0.00     0.015 A 
ENDBRANCH  24  32
ENDBRANCH  21  22
ENDBRANCH   1  21
TORSDOF 5
ENDMDL
MODEL 3
REMARK minimizedAffinity -5.97119808
REMARK CNNscore 0.322141886
REMARK CNNaffinity 5.95517015
REMARK  5 active torsions:
REMARK  status: ('A' for Active; 'I' for Inactive)
REMARK    1  A    between atoms: C2_2  and  C3_3 
REMARK    2  A    between atoms: C3_3  and  N1_4 
REMARK    3  A    between atoms: C4_5  and  S1_6 
REMARK    4  A    between atoms: S1_6  and  C5_7 
REMARK    5  A    between atoms: C21_31  and  C22_32 
ROOT
HETATM    1  C5  UNL     1      12.785  61.271   5.045  1.00  0.00     0.093 A 
HETATM    2  C6  UNL     1      13.087  62.293   4.195  1.00  0.00    -0.016 A 
HETATM    3  C7  UNL     1      13.645  62.057   2.797  1.00  0.00     0.042 C 
HETATM    4  C8  UNL     1      14.298  63.258   2.128  1.00  0.00     0.005 C 
HETATM    5  C9  UNL     1      13.383  64.459   2.228  1.00  0.00     0.005 C 
HETATM    6  C10 UNL     1      13.192  64.831   3.690  1.00  0.00     0.041 C 
HETATM    7  C11 UNL     1      12.799  63.686   4.613  1.00  0.00    -0.025 A 
HETATM    8  C12 UNL     1      12.218  63.940   5.814  1.00  0.00     0.096 A 
HETATM    9  C13 UNL     1      11.950  65.277   6.251  1.00  0.00     0.104 C 
HETATM   10  N2  UNL     1      11.767  66.383   6.556  1.00  0.00    -0.191 NA
HETATM   11  C14 UNL     1      11.906  62.869   6.700  1.00  0.00     0.135 A 
HETATM   12  N3  UNL     1      11.350  62.921   7.891  1.00  0.00    -0.339 N 
ATOM     13  H3  UNL     1      11.017  63.751   8.380  1.00  0.00     0.167 HD
HETATM   14  C15 UNL     1      11.313  61.635   8.335  1.00  0.00     0.061 A 
HETATM   15  C16 UNL     1      10.823  61.159   9.562  1.00  0.00     0.032 A 
HETATM   16  C17 UNL     1      10.906  59.795   9.846  1.00  0.00     0.002 A 
HETATM   17  C18 UNL     1      11.476  58.922   8.927  1.00  0.00     0.002 A 
HETATM   18  C19 UNL     1      11.968  59.382   7.698  1.00  0.00     0.032 A 
HETATM   19  C20 UNL     1      11.867  60.755   7.404  1.00  0.00     0.068 A 
HETATM   20  N4  UNL     1      12.219  61.563   6.314  1.00  0.00    -0.287 N 
ENDROOT
BRANCH   1  21
HETATM   21  S1  UNL     1      13.030  59.606   4.563  1.00  0.00    -0.033 SA
BRANCH  21  22
HETATM   22  C4  UNL     1      14.644  59.412   5.172  1.00  0.00     0.169 A 
HETATM   23  N1  UNL     1      15.472  58.377   4.826  1.00  0.00    -0.307 N 
HETATM   24  C21 UNL     1      16.648  58.596   5.519  1.00  0.00     0.135 A 
HETATM   25  N6  UNL     1      16.498  59.675   6.263  1.00  0.00    -0.283 N 
HETATM   26  N5  UNL     1      15.250  60.195   6.032  1.00  0.00    -0.278 N 
ATOM     27  H6  UNL     1      17.194  60.059   6.903  1.00  0.00     0.188 HD
ATOM     28  H5  UNL     1      14.862  61.040   6.454  1.00  0.00     0.189 HD
BRANCH  23  29
HETATM   29  C3  UNL     1      15.149  57.213   4.019  1.00  0.00     0.159 C 
BRANCH  29  30
HETATM   30  C2  UNL     1      14.600  56.078   4.837  1.00  0.00    -0.017 C 
HETATM   31  C1  UNL     1      13.809  55.111   4.353  1.00  0.00     0.008 C 
ENDBRANCH  29  30
ENDBRANCH  23  29
BRANCH  24  32
HETATM   32  C22 UNL     1      17.836  57.753   5.485  1.00  0.00     0.009 A 
HETATM   33  C23 UNL     1      18.798  57.950   4.486  1.00  0.00     0.015 A 
HETATM   34  C24 UNL     1      19.945  57.155   4.444  1.00  0.00     0.001 A 
HETATM   35  C25 UNL     1      20.135  56.152   5.392  1.00  0.00     0.000 A 
HETATM   36  C26 UNL     1      19.173  55.935   6.378  1.00  0.00     0.001 A 
HETATM   37  C27 UNL     1      18.025  56.729   6.421  1.00  0.00     0.015 A 
ENDBRANCH  24  32
ENDBRANCH  21  22
ENDBRANCH   1  21
TORSDOF 5
ENDMDL
MODEL 4
REMARK minimizedAffinity -6.63313675
REMARK CNNscore 0.314472049
REMARK CNNaffinity 6.16505432
REMARK  5 active torsions:
REMARK  status: ('A' for Active; 'I' for Inactive)
REMARK    1  A    between atoms: C2_2  and  C3_3 
REMARK    2  A    between atoms: C3_3  and  N1_4 
REMARK    3  A    between atoms: C4_5  and  S1_6 
REMARK    4  A    between atoms: S1_6  and  C5_7 
REMARK    5  A    between atoms: C21_31  and  C22_32 
ROOT
HETATM    1  C5  UNL     1      14.663  57.810   1.485  1.00  0.00     0.093 A 
HETATM    2  C6  UNL     1      14.812  57.172   2.681  1.00  0.00    -0.016 A 
HETATM    3  C7  UNL     1      15.656  55.914   2.839  1.00  0.00     0.042 C 
HETATM    4  C8  UNL     1      15.414  55.101   4.103  1.00  0.00     0.005 C 
HETATM    5  C9  UNL     1      15.442  56.013   5.310  1.00  0.00     0.005 C 
HETATM    6  C10 UNL     1      14.301  57.015   5.216  1.00  0.00     0.041 C 
HETATM    7  C11 UNL     1      14.188  57.758   3.892  1.00  0.00    -0.025 A 
HETATM    8  C12 UNL     1      13.500  58.927   3.817  1.00  0.00     0.096 A 
HETATM    9  C13 UNL     1      12.870  59.503   4.967  1.00  0.00     0.104 C 
HETATM   10  N2  UNL     1      12.370  59.915   5.931  1.00  0.00    -0.191 NA
HETATM   11  C14 UNL     1      13.346  59.589   2.565  1.00  0.00     0.135 A 
HETATM   12  N3  UNL     1      12.720  60.715   2.300  1.00  0.00    -0.339 N 
ATOM     13  H3  UNL     1      12.252  61.331   2.964  1.00  0.00     0.167 HD
HETATM   14  C15 UNL     1      12.825  60.885   0.954  1.00  0.00     0.061 A 
HETATM   15  C16 UNL     1      12.310  61.934   0.174  1.00  0.00     0.032 A 
HETATM   16  C17 UNL     1      12.498  61.910  -1.208  1.00  0.00     0.002 A 
HETATM   17  C18 UNL     1      13.180  60.855  -1.804  1.00  0.00     0.002 A 
HETATM   18  C19 UNL     1      13.701  59.803  -1.039  1.00  0.00     0.032 A 
HETATM   19  C20 UNL     1      13.527  59.837   0.358  1.00  0.00     0.068 A 
HETATM   20  N4  UNL     1      13.903  59.007   1.423  1.00  0.00    -0.287 N 
ENDROOT
BRANCH   1  21
HETATM   21  S1  UNL     1      15.450  57.201   0.045  1.00  0.00    -0.033 SA
BRANCH  21  22
HETATM   22  C4  UNL     1      14.173  56.165  -0.510  1.00  0.00     0.169 A 
HETATM   23  N1  UNL     1      14.292  55.305  -1.570  1.00  0.00    -0.307 N 
HETATM   24  C21 UNL     1      13.067  54.675  -1.675  1.00  0.00     0.135 A 
HETATM   25  N6  UNL     1      12.262  55.172  -0.755  1.00  0.00    -0.283 N 
HETATM   26  N5  UNL     1      12.960  56.092  -0.015  1.00  0.00    -0.278 N 
ATOM     27  H6  UNL     1      11.284  54.915  -0.617  1.00  0.00     0.188 HD
ATOM     28  H5  UNL     1      12.601  56.625   0.778  1.00  0.00     0.189 HD
BRANCH  23  29
HETATM   29  C3  UNL     1      15.411  55.176  -2.487  1.00  0.00     0.159 C 
BRANCH  29  30
HETATM   30  C2  UNL     1      16.353  54.071  -2.098  1.00  0.00    -0.017 C 
HETATM   31  C1  UNL     1      17.683  54.209  -2.005  1.00  0.00     0.008 C 
ENDBRANCH  29  30
ENDBRANCH  23  29
BRANCH  24  32
HETATM   32  C22 UNL     1      12.697  53.672  -2.666  1.00  0.00     0.009 A 
HETATM   33  C23 UNL     1      12.091  54.071  -3.864  1.00  0.00     0.015 A 
HETATM   34  C24 UNL     1      11.737  53.123  -4.826  1.00  0.00     0.001 A 
HETATM   35  C25 UNL     1      11.976  51.770  -4.594  1.00  0.00     0.000 A 
HETATM   36  C26 UNL     1      12.560  51.361  -3.396  1.00  0.00     0.001 A 
HETATM   37  C27 UNL     1      12.914  52.308  -2.433  1.00  0.00     0.015 A 
ENDBRANCH  24  32
ENDBRANCH  21  22
ENDBRANCH   1  21
TORSDOF 5
ENDMDL
MODEL 5
REMARK minimizedAffinity -7.21752357
REMARK CNNscore 0.295021415
REMARK CNNaffinity 6.16165924
REMARK  5 active torsions:
REMARK  status: ('A' for Active; 'I' for Inactive)
REMARK    1  A    between atoms: C2_2  and  C3_3 
REMARK    2  A    between atoms: C3_3  and  N1_4 
REMARK    3  A    between atoms: C4_5  and  S1_6 
REMARK    4  A    between atoms: S1_6  and  C5_7 
REMARK    5  A    between atoms: C21_31  and  C22_32 
ROOT
HETATM    1  C5  UNL     1      12.635  61.209   4.943  1.00  0.00     0.093 A 
HETATM    2  C6  UNL     1      13.129  60.248   4.112  1.00  0.00    -0.016 A 
HETATM    3  C7  UNL     1      12.895  58.762   4.347  1.00  0.00     0.042 C 
HETATM    4  C8  UNL     1      13.816  57.813   3.592  1.00  0.00     0.005 C 
HETATM    5  C9  UNL     1      13.862  58.201   2.130  1.00  0.00     0.005 C 
HETATM    6  C10 UNL     1      14.468  59.591   1.993  1.00  0.00     0.041 C 
HETATM    7  C11 UNL     1      13.862  60.661   2.891  1.00  0.00    -0.025 A 
HETATM    8  C12 UNL     1      14.018  61.976   2.590  1.00  0.00     0.096 A 
HETATM    9  C13 UNL     1      14.742  62.402   1.430  1.00  0.00     0.104 C 
HETATM   10  N2  UNL     1      15.348  62.687   0.481  1.00  0.00    -0.191 NA
HETATM   11  C14 UNL     1      13.502  62.977   3.463  1.00  0.00     0.135 A 
HETATM   12  N3  UNL     1      13.557  64.285   3.342  1.00  0.00    -0.339 N 
ATOM     13  H3  UNL     1      13.964  64.816   2.571  1.00  0.00     0.167 HD
HETATM   14  C15 UNL     1      12.960  64.784   4.458  1.00  0.00     0.061 A 
HETATM   15  C16 UNL     1      12.776  66.131   4.810  1.00  0.00     0.032 A 
HETATM   16  C17 UNL     1      12.164  66.440   6.026  1.00  0.00     0.002 A 
HETATM   17  C18 UNL     1      11.751  65.424   6.880  1.00  0.00     0.002 A 
HETATM   18  C19 UNL     1      11.927  64.075   6.541  1.00  0.00     0.032 A 
HETATM   19  C20 UNL     1      12.527  63.764   5.307  1.00  0.00     0.068 A 
HETATM   20  N4  UNL     1      12.849  62.578   4.633  1.00  0.00    -0.287 N 
ENDROOT
BRANCH   1  21
HETATM   21  S1  UNL     1      11.691  60.771   6.352  1.00  0.00    -0.033 SA
BRANCH  21  22
HETATM   22  C4  UNL     1      12.987  60.152   7.328  1.00  0.00     0.169 A 
HETATM   23  N1  UNL     1      12.812  59.257   8.350  1.00  0.00    -0.307 N 
HETATM   24  C21 UNL     1      14.075  59.025   8.859  1.00  0.00     0.135 A 
HETATM   25  N6  UNL     1      14.935  59.779   8.200  1.00  0.00    -0.283 N 
HETATM   26  N5  UNL     1      14.255  60.471   7.230  1.00  0.00    -0.278 N 
ATOM     27  H6  UNL     1      15.938  59.836   8.380  1.00  0.00     0.188 HD
ATOM     28  H5  UNL     1      14.663  61.117   6.554  1.00  0.00     0.189 HD
BRANCH  23  29
HETATM   29  C3  UNL     1      11.558  58.759   8.890  1.00  0.00     0.159 C 
BRANCH  29  30
HETATM   30  C2  UNL     1      10.982  59.667   9.940  1.00  0.00    -0.017 C 
HETATM   31  C1  UNL     1      10.201  60.724   9.680  1.00  0.00     0.008 C 
ENDBRANCH  29  30
ENDBRANCH  23  29
BRANCH  24  32
HETATM   32  C22 UNL     1      14.406  58.145   9.973  1.00  0.00     0.009 A 
HETATM   33  C23 UNL     1      15.694  58.178  10.524  1.00  0.00     0.015 A 
HETATM   34  C24 UNL     1      16.025  57.346  11.595  1.00  0.00     0.001 A 
HETATM   35  C25 UNL     1      15.077  56.468  12.116  1.00  0.00     0.000 A 
HETATM   36  C26 UNL     1      13.799  56.413  11.561  1.00  0.00     0.001 A 
HETATM   37  C27 UNL     1      13.466  57.245  10.490  1.00  0.00     0.015 A 
ENDBRANCH  24  32
ENDBRANCH  21  22
ENDBRANCH   1  21
TORSDOF 5
ENDMDL
MODEL 6
REMARK minimizedAffinity -5.98734713
REMARK CNNscore 0.275134206
REMARK CNNaffinity 6.22620821
REMARK  5 active torsions:
REMARK  status: ('A' for Active; 'I' for Inactive)
REMARK    1  A    between atoms: C2_2  and  C3_3 
REMARK    2  A    between atoms: C3_3  and  N1_4 
REMARK    3  A    between atoms: C4_5  and  S1_6 
REMARK    4  A    between atoms: S1_6  and  C5_7 
REMARK    5  A    between atoms: C21_31  and  C22_32 
ROOT
HETATM    1  C5  UNL     1      13.478  58.550   3.376  1.00  0.00     0.093 A 
HETATM    2  C6  UNL     1      13.422  58.089   2.094  1.00  0.00    -0.016 A 
HETATM    3  C7  UNL     1      13.648  56.625   1.739  1.00  0.00     0.042 C 
HETATM    4  C8  UNL     1      13.949  56.331   0.277  1.00  0.00     0.005 C 
HETATM    5  C9  UNL     1      12.931  57.024  -0.604  1.00  0.00     0.005 C 
HETATM    6  C10 UNL     1      13.054  58.531  -0.432  1.00  0.00     0.041 C 
HETATM    7  C11 UNL     1      13.057  59.028   1.007  1.00  0.00    -0.025 A 
HETATM    8  C12 UNL     1      12.758  60.324   1.285  1.00  0.00     0.096 A 
HETATM    9  C13 UNL     1      12.425  61.257   0.251  1.00  0.00     0.104 C 
HETATM   10  N2  UNL     1      12.174  61.971  -0.630  1.00  0.00    -0.191 NA
HETATM   11  C14 UNL     1      12.819  60.802   2.626  1.00  0.00     0.135 A 
HETATM   12  N3  UNL     1      12.570  62.009   3.083  1.00  0.00    -0.339 N 
ATOM     13  H3  UNL     1      12.256  62.818   2.547  1.00  0.00     0.167 HD
HETATM   14  C15 UNL     1      12.817  61.955   4.419  1.00  0.00     0.061 A 
HETATM   15  C16 UNL     1      12.710  62.992   5.360  1.00  0.00     0.032 A 
HETATM   16  C17 UNL     1      13.044  62.742   6.692  1.00  0.00     0.002 A 
HETATM   17  C18 UNL     1      13.486  61.481   7.077  1.00  0.00     0.002 A 
HETATM   18  C19 UNL     1      13.597  60.436   6.150  1.00  0.00     0.032 A 
HETATM   19  C20 UNL     1      13.242  60.685   4.811  1.00  0.00     0.068 A 
HETATM   20  N4  UNL     1      13.204  59.918   3.638  1.00  0.00    -0.287 N 
ENDROOT
BRANCH   1  21
HETATM   21  S1  UNL     1      13.822  57.460   4.702  1.00  0.00    -0.033 SA
BRANCH  21  22
HETATM   22  C4  UNL     1      15.555  57.551   4.647  1.00  0.00     0.169 A 
HETATM   23  N1  UNL     1      16.361  56.518   4.249  1.00  0.00    -0.307 N 
HETATM   24  C21 UNL     1      17.653  56.998   4.348  1.00  0.00     0.135 A 
HETATM   25  N6  UNL     1      17.606  58.230   4.821  1.00  0.00    -0.283 N 
HETATM   26  N5  UNL     1      16.291  58.581   4.992  1.00  0.00    -0.278 N 
ATOM     27  H6  UNL     1      18.411  58.821   5.024  1.00  0.00     0.188 HD
ATOM     28  H5  UNL     1      15.947  59.481   5.326  1.00  0.00     0.189 HD
BRANCH  23  29
HETATM   29  C3  UNL     1      15.968  55.156   3.928  1.00  0.00     0.159 C 
BRANCH  29  30
HETATM   30  C2  UNL     1      15.723  54.322   5.153  1.00  0.00    -0.017 C 
HETATM   31  C1  UNL     1      14.541  53.780   5.475  1.00  0.00     0.008 C 
ENDBRANCH  29  30
ENDBRANCH  23  29
BRANCH  24  32
HETATM   32  C22 UNL     1      18.872  56.260   4.040  1.00  0.00     0.009 A 
HETATM   33  C23 UNL     1      18.793  54.904   3.696  1.00  0.00     0.015 A 
HETATM   34  C24 UNL     1      19.950  54.185   3.391  1.00  0.00     0.001 A 
HETATM   35  C25 UNL     1      21.194  54.811   3.439  1.00  0.00     0.000 A 
HETATM   36  C26 UNL     1      21.284  56.155   3.800  1.00  0.00     0.001 A 
HETATM   37  C27 UNL     1      20.128  56.875   4.105  1.00  0.00     0.015 A 
ENDBRANCH  24  32
ENDBRANCH  21  22
ENDBRANCH   1  21
TORSDOF 5
ENDMDL
MODEL 7
REMARK minimizedAffinity -7.16456938
REMARK CNNscore 0.23606585
REMARK CNNaffinity 6.1923728
REMARK  5 active torsions:
REMARK  status: ('A' for Active; 'I' for Inactive)
REMARK    1  A    between atoms: C2_2  and  C3_3 
REMARK    2  A    between atoms: C3_3  and  N1_4 
REMARK    3  A    between atoms: C4_5  and  S1_6 
REMARK    4  A    between atoms: S1_6  and  C5_7 
REMARK    5  A    between atoms: C21_31  and  C22_32 
ROOT
HETATM    1  C5  UNL     1      13.895  61.108   1.960  1.00  0.00     0.093 A 
HETATM    2  C6  UNL     1      13.584  62.042   1.017  1.00  0.00    -0.016 A 
HETATM    3  C7  UNL     1      13.916  63.519   1.185  1.00  0.00     0.042 C 
HETATM    4  C8  UNL     1      13.174  64.480   0.267  1.00  0.00     0.005 C 
HETATM    5  C9  UNL     1      13.261  63.991  -1.163  1.00  0.00     0.005 C 
HETATM    6  C10 UNL     1      12.558  62.647  -1.284  1.00  0.00     0.041 C 
HETATM    7  C11 UNL     1      12.962  61.601  -0.255  1.00  0.00    -0.025 A 
HETATM    8  C12 UNL     1      12.729  60.283  -0.489  1.00  0.00     0.096 A 
HETATM    9  C13 UNL     1      12.110  59.832  -1.698  1.00  0.00     0.104 C 
HETATM   10  N2  UNL     1      11.593  59.528  -2.694  1.00  0.00    -0.191 NA
HETATM   11  C14 UNL     1      13.054  59.311   0.501  1.00  0.00     0.135 A 
HETATM   12  N3  UNL     1      12.900  58.006   0.456  1.00  0.00    -0.339 N 
ATOM     13  H3  UNL     1      12.541  57.454  -0.323  1.00  0.00     0.167 HD
HETATM   14  C15 UNL     1      13.321  57.545   1.665  1.00  0.00     0.061 A 
HETATM   15  C16 UNL     1      13.347  56.216   2.121  1.00  0.00     0.032 A 
HETATM   16  C17 UNL     1      13.786  55.949   3.418  1.00  0.00     0.002 A 
HETATM   17  C18 UNL     1      14.185  56.989   4.250  1.00  0.00     0.002 A 
HETATM   18  C19 UNL     1      14.166  58.319   3.809  1.00  0.00     0.032 A 
HETATM   19  C20 UNL     1      13.740  58.586   2.494  1.00  0.00     0.068 A 
HETATM   20  N4  UNL     1      13.601  59.742   1.713  1.00  0.00    -0.287 N 
ENDROOT
BRANCH   1  21
HETATM   21  S1  UNL     1      14.705  61.572   3.442  1.00  0.00    -0.033 SA
BRANCH  21  22
HETATM   22  C4  UNL     1      13.300  61.722   4.450  1.00  0.00     0.169 A 
HETATM   23  N1  UNL     1      13.293  61.460   5.795  1.00  0.00    -0.307 N 
HETATM   24  C21 UNL     1      11.998  61.701   6.212  1.00  0.00     0.135 A 
HETATM   25  N6  UNL     1      11.278  62.044   5.161  1.00  0.00    -0.283 N 
HETATM   26  N5  UNL     1      12.097  62.073   4.061  1.00  0.00    -0.278 N 
ATOM     27  H6  UNL     1      10.279  62.252   5.165  1.00  0.00     0.188 HD
ATOM     28  H5  UNL     1      11.821  62.323   3.111  1.00  0.00     0.189 HD
BRANCH  23  29
HETATM   29  C3  UNL     1      14.370  60.905   6.597  1.00  0.00     0.159 C 
BRANCH  29  30
HETATM   30  C2  UNL     1      14.093  59.495   7.039  1.00  0.00    -0.017 C 
HETATM   31  C1  UNL     1      14.505  58.973   8.202  1.00  0.00     0.008 C 
ENDBRANCH  29  30
ENDBRANCH  23  29
BRANCH  24  32
HETATM   32  C22 UNL     1      11.490  61.552   7.570  1.00  0.00     0.009 A 
HETATM   33  C23 UNL     1      10.683  60.453   7.891  1.00  0.00     0.015 A 
HETATM   34  C24 UNL     1      10.193  60.291   9.188  1.00  0.00     0.001 A 
HETATM   35  C25 UNL     1      10.497  61.231  10.171  1.00  0.00     0.000 A 
HETATM   36  C26 UNL     1      11.282  62.340   9.856  1.00  0.00     0.001 A 
HETATM   37  C27 UNL     1      11.772  62.502   8.559  1.00  0.00     0.015 A 
ENDBRANCH  24  32
ENDBRANCH  21  22
ENDBRANCH   1  21
TORSDOF 5
ENDMDL
MODEL 8
REMARK minimizedAffinity -7.04047823
REMARK CNNscore 0.179948732
REMARK CNNaffinity 6.02862406
REMARK  5 active torsions:
REMARK  status: ('A' for Active; 'I' for Inactive)
REMARK    1  A    between atoms: C2_2  and  C3_3 
REMARK    2  A    between atoms: C3_3  and  N1_4 
REMARK    3  A    between atoms: C4_5  and  S1_6 
REMARK    4  A    between atoms: S1_6  and  C5_7 
REMARK    5  A    between atoms: C21_31  and  C22_32 
ROOT
HETATM    1  C5  UNL     1      12.632  54.551  -3.602  1.00  0.00     0.093 A 
HETATM    2  C6  UNL     1      11.867  54.460  -4.727  1.00  0.00    -0.016 A 
HETATM    3  C7  UNL     1      12.010  53.318  -5.724  1.00  0.00     0.042 C 
HETATM    4  C8  UNL     1      11.395  53.549  -7.097  1.00  0.00     0.005 C 
HETATM    5  C9  UNL     1       9.977  54.053  -6.943  1.00  0.00     0.005 C 
HETATM    6  C10 UNL     1       9.991  55.404  -6.243  1.00  0.00     0.041 C 
HETATM    7  C11 UNL     1      10.806  55.468  -4.959  1.00  0.00    -0.025 A 
HETATM    8  C12 UNL     1      10.579  56.454  -4.052  1.00  0.00     0.096 A 
HETATM    9  C13 UNL     1       9.576  57.453  -4.262  1.00  0.00     0.104 C 
HETATM   10  N2  UNL     1       8.755  58.243  -4.493  1.00  0.00    -0.191 NA
HETATM   11  C14 UNL     1      11.382  56.547  -2.878  1.00  0.00     0.135 A 
HETATM   12  N3  UNL     1      11.315  57.423  -1.900  1.00  0.00    -0.339 N 
ATOM     13  H3  UNL     1      10.643  58.184  -1.801  1.00  0.00     0.167 HD
HETATM   14  C15 UNL     1      12.326  57.103  -1.049  1.00  0.00     0.061 A 
HETATM   15  C16 UNL     1      12.685  57.747   0.146  1.00  0.00     0.032 A 
HETATM   16  C17 UNL     1      13.786  57.282   0.866  1.00  0.00     0.002 A 
HETATM   17  C18 UNL     1      14.523  56.200   0.399  1.00  0.00     0.002 A 
HETATM   18  C19 UNL     1      14.176  55.547  -0.792  1.00  0.00     0.032 A 
HETATM   19  C20 UNL     1      13.054  56.004  -1.508  1.00  0.00     0.068 A 
HETATM   20  N4  UNL     1      12.407  55.616  -2.690  1.00  0.00    -0.287 N 
ENDROOT
BRANCH   1  21
HETATM   21  S1  UNL     1      13.842  53.337  -3.244  1.00  0.00    -0.033 SA
BRANCH  21  22
HETATM   22  C4  UNL     1      12.789  52.143  -2.549  1.00  0.00     0.169 A 
HETATM   23  N1  UNL     1      13.110  50.817  -2.433  1.00  0.00    -0.307 N 
HETATM   24  C21 UNL     1      12.016  50.223  -1.834  1.00  0.00     0.135 A 
HETATM   25  N6  UNL     1      11.089  51.144  -1.650  1.00  0.00    -0.283 N 
HETATM   26  N5  UNL     1      11.580  52.350  -2.082  1.00  0.00    -0.278 N 
ATOM     27  H6  UNL     1      10.163  50.987  -1.252  1.00  0.00     0.188 HD
ATOM     28  H5  UNL     1      11.094  53.246  -2.047  1.00  0.00     0.189 HD
BRANCH  23  29
HETATM   29  C3  UNL     1      14.283  50.137  -2.955  1.00  0.00     0.159 C 
BRANCH  29  30
HETATM   30  C2  UNL     1      14.134  49.757  -4.402  1.00  0.00    -0.017 C 
HETATM   31  C1  UNL     1      12.966  49.717  -5.056  1.00  0.00     0.008 C 
ENDBRANCH  29  30
ENDBRANCH  23  29
BRANCH  24  32
HETATM   32  C22 UNL     1      11.875  48.809  -1.507  1.00  0.00     0.009 A 
HETATM   33  C23 UNL     1      10.610  48.290  -1.202  1.00  0.00     0.015 A 
HETATM   34  C24 UNL     1      10.458  46.937  -0.894  1.00  0.00     0.001 A 
HETATM   35  C25 UNL     1      11.568  46.095  -0.877  1.00  0.00     0.000 A 
HETATM   36  C26 UNL     1      12.834  46.607  -1.159  1.00  0.00     0.001 A 
HETATM   37  C27 UNL     1      12.988  47.960  -1.468  1.00  0.00     0.015 A 
ENDBRANCH  24  32
ENDBRANCH  21  22
ENDBRANCH   1  21
TORSDOF 5
ENDMDL
MODEL 9
REMARK minimizedAffinity -6.54230785
REMARK CNNscore 0.166176602
REMARK CNNaffinity 5.27946663
REMARK  5 active torsions:
REMARK  status: ('A' for Active; 'I' for Inactive)
REMARK    1  A    between atoms: C2_2  and  C3_3 
REMARK    2  A    between atoms: C3_3  and  N1_4 
REMARK    3  A    between atoms: C4_5  and  S1_6 
REMARK    4  A    between atoms: S1_6  and  C5_7 
REMARK    5  A    between atoms: C21_31  and  C22_32 
ROOT
HETATM    1  C5  UNL     1      18.394  44.837   3.737  1.00  0.00     0.093 A 
HETATM    2  C6  UNL     1      18.462  44.778   5.097  1.00  0.00    -0.016 A 
HETATM    3  C7  UNL     1      19.652  44.178   5.833  1.00  0.00     0.042 C 
HETATM    4  C8  UNL     1      19.423  43.820   7.295  1.00  0.00     0.005 C 
HETATM    5  C9  UNL     1      18.785  44.990   8.013  1.00  0.00     0.005 C 
HETATM    6  C10 UNL     1      17.414  45.267   7.415  1.00  0.00     0.041 C 
HETATM    7  C11 UNL     1      17.371  45.384   5.898  1.00  0.00    -0.025 A 
HETATM    8  C12 UNL     1      16.333  46.012   5.288  1.00  0.00     0.096 A 
HETATM    9  C13 UNL     1      15.256  46.585   6.037  1.00  0.00     0.104 C 
HETATM   10  N2  UNL     1      14.405  47.021   6.697  1.00  0.00    -0.191 NA
HETATM   11  C14 UNL     1      16.266  46.069   3.866  1.00  0.00     0.135 A 
HETATM   12  N3  UNL     1      15.347  46.624   3.106  1.00  0.00    -0.339 N 
ATOM     13  H3  UNL     1      14.524  47.143   3.412  1.00  0.00     0.167 HD
HETATM   14  C15 UNL     1      15.723  46.362   1.825  1.00  0.00     0.061 A 
HETATM   15  C16 UNL     1      15.066  46.731   0.639  1.00  0.00     0.032 A 
HETATM   16  C17 UNL     1      15.599  46.333  -0.587  1.00  0.00     0.002 A 
HETATM   17  C18 UNL     1      16.762  45.573  -0.632  1.00  0.00     0.002 A 
HETATM   18  C19 UNL     1      17.429  45.198   0.542  1.00  0.00     0.032 A 
HETATM   19  C20 UNL     1      16.901  45.616   1.778  1.00  0.00     0.068 A 
HETATM   20  N4  UNL     1      17.277  45.458   3.119  1.00  0.00    -0.287 N 
ENDROOT
BRANCH   1  21
HETATM   21  S1  UNL     1      19.698  44.209   2.751  1.00  0.00    -0.033 SA
BRANCH  21  22
HETATM   22  C4  UNL     1      19.171  42.557   2.675  1.00  0.00     0.169 A 
HETATM   23  N1  UNL     1      20.021  41.487   2.578  1.00  0.00    -0.307 N 
HETATM   24  C21 UNL     1      19.209  40.370   2.548  1.00  0.00     0.135 A 
HETATM   25  N6  UNL     1      17.951  40.768   2.581  1.00  0.00    -0.283 N 
HETATM   26  N5  UNL     1      17.928  42.136   2.677  1.00  0.00    -0.278 N 
ATOM     27  H6  UNL     1      17.132  40.160   2.541  1.00  0.00     0.188 HD
ATOM     28  H5  UNL     1      17.095  42.721   2.740  1.00  0.00     0.189 HD
BRANCH  23  29
HETATM   29  C3  UNL     1      21.463  41.512   2.398  1.00  0.00     0.159 C 
BRANCH  29  30
HETATM   30  C2  UNL     1      22.207  41.097   3.636  1.00  0.00    -0.017 C 
HETATM   31  C1  UNL     1      21.812  41.378   4.885  1.00  0.00     0.008 C 
ENDBRANCH  29  30
ENDBRANCH  23  29
BRANCH  24  32
HETATM   32  C22 UNL     1      19.653  38.986   2.441  1.00  0.00     0.009 A 
HETATM   33  C23 UNL     1      19.822  38.408   1.176  1.00  0.00     0.015 A 
HETATM   34  C24 UNL     1      20.253  37.085   1.057  1.00  0.00     0.001 A 
HETATM   35  C25 UNL     1      20.507  36.328   2.198  1.00  0.00     0.000 A 
HETATM   36  C26 UNL     1      20.322  36.888   3.462  1.00  0.00     0.001 A 
HETATM   37  C27 UNL     1      19.891  38.210   3.583  1.00  0.00     0.015 A 
ENDBRANCH  24  32
ENDBRANCH  21  22
ENDBRANCH   1  21
TORSDOF 5
ENDMDL
