MODEL 1
REMARK minimizedAffinity -6.92259264
REMARK CNNscore 0.708865941
REMARK CNNaffinity 6.92142248
REMARK  4 active torsions:
REMARK  status: ('A' for Active; 'I' for Inactive)
REMARK    1  A    between atoms: C4_4  and  C5_5 
REMARK    2  A    between atoms: C5_5  and  C6_7 
REMARK    3  A    between atoms: C6_7  and  C7_8 
REMARK    4  A    between atoms: C7_8  and  C9_10 
ROOT
HETATM    1  C9  UNL     1      -1.651  52.204 -10.527  1.00  0.00    -0.001 C 
HETATM    2  C10 UNL     1      -0.924  50.874 -10.849  1.00  0.00     0.007 C 
HETATM    3  C11 UNL     1       0.593  51.175 -10.829  1.00  0.00     0.015 C 
HETATM    4  C12 UNL     1       0.704  52.710 -10.695  1.00  0.00    -0.013 C 
HETATM    5  C13 UNL     1       0.633  53.272 -12.152  1.00  0.00     0.021 C 
HETATM    6  C14 UNL     1       1.964  53.301 -10.075  1.00  0.00    -0.070 C 
HETATM    7  C15 UNL     1       3.160  52.698 -10.162  1.00  0.00    -0.022 C 
HETATM    8  C16 UNL     1       4.442  53.252  -9.629  1.00  0.00     0.034 C 
HETATM    9  C17 UNL     1       4.394  54.655  -8.973  1.00  0.00     0.013 C 
HETATM   10  C18 UNL     1       4.714  54.661  -7.433  1.00  0.00     0.018 C 
HETATM   11  C19 UNL     1       6.126  54.083  -7.179  1.00  0.00     0.023 C 
HETATM   12  C20 UNL     1       3.703  53.882  -6.579  1.00  0.00     0.023 C 
HETATM   13  C21 UNL     1       4.743  56.112  -6.920  1.00  0.00     0.135 C 
HETATM   14  O2  UNL     1       5.135  56.397  -5.786  1.00  0.00    -0.297 OA
HETATM   15  C22 UNL     1       4.274  57.197  -7.858  1.00  0.00     0.080 C 
HETATM   16  C23 UNL     1       2.967  56.748  -8.488  1.00  0.00     0.017 C 
HETATM   17  C24 UNL     1       3.131  55.503  -9.408  1.00  0.00    -0.031 C 
HETATM   18  C25 UNL     1       3.382  56.015 -10.855  1.00  0.00     0.016 C 
HETATM   19  C26 UNL     1       1.817  54.635  -9.355  1.00  0.00     0.024 C 
HETATM   20  C27 UNL     1       0.518  55.395  -9.733  1.00  0.00     0.010 C 
HETATM   21  C28 UNL     1      -0.779  54.549  -9.745  1.00  0.00     0.011 C 
HETATM   22  C29 UNL     1      -0.540  53.026  -9.796  1.00  0.00    -0.029 C 
HETATM   23  C30 UNL     1      -0.404  52.500  -8.331  1.00  0.00     0.016 C 
ENDROOT
BRANCH   1  24
HETATM   24  C7  UNL     1      -3.050  52.132  -9.848  1.00  0.00    -0.007 C 
HETATM   25  C8  UNL     1      -4.051  53.041 -10.582  1.00  0.00     0.011 C 
BRANCH  24  26
HETATM   26  C6  UNL     1      -3.647  50.734  -9.581  1.00  0.00     0.087 C 
BRANCH  26  27
HETATM   27  C5  UNL     1      -4.634  50.166 -10.599  1.00  0.00     0.149 C 
HETATM   28  O1  UNL     1      -4.292  49.711 -11.684  1.00  0.00    -0.293 OA
BRANCH  27  29
HETATM   29  C4  UNL     1      -6.074  50.202 -10.178  1.00  0.00     0.052 C 
HETATM   30  C2  UNL     1      -6.890  49.156  -9.950  1.00  0.00    -0.084 C 
HETATM   31  C1  UNL     1      -6.538  47.702 -10.109  1.00  0.00     0.043 C 
HETATM   32  C3  UNL     1      -8.311  49.391  -9.494  1.00  0.00     0.043 C 
ENDBRANCH  27  29
ENDBRANCH  26  27
ENDBRANCH  24  26
ENDBRANCH   1  24
TORSDOF 4
ENDMDL
MODEL 2
REMARK minimizedAffinity -7.3329792
REMARK CNNscore 0.598452091
REMARK CNNaffinity 7.13573217
REMARK  4 active torsions:
REMARK  status: ('A' for Active; 'I' for Inactive)
REMARK    1  A    between atoms: C4_4  and  C5_5 
REMARK    2  A    between atoms: C5_5  and  C6_7 
REMARK    3  A    between atoms: C6_7  and  C7_8 
REMARK    4  A    between atoms: C7_8  and  C9_10 
ROOT
HETATM    1  C9  UNL     1      -1.938  52.154 -11.094  1.00  0.00    -0.001 C 
HETATM    2  C10 UNL     1      -2.801  53.437 -11.178  1.00  0.00     0.007 C 
HETATM    3  C11 UNL     1      -2.193  54.453 -10.182  1.00  0.00     0.015 C 
HETATM    4  C12 UNL     1      -1.117  53.666  -9.401  1.00  0.00    -0.013 C 
HETATM    5  C13 UNL     1      -1.868  52.982  -8.213  1.00  0.00     0.021 C 
HETATM    6  C14 UNL     1       0.045  54.433  -8.783  1.00  0.00    -0.070 C 
HETATM    7  C15 UNL     1      -0.071  55.706  -8.372  1.00  0.00    -0.022 C 
HETATM    8  C16 UNL     1       1.010  56.494  -7.704  1.00  0.00     0.034 C 
HETATM    9  C17 UNL     1       2.348  55.767  -7.416  1.00  0.00     0.013 C 
HETATM   10  C18 UNL     1       3.576  56.330  -8.220  1.00  0.00     0.018 C 
HETATM   11  C19 UNL     1       3.788  57.828  -7.894  1.00  0.00     0.023 C 
HETATM   12  C20 UNL     1       3.456  56.170  -9.743  1.00  0.00     0.023 C 
HETATM   13  C21 UNL     1       4.859  55.606  -7.772  1.00  0.00     0.135 C 
HETATM   14  O2  UNL     1       5.979  55.978  -8.129  1.00  0.00    -0.297 OA
HETATM   15  C22 UNL     1       4.708  54.410  -6.865  1.00  0.00     0.080 C 
HETATM   16  C23 UNL     1       3.614  53.521  -7.429  1.00  0.00     0.017 C 
HETATM   17  C24 UNL     1       2.210  54.191  -7.401  1.00  0.00    -0.031 C 
HETATM   18  C25 UNL     1       1.522  53.791  -6.064  1.00  0.00     0.016 C 
HETATM   19  C26 UNL     1       1.361  53.683  -8.626  1.00  0.00     0.024 C 
HETATM   20  C27 UNL     1       1.200  52.142  -8.714  1.00  0.00     0.010 C 
HETATM   21  C28 UNL     1       0.321  51.620  -9.877  1.00  0.00     0.011 C 
HETATM   22  C29 UNL     1      -0.592  52.691 -10.510  1.00  0.00    -0.029 C 
HETATM   23  C30 UNL     1       0.204  53.406 -11.648  1.00  0.00     0.016 C 
ENDROOT
BRANCH   1  24
HETATM   24  C7  UNL     1      -1.856  51.239 -12.352  1.00  0.00    -0.007 C 
HETATM   25  C8  UNL     1      -3.241  50.658 -12.686  1.00  0.00     0.011 C 
BRANCH  24  26
HETATM   26  C6  UNL     1      -1.164  51.808 -13.609  1.00  0.00     0.087 C 
BRANCH  26  27
HETATM   27  C5  UNL     1      -0.151  50.925 -14.335  1.00  0.00     0.149 C 
HETATM   28  O1  UNL     1      -0.279  49.711 -14.450  1.00  0.00    -0.293 OA
BRANCH  27  29
HETATM   29  C4  UNL     1       1.032  51.650 -14.906  1.00  0.00     0.052 C 
HETATM   30  C2  UNL     1       1.300  51.891 -16.204  1.00  0.00    -0.084 C 
HETATM   31  C1  UNL     1       0.476  51.443 -17.380  1.00  0.00     0.043 C 
HETATM   32  C3  UNL     1       2.531  52.676 -16.588  1.00  0.00     0.043 C 
ENDBRANCH  27  29
ENDBRANCH  26  27
ENDBRANCH  24  26
ENDBRANCH   1  24
TORSDOF 4
ENDMDL
MODEL 3
REMARK minimizedAffinity -7.38810682
REMARK CNNscore 0.491579682
REMARK CNNaffinity 6.82682419
REMARK  4 active torsions:
REMARK  status: ('A' for Active; 'I' for Inactive)
REMARK    1  A    between atoms: C4_4  and  C5_5 
REMARK    2  A    between atoms: C5_5  and  C6_7 
REMARK    3  A    between atoms: C6_7  and  C7_8 
REMARK    4  A    between atoms: C7_8  and  C9_10 
ROOT
HETATM    1  C9  UNL     1       4.291  53.579  -9.222  1.00  0.00    -0.001 C 
HETATM    2  C10 UNL     1       4.628  52.068  -9.271  1.00  0.00     0.007 C 
HETATM    3  C11 UNL     1       3.281  51.306  -9.242  1.00  0.00     0.015 C 
HETATM    4  C12 UNL     1       2.207  52.385  -8.975  1.00  0.00    -0.013 C 
HETATM    5  C13 UNL     1       2.132  52.537  -7.421  1.00  0.00     0.021 C 
HETATM    6  C14 UNL     1       0.781  52.129  -9.445  1.00  0.00    -0.070 C 
HETATM    7  C15 UNL     1       0.265  50.893  -9.540  1.00  0.00    -0.022 C 
HETATM    8  C16 UNL     1      -1.141  50.578  -9.936  1.00  0.00     0.034 C 
HETATM    9  C17 UNL     1      -2.091  51.772 -10.204  1.00  0.00     0.013 C 
HETATM   10  C18 UNL     1      -2.575  51.892 -11.696  1.00  0.00     0.018 C 
HETATM   11  C19 UNL     1      -3.324  50.606 -12.119  1.00  0.00     0.023 C 
HETATM   12  C20 UNL     1      -1.447  52.158 -12.703  1.00  0.00     0.023 C 
HETATM   13  C21 UNL     1      -3.592  53.042 -11.816  1.00  0.00     0.135 C 
HETATM   14  O2  UNL     1      -4.244  53.233 -12.844  1.00  0.00    -0.297 OA
HETATM   15  C22 UNL     1      -3.775  53.942 -10.619  1.00  0.00     0.080 C 
HETATM   16  C23 UNL     1      -2.401  54.331 -10.102  1.00  0.00     0.017 C 
HETATM   17  C24 UNL     1      -1.598  53.121  -9.540  1.00  0.00    -0.031 C 
HETATM   18  C25 UNL     1      -1.889  53.029  -8.015  1.00  0.00     0.016 C 
HETATM   19  C26 UNL     1      -0.060  53.351  -9.791  1.00  0.00     0.024 C 
HETATM   20  C27 UNL     1       0.507  54.670  -9.204  1.00  0.00     0.010 C 
HETATM   21  C28 UNL     1       2.028  54.891  -9.386  1.00  0.00     0.011 C 
HETATM   22  C29 UNL     1       2.816  53.612  -9.737  1.00  0.00    -0.029 C 
HETATM   23  C30 UNL     1       2.819  53.446 -11.290  1.00  0.00     0.016 C 
ENDROOT
BRANCH   1  24
HETATM   24  C7  UNL     1       5.296  54.577  -9.870  1.00  0.00    -0.007 C 
HETATM   25  C8  UNL     1       4.546  55.625 -10.710  1.00  0.00     0.011 C 
BRANCH  24  26
HETATM   26  C6  UNL     1       6.347  55.236  -8.951  1.00  0.00     0.087 C 
BRANCH  26  27
HETATM   27  C5  UNL     1       5.917  55.643  -7.543  1.00  0.00     0.149 C 
HETATM   28  O1  UNL     1       6.315  55.078  -6.530  1.00  0.00    -0.293 OA
BRANCH  27  29
HETATM   29  C4  UNL     1       4.962  56.797  -7.477  1.00  0.00     0.052 C 
HETATM   30  C2  UNL     1       3.785  56.855  -6.825  1.00  0.00    -0.084 C 
HETATM   31  C1  UNL     1       3.147  55.740  -6.041  1.00  0.00     0.043 C 
HETATM   32  C3  UNL     1       2.971  58.127  -6.845  1.00  0.00     0.043 C 
ENDBRANCH  27  29
ENDBRANCH  26  27
ENDBRANCH  24  26
ENDBRANCH   1  24
TORSDOF 4
ENDMDL
MODEL 4
REMARK minimizedAffinity -7.24965763
REMARK CNNscore 0.385456324
REMARK CNNaffinity 6.89359665
REMARK  4 active torsions:
REMARK  status: ('A' for Active; 'I' for Inactive)
REMARK    1  A    between atoms: C4_4  and  C5_5 
REMARK    2  A    between atoms: C5_5  and  C6_7 
REMARK    3  A    between atoms: C6_7  and  C7_8 
REMARK    4  A    between atoms: C7_8  and  C9_10 
ROOT
HETATM    1  C9  UNL     1      -1.817  50.099 -14.978  1.00  0.00    -0.001 C 
HETATM    2  C10 UNL     1      -2.928  51.093 -15.396  1.00  0.00     0.007 C 
HETATM    3  C11 UNL     1      -3.284  51.925 -14.140  1.00  0.00     0.015 C 
HETATM    4  C12 UNL     1      -2.514  51.258 -12.978  1.00  0.00    -0.013 C 
HETATM    5  C13 UNL     1      -3.439  50.112 -12.456  1.00  0.00     0.021 C 
HETATM    6  C14 UNL     1      -2.156  52.101 -11.760  1.00  0.00    -0.070 C 
HETATM    7  C15 UNL     1      -2.902  53.143 -11.361  1.00  0.00    -0.022 C 
HETATM    8  C16 UNL     1      -2.640  53.971 -10.145  1.00  0.00     0.034 C 
HETATM    9  C17 UNL     1      -1.446  53.560  -9.246  1.00  0.00     0.013 C 
HETATM   10  C18 UNL     1      -0.278  54.613  -9.201  1.00  0.00     0.018 C 
HETATM   11  C19 UNL     1      -0.803  55.970  -8.674  1.00  0.00     0.023 C 
HETATM   12  C20 UNL     1       0.413  54.844 -10.553  1.00  0.00     0.023 C 
HETATM   13  C21 UNL     1       0.794  54.147  -8.198  1.00  0.00     0.135 C 
HETATM   14  O2  UNL     1       1.729  54.875  -7.856  1.00  0.00    -0.297 OA
HETATM   15  C22 UNL     1       0.668  52.754  -7.634  1.00  0.00     0.080 C 
HETATM   16  C23 UNL     1       0.382  51.801  -8.781  1.00  0.00     0.017 C 
HETATM   17  C24 UNL     1      -0.997  52.057  -9.456  1.00  0.00    -0.031 C 
HETATM   18  C25 UNL     1      -2.045  51.150  -8.749  1.00  0.00     0.016 C 
HETATM   19  C26 UNL     1      -0.907  51.698 -10.986  1.00  0.00     0.024 C 
HETATM   20  C27 UNL     1      -0.440  50.249 -11.290  1.00  0.00     0.010 C 
HETATM   21  C28 UNL     1      -0.400  49.853 -12.786  1.00  0.00     0.011 C 
HETATM   22  C29 UNL     1      -1.212  50.785 -13.710  1.00  0.00    -0.029 C 
HETATM   23  C30 UNL     1      -0.286  51.958 -14.163  1.00  0.00     0.016 C 
ENDROOT
BRANCH   1  24
HETATM   24  C7  UNL     1      -0.820  49.610 -16.069  1.00  0.00    -0.007 C 
HETATM   25  C8  UNL     1      -1.488  48.561 -16.976  1.00  0.00     0.011 C 
BRANCH  24  26
HETATM   26  C6  UNL     1      -0.077  50.681 -16.896  1.00  0.00     0.087 C 
BRANCH  26  27
HETATM   27  C5  UNL     1      -0.805  51.303 -18.087  1.00  0.00     0.149 C 
HETATM   28  O1  UNL     1      -1.883  50.896 -18.502  1.00  0.00    -0.293 OA
BRANCH  27  29
HETATM   29  C4  UNL     1      -0.102  52.464 -18.726  1.00  0.00     0.052 C 
HETATM   30  C2  UNL     1       0.363  52.551 -19.987  1.00  0.00    -0.084 C 
HETATM   31  C1  UNL     1       0.311  51.469 -21.030  1.00  0.00     0.043 C 
HETATM   32  C3  UNL     1       1.017  53.826 -20.465  1.00  0.00     0.043 C 
ENDBRANCH  27  29
ENDBRANCH  26  27
ENDBRANCH  24  26
ENDBRANCH   1  24
TORSDOF 4
ENDMDL
MODEL 5
REMARK minimizedAffinity -7.09598207
REMARK CNNscore 0.346638739
REMARK CNNaffinity 6.67171431
REMARK  4 active torsions:
REMARK  status: ('A' for Active; 'I' for Inactive)
REMARK    1  A    between atoms: C4_4  and  C5_5 
REMARK    2  A    between atoms: C5_5  and  C6_7 
REMARK    3  A    between atoms: C6_7  and  C7_8 
REMARK    4  A    between atoms: C7_8  and  C9_10 
ROOT
HETATM    1  C9  UNL     1      -1.528  48.981 -19.787  1.00  0.00    -0.001 C 
HETATM    2  C10 UNL     1      -1.277  48.080 -21.022  1.00  0.00     0.007 C 
HETATM    3  C11 UNL     1      -2.496  47.136 -21.145  1.00  0.00     0.015 C 
HETATM    4  C12 UNL     1      -3.329  47.375 -19.866  1.00  0.00    -0.013 C 
HETATM    5  C13 UNL     1      -2.727  46.423 -18.782  1.00  0.00     0.021 C 
HETATM    6  C14 UNL     1      -4.824  47.084 -19.901  1.00  0.00    -0.070 C 
HETATM    7  C15 UNL     1      -5.357  46.147 -20.702  1.00  0.00    -0.022 C 
HETATM    8  C16 UNL     1      -6.803  45.773 -20.742  1.00  0.00     0.034 C 
HETATM    9  C17 UNL     1      -7.751  46.483 -19.742  1.00  0.00     0.013 C 
HETATM   10  C18 UNL     1      -8.825  47.411 -20.419  1.00  0.00     0.018 C 
HETATM   11  C19 UNL     1      -9.710  46.588 -21.385  1.00  0.00     0.023 C 
HETATM   12  C20 UNL     1      -8.233  48.601 -21.188  1.00  0.00     0.023 C 
HETATM   13  C21 UNL     1      -9.771  47.972 -19.341  1.00  0.00     0.135 C 
HETATM   14  O2  UNL     1     -10.798  48.591 -19.630  1.00  0.00    -0.297 OA
HETATM   15  C22 UNL     1      -9.404  47.738 -17.896  1.00  0.00     0.080 C 
HETATM   16  C23 UNL     1      -7.933  48.072 -17.719  1.00  0.00     0.017 C 
HETATM   17  C24 UNL     1      -6.993  47.112 -18.504  1.00  0.00    -0.031 C 
HETATM   18  C25 UNL     1      -6.603  45.948 -17.549  1.00  0.00     0.016 C 
HETATM   19  C26 UNL     1      -5.707  47.897 -18.963  1.00  0.00     0.024 C 
HETATM   20  C27 UNL     1      -4.915  48.580 -17.816  1.00  0.00     0.010 C 
HETATM   21  C28 UNL     1      -3.614  49.309 -18.235  1.00  0.00     0.011 C 
HETATM   22  C29 UNL     1      -3.081  48.903 -19.624  1.00  0.00    -0.029 C 
HETATM   23  C30 UNL     1      -3.748  49.823 -20.696  1.00  0.00     0.016 C 
ENDROOT
BRANCH   1  24
HETATM   24  C7  UNL     1      -0.878  50.396 -19.765  1.00  0.00    -0.007 C 
HETATM   25  C8  UNL     1      -0.218  50.662 -18.401  1.00  0.00     0.011 C 
BRANCH  24  26
HETATM   26  C6  UNL     1       0.061  50.773 -20.930  1.00  0.00     0.087 C 
BRANCH  26  27
HETATM   27  C5  UNL     1       0.167  52.246 -21.321  1.00  0.00     0.149 C 
HETATM   28  O1  UNL     1      -0.036  53.165 -20.537  1.00  0.00    -0.293 OA
BRANCH  27  29
HETATM   29  C4  UNL     1       0.541  52.499 -22.752  1.00  0.00     0.052 C 
HETATM   30  C2  UNL     1      -0.181  52.218 -23.853  1.00  0.00    -0.084 C 
HETATM   31  C1  UNL     1      -1.525  51.543 -23.887  1.00  0.00     0.043 C 
HETATM   32  C3  UNL     1       0.351  52.583 -25.219  1.00  0.00     0.043 C 
ENDBRANCH  27  29
ENDBRANCH  26  27
ENDBRANCH  24  26
ENDBRANCH   1  24
TORSDOF 4
ENDMDL
MODEL 6
REMARK minimizedAffinity -7.2124939
REMARK CNNscore 0.324520588
REMARK CNNaffinity 5.49687815
REMARK  4 active torsions:
REMARK  status: ('A' for Active; 'I' for Inactive)
REMARK    1  A    between atoms: C4_4  and  C5_5 
REMARK    2  A    between atoms: C5_5  and  C6_7 
REMARK    3  A    between atoms: C6_7  and  C7_8 
REMARK    4  A    between atoms: C7_8  and  C9_10 
ROOT
HETATM    1  C9  UNL     1       6.015  66.865 -36.846  1.00  0.00    -0.001 C 
HETATM    2  C10 UNL     1       5.366  67.307 -35.511  1.00  0.00     0.007 C 
HETATM    3  C11 UNL     1       4.286  68.358 -35.864  1.00  0.00     0.015 C 
HETATM    4  C12 UNL     1       4.474  68.647 -37.370  1.00  0.00    -0.013 C 
HETATM    5  C13 UNL     1       5.562  69.765 -37.458  1.00  0.00     0.021 C 
HETATM    6  C14 UNL     1       3.281  69.154 -38.171  1.00  0.00    -0.070 C 
HETATM    7  C15 UNL     1       2.301  69.886 -37.618  1.00  0.00    -0.022 C 
HETATM    8  C16 UNL     1       1.137  70.462 -38.359  1.00  0.00     0.034 C 
HETATM    9  C17 UNL     1       1.089  70.243 -39.892  1.00  0.00     0.013 C 
HETATM   10  C18 UNL     1      -0.106  69.345 -40.379  1.00  0.00     0.018 C 
HETATM   11  C19 UNL     1      -1.455  69.978 -39.963  1.00  0.00     0.023 C 
HETATM   12  C20 UNL     1      -0.060  67.900 -39.859  1.00  0.00     0.023 C 
HETATM   13  C21 UNL     1      -0.113  69.289 -41.918  1.00  0.00     0.135 C 
HETATM   14  O2  UNL     1      -1.046  68.788 -42.550  1.00  0.00    -0.297 OA
HETATM   15  C22 UNL     1       1.071  69.876 -42.646  1.00  0.00     0.080 C 
HETATM   16  C23 UNL     1       2.338  69.374 -41.975  1.00  0.00     0.017 C 
HETATM   17  C24 UNL     1       2.500  69.893 -40.516  1.00  0.00    -0.031 C 
HETATM   18  C25 UNL     1       3.330  71.208 -40.572  1.00  0.00     0.016 C 
HETATM   19  C26 UNL     1       3.251  68.809 -39.655  1.00  0.00     0.024 C 
HETATM   20  C27 UNL     1       4.633  68.376 -40.211  1.00  0.00     0.010 C 
HETATM   21  C28 UNL     1       5.417  67.355 -39.350  1.00  0.00     0.011 C 
HETATM   22  C29 UNL     1       4.919  67.239 -37.895  1.00  0.00    -0.029 C 
HETATM   23  C30 UNL     1       3.785  66.165 -37.846  1.00  0.00     0.016 C 
ENDROOT
BRANCH   1  24
HETATM   24  C7  UNL     1       6.624  65.434 -36.929  1.00  0.00    -0.007 C 
HETATM   25  C8  UNL     1       8.074  65.436 -36.415  1.00  0.00     0.011 C 
BRANCH  24  26
HETATM   26  C6  UNL     1       5.811  64.272 -36.320  1.00  0.00     0.087 C 
BRANCH  26  27
HETATM   27  C5  UNL     1       6.253  63.714 -34.968  1.00  0.00     0.149 C 
HETATM   28  O1  UNL     1       7.076  62.814 -34.850  1.00  0.00    -0.293 OA
BRANCH  27  29
HETATM   29  C4  UNL     1       5.604  64.350 -33.775  1.00  0.00     0.052 C 
HETATM   30  C2  UNL     1       4.644  63.830 -32.986  1.00  0.00    -0.084 C 
HETATM   31  C1  UNL     1       3.978  62.492 -33.160  1.00  0.00     0.043 C 
HETATM   32  C3  UNL     1       4.135  64.613 -31.798  1.00  0.00     0.043 C 
ENDBRANCH  27  29
ENDBRANCH  26  27
ENDBRANCH  24  26
ENDBRANCH   1  24
TORSDOF 4
ENDMDL
MODEL 7
REMARK minimizedAffinity -7.66272783
REMARK CNNscore 0.307444453
REMARK CNNaffinity 6.3442173
REMARK  4 active torsions:
REMARK  status: ('A' for Active; 'I' for Inactive)
REMARK    1  A    between atoms: C4_4  and  C5_5 
REMARK    2  A    between atoms: C5_5  and  C6_7 
REMARK    3  A    between atoms: C6_7  and  C7_8 
REMARK    4  A    between atoms: C7_8  and  C9_10 
ROOT
HETATM    1  C9  UNL     1      -3.241  50.570 -23.027  1.00  0.00    -0.001 C 
HETATM    2  C10 UNL     1      -2.049  49.756 -22.466  1.00  0.00     0.007 C 
HETATM    3  C11 UNL     1      -2.624  48.796 -21.396  1.00  0.00     0.015 C 
HETATM    4  C12 UNL     1      -4.101  49.217 -21.221  1.00  0.00    -0.013 C 
HETATM    5  C13 UNL     1      -4.094  50.364 -20.159  1.00  0.00     0.021 C 
HETATM    6  C14 UNL     1      -5.101  48.183 -20.722  1.00  0.00    -0.070 C 
HETATM    7  C15 UNL     1      -4.748  47.172 -19.911  1.00  0.00    -0.022 C 
HETATM    8  C16 UNL     1      -5.688  46.161 -19.339  1.00  0.00     0.034 C 
HETATM    9  C17 UNL     1      -7.195  46.326 -19.662  1.00  0.00     0.013 C 
HETATM   10  C18 UNL     1      -7.798  45.169 -20.541  1.00  0.00     0.018 C 
HETATM   11  C19 UNL     1      -7.629  43.809 -19.823  1.00  0.00     0.023 C 
HETATM   12  C20 UNL     1      -7.187  45.063 -21.946  1.00  0.00     0.023 C 
HETATM   13  C21 UNL     1      -9.314  45.385 -20.703  1.00  0.00     0.135 C 
HETATM   14  O2  UNL     1     -10.046  44.530 -21.207  1.00  0.00    -0.297 OA
HETATM   15  C22 UNL     1      -9.892  46.692 -20.219  1.00  0.00     0.080 C 
HETATM   16  C23 UNL     1      -9.009  47.819 -20.726  1.00  0.00     0.017 C 
HETATM   17  C24 UNL     1      -7.578  47.793 -20.115  1.00  0.00    -0.031 C 
HETATM   18  C25 UNL     1      -7.592  48.689 -18.844  1.00  0.00     0.016 C 
HETATM   19  C26 UNL     1      -6.548  48.351 -21.167  1.00  0.00     0.024 C 
HETATM   20  C27 UNL     1      -6.863  49.776 -21.696  1.00  0.00     0.010 C 
HETATM   21  C28 UNL     1      -5.833  50.370 -22.687  1.00  0.00     0.011 C 
HETATM   22  C29 UNL     1      -4.464  49.659 -22.680  1.00  0.00    -0.029 C 
HETATM   23  C30 UNL     1      -4.518  48.476 -23.699  1.00  0.00     0.016 C 
ENDROOT
BRANCH   1  24
HETATM   24  C7  UNL     1      -3.143  51.108 -24.485  1.00  0.00    -0.007 C 
HETATM   25  C8  UNL     1      -4.226  52.170 -24.740  1.00  0.00     0.011 C 
BRANCH  24  26
HETATM   26  C6  UNL     1      -1.761  51.579 -24.984  1.00  0.00     0.087 C 
BRANCH  26  27
HETATM   27  C5  UNL     1      -1.100  50.799 -26.119  1.00  0.00     0.149 C 
HETATM   28  O1  UNL     1      -1.730  50.120 -26.922  1.00  0.00    -0.293 OA
BRANCH  27  29
HETATM   29  C4  UNL     1       0.393  50.918 -26.190  1.00  0.00     0.052 C 
HETATM   30  C2  UNL     1       1.125  51.547 -27.130  1.00  0.00    -0.084 C 
HETATM   31  C1  UNL     1       0.592  52.242 -28.353  1.00  0.00     0.043 C 
HETATM   32  C3  UNL     1       2.630  51.592 -27.011  1.00  0.00     0.043 C 
ENDBRANCH  27  29
ENDBRANCH  26  27
ENDBRANCH  24  26
ENDBRANCH   1  24
TORSDOF 4
ENDMDL
MODEL 8
REMARK minimizedAffinity -8.11287975
REMARK CNNscore 0.287377179
REMARK CNNaffinity 6.329041
REMARK  4 active torsions:
REMARK  status: ('A' for Active; 'I' for Inactive)
REMARK    1  A    between atoms: C4_4  and  C5_5 
REMARK    2  A    between atoms: C5_5  and  C6_7 
REMARK    3  A    between atoms: C6_7  and  C7_8 
REMARK    4  A    between atoms: C7_8  and  C9_10 
ROOT
HETATM    1  C9  UNL     1      -2.890  50.438 -23.440  1.00  0.00    -0.001 C 
HETATM    2  C10 UNL     1      -3.018  49.376 -24.560  1.00  0.00     0.007 C 
HETATM    3  C11 UNL     1      -3.728  48.150 -23.938  1.00  0.00     0.015 C 
HETATM    4  C12 UNL     1      -3.815  48.452 -22.425  1.00  0.00    -0.013 C 
HETATM    5  C13 UNL     1      -2.465  47.955 -21.813  1.00  0.00     0.021 C 
HETATM    6  C14 UNL     1      -4.918  47.791 -21.610  1.00  0.00    -0.070 C 
HETATM    7  C15 UNL     1      -5.433  46.593 -21.932  1.00  0.00    -0.022 C 
HETATM    8  C16 UNL     1      -6.472  45.864 -21.143  1.00  0.00     0.034 C 
HETATM    9  C17 UNL     1      -6.952  46.517 -19.822  1.00  0.00     0.013 C 
HETATM   10  C18 UNL     1      -8.460  46.963 -19.832  1.00  0.00     0.018 C 
HETATM   11  C19 UNL     1      -9.376  45.746 -20.102  1.00  0.00     0.023 C 
HETATM   12  C20 UNL     1      -8.784  48.059 -20.858  1.00  0.00     0.023 C 
HETATM   13  C21 UNL     1      -8.848  47.494 -18.440  1.00  0.00     0.135 C 
HETATM   14  O2  UNL     1     -10.016  47.750 -18.140  1.00  0.00    -0.297 OA
HETATM   15  C22 UNL     1      -7.742  47.694 -17.433  1.00  0.00     0.080 C 
HETATM   16  C23 UNL     1      -6.600  48.422 -18.120  1.00  0.00     0.017 C 
HETATM   17  C24 UNL     1      -5.933  47.581 -19.247  1.00  0.00    -0.031 C 
HETATM   18  C25 UNL     1      -4.745  46.801 -18.614  1.00  0.00     0.016 C 
HETATM   19  C26 UNL     1      -5.413  48.543 -20.381  1.00  0.00     0.024 C 
HETATM   20  C27 UNL     1      -4.431  49.645 -19.903  1.00  0.00     0.010 C 
HETATM   21  C28 UNL     1      -3.860  50.566 -21.008  1.00  0.00     0.011 C 
HETATM   22  C29 UNL     1      -4.010  50.007 -22.438  1.00  0.00    -0.029 C 
HETATM   23  C30 UNL     1      -5.394  50.460 -23.002  1.00  0.00     0.016 C 
ENDROOT
BRANCH   1  24
HETATM   24  C7  UNL     1      -2.840  51.938 -23.852  1.00  0.00    -0.007 C 
HETATM   25  C8  UNL     1      -3.835  52.760 -23.014  1.00  0.00     0.011 C 
BRANCH  24  26
HETATM   26  C6  UNL     1      -1.457  52.620 -23.914  1.00  0.00     0.087 C 
BRANCH  26  27
HETATM   27  C5  UNL     1      -0.816  52.826 -25.286  1.00  0.00     0.149 C 
HETATM   28  O1  UNL     1      -1.382  53.394 -26.213  1.00  0.00    -0.293 OA
BRANCH  27  29
HETATM   29  C4  UNL     1       0.573  52.277 -25.429  1.00  0.00     0.052 C 
HETATM   30  C2  UNL     1       1.142  51.757 -26.533  1.00  0.00    -0.084 C 
HETATM   31  C1  UNL     1       0.482  51.575 -27.872  1.00  0.00     0.043 C 
HETATM   32  C3  UNL     1       2.576  51.284 -26.493  1.00  0.00     0.043 C 
ENDBRANCH  27  29
ENDBRANCH  26  27
ENDBRANCH  24  26
ENDBRANCH   1  24
TORSDOF 4
ENDMDL
MODEL 9
REMARK minimizedAffinity -9.00899601
REMARK CNNscore 0.285956204
REMARK CNNaffinity 6.90630531
REMARK  4 active torsions:
REMARK  status: ('A' for Active; 'I' for Inactive)
REMARK    1  A    between atoms: C4_4  and  C5_5 
REMARK    2  A    between atoms: C5_5  and  C6_7 
REMARK    3  A    between atoms: C6_7  and  C7_8 
REMARK    4  A    between atoms: C7_8  and  C9_10 
ROOT
HETATM    1  C9  UNL     1      -3.586  50.356 -25.272  1.00  0.00    -0.001 C 
HETATM    2  C10 UNL     1      -3.897  51.863 -25.095  1.00  0.00     0.007 C 
HETATM    3  C11 UNL     1      -4.080  52.109 -23.578  1.00  0.00     0.015 C 
HETATM    4  C12 UNL     1      -4.069  50.705 -22.932  1.00  0.00    -0.013 C 
HETATM    5  C13 UNL     1      -5.543  50.190 -23.006  1.00  0.00     0.021 C 
HETATM    6  C14 UNL     1      -3.647  50.574 -21.475  1.00  0.00    -0.070 C 
HETATM    7  C15 UNL     1      -3.834  51.557 -20.580  1.00  0.00    -0.022 C 
HETATM    8  C16 UNL     1      -3.499  51.471 -19.126  1.00  0.00     0.034 C 
HETATM    9  C17 UNL     1      -2.943  50.122 -18.602  1.00  0.00     0.013 C 
HETATM   10  C18 UNL     1      -1.457  50.190 -18.092  1.00  0.00     0.018 C 
HETATM   11  C19 UNL     1      -1.333  51.217 -16.941  1.00  0.00     0.023 C 
HETATM   12  C20 UNL     1      -0.435  50.547 -19.182  1.00  0.00     0.023 C 
HETATM   13  C21 UNL     1      -1.054  48.827 -17.499  1.00  0.00     0.135 C 
HETATM   14  O2  UNL     1       0.002  48.669 -16.883  1.00  0.00    -0.297 OA
HETATM   15  C22 UNL     1      -2.004  47.671 -17.693  1.00  0.00     0.080 C 
HETATM   16  C23 UNL     1      -2.440  47.653 -19.148  1.00  0.00     0.017 C 
HETATM   17  C24 UNL     1      -3.282  48.899 -19.546  1.00  0.00    -0.031 C 
HETATM   18  C25 UNL     1      -4.781  48.543 -19.336  1.00  0.00     0.016 C 
HETATM   19  C26 UNL     1      -3.011  49.255 -21.057  1.00  0.00     0.024 C 
HETATM   20  C27 UNL     1      -3.284  48.100 -22.057  1.00  0.00     0.010 C 
HETATM   21  C28 UNL     1      -3.082  48.442 -23.554  1.00  0.00     0.011 C 
HETATM   22  C29 UNL     1      -3.052  49.954 -23.859  1.00  0.00    -0.029 C 
HETATM   23  C30 UNL     1      -1.581  50.458 -23.712  1.00  0.00     0.016 C 
ENDROOT
BRANCH   1  24
HETATM   24  C7  UNL     1      -2.741  49.920 -26.505  1.00  0.00    -0.007 C 
HETATM   25  C8  UNL     1      -3.177  48.527 -26.990  1.00  0.00     0.011 C 
BRANCH  24  26
HETATM   26  C6  UNL     1      -2.618  50.914 -27.679  1.00  0.00     0.087 C 
BRANCH  26  27
HETATM   27  C5  UNL     1      -1.602  52.049 -27.559  1.00  0.00     0.149 C 
HETATM   28  O1  UNL     1      -1.911  53.234 -27.603  1.00  0.00    -0.293 OA
BRANCH  27  29
HETATM   29  C4  UNL     1      -0.178  51.612 -27.382  1.00  0.00     0.052 C 
HETATM   30  C2  UNL     1       0.682  51.985 -26.415  1.00  0.00    -0.084 C 
HETATM   31  C1  UNL     1       0.406  52.967 -25.309  1.00  0.00     0.043 C 
HETATM   32  C3  UNL     1       2.077  51.406 -26.380  1.00  0.00     0.043 C 
ENDBRANCH  27  29
ENDBRANCH  26  27
ENDBRANCH  24  26
ENDBRANCH   1  24
TORSDOF 4
ENDMDL
