MODEL 1
REMARK minimizedAffinity -7.1496439
REMARK CNNscore 0.556224883
REMARK CNNaffinity 6.80848169
REMARK  16 active torsions:
REMARK  status: ('A' for Active; 'I' for Inactive)
REMARK    1  A    between atoms: C2_2  and  C3_3 
REMARK    2  A    between atoms: C2_2  and  C4_5 
REMARK    3  A    between atoms: C12_13  and  O2_14 
REMARK    4  A    between atoms: O2_14  and  C13_15 
REMARK    5  A    between atoms: C13_15  and  C14_17 
REMARK    6  A    between atoms: C14_17  and  C16_19 
REMARK    7  A    between atoms: C16_19  and  O4_20 
REMARK    8  A    between atoms: C16_19  and  C17_21 
REMARK    9  A    between atoms: C19_23  and  C20_24 
REMARK   10  A    between atoms: C20_24  and  C21_25 
REMARK   11  A    between atoms: C20_24  and  C22_27 
REMARK   12  A    between atoms: C21_25  and  O5_26 
REMARK   13  A    between atoms: C22_27  and  C23_28 
REMARK   14  A    between atoms: C23_28  and  C24_29 
REMARK   15  A    between atoms: C24_29  and  C25_30 
REMARK   16  A    between atoms: C25_30  and  C26_31 
ROOT
HETATM    1  C13 UNL     1      -4.452  48.347 -27.253  1.00  0.00     0.266 C 
HETATM    2  O3  UNL     1      -3.423  48.092 -27.864  1.00  0.00    -0.265 OA
ENDROOT
BRANCH   1   3
HETATM    3  O2  UNL     1      -5.673  48.526 -27.830  1.00  0.00    -0.312 OA
BRANCH   3   4
HETATM    4  C12 UNL     1      -5.913  47.774 -29.037  1.00  0.00     0.170 C 
HETATM    5  C11 UNL     1      -5.324  48.547 -30.213  1.00  0.00     0.036 C 
HETATM    6  C10 UNL     1      -5.711  47.983 -31.579  1.00  0.00     0.007 C 
HETATM    7  C8  UNL     1      -7.079  47.265 -31.628  1.00  0.00    -0.007 C 
HETATM    8  C6  UNL     1      -8.074  47.783 -30.540  1.00  0.00    -0.003 C 
HETATM    9  C9  UNL     1      -7.616  47.300 -33.062  1.00  0.00     0.011 C 
HETATM   10  C5  UNL     1      -9.413  46.977 -30.585  1.00  0.00     0.030 C 
HETATM   11  C7  UNL     1      -8.411  49.281 -30.737  1.00  0.00     0.019 C 
HETATM   12  C28 UNL     1      -7.413  47.547 -29.173  1.00  0.00     0.129 A 
HETATM   13  C4  UNL     1     -10.415  47.371 -29.473  1.00  0.00     0.094 C 
HETATM   14  C30 UNL     1      -9.789  47.526 -28.085  1.00  0.00     0.167 C 
HETATM   15  C29 UNL     1      -8.317  47.424 -27.957  1.00  0.00     0.230 A 
HETATM   16  O7  UNL     1     -10.453  47.803 -27.090  1.00  0.00    -0.294 OA
HETATM   17  O6  UNL     1      -7.761  46.267 -28.579  1.00  0.00    -0.358 OA
BRANCH  13  18
HETATM   18  C2  UNL     1     -11.625  46.465 -29.362  1.00  0.00    -0.018 C 
HETATM   19  C1  UNL     1     -12.918  46.830 -29.399  1.00  0.00     0.022 C 
BRANCH  18  20
HETATM   20  C3  UNL     1     -11.339  45.007 -29.173  1.00  0.00     0.265 C 
HETATM   21  O1  UNL     1     -12.188  44.132 -29.296  1.00  0.00    -0.302 OA
ENDBRANCH  18  20
ENDBRANCH  13  18
ENDBRANCH   3   4
ENDBRANCH   1   3
BRANCH   1  22
HETATM   22  C14 UNL     1      -4.530  48.436 -25.742  1.00  0.00     0.114 C 
HETATM   23  C15 UNL     1      -5.913  47.967 -25.290  1.00  0.00     0.023 C 
BRANCH  22  24
HETATM   24  C16 UNL     1      -4.180  49.857 -25.272  1.00  0.00     0.159 C 
BRANCH  24  25
HETATM   25  O4  UNL     1      -3.808  50.650 -26.400  1.00  0.00    -0.390 OA
HETATM   26  H24 UNL     1      -3.446  51.485 -26.056  1.00  0.00     0.210 HD
ENDBRANCH  24  25
BRANCH  24  27
HETATM   27  C17 UNL     1      -3.034  49.933 -24.269  1.00  0.00    -0.058 C 
HETATM   28  C18 UNL     1      -2.666  48.636 -23.592  1.00  0.00     0.046 C 
HETATM   29  C19 UNL     1      -2.390  51.101 -24.062  1.00  0.00    -0.015 C 
BRANCH  29  30
HETATM   30  C20 UNL     1      -1.218  51.356 -23.128  1.00  0.00     0.032 C 
BRANCH  30  31
HETATM   31  C21 UNL     1      -1.700  51.676 -21.698  1.00  0.00     0.172 C 
BRANCH  31  32
HETATM   32  O5  UNL     1      -1.042  50.851 -20.740  1.00  0.00    -0.400 OA
HETATM   33  H32 UNL     1      -1.115  49.929 -21.038  1.00  0.00     0.209 HD
ENDBRANCH  31  32
ENDBRANCH  30  31
BRANCH  30  34
HETATM   34  C22 UNL     1      -0.259  52.439 -23.671  1.00  0.00     0.010 C 
BRANCH  34  35
HETATM   35  C23 UNL     1       0.811  52.020 -24.693  1.00  0.00     0.001 C 
BRANCH  35  36
HETATM   36  C24 UNL     1       0.299  51.118 -25.819  1.00  0.00     0.000 C 
BRANCH  36  37
HETATM   37  C25 UNL     1       0.060  51.863 -27.138  1.00  0.00    -0.000 C 
BRANCH  37  38
HETATM   38  C26 UNL     1       1.202  51.770 -28.153  1.00  0.00    -0.005 C 
HETATM   39  C27 UNL     1       2.591  51.727 -27.542  1.00  0.00     0.005 C 
ENDBRANCH  37  38
ENDBRANCH  36  37
ENDBRANCH  35  36
ENDBRANCH  34  35
ENDBRANCH  30  34
ENDBRANCH  29  30
ENDBRANCH  24  27
ENDBRANCH  22  24
ENDBRANCH   1  22
TORSDOF 16
ENDMDL
MODEL 2
REMARK minimizedAffinity -8.20733452
REMARK CNNscore 0.519625664
REMARK CNNaffinity 7.18745804
REMARK  16 active torsions:
REMARK  status: ('A' for Active; 'I' for Inactive)
REMARK    1  A    between atoms: C2_2  and  C3_3 
REMARK    2  A    between atoms: C2_2  and  C4_5 
REMARK    3  A    between atoms: C12_13  and  O2_14 
REMARK    4  A    between atoms: O2_14  and  C13_15 
REMARK    5  A    between atoms: C13_15  and  C14_17 
REMARK    6  A    between atoms: C14_17  and  C16_19 
REMARK    7  A    between atoms: C16_19  and  O4_20 
REMARK    8  A    between atoms: C16_19  and  C17_21 
REMARK    9  A    between atoms: C19_23  and  C20_24 
REMARK   10  A    between atoms: C20_24  and  C21_25 
REMARK   11  A    between atoms: C20_24  and  C22_27 
REMARK   12  A    between atoms: C21_25  and  O5_26 
REMARK   13  A    between atoms: C22_27  and  C23_28 
REMARK   14  A    between atoms: C23_28  and  C24_29 
REMARK   15  A    between atoms: C24_29  and  C25_30 
REMARK   16  A    between atoms: C25_30  and  C26_31 
ROOT
HETATM    1  C13 UNL     1      -3.594  49.223 -21.836  1.00  0.00     0.266 C 
HETATM    2  O3  UNL     1      -4.463  48.557 -21.289  1.00  0.00    -0.265 OA
ENDROOT
BRANCH   1   3
HETATM    3  O2  UNL     1      -3.821  50.367 -22.540  1.00  0.00    -0.312 OA
BRANCH   3   4
HETATM    4  C12 UNL     1      -4.316  50.191 -23.882  1.00  0.00     0.170 C 
HETATM    5  C11 UNL     1      -4.783  48.746 -24.039  1.00  0.00     0.036 C 
HETATM    6  C10 UNL     1      -5.112  48.356 -25.478  1.00  0.00     0.007 C 
HETATM    7  C8  UNL     1      -4.316  49.117 -26.563  1.00  0.00    -0.007 C 
HETATM    8  C6  UNL     1      -2.930  49.627 -26.049  1.00  0.00    -0.003 C 
HETATM    9  C9  UNL     1      -4.259  48.268 -27.837  1.00  0.00     0.011 C 
HETATM   10  C5  UNL     1      -2.198  50.450 -27.159  1.00  0.00     0.030 C 
HETATM   11  C7  UNL     1      -2.007  48.457 -25.633  1.00  0.00     0.019 C 
HETATM   12  C28 UNL     1      -3.204  50.558 -24.857  1.00  0.00     0.129 A 
HETATM   13  C4  UNL     1      -0.858  51.069 -26.692  1.00  0.00     0.094 C 
HETATM   14  C30 UNL     1      -0.913  51.731 -25.313  1.00  0.00     0.167 C 
HETATM   15  C29 UNL     1      -2.157  51.606 -24.518  1.00  0.00     0.230 A 
HETATM   16  O7  UNL     1       0.056  52.295 -24.814  1.00  0.00    -0.294 OA
HETATM   17  O6  UNL     1      -3.340  51.954 -25.237  1.00  0.00    -0.358 OA
BRANCH  13  18
HETATM   18  C2  UNL     1      -0.235  52.042 -27.673  1.00  0.00    -0.018 C 
HETATM   19  C1  UNL     1       0.836  51.831 -28.458  1.00  0.00     0.022 C 
BRANCH  18  20
HETATM   20  C3  UNL     1      -0.879  53.391 -27.759  1.00  0.00     0.265 C 
HETATM   21  O1  UNL     1      -2.093  53.560 -27.792  1.00  0.00    -0.302 OA
ENDBRANCH  18  20
ENDBRANCH  13  18
ENDBRANCH   3   4
ENDBRANCH   1   3
BRANCH   1  22
HETATM   22  C14 UNL     1      -2.116  48.901 -21.754  1.00  0.00     0.114 C 
HETATM   23  C15 UNL     1      -1.917  47.413 -22.045  1.00  0.00     0.023 C 
BRANCH  22  24
HETATM   24  C16 UNL     1      -1.547  49.342 -20.396  1.00  0.00     0.159 C 
BRANCH  24  25
HETATM   25  O4  UNL     1      -2.410  48.885 -19.353  1.00  0.00    -0.390 OA
HETATM   26  H24 UNL     1      -2.111  49.309 -18.529  1.00  0.00     0.210 HD
ENDBRANCH  24  25
BRANCH  24  27
HETATM   27  C17 UNL     1      -1.396  50.850 -20.228  1.00  0.00    -0.058 C 
HETATM   28  C18 UNL     1      -2.439  51.525 -19.373  1.00  0.00     0.046 C 
HETATM   29  C19 UNL     1      -0.353  51.493 -20.795  1.00  0.00    -0.015 C 
BRANCH  29  30
HETATM   30  C20 UNL     1      -0.029  52.976 -20.714  1.00  0.00     0.032 C 
BRANCH  30  31
HETATM   31  C21 UNL     1       1.015  53.382 -21.774  1.00  0.00     0.172 C 
BRANCH  31  32
HETATM   32  O5  UNL     1       1.716  54.558 -21.379  1.00  0.00    -0.400 OA
HETATM   33  H32 UNL     1       1.058  55.227 -21.124  1.00  0.00     0.209 HD
ENDBRANCH  31  32
ENDBRANCH  30  31
BRANCH  30  34
HETATM   34  C22 UNL     1       0.392  53.409 -19.292  1.00  0.00     0.010 C 
BRANCH  34  35
HETATM   35  C23 UNL     1       1.414  52.543 -18.538  1.00  0.00     0.001 C 
BRANCH  35  36
HETATM   36  C24 UNL     1       0.899  51.942 -17.228  1.00  0.00     0.000 C 
BRANCH  36  37
HETATM   37  C25 UNL     1       1.525  52.573 -15.978  1.00  0.00    -0.000 C 
BRANCH  37  38
HETATM   38  C26 UNL     1       2.835  51.931 -15.513  1.00  0.00    -0.005 C 
HETATM   39  C27 UNL     1       4.091  52.602 -16.040  1.00  0.00     0.005 C 
ENDBRANCH  37  38
ENDBRANCH  36  37
ENDBRANCH  35  36
ENDBRANCH  34  35
ENDBRANCH  30  34
ENDBRANCH  29  30
ENDBRANCH  24  27
ENDBRANCH  22  24
ENDBRANCH   1  22
TORSDOF 16
ENDMDL
MODEL 3
REMARK minimizedAffinity -8.27006435
REMARK CNNscore 0.513955414
REMARK CNNaffinity 6.99889231
REMARK  16 active torsions:
REMARK  status: ('A' for Active; 'I' for Inactive)
REMARK    1  A    between atoms: C2_2  and  C3_3 
REMARK    2  A    between atoms: C2_2  and  C4_5 
REMARK    3  A    between atoms: C12_13  and  O2_14 
REMARK    4  A    between atoms: O2_14  and  C13_15 
REMARK    5  A    between atoms: C13_15  and  C14_17 
REMARK    6  A    between atoms: C14_17  and  C16_19 
REMARK    7  A    between atoms: C16_19  and  O4_20 
REMARK    8  A    between atoms: C16_19  and  C17_21 
REMARK    9  A    between atoms: C19_23  and  C20_24 
REMARK   10  A    between atoms: C20_24  and  C21_25 
REMARK   11  A    between atoms: C20_24  and  C22_27 
REMARK   12  A    between atoms: C21_25  and  O5_26 
REMARK   13  A    between atoms: C22_27  and  C23_28 
REMARK   14  A    between atoms: C23_28  and  C24_29 
REMARK   15  A    between atoms: C24_29  and  C25_30 
REMARK   16  A    between atoms: C25_30  and  C26_31 
ROOT
HETATM    1  C13 UNL     1      -1.418  52.936 -24.488  1.00  0.00     0.266 C 
HETATM    2  O3  UNL     1      -2.291  53.025 -25.341  1.00  0.00    -0.265 OA
ENDROOT
BRANCH   1   3
HETATM    3  O2  UNL     1      -1.644  52.651 -23.175  1.00  0.00    -0.312 OA
BRANCH   3   4
HETATM    4  C12 UNL     1      -1.239  51.338 -22.739  1.00  0.00     0.170 C 
HETATM    5  C11 UNL     1      -2.394  50.371 -22.984  1.00  0.00     0.036 C 
HETATM    6  C10 UNL     1      -2.191  48.994 -22.354  1.00  0.00     0.007 C 
HETATM    7  C8  UNL     1      -1.322  48.980 -21.076  1.00  0.00    -0.007 C 
HETATM    8  C6  UNL     1      -1.356  50.340 -20.306  1.00  0.00    -0.003 C 
HETATM    9  C9  UNL     1      -1.684  47.752 -20.233  1.00  0.00     0.011 C 
HETATM   10  C5  UNL     1      -0.407  50.296 -19.063  1.00  0.00     0.030 C 
HETATM   11  C7  UNL     1      -2.781  50.682 -19.808  1.00  0.00     0.019 C 
HETATM   12  C28 UNL     1      -0.841  51.419 -21.271  1.00  0.00     0.129 A 
HETATM   13  C4  UNL     1      -0.315  51.641 -18.304  1.00  0.00     0.094 C 
HETATM   14  C30 UNL     1      -0.160  52.868 -19.205  1.00  0.00     0.167 C 
HETATM   15  C29 UNL     1      -0.245  52.683 -20.673  1.00  0.00     0.230 A 
HETATM   16  O7  UNL     1      -0.041  54.005 -18.757  1.00  0.00    -0.294 OA
HETATM   17  O6  UNL     1       0.591  51.641 -21.174  1.00  0.00    -0.358 OA
BRANCH  13  18
HETATM   18  C2  UNL     1       0.753  51.689 -17.230  1.00  0.00    -0.018 C 
HETATM   19  C1  UNL     1       1.874  52.431 -17.232  1.00  0.00     0.022 C 
BRANCH  18  20
HETATM   20  C3  UNL     1       0.537  50.796 -16.047  1.00  0.00     0.265 C 
HETATM   21  O1  UNL     1       0.863  51.097 -14.905  1.00  0.00    -0.302 OA
ENDBRANCH  18  20
ENDBRANCH  13  18
ENDBRANCH   3   4
ENDBRANCH   1   3
BRANCH   1  22
HETATM   22  C14 UNL     1       0.061  53.067 -24.785  1.00  0.00     0.114 C 
HETATM   23  C15 UNL     1       0.290  54.337 -25.606  1.00  0.00     0.023 C 
BRANCH  22  24
HETATM   24  C16 UNL     1       0.584  51.793 -25.469  1.00  0.00     0.159 C 
BRANCH  24  25
HETATM   25  O4  UNL     1       1.863  52.058 -26.046  1.00  0.00    -0.390 OA
HETATM   26  H24 UNL     1       2.092  51.290 -26.599  1.00  0.00     0.210 HD
ENDBRANCH  24  25
BRANCH  24  27
HETATM   27  C17 UNL     1      -0.310  51.254 -26.580  1.00  0.00    -0.058 C 
HETATM   28  C18 UNL     1       0.014  51.730 -27.975  1.00  0.00     0.046 C 
HETATM   29  C19 UNL     1      -1.294  50.375 -26.293  1.00  0.00    -0.015 C 
BRANCH  29  30
HETATM   30  C20 UNL     1      -2.258  49.719 -27.267  1.00  0.00     0.032 C 
BRANCH  30  31
HETATM   31  C21 UNL     1      -3.286  50.733 -27.809  1.00  0.00     0.172 C 
BRANCH  31  32
HETATM   32  O5  UNL     1      -3.645  50.428 -29.155  1.00  0.00    -0.400 OA
HETATM   33  H32 UNL     1      -2.826  50.310 -29.664  1.00  0.00     0.209 HD
ENDBRANCH  31  32
ENDBRANCH  30  31
BRANCH  30  34
HETATM   34  C22 UNL     1      -2.940  48.469 -26.666  1.00  0.00     0.010 C 
BRANCH  34  35
HETATM   35  C23 UNL     1      -3.979  48.671 -25.550  1.00  0.00     0.001 C 
BRANCH  35  36
HETATM   36  C24 UNL     1      -5.369  48.112 -25.864  1.00  0.00     0.000 C 
BRANCH  36  37
HETATM   37  C25 UNL     1      -6.316  48.116 -24.658  1.00  0.00    -0.000 C 
BRANCH  37  38
HETATM   38  C26 UNL     1      -5.652  47.829 -23.308  1.00  0.00    -0.005 C 
HETATM   39  C27 UNL     1      -6.400  48.377 -22.106  1.00  0.00     0.005 C 
ENDBRANCH  37  38
ENDBRANCH  36  37
ENDBRANCH  35  36
ENDBRANCH  34  35
ENDBRANCH  30  34
ENDBRANCH  29  30
ENDBRANCH  24  27
ENDBRANCH  22  24
ENDBRANCH   1  22
TORSDOF 16
ENDMDL
MODEL 4
REMARK minimizedAffinity -7.40642643
REMARK CNNscore 0.475341916
REMARK CNNaffinity 6.87090254
REMARK  16 active torsions:
REMARK  status: ('A' for Active; 'I' for Inactive)
REMARK    1  A    between atoms: C2_2  and  C3_3 
REMARK    2  A    between atoms: C2_2  and  C4_5 
REMARK    3  A    between atoms: C12_13  and  O2_14 
REMARK    4  A    between atoms: O2_14  and  C13_15 
REMARK    5  A    between atoms: C13_15  and  C14_17 
REMARK    6  A    between atoms: C14_17  and  C16_19 
REMARK    7  A    between atoms: C16_19  and  O4_20 
REMARK    8  A    between atoms: C16_19  and  C17_21 
REMARK    9  A    between atoms: C19_23  and  C20_24 
REMARK   10  A    between atoms: C20_24  and  C21_25 
REMARK   11  A    between atoms: C20_24  and  C22_27 
REMARK   12  A    between atoms: C21_25  and  O5_26 
REMARK   13  A    between atoms: C22_27  and  C23_28 
REMARK   14  A    between atoms: C23_28  and  C24_29 
REMARK   15  A    between atoms: C24_29  and  C25_30 
REMARK   16  A    between atoms: C25_30  and  C26_31 
ROOT
HETATM    1  C13 UNL     1      -3.154  49.933 -27.411  1.00  0.00     0.266 C 
HETATM    2  O3  UNL     1      -3.396  50.387 -28.521  1.00  0.00    -0.265 OA
ENDROOT
BRANCH   1   3
HETATM    3  O2  UNL     1      -2.053  50.243 -26.669  1.00  0.00    -0.312 OA
BRANCH   3   4
HETATM    4  C12 UNL     1      -1.868  51.642 -26.376  1.00  0.00     0.170 C 
HETATM    5  C11 UNL     1      -0.930  52.235 -27.423  1.00  0.00     0.036 C 
HETATM    6  C10 UNL     1      -0.459  53.652 -27.100  1.00  0.00     0.007 C 
HETATM    7  C8  UNL     1      -0.378  53.988 -25.593  1.00  0.00    -0.007 C 
HETATM    8  C6  UNL     1      -0.147  52.724 -24.703  1.00  0.00    -0.003 C 
HETATM    9  C9  UNL     1       0.633  55.119 -25.382  1.00  0.00     0.011 C 
HETATM   10  C5  UNL     1      -0.144  53.108 -23.187  1.00  0.00     0.030 C 
HETATM   11  C7  UNL     1       1.201  52.035 -25.025  1.00  0.00     0.019 C 
HETATM   12  C28 UNL     1      -1.323  51.769 -24.959  1.00  0.00     0.129 A 
HETATM   13  C4  UNL     1      -0.014  51.892 -22.238  1.00  0.00     0.094 C 
HETATM   14  C30 UNL     1      -0.899  50.700 -22.612  1.00  0.00     0.167 C 
HETATM   15  C29 UNL     1      -1.669  50.760 -23.876  1.00  0.00     0.230 A 
HETATM   16  O7  UNL     1      -0.937  49.672 -21.942  1.00  0.00    -0.294 OA
HETATM   17  O6  UNL     1      -2.428  51.957 -24.035  1.00  0.00    -0.358 OA
BRANCH  13  18
HETATM   18  C2  UNL     1      -0.222  52.210 -20.771  1.00  0.00    -0.018 C 
HETATM   19  C1  UNL     1      -1.306  51.933 -20.026  1.00  0.00     0.022 C 
BRANCH  18  20
HETATM   20  C3  UNL     1       0.902  52.926 -20.088  1.00  0.00     0.265 C 
HETATM   21  O1  UNL     1       1.223  54.080 -20.347  1.00  0.00    -0.302 OA
ENDBRANCH  18  20
ENDBRANCH  13  18
ENDBRANCH   3   4
ENDBRANCH   1   3
BRANCH   1  22
HETATM   22  C14 UNL     1      -4.087  49.001 -26.665  1.00  0.00     0.114 C 
HETATM   23  C15 UNL     1      -3.325  48.368 -25.501  1.00  0.00     0.023 C 
BRANCH  22  24
HETATM   24  C16 UNL     1      -4.699  47.973 -27.629  1.00  0.00     0.159 C 
BRANCH  24  25
HETATM   25  O4  UNL     1      -4.457  48.386 -28.975  1.00  0.00    -0.390 OA
HETATM   26  H24 UNL     1      -4.986  47.805 -29.551  1.00  0.00     0.210 HD
ENDBRANCH  24  25
BRANCH  24  27
HETATM   27  C17 UNL     1      -6.204  47.777 -27.481  1.00  0.00    -0.058 C 
HETATM   28  C18 UNL     1      -6.712  47.627 -26.068  1.00  0.00     0.046 C 
HETATM   29  C19 UNL     1      -7.000  47.785 -28.571  1.00  0.00    -0.015 C 
BRANCH  29  30
HETATM   30  C20 UNL     1      -8.511  47.631 -28.612  1.00  0.00     0.032 C 
BRANCH  30  31
HETATM   31  C21 UNL     1      -8.922  46.151 -28.748  1.00  0.00     0.172 C 
BRANCH  31  32
HETATM   32  O5  UNL     1      -7.842  45.363 -29.242  1.00  0.00    -0.400 OA
HETATM   33  H32 UNL     1      -7.490  45.800 -30.035  1.00  0.00     0.209 HD
ENDBRANCH  31  32
ENDBRANCH  30  31
BRANCH  30  34
HETATM   34  C22 UNL     1      -9.162  48.514 -29.700  1.00  0.00     0.010 C 
BRANCH  34  35
HETATM   35  C23 UNL     1      -9.063  48.058 -31.166  1.00  0.00     0.001 C 
BRANCH  35  36
HETATM   36  C24 UNL     1      -7.772  48.471 -31.876  1.00  0.00     0.000 C 
BRANCH  36  37
HETATM   37  C25 UNL     1      -7.089  47.319 -32.622  1.00  0.00    -0.000 C 
BRANCH  37  38
HETATM   38  C26 UNL     1      -6.593  47.659 -34.031  1.00  0.00    -0.005 C 
HETATM   39  C27 UNL     1      -5.091  47.845 -34.145  1.00  0.00     0.005 C 
ENDBRANCH  37  38
ENDBRANCH  36  37
ENDBRANCH  35  36
ENDBRANCH  34  35
ENDBRANCH  30  34
ENDBRANCH  29  30
ENDBRANCH  24  27
ENDBRANCH  22  24
ENDBRANCH   1  22
TORSDOF 16
ENDMDL
MODEL 5
REMARK minimizedAffinity -8.09239197
REMARK CNNscore 0.462150067
REMARK CNNaffinity 6.96341753
REMARK  16 active torsions:
REMARK  status: ('A' for Active; 'I' for Inactive)
REMARK    1  A    between atoms: C2_2  and  C3_3 
REMARK    2  A    between atoms: C2_2  and  C4_5 
REMARK    3  A    between atoms: C12_13  and  O2_14 
REMARK    4  A    between atoms: O2_14  and  C13_15 
REMARK    5  A    between atoms: C13_15  and  C14_17 
REMARK    6  A    between atoms: C14_17  and  C16_19 
REMARK    7  A    between atoms: C16_19  and  O4_20 
REMARK    8  A    between atoms: C16_19  and  C17_21 
REMARK    9  A    between atoms: C19_23  and  C20_24 
REMARK   10  A    between atoms: C20_24  and  C21_25 
REMARK   11  A    between atoms: C20_24  and  C22_27 
REMARK   12  A    between atoms: C21_25  and  O5_26 
REMARK   13  A    between atoms: C22_27  and  C23_28 
REMARK   14  A    between atoms: C23_28  and  C24_29 
REMARK   15  A    between atoms: C24_29  and  C25_30 
REMARK   16  A    between atoms: C25_30  and  C26_31 
ROOT
HETATM    1  C13 UNL     1      -0.607  52.705 -24.730  1.00  0.00     0.266 C 
HETATM    2  O3  UNL     1      -0.486  53.848 -25.149  1.00  0.00    -0.265 OA
ENDROOT
BRANCH   1   3
HETATM    3  O2  UNL     1      -1.314  52.357 -23.618  1.00  0.00    -0.312 OA
BRANCH   3   4
HETATM    4  C12 UNL     1      -0.956  51.096 -23.017  1.00  0.00     0.170 C 
HETATM    5  C11 UNL     1      -2.119  50.125 -23.202  1.00  0.00     0.036 C 
HETATM    6  C10 UNL     1      -1.973  48.828 -22.410  1.00  0.00     0.007 C 
HETATM    7  C8  UNL     1      -1.162  48.947 -21.100  1.00  0.00    -0.007 C 
HETATM    8  C6  UNL     1      -1.201  50.387 -20.493  1.00  0.00    -0.003 C 
HETATM    9  C9  UNL     1      -1.586  47.831 -20.140  1.00  0.00     0.011 C 
HETATM   10  C5  UNL     1      -0.309  50.472 -19.212  1.00  0.00     0.030 C 
HETATM   11  C7  UNL     1      -2.639  50.807 -20.104  1.00  0.00     0.019 C 
HETATM   12  C28 UNL     1      -0.621  51.339 -21.551  1.00  0.00     0.129 A 
HETATM   13  C4  UNL     1      -0.222  51.894 -18.607  1.00  0.00     0.094 C 
HETATM   14  C30 UNL     1      -0.001  53.006 -19.635  1.00  0.00     0.167 C 
HETATM   15  C29 UNL     1      -0.026  52.654 -21.074  1.00  0.00     0.230 A 
HETATM   16  O7  UNL     1       0.122  54.185 -19.315  1.00  0.00    -0.294 OA
HETATM   17  O6  UNL     1       0.810  51.549 -21.414  1.00  0.00    -0.358 OA
BRANCH  13  18
HETATM   18  C2  UNL     1       0.799  52.049 -17.498  1.00  0.00    -0.018 C 
HETATM   19  C1  UNL     1       2.003  52.640 -17.579  1.00  0.00     0.022 C 
BRANCH  18  20
HETATM   20  C3  UNL     1       0.424  51.459 -16.173  1.00  0.00     0.265 C 
HETATM   21  O1  UNL     1       0.964  50.468 -15.698  1.00  0.00    -0.302 OA
ENDBRANCH  18  20
ENDBRANCH  13  18
ENDBRANCH   3   4
ENDBRANCH   1   3
BRANCH   1  22
HETATM   22  C14 UNL     1      -0.037  51.489 -25.433  1.00  0.00     0.114 C 
HETATM   23  C15 UNL     1       1.468  51.688 -25.619  1.00  0.00     0.023 C 
BRANCH  22  24
HETATM   24  C16 UNL     1      -0.789  51.230 -26.748  1.00  0.00     0.159 C 
BRANCH  24  25
HETATM   25  O4  UNL     1      -0.965  52.466 -27.442  1.00  0.00    -0.390 OA
HETATM   26  H24 UNL     1      -1.574  52.293 -28.182  1.00  0.00     0.210 HD
ENDBRANCH  24  25
BRANCH  24  27
HETATM   27  C17 UNL     1      -2.170  50.606 -26.580  1.00  0.00    -0.058 C 
HETATM   28  C18 UNL     1      -3.309  51.573 -26.376  1.00  0.00     0.046 C 
HETATM   29  C19 UNL     1      -2.322  49.266 -26.656  1.00  0.00    -0.015 C 
BRANCH  29  30
HETATM   30  C20 UNL     1      -3.615  48.476 -26.539  1.00  0.00     0.032 C 
BRANCH  30  31
HETATM   31  C21 UNL     1      -4.272  48.266 -27.918  1.00  0.00     0.172 C 
BRANCH  31  32
HETATM   32  O5  UNL     1      -4.156  49.435 -28.725  1.00  0.00    -0.400 OA
HETATM   33  H32 UNL     1      -4.461  50.193 -28.199  1.00  0.00     0.209 HD
ENDBRANCH  31  32
ENDBRANCH  30  31
BRANCH  30  34
HETATM   34  C22 UNL     1      -4.595  49.101 -25.520  1.00  0.00     0.010 C 
BRANCH  34  35
HETATM   35  C23 UNL     1      -5.650  48.191 -24.870  1.00  0.00     0.001 C 
BRANCH  35  36
HETATM   36  C24 UNL     1      -5.459  47.966 -23.368  1.00  0.00     0.000 C 
BRANCH  36  37
HETATM   37  C25 UNL     1      -5.625  49.241 -22.533  1.00  0.00    -0.000 C 
BRANCH  37  38
HETATM   38  C26 UNL     1      -5.768  49.017 -21.025  1.00  0.00    -0.005 C 
HETATM   39  C27 UNL     1      -6.827  49.874 -20.355  1.00  0.00     0.005 C 
ENDBRANCH  37  38
ENDBRANCH  36  37
ENDBRANCH  35  36
ENDBRANCH  34  35
ENDBRANCH  30  34
ENDBRANCH  29  30
ENDBRANCH  24  27
ENDBRANCH  22  24
ENDBRANCH   1  22
TORSDOF 16
ENDMDL
MODEL 6
REMARK minimizedAffinity -7.16863251
REMARK CNNscore 0.412583143
REMARK CNNaffinity 6.38767004
REMARK  16 active torsions:
REMARK  status: ('A' for Active; 'I' for Inactive)
REMARK    1  A    between atoms: C2_2  and  C3_3 
REMARK    2  A    between atoms: C2_2  and  C4_5 
REMARK    3  A    between atoms: C12_13  and  O2_14 
REMARK    4  A    between atoms: O2_14  and  C13_15 
REMARK    5  A    between atoms: C13_15  and  C14_17 
REMARK    6  A    between atoms: C14_17  and  C16_19 
REMARK    7  A    between atoms: C16_19  and  O4_20 
REMARK    8  A    between atoms: C16_19  and  C17_21 
REMARK    9  A    between atoms: C19_23  and  C20_24 
REMARK   10  A    between atoms: C20_24  and  C21_25 
REMARK   11  A    between atoms: C20_24  and  C22_27 
REMARK   12  A    between atoms: C21_25  and  O5_26 
REMARK   13  A    between atoms: C22_27  and  C23_28 
REMARK   14  A    between atoms: C23_28  and  C24_29 
REMARK   15  A    between atoms: C24_29  and  C25_30 
REMARK   16  A    between atoms: C25_30  and  C26_31 
ROOT
HETATM    1  C13 UNL     1      -4.458  48.235 -27.900  1.00  0.00     0.266 C 
HETATM    2  O3  UNL     1      -3.618  47.627 -28.550  1.00  0.00    -0.265 OA
ENDROOT
BRANCH   1   3
HETATM    3  O2  UNL     1      -5.775  48.334 -28.235  1.00  0.00    -0.312 OA
BRANCH   3   4
HETATM    4  C12 UNL     1      -6.155  47.707 -29.477  1.00  0.00     0.170 C 
HETATM    5  C11 UNL     1      -5.692  48.596 -30.628  1.00  0.00     0.036 C 
HETATM    6  C10 UNL     1      -6.234  48.173 -31.991  1.00  0.00     0.007 C 
HETATM    7  C8  UNL     1      -7.606  47.463 -31.961  1.00  0.00    -0.007 C 
HETATM    8  C6  UNL     1      -8.469  47.868 -30.722  1.00  0.00    -0.003 C 
HETATM    9  C9  UNL     1      -8.298  47.643 -33.315  1.00  0.00     0.011 C 
HETATM   10  C5  UNL     1      -9.814  47.071 -30.700  1.00  0.00     0.030 C 
HETATM   11  C7  UNL     1      -8.808  49.378 -30.729  1.00  0.00     0.019 C 
HETATM   12  C28 UNL     1      -7.663  47.495 -29.468  1.00  0.00     0.129 A 
HETATM   13  C4  UNL     1     -10.682  47.350 -29.449  1.00  0.00     0.094 C 
HETATM   14  C30 UNL     1      -9.905  47.364 -28.130  1.00  0.00     0.167 C 
HETATM   15  C29 UNL     1      -8.429  47.250 -28.177  1.00  0.00     0.230 A 
HETATM   16  O7  UNL     1     -10.452  47.539 -27.045  1.00  0.00    -0.294 OA
HETATM   17  O6  UNL     1      -7.958  46.162 -28.971  1.00  0.00    -0.358 OA
BRANCH  13  18
HETATM   18  C2  UNL     1     -11.882  46.438 -29.296  1.00  0.00    -0.018 C 
HETATM   19  C1  UNL     1     -13.170  46.804 -29.169  1.00  0.00     0.022 C 
BRANCH  18  20
HETATM   20  C3  UNL     1     -11.592  44.969 -29.265  1.00  0.00     0.265 C 
HETATM   21  O1  UNL     1     -11.701  44.238 -30.243  1.00  0.00    -0.302 OA
ENDBRANCH  18  20
ENDBRANCH  13  18
ENDBRANCH   3   4
ENDBRANCH   1   3
BRANCH   1  22
HETATM   22  C14 UNL     1      -4.164  48.920 -26.581  1.00  0.00     0.114 C 
HETATM   23  C15 UNL     1      -2.665  48.823 -26.297  1.00  0.00     0.023 C 
BRANCH  22  24
HETATM   24  C16 UNL     1      -5.039  48.327 -25.464  1.00  0.00     0.159 C 
BRANCH  24  25
HETATM   25  O4  UNL     1      -6.410  48.625 -25.731  1.00  0.00    -0.390 OA
HETATM   26  H24 UNL     1      -6.916  48.377 -24.937  1.00  0.00     0.210 HD
ENDBRANCH  24  25
BRANCH  24  27
HETATM   27  C17 UNL     1      -4.728  48.850 -24.066  1.00  0.00    -0.058 C 
HETATM   28  C18 UNL     1      -4.860  47.849 -22.945  1.00  0.00     0.046 C 
HETATM   29  C19 UNL     1      -4.323  50.127 -23.894  1.00  0.00    -0.015 C 
BRANCH  29  30
HETATM   30  C20 UNL     1      -3.949  50.808 -22.588  1.00  0.00     0.032 C 
BRANCH  30  31
HETATM   31  C21 UNL     1      -4.389  52.286 -22.579  1.00  0.00     0.172 C 
BRANCH  31  32
HETATM   32  O5  UNL     1      -5.603  52.464 -23.304  1.00  0.00    -0.400 OA
HETATM   33  H32 UNL     1      -5.500  52.036 -24.170  1.00  0.00     0.209 HD
ENDBRANCH  31  32
ENDBRANCH  30  31
BRANCH  30  34
HETATM   34  C22 UNL     1      -2.449  50.649 -22.251  1.00  0.00     0.010 C 
BRANCH  34  35
HETATM   35  C23 UNL     1      -1.415  51.146 -23.275  1.00  0.00     0.001 C 
BRANCH  35  36
HETATM   36  C24 UNL     1      -0.487  52.248 -22.760  1.00  0.00     0.000 C 
BRANCH  36  37
HETATM   37  C25 UNL     1      -0.122  52.097 -21.277  1.00  0.00    -0.000 C 
BRANCH  37  38
HETATM   38  C26 UNL     1       0.475  53.346 -20.624  1.00  0.00    -0.005 C 
HETATM   39  C27 UNL     1       1.469  54.100 -21.488  1.00  0.00     0.005 C 
ENDBRANCH  37  38
ENDBRANCH  36  37
ENDBRANCH  35  36
ENDBRANCH  34  35
ENDBRANCH  30  34
ENDBRANCH  29  30
ENDBRANCH  24  27
ENDBRANCH  22  24
ENDBRANCH   1  22
TORSDOF 16
ENDMDL
MODEL 7
REMARK minimizedAffinity -7.09888983
REMARK CNNscore 0.402563602
REMARK CNNaffinity 6.51845121
REMARK  16 active torsions:
REMARK  status: ('A' for Active; 'I' for Inactive)
REMARK    1  A    between atoms: C2_2  and  C3_3 
REMARK    2  A    between atoms: C2_2  and  C4_5 
REMARK    3  A    between atoms: C12_13  and  O2_14 
REMARK    4  A    between atoms: O2_14  and  C13_15 
REMARK    5  A    between atoms: C13_15  and  C14_17 
REMARK    6  A    between atoms: C14_17  and  C16_19 
REMARK    7  A    between atoms: C16_19  and  O4_20 
REMARK    8  A    between atoms: C16_19  and  C17_21 
REMARK    9  A    between atoms: C19_23  and  C20_24 
REMARK   10  A    between atoms: C20_24  and  C21_25 
REMARK   11  A    between atoms: C20_24  and  C22_27 
REMARK   12  A    between atoms: C21_25  and  O5_26 
REMARK   13  A    between atoms: C22_27  and  C23_28 
REMARK   14  A    between atoms: C23_28  and  C24_29 
REMARK   15  A    between atoms: C24_29  and  C25_30 
REMARK   16  A    between atoms: C25_30  and  C26_31 
ROOT
HETATM    1  C13 UNL     1       0.362  52.494 -19.667  1.00  0.00     0.266 C 
HETATM    2  O3  UNL     1       1.279  53.289 -19.822  1.00  0.00    -0.265 OA
ENDROOT
BRANCH   1   3
HETATM    3  O2  UNL     1      -0.573  52.195 -20.613  1.00  0.00    -0.312 OA
BRANCH   3   4
HETATM    4  C12 UNL     1      -0.058  51.764 -21.889  1.00  0.00     0.170 C 
HETATM    5  C11 UNL     1       0.543  52.974 -22.600  1.00  0.00     0.036 C 
HETATM    6  C10 UNL     1       0.913  52.712 -24.059  1.00  0.00     0.007 C 
HETATM    7  C8  UNL     1       0.054  51.643 -24.771  1.00  0.00    -0.007 C 
HETATM    8  C6  UNL     1      -1.376  51.505 -24.154  1.00  0.00    -0.003 C 
HETATM    9  C9  UNL     1       0.082  51.897 -26.282  1.00  0.00     0.011 C 
HETATM   10  C5  UNL     1      -2.177  50.364 -24.862  1.00  0.00     0.030 C 
HETATM   11  C7  UNL     1      -2.188  52.815 -24.289  1.00  0.00     0.019 C 
HETATM   12  C28 UNL     1      -1.195  51.125 -22.676  1.00  0.00     0.129 A 
HETATM   13  C4  UNL     1      -3.570  50.104 -24.241  1.00  0.00     0.094 C 
HETATM   14  C30 UNL     1      -3.583  50.063 -22.711  1.00  0.00     0.167 C 
HETATM   15  C29 UNL     1      -2.336  50.398 -21.984  1.00  0.00     0.230 A 
HETATM   16  O7  UNL     1      -4.603  49.835 -22.067  1.00  0.00    -0.294 OA
HETATM   17  O6  UNL     1      -1.188  49.690 -22.448  1.00  0.00    -0.358 OA
BRANCH  13  18
HETATM   18  C2  UNL     1      -4.277  48.871 -24.766  1.00  0.00    -0.018 C 
HETATM   19  C1  UNL     1      -4.098  48.278 -25.959  1.00  0.00     0.022 C 
BRANCH  18  20
HETATM   20  C3  UNL     1      -5.298  48.261 -23.855  1.00  0.00     0.265 C 
HETATM   21  O1  UNL     1      -6.377  47.830 -24.244  1.00  0.00    -0.302 OA
ENDBRANCH  18  20
ENDBRANCH  13  18
ENDBRANCH   3   4
ENDBRANCH   1   3
BRANCH   1  22
HETATM   22  C14 UNL     1       0.169  51.670 -18.411  1.00  0.00     0.114 C 
HETATM   23  C15 UNL     1      -1.319  51.363 -18.244  1.00  0.00     0.023 C 
BRANCH  22  24
HETATM   24  C16 UNL     1       0.786  52.390 -17.200  1.00  0.00     0.159 C 
BRANCH  24  25
HETATM   25  O4  UNL     1       2.141  52.731 -17.494  1.00  0.00    -0.390 OA
HETATM   26  H24 UNL     1       2.545  53.039 -16.664  1.00  0.00     0.210 HD
ENDBRANCH  24  25
BRANCH  24  27
HETATM   27  C17 UNL     1       0.796  51.574 -15.912  1.00  0.00    -0.058 C 
HETATM   28  C18 UNL     1       0.787  50.075 -16.081  1.00  0.00     0.046 C 
HETATM   29  C19 UNL     1       0.850  52.198 -14.715  1.00  0.00    -0.015 C 
BRANCH  29  30
HETATM   30  C20 UNL     1       0.892  51.553 -13.340  1.00  0.00     0.032 C 
BRANCH  30  31
HETATM   31  C21 UNL     1      -0.360  51.910 -12.513  1.00  0.00     0.172 C 
BRANCH  31  32
HETATM   32  O5  UNL     1      -1.083  50.737 -12.146  1.00  0.00    -0.400 OA
HETATM   33  H32 UNL     1      -1.217  50.204 -12.947  1.00  0.00     0.209 HD
ENDBRANCH  31  32
ENDBRANCH  30  31
BRANCH  30  34
HETATM   34  C22 UNL     1       2.198  51.875 -12.579  1.00  0.00     0.010 C 
BRANCH  34  35
HETATM   35  C23 UNL     1       2.274  51.534 -11.082  1.00  0.00     0.001 C 
BRANCH  35  36
HETATM   36  C24 UNL     1       2.257  52.747 -10.149  1.00  0.00     0.000 C 
BRANCH  36  37
HETATM   37  C25 UNL     1       2.288  54.089 -10.892  1.00  0.00    -0.000 C 
BRANCH  37  38
HETATM   38  C26 UNL     1       3.632  54.821 -10.856  1.00  0.00    -0.005 C 
HETATM   39  C27 UNL     1       3.529  56.329 -10.725  1.00  0.00     0.005 C 
ENDBRANCH  37  38
ENDBRANCH  36  37
ENDBRANCH  35  36
ENDBRANCH  34  35
ENDBRANCH  30  34
ENDBRANCH  29  30
ENDBRANCH  24  27
ENDBRANCH  22  24
ENDBRANCH   1  22
TORSDOF 16
ENDMDL
MODEL 8
REMARK minimizedAffinity -6.94726944
REMARK CNNscore 0.387989879
REMARK CNNaffinity 6.4790802
REMARK  16 active torsions:
REMARK  status: ('A' for Active; 'I' for Inactive)
REMARK    1  A    between atoms: C2_2  and  C3_3 
REMARK    2  A    between atoms: C2_2  and  C4_5 
REMARK    3  A    between atoms: C12_13  and  O2_14 
REMARK    4  A    between atoms: O2_14  and  C13_15 
REMARK    5  A    between atoms: C13_15  and  C14_17 
REMARK    6  A    between atoms: C14_17  and  C16_19 
REMARK    7  A    between atoms: C16_19  and  O4_20 
REMARK    8  A    between atoms: C16_19  and  C17_21 
REMARK    9  A    between atoms: C19_23  and  C20_24 
REMARK   10  A    between atoms: C20_24  and  C21_25 
REMARK   11  A    between atoms: C20_24  and  C22_27 
REMARK   12  A    between atoms: C21_25  and  O5_26 
REMARK   13  A    between atoms: C22_27  and  C23_28 
REMARK   14  A    between atoms: C23_28  and  C24_29 
REMARK   15  A    between atoms: C24_29  and  C25_30 
REMARK   16  A    between atoms: C25_30  and  C26_31 
ROOT
HETATM    1  C13 UNL     1       0.444  52.440 -20.642  1.00  0.00     0.266 C 
HETATM    2  O3  UNL     1       1.588  52.874 -20.695  1.00  0.00    -0.265 OA
ENDROOT
BRANCH   1   3
HETATM    3  O2  UNL     1      -0.449  52.483 -21.669  1.00  0.00    -0.312 OA
BRANCH   3   4
HETATM    4  C12 UNL     1      -0.025  51.855 -22.896  1.00  0.00     0.170 C 
HETATM    5  C11 UNL     1       0.637  52.912 -23.776  1.00  0.00     0.036 C 
HETATM    6  C10 UNL     1       0.922  52.440 -25.200  1.00  0.00     0.007 C 
HETATM    7  C8  UNL     1      -0.047  51.364 -25.741  1.00  0.00    -0.007 C 
HETATM    8  C6  UNL     1      -1.455  51.423 -25.064  1.00  0.00    -0.003 C 
HETATM    9  C9  UNL     1      -0.065  51.424 -27.272  1.00  0.00     0.011 C 
HETATM   10  C5  UNL     1      -2.372  50.272 -25.593  1.00  0.00     0.030 C 
HETATM   11  C7  UNL     1      -2.168  52.769 -25.340  1.00  0.00     0.019 C 
HETATM   12  C28 UNL     1      -1.241  51.218 -23.556  1.00  0.00     0.129 A 
HETATM   13  C4  UNL     1      -3.754  50.209 -24.898  1.00  0.00     0.094 C 
HETATM   14  C30 UNL     1      -3.704  50.361 -23.376  1.00  0.00     0.167 C 
HETATM   15  C29 UNL     1      -2.405  50.680 -22.739  1.00  0.00     0.230 A 
HETATM   16  O7  UNL     1      -4.709  50.300 -22.674  1.00  0.00    -0.294 OA
HETATM   17  O6  UNL     1      -1.336  49.827 -23.146  1.00  0.00    -0.358 OA
BRANCH  13  18
HETATM   18  C2  UNL     1      -4.576  48.982 -25.237  1.00  0.00    -0.018 C 
HETATM   19  C1  UNL     1      -4.447  48.189 -26.315  1.00  0.00     0.022 C 
BRANCH  18  20
HETATM   20  C3  UNL     1      -5.662  48.630 -24.266  1.00  0.00     0.265 C 
HETATM   21  O1  UNL     1      -6.855  48.695 -24.536  1.00  0.00    -0.302 OA
ENDBRANCH  18  20
ENDBRANCH  13  18
ENDBRANCH   3   4
ENDBRANCH   1   3
BRANCH   1  22
HETATM   22  C14 UNL     1      -0.127  51.727 -19.433  1.00  0.00     0.114 C 
HETATM   23  C15 UNL     1      -1.641  51.606 -19.601  1.00  0.00     0.023 C 
BRANCH  22  24
HETATM   24  C16 UNL     1       0.292  52.446 -18.141  1.00  0.00     0.159 C 
BRANCH  24  25
HETATM   25  O4  UNL     1       1.546  53.097 -18.348  1.00  0.00    -0.390 OA
HETATM   26  H24 UNL     1       1.855  53.405 -17.478  1.00  0.00     0.210 HD
ENDBRANCH  24  25
BRANCH  24  27
HETATM   27  C17 UNL     1       0.452  51.535 -16.928  1.00  0.00    -0.058 C 
HETATM   28  C18 UNL     1       0.163  50.072 -17.161  1.00  0.00     0.046 C 
HETATM   29  C19 UNL     1       0.867  52.043 -15.748  1.00  0.00    -0.015 C 
BRANCH  29  30
HETATM   30  C20 UNL     1       1.105  51.288 -14.451  1.00  0.00     0.032 C 
BRANCH  30  31
HETATM   31  C21 UNL     1       0.745  52.151 -13.224  1.00  0.00     0.172 C 
BRANCH  31  32
HETATM   32  O5  UNL     1       0.015  51.394 -12.262  1.00  0.00    -0.400 OA
HETATM   33  H32 UNL     1      -0.716  50.949 -12.721  1.00  0.00     0.209 HD
ENDBRANCH  31  32
ENDBRANCH  30  31
BRANCH  30  34
HETATM   34  C22 UNL     1       2.538  50.718 -14.356  1.00  0.00     0.010 C 
BRANCH  34  35
HETATM   35  C23 UNL     1       3.374  51.048 -13.108  1.00  0.00     0.001 C 
BRANCH  35  36
HETATM   36  C24 UNL     1       3.958  49.829 -12.392  1.00  0.00     0.000 C 
BRANCH  36  37
HETATM   37  C25 UNL     1       4.333  50.100 -10.930  1.00  0.00    -0.000 C 
BRANCH  37  38
HETATM   38  C26 UNL     1       5.830  50.027 -10.617  1.00  0.00    -0.005 C 
HETATM   39  C27 UNL     1       6.178  49.243  -9.365  1.00  0.00     0.005 C 
ENDBRANCH  37  38
ENDBRANCH  36  37
ENDBRANCH  35  36
ENDBRANCH  34  35
ENDBRANCH  30  34
ENDBRANCH  29  30
ENDBRANCH  24  27
ENDBRANCH  22  24
ENDBRANCH   1  22
TORSDOF 16
ENDMDL
MODEL 9
REMARK minimizedAffinity -7.59838343
REMARK CNNscore 0.366384655
REMARK CNNaffinity 6.90541315
REMARK  16 active torsions:
REMARK  status: ('A' for Active; 'I' for Inactive)
REMARK    1  A    between atoms: C2_2  and  C3_3 
REMARK    2  A    between atoms: C2_2  and  C4_5 
REMARK    3  A    between atoms: C12_13  and  O2_14 
REMARK    4  A    between atoms: O2_14  and  C13_15 
REMARK    5  A    between atoms: C13_15  and  C14_17 
REMARK    6  A    between atoms: C14_17  and  C16_19 
REMARK    7  A    between atoms: C16_19  and  O4_20 
REMARK    8  A    between atoms: C16_19  and  C17_21 
REMARK    9  A    between atoms: C19_23  and  C20_24 
REMARK   10  A    between atoms: C20_24  and  C21_25 
REMARK   11  A    between atoms: C20_24  and  C22_27 
REMARK   12  A    between atoms: C21_25  and  O5_26 
REMARK   13  A    between atoms: C22_27  and  C23_28 
REMARK   14  A    between atoms: C23_28  and  C24_29 
REMARK   15  A    between atoms: C24_29  and  C25_30 
REMARK   16  A    between atoms: C25_30  and  C26_31 
ROOT
HETATM    1  C13 UNL     1      -2.773  50.952 -19.264  1.00  0.00     0.266 C 
HETATM    2  O3  UNL     1      -3.007  51.613 -18.262  1.00  0.00    -0.265 OA
ENDROOT
BRANCH   1   3
HETATM    3  O2  UNL     1      -3.482  51.025 -20.425  1.00  0.00    -0.312 OA
BRANCH   3   4
HETATM    4  C12 UNL     1      -3.087  50.104 -21.461  1.00  0.00     0.170 C 
HETATM    5  C11 UNL     1      -2.464  50.901 -22.604  1.00  0.00     0.036 C 
HETATM    6  C10 UNL     1      -2.215  50.079 -23.867  1.00  0.00     0.007 C 
HETATM    7  C8  UNL     1      -3.187  48.896 -24.082  1.00  0.00    -0.007 C 
HETATM    8  C6  UNL     1      -4.575  49.122 -23.399  1.00  0.00    -0.003 C 
HETATM    9  C9  UNL     1      -3.250  48.559 -25.575  1.00  0.00     0.011 C 
HETATM   10  C5  UNL     1      -5.493  47.870 -23.585  1.00  0.00     0.030 C 
HETATM   11  C7  UNL     1      -5.312  50.348 -23.989  1.00  0.00     0.019 C 
HETATM   12  C28 UNL     1      -4.314  49.313 -21.896  1.00  0.00     0.129 A 
HETATM   13  C4  UNL     1      -6.852  47.982 -22.853  1.00  0.00     0.094 C 
HETATM   14  C30 UNL     1      -6.760  48.521 -21.424  1.00  0.00     0.167 C 
HETATM   15  C29 UNL     1      -5.446  48.999 -20.932  1.00  0.00     0.230 A 
HETATM   16  O7  UNL     1      -7.743  48.639 -20.699  1.00  0.00    -0.294 OA
HETATM   17  O6  UNL     1      -4.380  48.075 -21.139  1.00  0.00    -0.358 OA
BRANCH  13  18
HETATM   18  C2  UNL     1      -7.669  46.706 -22.838  1.00  0.00    -0.018 C 
HETATM   19  C1  UNL     1      -7.306  45.514 -22.333  1.00  0.00     0.022 C 
BRANCH  18  20
HETATM   20  C3  UNL     1      -9.023  46.784 -23.475  1.00  0.00     0.265 C 
HETATM   21  O1  UNL     1      -9.468  45.923 -24.224  1.00  0.00    -0.302 OA
ENDBRANCH  18  20
ENDBRANCH  13  18
ENDBRANCH   3   4
ENDBRANCH   1   3
BRANCH   1  22
HETATM   22  C14 UNL     1      -1.606  49.992 -19.382  1.00  0.00     0.114 C 
HETATM   23  C15 UNL     1      -1.930  48.721 -18.598  1.00  0.00     0.023 C 
BRANCH  22  24
HETATM   24  C16 UNL     1      -0.305  50.676 -18.930  1.00  0.00     0.159 C 
BRANCH  24  25
HETATM   25  O4  UNL     1      -0.445  51.110 -17.577  1.00  0.00    -0.390 OA
HETATM   26  H24 UNL     1       0.326  51.670 -17.376  1.00  0.00     0.210 HD
ENDBRANCH  24  25
BRANCH  24  27
HETATM   27  C17 UNL     1       0.095  51.893 -19.756  1.00  0.00    -0.058 C 
HETATM   28  C18 UNL     1      -0.035  53.229 -19.066  1.00  0.00     0.046 C 
HETATM   29  C19 UNL     1       0.570  51.736 -21.010  1.00  0.00    -0.015 C 
BRANCH  29  30
HETATM   30  C20 UNL     1       1.037  52.823 -21.964  1.00  0.00     0.032 C 
BRANCH  30  31
HETATM   31  C21 UNL     1       1.213  54.172 -21.236  1.00  0.00     0.172 C 
BRANCH  31  32
HETATM   32  O5  UNL     1       2.194  54.979 -21.883  1.00  0.00    -0.400 OA
HETATM   33  H32 UNL     1       2.990  54.437 -22.013  1.00  0.00     0.209 HD
ENDBRANCH  31  32
ENDBRANCH  30  31
BRANCH  30  34
HETATM   34  C22 UNL     1       0.122  52.950 -23.203  1.00  0.00     0.010 C 
BRANCH  34  35
HETATM   35  C23 UNL     1       0.682  53.646 -24.455  1.00  0.00     0.001 C 
BRANCH  35  36
HETATM   36  C24 UNL     1       0.303  52.978 -25.779  1.00  0.00     0.000 C 
BRANCH  36  37
HETATM   37  C25 UNL     1       0.694  51.497 -25.850  1.00  0.00    -0.000 C 
BRANCH  37  38
HETATM   38  C26 UNL     1      -0.133  50.652 -26.823  1.00  0.00    -0.005 C 
HETATM   39  C27 UNL     1      -1.409  51.314 -27.310  1.00  0.00     0.005 C 
ENDBRANCH  37  38
ENDBRANCH  36  37
ENDBRANCH  35  36
ENDBRANCH  34  35
ENDBRANCH  30  34
ENDBRANCH  29  30
ENDBRANCH  24  27
ENDBRANCH  22  24
ENDBRANCH   1  22
TORSDOF 16
ENDMDL
