MODEL 1
REMARK minimizedAffinity -7.15470314
REMARK CNNscore 0.353435397
REMARK CNNaffinity 5.86366653
REMARK  12 active torsions:
REMARK  status: ('A' for Active; 'I' for Inactive)
REMARK    1  A    between atoms: O1_2  and  C2_3 
REMARK    2  A    between atoms: C3_6  and  C4_7 
REMARK    3  A    between atoms: C4_7  and  C5_8 
REMARK    4  A    between atoms: C6_9  and  C8_11 
REMARK    5  A    between atoms: C8_11  and  C9_12 
REMARK    6  A    between atoms: C10_13  and  C11_14 
REMARK    7  A    between atoms: C13_16  and  C14_17 
REMARK    8  A    between atoms: C14_17  and  C16_19 
REMARK    9  A    between atoms: C16_19  and  O2_20 
REMARK   10  A    between atoms: C16_19  and  C18_22 
REMARK   11  A    between atoms: C24_29  and  O4_30 
REMARK   12  A    between atoms: C25_31  and  O5_32 
ROOT
HETATM    1  C5  UNL     1      -2.424  50.059 -24.990  1.00  0.00    -0.018 C 
HETATM    2  C6  UNL     1      -3.200  49.131 -25.588  1.00  0.00    -0.084 C 
HETATM    3  C7  UNL     1      -2.985  48.600 -26.981  1.00  0.00     0.043 C 
ENDROOT
BRANCH   2   4
HETATM    4  C8  UNL     1      -4.424  48.581 -24.881  1.00  0.00     0.060 C 
BRANCH   4   5
HETATM    5  C9  UNL     1      -5.462  48.097 -25.856  1.00  0.00    -0.022 C 
HETATM    6  C10 UNL     1      -6.729  47.807 -25.517  1.00  0.00     0.003 C 
BRANCH   6   7
HETATM    7  C11 UNL     1      -7.779  47.322 -26.413  1.00  0.00    -0.066 C 
HETATM    8  C12 UNL     1      -9.195  47.312 -25.893  1.00  0.00     0.048 C 
HETATM    9  C13 UNL     1      -7.424  46.889 -27.642  1.00  0.00    -0.013 C 
BRANCH   9  10
HETATM   10  C14 UNL     1      -8.328  46.376 -28.758  1.00  0.00     0.037 C 
HETATM   11  C15 UNL     1      -9.164  45.221 -28.190  1.00  0.00     0.017 C 
BRANCH  10  12
HETATM   12  C16 UNL     1      -9.202  47.530 -29.332  1.00  0.00     0.165 C 
BRANCH  12  13
HETATM   13  O2  UNL     1      -8.514  48.052 -30.486  1.00  0.00    -0.387 OA
HETATM   14  C17 UNL     1      -8.601  49.465 -30.600  1.00  0.00     0.202 C 
ENDBRANCH  12  13
BRANCH  12  15
HETATM   15  C18 UNL     1     -10.590  47.054 -29.742  1.00  0.00     0.110 A 
HETATM   16  C19 UNL     1     -10.685  46.124 -30.915  1.00  0.00     0.051 C 
HETATM   17  O3  UNL     1     -11.590  48.094 -29.749  1.00  0.00    -0.367 OA
HETATM   18  C20 UNL     1     -11.713  47.122 -28.711  1.00  0.00     0.155 A 
HETATM   19  C21 UNL     1     -12.941  46.286 -28.782  1.00  0.00     0.042 C 
ENDBRANCH  12  15
ENDBRANCH  10  12
ENDBRANCH   9  10
ENDBRANCH   6   7
ENDBRANCH   4   5
ENDBRANCH   2   4
BRANCH   1  20
HETATM   20  C4  UNL     1      -1.179  50.718 -25.524  1.00  0.00     0.085 C 
BRANCH  20  21
HETATM   21  C3  UNL     1      -0.541  51.671 -24.534  1.00  0.00     0.023 A 
HETATM   22  N1  UNL     1      -0.605  51.272 -23.234  1.00  0.00    -0.337 N 
HETATM   23  C2  UNL     1      -0.014  52.034 -22.281  1.00  0.00     0.179 A 
ATOM     24  H1  UNL     1      -1.090  50.412 -22.981  1.00  0.00     0.168 HD
HETATM   25  C25 UNL     1       0.670  53.209 -22.565  1.00  0.00     0.153 A 
HETATM   26  C24 UNL     1       0.700  53.599 -23.909  1.00  0.00     0.111 A 
HETATM   27  C22 UNL     1       0.093  52.856 -24.924  1.00  0.00    -0.003 A 
HETATM   28  C23 UNL     1       0.191  53.293 -26.357  1.00  0.00     0.053 C 
BRANCH  23  29
HETATM   29  O1  UNL     1      -0.124  51.614 -20.972  1.00  0.00    -0.339 OA
HETATM   30  C1  UNL     1      -0.325  50.210 -20.832  1.00  0.00     0.211 C 
ENDBRANCH  23  29
BRANCH  25  31
HETATM   31  O5  UNL     1       1.322  54.071 -21.722  1.00  0.00    -0.349 OA
HETATM   32  C26 UNL     1       1.461  53.680 -20.362  1.00  0.00     0.210 C 
ENDBRANCH  25  31
BRANCH  26  33
HETATM   33  O4  UNL     1       1.368  54.756 -24.241  1.00  0.00    -0.357 OA
HETATM   34  H36 UNL     1       1.708  55.109 -23.395  1.00  0.00     0.217 HD
ENDBRANCH  26  33
ENDBRANCH  20  21
ENDBRANCH   1  20
TORSDOF 12
ENDMDL
MODEL 2
REMARK minimizedAffinity -7.5146656
REMARK CNNscore 0.252539426
REMARK CNNaffinity 6.16820002
REMARK  12 active torsions:
REMARK  status: ('A' for Active; 'I' for Inactive)
REMARK    1  A    between atoms: O1_2  and  C2_3 
REMARK    2  A    between atoms: C3_6  and  C4_7 
REMARK    3  A    between atoms: C4_7  and  C5_8 
REMARK    4  A    between atoms: C6_9  and  C8_11 
REMARK    5  A    between atoms: C8_11  and  C9_12 
REMARK    6  A    between atoms: C10_13  and  C11_14 
REMARK    7  A    between atoms: C13_16  and  C14_17 
REMARK    8  A    between atoms: C14_17  and  C16_19 
REMARK    9  A    between atoms: C16_19  and  O2_20 
REMARK   10  A    between atoms: C16_19  and  C18_22 
REMARK   11  A    between atoms: C24_29  and  O4_30 
REMARK   12  A    between atoms: C25_31  and  O5_32 
ROOT
HETATM    1  C5  UNL     1       0.117  52.242 -22.184  1.00  0.00    -0.018 C 
HETATM    2  C6  UNL     1       0.287  52.875 -21.004  1.00  0.00    -0.084 C 
HETATM    3  C7  UNL     1       1.163  54.083 -20.796  1.00  0.00     0.043 C 
ENDROOT
BRANCH   2   4
HETATM    4  C8  UNL     1      -0.380  52.351 -19.747  1.00  0.00     0.060 C 
BRANCH   4   5
HETATM    5  C9  UNL     1       0.461  52.595 -18.525  1.00  0.00    -0.022 C 
HETATM    6  C10 UNL     1       0.695  51.669 -17.580  1.00  0.00     0.003 C 
BRANCH   6   7
HETATM    7  C11 UNL     1       1.491  51.847 -16.366  1.00  0.00    -0.066 C 
HETATM    8  C12 UNL     1       2.793  52.599 -16.485  1.00  0.00     0.048 C 
HETATM    9  C13 UNL     1       1.032  51.311 -15.214  1.00  0.00    -0.013 C 
BRANCH   9  10
HETATM   10  C14 UNL     1       1.655  51.389 -13.825  1.00  0.00     0.037 C 
HETATM   11  C15 UNL     1       0.724  52.229 -12.940  1.00  0.00     0.017 C 
BRANCH  10  12
HETATM   12  C16 UNL     1       1.906  49.961 -13.254  1.00  0.00     0.165 C 
BRANCH  12  13
HETATM   13  O2  UNL     1       1.519  49.020 -14.274  1.00  0.00    -0.387 OA
HETATM   14  C17 UNL     1       0.679  47.982 -13.792  1.00  0.00     0.202 C 
ENDBRANCH  12  13
BRANCH  12  15
HETATM   15  C18 UNL     1       3.366  49.737 -12.884  1.00  0.00     0.110 A 
HETATM   16  C19 UNL     1       4.396  49.978 -13.948  1.00  0.00     0.051 C 
HETATM   17  O3  UNL     1       3.601  48.537 -12.117  1.00  0.00    -0.367 OA
HETATM   18  C20 UNL     1       3.753  49.767 -11.407  1.00  0.00     0.155 A 
HETATM   19  C21 UNL     1       5.133  50.043 -10.928  1.00  0.00     0.042 C 
ENDBRANCH  12  15
ENDBRANCH  10  12
ENDBRANCH   9  10
ENDBRANCH   6   7
ENDBRANCH   4   5
ENDBRANCH   2   4
BRANCH   1  20
HETATM   20  C4  UNL     1       0.691  52.607 -23.529  1.00  0.00     0.085 C 
BRANCH  20  21
HETATM   21  C3  UNL     1      -0.244  52.288 -24.678  1.00  0.00     0.023 A 
HETATM   22  N1  UNL     1      -1.569  52.356 -24.372  1.00  0.00    -0.337 N 
HETATM   23  C2  UNL     1      -2.483  52.139 -25.350  1.00  0.00     0.179 A 
ATOM     24  H1  UNL     1      -1.870  52.567 -23.421  1.00  0.00     0.168 HD
HETATM   25  C25 UNL     1      -2.135  51.858 -26.665  1.00  0.00     0.153 A 
HETATM   26  C24 UNL     1      -0.765  51.777 -26.940  1.00  0.00     0.111 A 
HETATM   27  C22 UNL     1       0.213  51.977 -25.963  1.00  0.00    -0.003 A 
HETATM   28  C23 UNL     1       1.671  51.923 -26.317  1.00  0.00     0.053 C 
BRANCH  23  29
HETATM   29  O1  UNL     1      -3.815  52.187 -24.999  1.00  0.00    -0.339 OA
HETATM   30  C1  UNL     1      -4.060  51.896 -23.625  1.00  0.00     0.211 C 
ENDBRANCH  23  29
BRANCH  25  31
HETATM   31  O5  UNL     1      -2.934  51.630 -27.755  1.00  0.00    -0.349 OA
HETATM   32  C26 UNL     1      -3.399  50.302 -27.962  1.00  0.00     0.210 C 
ENDBRANCH  25  31
BRANCH  26  33
HETATM   33  O4  UNL     1      -0.370  51.503 -28.230  1.00  0.00    -0.357 OA
HETATM   34  H36 UNL     1      -1.200  51.400 -28.737  1.00  0.00     0.217 HD
ENDBRANCH  26  33
ENDBRANCH  20  21
ENDBRANCH   1  20
TORSDOF 12
ENDMDL
MODEL 3
REMARK minimizedAffinity -7.35407066
REMARK CNNscore 0.250718683
REMARK CNNaffinity 5.48308802
REMARK  12 active torsions:
REMARK  status: ('A' for Active; 'I' for Inactive)
REMARK    1  A    between atoms: O1_2  and  C2_3 
REMARK    2  A    between atoms: C3_6  and  C4_7 
REMARK    3  A    between atoms: C4_7  and  C5_8 
REMARK    4  A    between atoms: C6_9  and  C8_11 
REMARK    5  A    between atoms: C8_11  and  C9_12 
REMARK    6  A    between atoms: C10_13  and  C11_14 
REMARK    7  A    between atoms: C13_16  and  C14_17 
REMARK    8  A    between atoms: C14_17  and  C16_19 
REMARK    9  A    between atoms: C16_19  and  O2_20 
REMARK   10  A    between atoms: C16_19  and  C18_22 
REMARK   11  A    between atoms: C24_29  and  O4_30 
REMARK   12  A    between atoms: C25_31  and  O5_32 
ROOT
HETATM    1  C5  UNL     1      -2.642  48.869 -24.234  1.00  0.00    -0.018 C 
HETATM    2  C6  UNL     1      -3.694  48.625 -25.045  1.00  0.00    -0.084 C 
HETATM    3  C7  UNL     1      -5.076  48.258 -24.571  1.00  0.00     0.043 C 
ENDROOT
BRANCH   2   4
HETATM    4  C8  UNL     1      -3.526  48.654 -26.552  1.00  0.00     0.060 C 
BRANCH   4   5
HETATM    5  C9  UNL     1      -4.741  48.120 -27.259  1.00  0.00    -0.022 C 
HETATM    6  C10 UNL     1      -4.928  48.199 -28.588  1.00  0.00     0.003 C 
BRANCH   6   7
HETATM    7  C11 UNL     1      -6.089  47.711 -29.333  1.00  0.00    -0.066 C 
HETATM    8  C12 UNL     1      -6.869  46.564 -28.742  1.00  0.00     0.048 C 
HETATM    9  C13 UNL     1      -6.384  48.296 -30.514  1.00  0.00    -0.013 C 
BRANCH   9  10
HETATM   10  C14 UNL     1      -7.550  47.994 -31.449  1.00  0.00     0.037 C 
HETATM   11  C15 UNL     1      -8.524  49.177 -31.380  1.00  0.00     0.017 C 
BRANCH  10  12
HETATM   12  C16 UNL     1      -7.037  47.716 -32.894  1.00  0.00     0.165 C 
BRANCH  12  13
HETATM   13  O2  UNL     1      -5.733  47.115 -32.776  1.00  0.00    -0.387 OA
HETATM   14  C17 UNL     1      -4.787  47.641 -33.695  1.00  0.00     0.202 C 
ENDBRANCH  12  13
BRANCH  12  15
HETATM   15  C18 UNL     1      -7.960  46.779 -33.663  1.00  0.00     0.110 A 
HETATM   16  C19 UNL     1      -8.371  47.190 -35.046  1.00  0.00     0.051 C 
HETATM   17  O3  UNL     1      -9.045  46.246 -32.874  1.00  0.00    -0.367 OA
HETATM   18  C20 UNL     1      -8.024  45.314 -33.236  1.00  0.00     0.155 A 
HETATM   19  C21 UNL     1      -8.471  44.218 -34.136  1.00  0.00     0.042 C 
ENDBRANCH  12  15
ENDBRANCH  10  12
ENDBRANCH   9  10
ENDBRANCH   6   7
ENDBRANCH   4   5
ENDBRANCH   2   4
BRANCH   1  20
HETATM   20  C4  UNL     1      -2.611  48.887 -22.728  1.00  0.00     0.085 C 
BRANCH  20  21
HETATM   21  C3  UNL     1      -1.580  49.846 -22.169  1.00  0.00     0.023 A 
HETATM   22  N1  UNL     1      -1.179  50.821 -23.030  1.00  0.00    -0.337 N 
HETATM   23  C2  UNL     1      -0.299  51.758 -22.601  1.00  0.00     0.179 A 
ATOM     24  H1  UNL     1      -1.537  50.846 -23.985  1.00  0.00     0.168 HD
HETATM   25  C25 UNL     1       0.215  51.783 -21.311  1.00  0.00     0.153 A 
HETATM   26  C24 UNL     1      -0.204  50.756 -20.457  1.00  0.00     0.111 A 
HETATM   27  C22 UNL     1      -1.097  49.758 -20.859  1.00  0.00    -0.003 A 
HETATM   28  C23 UNL     1      -1.550  48.703 -19.893  1.00  0.00     0.053 C 
BRANCH  23  29
HETATM   29  O1  UNL     1       0.107  52.713 -23.509  1.00  0.00    -0.339 OA
HETATM   30  C1  UNL     1       0.651  52.172 -24.710  1.00  0.00     0.211 C 
ENDBRANCH  23  29
BRANCH  25  31
HETATM   31  O5  UNL     1       1.092  52.662 -20.732  1.00  0.00    -0.349 OA
HETATM   32  C26 UNL     1       0.571  53.901 -20.268  1.00  0.00     0.210 C 
ENDBRANCH  25  31
BRANCH  26  33
HETATM   33  O4  UNL     1       0.276  50.738 -19.167  1.00  0.00    -0.357 OA
HETATM   34  H36 UNL     1       0.874  51.509 -19.105  1.00  0.00     0.217 HD
ENDBRANCH  26  33
ENDBRANCH  20  21
ENDBRANCH   1  20
TORSDOF 12
ENDMDL
MODEL 4
REMARK minimizedAffinity -7.37073469
REMARK CNNscore 0.236747265
REMARK CNNaffinity 5.82620001
REMARK  12 active torsions:
REMARK  status: ('A' for Active; 'I' for Inactive)
REMARK    1  A    between atoms: O1_2  and  C2_3 
REMARK    2  A    between atoms: C3_6  and  C4_7 
REMARK    3  A    between atoms: C4_7  and  C5_8 
REMARK    4  A    between atoms: C6_9  and  C8_11 
REMARK    5  A    between atoms: C8_11  and  C9_12 
REMARK    6  A    between atoms: C10_13  and  C11_14 
REMARK    7  A    between atoms: C13_16  and  C14_17 
REMARK    8  A    between atoms: C14_17  and  C16_19 
REMARK    9  A    between atoms: C16_19  and  O2_20 
REMARK   10  A    between atoms: C16_19  and  C18_22 
REMARK   11  A    between atoms: C24_29  and  O4_30 
REMARK   12  A    between atoms: C25_31  and  O5_32 
ROOT
HETATM    1  C5  UNL     1      -2.134  49.527 -25.410  1.00  0.00    -0.018 C 
HETATM    2  C6  UNL     1      -3.215  48.833 -25.826  1.00  0.00    -0.084 C 
HETATM    3  C7  UNL     1      -4.378  48.449 -24.951  1.00  0.00     0.043 C 
ENDROOT
BRANCH   2   4
HETATM    4  C8  UNL     1      -3.300  48.329 -27.254  1.00  0.00     0.060 C 
BRANCH   4   5
HETATM    5  C9  UNL     1      -4.725  48.127 -27.691  1.00  0.00    -0.022 C 
HETATM    6  C10 UNL     1      -5.139  48.232 -28.965  1.00  0.00     0.003 C 
BRANCH   6   7
HETATM    7  C11 UNL     1      -6.508  48.061 -29.451  1.00  0.00    -0.066 C 
HETATM    8  C12 UNL     1      -7.581  47.763 -28.434  1.00  0.00     0.048 C 
HETATM    9  C13 UNL     1      -6.733  48.154 -30.779  1.00  0.00    -0.013 C 
BRANCH   9  10
HETATM   10  C14 UNL     1      -8.062  48.050 -31.520  1.00  0.00     0.037 C 
HETATM   11  C15 UNL     1      -8.835  49.354 -31.282  1.00  0.00     0.017 C 
BRANCH  10  12
HETATM   12  C16 UNL     1      -7.827  47.754 -33.031  1.00  0.00     0.165 C 
BRANCH  12  13
HETATM   13  O2  UNL     1      -6.494  47.222 -33.159  1.00  0.00    -0.387 OA
HETATM   14  C17 UNL     1      -5.690  47.937 -34.086  1.00  0.00     0.202 C 
ENDBRANCH  12  13
BRANCH  12  15
HETATM   15  C18 UNL     1      -8.829  46.749 -33.584  1.00  0.00     0.110 A 
HETATM   16  C19 UNL     1     -10.017  46.413 -32.731  1.00  0.00     0.051 C 
HETATM   17  O3  UNL     1      -8.224  45.597 -34.207  1.00  0.00    -0.367 OA
HETATM   18  C20 UNL     1      -8.866  46.516 -35.092  1.00  0.00     0.155 A 
HETATM   19  C21 UNL     1     -10.049  45.969 -35.808  1.00  0.00     0.042 C 
ENDBRANCH  12  15
ENDBRANCH  10  12
ENDBRANCH   9  10
ENDBRANCH   6   7
ENDBRANCH   4   5
ENDBRANCH   2   4
BRANCH   1  20
HETATM   20  C4  UNL     1      -1.869  50.107 -24.044  1.00  0.00     0.085 C 
BRANCH  20  21
HETATM   21  C3  UNL     1      -0.928  51.294 -24.078  1.00  0.00     0.023 A 
HETATM   22  N1  UNL     1      -0.694  51.803 -25.318  1.00  0.00    -0.337 N 
HETATM   23  C2  UNL     1       0.093  52.900 -25.443  1.00  0.00     0.179 A 
ATOM     24  H1  UNL     1      -1.106  51.367 -26.142  1.00  0.00     0.168 HD
HETATM   25  C25 UNL     1       0.673  53.545 -24.358  1.00  0.00     0.153 A 
HETATM   26  C24 UNL     1       0.427  52.984 -23.099  1.00  0.00     0.111 A 
HETATM   27  C22 UNL     1      -0.364  51.846 -22.922  1.00  0.00    -0.003 A 
HETATM   28  C23 UNL     1      -0.634  51.307 -21.548  1.00  0.00     0.053 C 
BRANCH  23  29
HETATM   29  O1  UNL     1       0.332  53.372 -26.716  1.00  0.00    -0.339 OA
HETATM   30  C1  UNL     1      -0.804  53.310 -27.576  1.00  0.00     0.211 C 
ENDBRANCH  23  29
BRANCH  25  31
HETATM   31  O5  UNL     1       1.473  54.658 -24.323  1.00  0.00    -0.349 OA
HETATM   32  C26 UNL     1       0.863  55.914 -24.593  1.00  0.00     0.210 C 
ENDBRANCH  25  31
BRANCH  26  33
HETATM   33  O4  UNL     1       0.978  53.589 -21.992  1.00  0.00    -0.357 OA
HETATM   34  H36 UNL     1       1.484  54.350 -22.340  1.00  0.00     0.217 HD
ENDBRANCH  26  33
ENDBRANCH  20  21
ENDBRANCH   1  20
TORSDOF 12
ENDMDL
MODEL 5
REMARK minimizedAffinity -7.06521177
REMARK CNNscore 0.234166741
REMARK CNNaffinity 6.10309458
REMARK  12 active torsions:
REMARK  status: ('A' for Active; 'I' for Inactive)
REMARK    1  A    between atoms: O1_2  and  C2_3 
REMARK    2  A    between atoms: C3_6  and  C4_7 
REMARK    3  A    between atoms: C4_7  and  C5_8 
REMARK    4  A    between atoms: C6_9  and  C8_11 
REMARK    5  A    between atoms: C8_11  and  C9_12 
REMARK    6  A    between atoms: C10_13  and  C11_14 
REMARK    7  A    between atoms: C13_16  and  C14_17 
REMARK    8  A    between atoms: C14_17  and  C16_19 
REMARK    9  A    between atoms: C16_19  and  O2_20 
REMARK   10  A    between atoms: C16_19  and  C18_22 
REMARK   11  A    between atoms: C24_29  and  O4_30 
REMARK   12  A    between atoms: C25_31  and  O5_32 
ROOT
HETATM    1  C5  UNL     1      -0.586  51.945 -20.867  1.00  0.00    -0.018 C 
HETATM    2  C6  UNL     1      -0.176  51.494 -19.663  1.00  0.00    -0.084 C 
HETATM    3  C7  UNL     1      -0.541  50.155 -19.078  1.00  0.00     0.043 C 
ENDROOT
BRANCH   2   4
HETATM    4  C8  UNL     1       0.672  52.370 -18.762  1.00  0.00     0.060 C 
BRANCH   4   5
HETATM    5  C9  UNL     1       0.752  51.822 -17.364  1.00  0.00    -0.022 C 
HETATM    6  C10 UNL     1       1.294  52.486 -16.329  1.00  0.00     0.003 C 
BRANCH   6   7
HETATM    7  C11 UNL     1       1.413  52.005 -14.953  1.00  0.00    -0.066 C 
HETATM    8  C12 UNL     1       2.610  51.153 -14.610  1.00  0.00     0.048 C 
HETATM    9  C13 UNL     1       0.439  52.326 -14.075  1.00  0.00    -0.013 C 
BRANCH   9  10
HETATM   10  C14 UNL     1       0.354  51.979 -12.593  1.00  0.00     0.037 C 
HETATM   11  C15 UNL     1       0.180  53.288 -11.813  1.00  0.00     0.017 C 
BRANCH  10  12
HETATM   12  C16 UNL     1      -0.797  50.962 -12.332  1.00  0.00     0.165 C 
BRANCH  12  13
HETATM   13  O2  UNL     1      -0.213  49.813 -11.688  1.00  0.00    -0.387 OA
HETATM   14  C17 UNL     1      -0.659  48.578 -12.231  1.00  0.00     0.202 C 
ENDBRANCH  12  13
BRANCH  12  15
HETATM   15  C18 UNL     1      -1.888  51.543 -11.441  1.00  0.00     0.110 A 
HETATM   16  C19 UNL     1      -1.591  51.672  -9.976  1.00  0.00     0.051 C 
HETATM   17  O3  UNL     1      -3.208  51.029 -11.717  1.00  0.00    -0.367 OA
HETATM   18  C20 UNL     1      -2.981  52.388 -12.090  1.00  0.00     0.155 A 
HETATM   19  C21 UNL     1      -3.796  53.384 -11.345  1.00  0.00     0.042 C 
ENDBRANCH  12  15
ENDBRANCH  10  12
ENDBRANCH   9  10
ENDBRANCH   6   7
ENDBRANCH   4   5
ENDBRANCH   2   4
BRANCH   1  20
HETATM   20  C4  UNL     1      -1.425  51.229 -21.895  1.00  0.00     0.085 C 
BRANCH  20  21
HETATM   21  C3  UNL     1      -1.293  51.821 -23.283  1.00  0.00     0.023 A 
HETATM   22  N1  UNL     1      -0.013  51.992 -23.713  1.00  0.00    -0.337 N 
HETATM   23  C2  UNL     1       0.205  52.466 -24.964  1.00  0.00     0.179 A 
ATOM     24  H1  UNL     1       0.772  51.766 -23.102  1.00  0.00     0.168 HD
HETATM   25  C25 UNL     1      -0.821  52.781 -25.846  1.00  0.00     0.153 A 
HETATM   26  C24 UNL     1      -2.125  52.611 -25.365  1.00  0.00     0.111 A 
HETATM   27  C22 UNL     1      -2.399  52.141 -24.078  1.00  0.00    -0.003 A 
HETATM   28  C23 UNL     1      -3.815  51.934 -23.624  1.00  0.00     0.053 C 
BRANCH  23  29
HETATM   29  O1  UNL     1       1.514  52.654 -25.355  1.00  0.00    -0.339 OA
HETATM   30  C1  UNL     1       2.019  51.617 -26.193  1.00  0.00     0.211 C 
ENDBRANCH  23  29
BRANCH  25  31
HETATM   31  O5  UNL     1      -0.761  53.252 -27.131  1.00  0.00    -0.349 OA
HETATM   32  C26 UNL     1      -0.172  54.530 -27.335  1.00  0.00     0.210 C 
ENDBRANCH  25  31
BRANCH  26  33
HETATM   33  O4  UNL     1      -3.176  52.907 -26.202  1.00  0.00    -0.357 OA
HETATM   34  H36 UNL     1      -2.764  53.214 -27.034  1.00  0.00     0.217 HD
ENDBRANCH  26  33
ENDBRANCH  20  21
ENDBRANCH   1  20
TORSDOF 12
ENDMDL
MODEL 6
REMARK minimizedAffinity -7.61371565
REMARK CNNscore 0.222679764
REMARK CNNaffinity 6.04170275
REMARK  12 active torsions:
REMARK  status: ('A' for Active; 'I' for Inactive)
REMARK    1  A    between atoms: O1_2  and  C2_3 
REMARK    2  A    between atoms: C3_6  and  C4_7 
REMARK    3  A    between atoms: C4_7  and  C5_8 
REMARK    4  A    between atoms: C6_9  and  C8_11 
REMARK    5  A    between atoms: C8_11  and  C9_12 
REMARK    6  A    between atoms: C10_13  and  C11_14 
REMARK    7  A    between atoms: C13_16  and  C14_17 
REMARK    8  A    between atoms: C14_17  and  C16_19 
REMARK    9  A    between atoms: C16_19  and  O2_20 
REMARK   10  A    between atoms: C16_19  and  C18_22 
REMARK   11  A    between atoms: C24_29  and  O4_30 
REMARK   12  A    between atoms: C25_31  and  O5_32 
ROOT
HETATM    1  C5  UNL     1      -2.495  50.595 -24.375  1.00  0.00    -0.018 C 
HETATM    2  C6  UNL     1      -2.725  50.315 -25.675  1.00  0.00    -0.084 C 
HETATM    3  C7  UNL     1      -3.025  51.344 -26.734  1.00  0.00     0.043 C 
ENDROOT
BRANCH   2   4
HETATM    4  C8  UNL     1      -2.751  48.879 -26.160  1.00  0.00     0.060 C 
BRANCH   4   5
HETATM    5  C9  UNL     1      -4.112  48.482 -26.662  1.00  0.00    -0.022 C 
HETATM    6  C10 UNL     1      -4.414  48.326 -27.962  1.00  0.00     0.003 C 
BRANCH   6   7
HETATM    7  C11 UNL     1      -5.718  47.956 -28.513  1.00  0.00    -0.066 C 
HETATM    8  C12 UNL     1      -6.802  47.559 -27.543  1.00  0.00     0.048 C 
HETATM    9  C13 UNL     1      -5.873  47.966 -29.855  1.00  0.00    -0.013 C 
BRANCH   9  10
HETATM   10  C14 UNL     1      -7.130  47.658 -30.661  1.00  0.00     0.037 C 
HETATM   11  C15 UNL     1      -7.989  48.929 -30.694  1.00  0.00     0.017 C 
BRANCH  10  12
HETATM   12  C16 UNL     1      -6.758  47.142 -32.083  1.00  0.00     0.165 C 
BRANCH  12  13
HETATM   13  O2  UNL     1      -7.341  48.053 -33.034  1.00  0.00    -0.387 OA
HETATM   14  C17 UNL     1      -8.161  47.410 -33.998  1.00  0.00     0.202 C 
ENDBRANCH  12  13
BRANCH  12  15
HETATM   15  C18 UNL     1      -5.251  47.081 -32.298  1.00  0.00     0.110 A 
HETATM   16  C19 UNL     1      -4.541  45.827 -31.878  1.00  0.00     0.051 C 
HETATM   17  O3  UNL     1      -4.555  48.289 -31.925  1.00  0.00    -0.367 OA
HETATM   18  C20 UNL     1      -4.626  48.020 -33.326  1.00  0.00     0.155 A 
HETATM   19  C21 UNL     1      -3.315  47.764 -33.979  1.00  0.00     0.042 C 
ENDBRANCH  12  15
ENDBRANCH  10  12
ENDBRANCH   9  10
ENDBRANCH   6   7
ENDBRANCH   4   5
ENDBRANCH   2   4
BRANCH   1  20
HETATM   20  C4  UNL     1      -2.431  51.945 -23.709  1.00  0.00     0.085 C 
BRANCH  20  21
HETATM   21  C3  UNL     1      -1.660  51.925 -22.404  1.00  0.00     0.023 A 
HETATM   22  N1  UNL     1      -2.342  51.408 -21.345  1.00  0.00    -0.337 N 
HETATM   23  C2  UNL     1      -1.716  51.299 -20.148  1.00  0.00     0.179 A 
ATOM     24  H1  UNL     1      -3.310  51.106 -21.451  1.00  0.00     0.168 HD
HETATM   25  C25 UNL     1      -0.396  51.683 -19.944  1.00  0.00     0.153 A 
HETATM   26  C24 UNL     1       0.269  52.227 -21.049  1.00  0.00     0.111 A 
HETATM   27  C22 UNL     1      -0.340  52.374 -22.298  1.00  0.00    -0.003 A 
HETATM   28  C23 UNL     1       0.430  52.923 -23.464  1.00  0.00     0.053 C 
BRANCH  23  29
HETATM   29  O1  UNL     1      -2.445  50.798 -19.091  1.00  0.00    -0.339 OA
HETATM   30  C1  UNL     1      -2.532  49.376 -19.073  1.00  0.00     0.211 C 
ENDBRANCH  23  29
BRANCH  25  31
HETATM   31  O5  UNL     1       0.370  51.624 -18.809  1.00  0.00    -0.349 OA
HETATM   32  C26 UNL     1       0.367  52.761 -17.956  1.00  0.00     0.210 C 
ENDBRANCH  25  31
BRANCH  26  33
HETATM   33  O4  UNL     1       1.579  52.621 -20.898  1.00  0.00    -0.357 OA
HETATM   34  H36 UNL     1       1.797  52.434 -19.963  1.00  0.00     0.217 HD
ENDBRANCH  26  33
ENDBRANCH  20  21
ENDBRANCH   1  20
TORSDOF 12
ENDMDL
MODEL 7
REMARK minimizedAffinity -7.17168856
REMARK CNNscore 0.214892924
REMARK CNNaffinity 5.70299006
REMARK  12 active torsions:
REMARK  status: ('A' for Active; 'I' for Inactive)
REMARK    1  A    between atoms: O1_2  and  C2_3 
REMARK    2  A    between atoms: C3_6  and  C4_7 
REMARK    3  A    between atoms: C4_7  and  C5_8 
REMARK    4  A    between atoms: C6_9  and  C8_11 
REMARK    5  A    between atoms: C8_11  and  C9_12 
REMARK    6  A    between atoms: C10_13  and  C11_14 
REMARK    7  A    between atoms: C13_16  and  C14_17 
REMARK    8  A    between atoms: C14_17  and  C16_19 
REMARK    9  A    between atoms: C16_19  and  O2_20 
REMARK   10  A    between atoms: C16_19  and  C18_22 
REMARK   11  A    between atoms: C24_29  and  O4_30 
REMARK   12  A    between atoms: C25_31  and  O5_32 
ROOT
HETATM    1  C5  UNL     1      -0.185  52.095 -21.219  1.00  0.00    -0.018 C 
HETATM    2  C6  UNL     1      -0.446  52.295 -19.910  1.00  0.00    -0.084 C 
HETATM    3  C7  UNL     1      -1.633  51.730 -19.176  1.00  0.00     0.043 C 
ENDROOT
BRANCH   2   4
HETATM    4  C8  UNL     1       0.452  53.188 -19.075  1.00  0.00     0.060 C 
BRANCH   4   5
HETATM    5  C9  UNL     1       1.153  52.416 -17.991  1.00  0.00    -0.022 C 
HETATM    6  C10 UNL     1       2.039  52.960 -17.140  1.00  0.00     0.003 C 
BRANCH   6   7
HETATM    7  C11 UNL     1       2.763  52.263 -16.076  1.00  0.00    -0.066 C 
HETATM    8  C12 UNL     1       4.269  52.343 -16.083  1.00  0.00     0.048 C 
HETATM    9  C13 UNL     1       2.048  51.570 -15.162  1.00  0.00    -0.013 C 
BRANCH   9  10
HETATM   10  C14 UNL     1       2.562  50.800 -13.951  1.00  0.00     0.037 C 
HETATM   11  C15 UNL     1       2.813  51.810 -12.824  1.00  0.00     0.017 C 
BRANCH  10  12
HETATM   12  C16 UNL     1       1.558  49.679 -13.547  1.00  0.00     0.165 C 
BRANCH  12  13
HETATM   13  O2  UNL     1       1.846  48.531 -14.369  1.00  0.00    -0.387 OA
HETATM   14  C17 UNL     1       0.762  48.155 -15.206  1.00  0.00     0.202 C 
ENDBRANCH  12  13
BRANCH  12  15
HETATM   15  C18 UNL     1       1.685  49.295 -12.078  1.00  0.00     0.110 A 
HETATM   16  C19 UNL     1       0.949  50.134 -11.075  1.00  0.00     0.051 C 
HETATM   17  O3  UNL     1       3.030  48.960 -11.672  1.00  0.00    -0.367 OA
HETATM   18  C20 UNL     1       2.110  47.869 -11.736  1.00  0.00     0.155 A 
HETATM   19  C21 UNL     1       1.822  47.220 -10.429  1.00  0.00     0.042 C 
ENDBRANCH  12  15
ENDBRANCH  10  12
ENDBRANCH   9  10
ENDBRANCH   6   7
ENDBRANCH   4   5
ENDBRANCH   2   4
BRANCH   1  20
HETATM   20  C4  UNL     1      -0.951  51.251 -22.205  1.00  0.00     0.085 C 
BRANCH  20  21
HETATM   21  C3  UNL     1      -0.924  51.811 -23.612  1.00  0.00     0.023 A 
HETATM   22  N1  UNL     1       0.321  51.992 -24.131  1.00  0.00    -0.337 N 
HETATM   23  C2  UNL     1       0.446  52.439 -25.405  1.00  0.00     0.179 A 
ATOM     24  H1  UNL     1       1.149  51.794 -23.570  1.00  0.00     0.168 HD
HETATM   25  C25 UNL     1      -0.643  52.716 -26.222  1.00  0.00     0.153 A 
HETATM   26  C24 UNL     1      -1.908  52.537 -25.650  1.00  0.00     0.111 A 
HETATM   27  C22 UNL     1      -2.087  52.094 -24.337  1.00  0.00    -0.003 A 
HETATM   28  C23 UNL     1      -3.464  51.876 -23.783  1.00  0.00     0.053 C 
BRANCH  23  29
HETATM   29  O1  UNL     1       1.722  52.638 -25.889  1.00  0.00    -0.339 OA
HETATM   30  C1  UNL     1       2.300  51.479 -26.483  1.00  0.00     0.211 C 
ENDBRANCH  23  29
BRANCH  25  31
HETATM   31  O5  UNL     1      -0.678  53.157 -27.519  1.00  0.00    -0.349 OA
HETATM   32  C26 UNL     1      -0.189  54.467 -27.781  1.00  0.00     0.210 C 
ENDBRANCH  25  31
BRANCH  26  33
HETATM   33  O4  UNL     1      -3.019  52.797 -26.420  1.00  0.00    -0.357 OA
HETATM   34  H36 UNL     1      -2.669  53.090 -27.285  1.00  0.00     0.217 HD
ENDBRANCH  26  33
ENDBRANCH  20  21
ENDBRANCH   1  20
TORSDOF 12
ENDMDL
MODEL 8
REMARK minimizedAffinity -7.38035488
REMARK CNNscore 0.21418637
REMARK CNNaffinity 5.6055336
REMARK  12 active torsions:
REMARK  status: ('A' for Active; 'I' for Inactive)
REMARK    1  A    between atoms: O1_2  and  C2_3 
REMARK    2  A    between atoms: C3_6  and  C4_7 
REMARK    3  A    between atoms: C4_7  and  C5_8 
REMARK    4  A    between atoms: C6_9  and  C8_11 
REMARK    5  A    between atoms: C8_11  and  C9_12 
REMARK    6  A    between atoms: C10_13  and  C11_14 
REMARK    7  A    between atoms: C13_16  and  C14_17 
REMARK    8  A    between atoms: C14_17  and  C16_19 
REMARK    9  A    between atoms: C16_19  and  O2_20 
REMARK   10  A    between atoms: C16_19  and  C18_22 
REMARK   11  A    between atoms: C24_29  and  O4_30 
REMARK   12  A    between atoms: C25_31  and  O5_32 
ROOT
HETATM    1  C5  UNL     1      -0.163  51.982 -21.052  1.00  0.00    -0.018 C 
HETATM    2  C6  UNL     1      -0.403  52.027 -19.724  1.00  0.00    -0.084 C 
HETATM    3  C7  UNL     1      -1.405  51.165 -19.003  1.00  0.00     0.043 C 
ENDROOT
BRANCH   2   4
HETATM    4  C8  UNL     1       0.318  53.033 -18.847  1.00  0.00     0.060 C 
BRANCH   4   5
HETATM    5  C9  UNL     1       0.960  52.377 -17.656  1.00  0.00    -0.022 C 
HETATM    6  C10 UNL     1       2.133  52.765 -17.129  1.00  0.00     0.003 C 
BRANCH   6   7
HETATM    7  C11 UNL     1       2.814  52.163 -15.983  1.00  0.00    -0.066 C 
HETATM    8  C12 UNL     1       4.319  52.250 -15.937  1.00  0.00     0.048 C 
HETATM    9  C13 UNL     1       2.065  51.544 -15.045  1.00  0.00    -0.013 C 
BRANCH   9  10
HETATM   10  C14 UNL     1       2.531  50.879 -13.755  1.00  0.00     0.037 C 
HETATM   11  C15 UNL     1       2.393  51.904 -12.622  1.00  0.00     0.017 C 
BRANCH  10  12
HETATM   12  C16 UNL     1       1.726  49.571 -13.489  1.00  0.00     0.165 C 
BRANCH  12  13
HETATM   13  O2  UNL     1       1.158  49.157 -14.747  1.00  0.00    -0.387 OA
HETATM   14  C17 UNL     1      -0.248  48.971 -14.694  1.00  0.00     0.202 C 
ENDBRANCH  12  13
BRANCH  12  15
HETATM   15  C18 UNL     1       2.606  48.456 -12.938  1.00  0.00     0.110 A 
HETATM   16  C19 UNL     1       3.332  48.717 -11.652  1.00  0.00     0.051 C 
HETATM   17  O3  UNL     1       3.418  47.800 -13.935  1.00  0.00    -0.367 OA
HETATM   18  C20 UNL     1       2.341  47.026 -13.405  1.00  0.00     0.155 A 
HETATM   19  C21 UNL     1       2.758  45.824 -12.636  1.00  0.00     0.042 C 
ENDBRANCH  12  15
ENDBRANCH  10  12
ENDBRANCH   9  10
ENDBRANCH   6   7
ENDBRANCH   4   5
ENDBRANCH   2   4
BRANCH   1  20
HETATM   20  C4  UNL     1      -0.773  51.062 -22.078  1.00  0.00     0.085 C 
BRANCH  20  21
HETATM   21  C3  UNL     1      -0.899  51.701 -23.446  1.00  0.00     0.023 A 
HETATM   22  N1  UNL     1       0.284  51.938 -24.077  1.00  0.00    -0.337 N 
HETATM   23  C2  UNL     1       0.270  52.458 -25.329  1.00  0.00     0.179 A 
ATOM     24  H1  UNL     1       1.168  51.727 -23.615  1.00  0.00     0.168 HD
HETATM   25  C25 UNL     1      -0.901  52.757 -26.014  1.00  0.00     0.153 A 
HETATM   26  C24 UNL     1      -2.098  52.518 -25.329  1.00  0.00     0.111 A 
HETATM   27  C22 UNL     1      -2.134  51.998 -24.032  1.00  0.00    -0.003 A 
HETATM   28  C23 UNL     1      -3.444  51.718 -23.356  1.00  0.00     0.053 C 
BRANCH  23  29
HETATM   29  O1  UNL     1       1.487  52.713 -25.926  1.00  0.00    -0.339 OA
HETATM   30  C1  UNL     1       2.257  51.542 -26.185  1.00  0.00     0.211 C 
ENDBRANCH  23  29
BRANCH  25  31
HETATM   31  O5  UNL     1      -1.075  53.269 -27.273  1.00  0.00    -0.349 OA
HETATM   32  C26 UNL     1      -0.311  52.696 -28.327  1.00  0.00     0.210 C 
ENDBRANCH  25  31
BRANCH  26  33
HETATM   33  O4  UNL     1      -3.286  52.796 -25.966  1.00  0.00    -0.357 OA
HETATM   34  H36 UNL     1      -3.031  53.145 -26.844  1.00  0.00     0.217 HD
ENDBRANCH  26  33
ENDBRANCH  20  21
ENDBRANCH   1  20
TORSDOF 12
ENDMDL
MODEL 9
REMARK minimizedAffinity -7.46912622
REMARK CNNscore 0.210513815
REMARK CNNaffinity 5.726789
REMARK  12 active torsions:
REMARK  status: ('A' for Active; 'I' for Inactive)
REMARK    1  A    between atoms: O1_2  and  C2_3 
REMARK    2  A    between atoms: C3_6  and  C4_7 
REMARK    3  A    between atoms: C4_7  and  C5_8 
REMARK    4  A    between atoms: C6_9  and  C8_11 
REMARK    5  A    between atoms: C8_11  and  C9_12 
REMARK    6  A    between atoms: C10_13  and  C11_14 
REMARK    7  A    between atoms: C13_16  and  C14_17 
REMARK    8  A    between atoms: C14_17  and  C16_19 
REMARK    9  A    between atoms: C16_19  and  O2_20 
REMARK   10  A    between atoms: C16_19  and  C18_22 
REMARK   11  A    between atoms: C24_29  and  O4_30 
REMARK   12  A    between atoms: C25_31  and  O5_32 
ROOT
HETATM    1  C5  UNL     1      -0.326  52.013 -21.064  1.00  0.00    -0.018 C 
HETATM    2  C6  UNL     1      -0.172  51.744 -19.750  1.00  0.00    -0.084 C 
HETATM    3  C7  UNL     1      -0.448  50.409 -19.109  1.00  0.00     0.043 C 
ENDROOT
BRANCH   2   4
HETATM    4  C8  UNL     1       0.256  52.834 -18.787  1.00  0.00     0.060 C 
BRANCH   4   5
HETATM    5  C9  UNL     1       0.941  52.270 -17.573  1.00  0.00    -0.022 C 
HETATM    6  C10 UNL     1       2.134  52.694 -17.123  1.00  0.00     0.003 C 
BRANCH   6   7
HETATM    7  C11 UNL     1       2.857  52.179 -15.960  1.00  0.00    -0.066 C 
HETATM    8  C12 UNL     1       4.364  52.230 -15.992  1.00  0.00     0.048 C 
HETATM    9  C13 UNL     1       2.142  51.668 -14.935  1.00  0.00    -0.013 C 
BRANCH   9  10
HETATM   10  C14 UNL     1       2.656  51.109 -13.613  1.00  0.00     0.037 C 
HETATM   11  C15 UNL     1       2.842  52.286 -12.647  1.00  0.00     0.017 C 
BRANCH  10  12
HETATM   12  C16 UNL     1       1.686  50.022 -13.061  1.00  0.00     0.165 C 
BRANCH  12  13
HETATM   13  O2  UNL     1       1.185  50.498 -11.797  1.00  0.00    -0.387 OA
HETATM   14  C17 UNL     1       1.161  49.499 -10.789  1.00  0.00     0.202 C 
ENDBRANCH  12  13
BRANCH  12  15
HETATM   15  C18 UNL     1       0.518  49.760 -14.004  1.00  0.00     0.110 A 
HETATM   16  C19 UNL     1      -0.557  50.803 -14.082  1.00  0.00     0.051 C 
HETATM   17  O3  UNL     1       0.008  48.410 -13.946  1.00  0.00    -0.367 OA
HETATM   18  C20 UNL     1       0.713  48.758 -15.139  1.00  0.00     0.155 A 
HETATM   19  C21 UNL     1      -0.112  48.751 -16.375  1.00  0.00     0.042 C 
ENDBRANCH  12  15
ENDBRANCH  10  12
ENDBRANCH   9  10
ENDBRANCH   6   7
ENDBRANCH   4   5
ENDBRANCH   2   4
BRANCH   1  20
HETATM   20  C4  UNL     1      -0.739  51.072 -22.166  1.00  0.00     0.085 C 
BRANCH  20  21
HETATM   21  C3  UNL     1      -0.815  51.744 -23.521  1.00  0.00     0.023 A 
HETATM   22  N1  UNL     1       0.388  51.953 -24.124  1.00  0.00    -0.337 N 
HETATM   23  C2  UNL     1       0.419  52.501 -25.364  1.00  0.00     0.179 A 
ATOM     24  H1  UNL     1       1.254  51.701 -23.649  1.00  0.00     0.168 HD
HETATM   25  C25 UNL     1      -0.727  52.855 -26.065  1.00  0.00     0.153 A 
HETATM   26  C24 UNL     1      -1.945  52.644 -25.409  1.00  0.00     0.111 A 
HETATM   27  C22 UNL     1      -2.026  52.098 -24.125  1.00  0.00    -0.003 A 
HETATM   28  C23 UNL     1      -3.359  51.850 -23.481  1.00  0.00     0.053 C 
BRANCH  23  29
HETATM   29  O1  UNL     1       1.655  52.725 -25.931  1.00  0.00    -0.339 OA
HETATM   30  C1  UNL     1       2.356  51.532 -26.274  1.00  0.00     0.211 C 
ENDBRANCH  23  29
BRANCH  25  31
HETATM   31  O5  UNL     1      -0.858  53.400 -27.315  1.00  0.00    -0.349 OA
HETATM   32  C26 UNL     1       0.015  52.926 -28.333  1.00  0.00     0.210 C 
ENDBRANCH  25  31
BRANCH  26  33
HETATM   33  O4  UNL     1      -3.110  52.978 -26.063  1.00  0.00    -0.357 OA
HETATM   34  H36 UNL     1      -2.825  53.337 -26.927  1.00  0.00     0.217 HD
ENDBRANCH  26  33
ENDBRANCH  20  21
ENDBRANCH   1  20
TORSDOF 12
ENDMDL
