MODEL 1
REMARK minimizedAffinity -7.06575394
REMARK CNNscore 0.681587696
REMARK CNNaffinity 6.0321908
REMARK  8 active torsions:
REMARK  status: ('A' for Active; 'I' for Inactive)
REMARK    1  A    between atoms: C4_4  and  C5_5 
REMARK    2  A    between atoms: C5_5  and  C6_6 
REMARK    3  A    between atoms: C6_6  and  C7_7 
REMARK    4  A    between atoms: C7_7  and  C9_9 
REMARK    5  A    between atoms: C25_26  and  C27_28 
REMARK    6  A    between atoms: C27_28  and  O3_30 
REMARK    7  A    between atoms: C28_31  and  O4_32 
REMARK    8  A    between atoms: C30_34  and  O5_35 
ROOT
HETATM    1  C9  UNL     1     -17.703   3.391  14.349  1.00  0.00    -0.002 C 
HETATM    2  C10 UNL     1     -17.649   3.272  15.900  1.00  0.00     0.007 C 
HETATM    3  C11 UNL     1     -16.976   1.931  16.239  1.00  0.00     0.015 C 
HETATM    4  C12 UNL     1     -16.317   1.467  14.925  1.00  0.00    -0.005 C 
HETATM    5  C13 UNL     1     -14.950   2.214  14.819  1.00  0.00     0.021 C 
HETATM    6  C14 UNL     1     -15.972  -0.004  14.709  1.00  0.00    -0.000 C 
HETATM    7  C15 UNL     1     -15.958  -0.548  13.463  1.00  0.00    -0.058 C 
HETATM    8  C16 UNL     1     -16.373   0.292  12.244  1.00  0.00     0.036 C 
HETATM    9  C17 UNL     1     -16.824   1.747  12.492  1.00  0.00     0.015 C 
HETATM   10  C18 UNL     1     -17.419   1.927  13.892  1.00  0.00    -0.028 C 
HETATM   11  C19 UNL     1     -18.734   1.091  13.986  1.00  0.00     0.016 C 
HETATM   12  C20 UNL     1     -15.586  -2.044  13.176  1.00  0.00     0.011 C 
HETATM   13  C21 UNL     1     -16.939  -2.781  13.028  1.00  0.00     0.023 C 
HETATM   14  C22 UNL     1     -14.715  -2.580  14.360  1.00  0.00     0.029 C 
HETATM   15  C23 UNL     1     -15.363  -2.306  15.718  1.00  0.00     0.090 C 
HETATM   16  C24 UNL     1     -15.618  -0.833  15.906  1.00  0.00     0.157 C 
HETATM   17  O1  UNL     1     -15.577  -0.349  17.036  1.00  0.00    -0.293 OA
HETATM   18  C25 UNL     1     -14.154  -4.047  14.221  1.00  0.00     0.072 C 
HETATM   19  C26 UNL     1     -12.718  -4.048  14.823  1.00  0.00     0.030 C 
HETATM   20  C28 UNL     1     -14.119  -4.514  12.744  1.00  0.00     0.139 C 
HETATM   21  C29 UNL     1     -13.768  -3.372  11.796  1.00  0.00     0.065 C 
HETATM   22  C30 UNL     1     -14.717  -2.171  11.869  1.00  0.00     0.133 C 
ENDROOT
BRANCH   1  23
HETATM   23  C7  UNL     1     -18.999   4.118  13.881  1.00  0.00    -0.014 C 
HETATM   24  C8  UNL     1     -19.492   5.097  14.962  1.00  0.00     0.010 C 
BRANCH  23  25
HETATM   25  C6  UNL     1     -18.894   4.851  12.527  1.00  0.00     0.008 C 
BRANCH  25  26
HETATM   26  C5  UNL     1     -18.327   6.274  12.586  1.00  0.00     0.028 C 
BRANCH  26  27
HETATM   27  C4  UNL     1     -16.828   6.238  12.742  1.00  0.00    -0.025 C 
HETATM   28  C2  UNL     1     -15.930   7.187  12.410  1.00  0.00    -0.091 C 
HETATM   29  C1  UNL     1     -14.459   6.966  12.665  1.00  0.00     0.042 C 
HETATM   30  C3  UNL     1     -16.251   8.515  11.786  1.00  0.00     0.042 C 
ENDBRANCH  26  27
ENDBRANCH  25  26
ENDBRANCH  23  25
ENDBRANCH   1  23
BRANCH  22  31
HETATM   31  O5  UNL     1     -15.555  -2.195  10.708  1.00  0.00    -0.394 OA
HETATM   32  H46 UNL     1     -14.988  -2.028   9.934  1.00  0.00     0.210 HD
ENDBRANCH  22  31
BRANCH  18  33
HETATM   33  C27 UNL     1     -14.955  -5.079  15.023  1.00  0.00     0.151 C 
HETATM   34  O2  UNL     1     -16.040  -5.548  14.713  1.00  0.00    -0.649 OA
BRANCH  33  35
HETATM   35  O3  UNL     1     -14.374  -5.465  16.166  1.00  0.00    -0.776 OA
HETATM   36  H40 UNL     1     -14.993  -6.130  16.539  1.00  0.00     0.167 HD
ENDBRANCH  33  35
ENDBRANCH  18  33
BRANCH  20  37
HETATM   37  O4  UNL     1     -13.145  -5.542  12.531  1.00  0.00    -0.394 OA
HETATM   38  H42 UNL     1     -13.404  -6.323  13.053  1.00  0.00     0.210 HD
ENDBRANCH  20  37
TORSDOF 8
ENDMDL
MODEL 2
REMARK minimizedAffinity -9.17106438
REMARK CNNscore 0.595774293
REMARK CNNaffinity 7.1393013
REMARK  8 active torsions:
REMARK  status: ('A' for Active; 'I' for Inactive)
REMARK    1  A    between atoms: C4_4  and  C5_5 
REMARK    2  A    between atoms: C5_5  and  C6_6 
REMARK    3  A    between atoms: C6_6  and  C7_7 
REMARK    4  A    between atoms: C7_7  and  C9_9 
REMARK    5  A    between atoms: C25_26  and  C27_28 
REMARK    6  A    between atoms: C27_28  and  O3_30 
REMARK    7  A    between atoms: C28_31  and  O4_32 
REMARK    8  A    between atoms: C30_34  and  O5_35 
ROOT
HETATM    1  C9  UNL     1      -5.941   7.022  14.940  1.00  0.00    -0.002 C 
HETATM    2  C10 UNL     1      -5.715   8.458  15.496  1.00  0.00     0.007 C 
HETATM    3  C11 UNL     1      -4.300   8.897  15.087  1.00  0.00     0.015 C 
HETATM    4  C12 UNL     1      -3.865   7.895  14.000  1.00  0.00    -0.005 C 
HETATM    5  C13 UNL     1      -4.488   8.388  12.657  1.00  0.00     0.021 C 
HETATM    6  C14 UNL     1      -2.385   7.685  13.686  1.00  0.00    -0.000 C 
HETATM    7  C15 UNL     1      -1.925   6.493  13.223  1.00  0.00    -0.058 C 
HETATM    8  C16 UNL     1      -2.878   5.294  13.084  1.00  0.00     0.036 C 
HETATM    9  C17 UNL     1      -4.349   5.490  13.510  1.00  0.00     0.015 C 
HETATM   10  C18 UNL     1      -4.490   6.569  14.588  1.00  0.00    -0.028 C 
HETATM   11  C19 UNL     1      -3.773   6.076  15.884  1.00  0.00     0.016 C 
HETATM   12  C20 UNL     1      -0.424   6.226  12.859  1.00  0.00     0.011 C 
HETATM   13  C21 UNL     1       0.175   5.506  14.090  1.00  0.00     0.023 C 
HETATM   14  C22 UNL     1       0.267   7.596  12.546  1.00  0.00     0.029 C 
HETATM   15  C23 UNL     1       0.024   8.625  13.651  1.00  0.00     0.090 C 
HETATM   16  C24 UNL     1      -1.450   8.842  13.872  1.00  0.00     0.157 C 
HETATM   17  O1  UNL     1      -1.854   9.944  14.242  1.00  0.00    -0.293 OA
HETATM   18  C25 UNL     1       1.766   7.540  12.063  1.00  0.00     0.072 C 
HETATM   19  C26 UNL     1       1.938   8.640  10.974  1.00  0.00     0.030 C 
HETATM   20  C28 UNL     1       2.137   6.151  11.488  1.00  0.00     0.139 C 
HETATM   21  C29 UNL     1       0.972   5.521  10.730  1.00  0.00     0.065 C 
HETATM   22  C30 UNL     1      -0.304   5.343  11.562  1.00  0.00     0.133 C 
ENDROOT
BRANCH   1  23
HETATM   23  C7  UNL     1      -6.812   6.169  15.908  1.00  0.00    -0.014 C 
HETATM   24  C8  UNL     1      -7.456   7.060  16.986  1.00  0.00     0.010 C 
BRANCH  23  25
HETATM   25  C6  UNL     1      -7.899   5.305  15.234  1.00  0.00     0.008 C 
BRANCH  25  26
HETATM   26  C5  UNL     1      -7.403   4.350  14.142  1.00  0.00     0.028 C 
BRANCH  26  27
HETATM   27  C4  UNL     1      -7.883   4.803  12.787  1.00  0.00    -0.025 C 
HETATM   28  C2  UNL     1      -8.815   5.732  12.498  1.00  0.00    -0.091 C 
HETATM   29  C1  UNL     1      -9.145   6.059  11.061  1.00  0.00     0.042 C 
HETATM   30  C3  UNL     1      -9.601   6.526  13.502  1.00  0.00     0.042 C 
ENDBRANCH  26  27
ENDBRANCH  25  26
ENDBRANCH  23  25
ENDBRANCH   1  23
BRANCH  22  31
HETATM   31  O5  UNL     1      -0.433   3.953  11.885  1.00  0.00    -0.394 OA
HETATM   32  H46 UNL     1      -0.598   3.473  11.055  1.00  0.00     0.210 HD
ENDBRANCH  22  31
BRANCH  18  33
HETATM   33  C27 UNL     1       2.771   7.875  13.171  1.00  0.00     0.151 C 
HETATM   34  O2  UNL     1       3.436   8.897  13.256  1.00  0.00    -0.649 OA
BRANCH  33  35
HETATM   35  O3  UNL     1       2.905   6.924  14.105  1.00  0.00    -0.776 OA
HETATM   36  H40 UNL     1       3.555   7.298  14.738  1.00  0.00     0.167 HD
ENDBRANCH  33  35
ENDBRANCH  18  33
BRANCH  20  37
HETATM   37  O4  UNL     1       3.233   6.226  10.570  1.00  0.00    -0.394 OA
HETATM   38  H42 UNL     1       4.019   6.533  11.055  1.00  0.00     0.210 HD
ENDBRANCH  20  37
TORSDOF 8
ENDMDL
MODEL 3
REMARK minimizedAffinity -9.43909454
REMARK CNNscore 0.583277762
REMARK CNNaffinity 7.08642817
REMARK  8 active torsions:
REMARK  status: ('A' for Active; 'I' for Inactive)
REMARK    1  A    between atoms: C4_4  and  C5_5 
REMARK    2  A    between atoms: C5_5  and  C6_6 
REMARK    3  A    between atoms: C6_6  and  C7_7 
REMARK    4  A    between atoms: C7_7  and  C9_9 
REMARK    5  A    between atoms: C25_26  and  C27_28 
REMARK    6  A    between atoms: C27_28  and  O3_30 
REMARK    7  A    between atoms: C28_31  and  O4_32 
REMARK    8  A    between atoms: C30_34  and  O5_35 
ROOT
HETATM    1  C9  UNL     1      -5.595   6.744  14.506  1.00  0.00    -0.002 C 
HETATM    2  C10 UNL     1      -5.368   8.004  15.392  1.00  0.00     0.007 C 
HETATM    3  C11 UNL     1      -3.921   8.472  15.170  1.00  0.00     0.015 C 
HETATM    4  C12 UNL     1      -3.446   7.732  13.904  1.00  0.00    -0.005 C 
HETATM    5  C13 UNL     1      -3.977   8.544  12.682  1.00  0.00     0.021 C 
HETATM    6  C14 UNL     1      -1.956   7.546  13.628  1.00  0.00    -0.000 C 
HETATM    7  C15 UNL     1      -1.498   6.475  12.926  1.00  0.00    -0.058 C 
HETATM    8  C16 UNL     1      -2.469   5.377  12.463  1.00  0.00     0.036 C 
HETATM    9  C17 UNL     1      -3.957   5.524  12.845  1.00  0.00     0.015 C 
HETATM   10  C18 UNL     1      -4.137   6.330  14.135  1.00  0.00    -0.028 C 
HETATM   11  C19 UNL     1      -3.510   5.526  15.317  1.00  0.00     0.016 C 
HETATM   12  C20 UNL     1       0.015   6.245  12.589  1.00  0.00     0.011 C 
HETATM   13  C21 UNL     1       0.523   5.238  13.648  1.00  0.00     0.023 C 
HETATM   14  C22 UNL     1       0.756   7.623  12.638  1.00  0.00     0.029 C 
HETATM   15  C23 UNL     1       0.473   8.378  13.938  1.00  0.00     0.090 C 
HETATM   16  C24 UNL     1      -1.006   8.593  14.126  1.00  0.00     0.157 C 
HETATM   17  O1  UNL     1      -1.404   9.594  14.720  1.00  0.00    -0.293 OA
HETATM   18  C25 UNL     1       2.280   7.625  12.234  1.00  0.00     0.072 C 
HETATM   19  C26 UNL     1       2.542   8.939  11.441  1.00  0.00     0.030 C 
HETATM   20  C28 UNL     1       2.650   6.392  11.373  1.00  0.00     0.139 C 
HETATM   21  C29 UNL     1       1.518   5.997  10.430  1.00  0.00     0.065 C 
HETATM   22  C30 UNL     1       0.191   5.680  11.130  1.00  0.00     0.133 C 
ENDROOT
BRANCH   1  23
HETATM   23  C7  UNL     1      -6.542   5.723  15.203  1.00  0.00    -0.014 C 
HETATM   24  C8  UNL     1      -7.288   6.388  16.374  1.00  0.00     0.010 C 
BRANCH  23  25
HETATM   25  C6  UNL     1      -7.555   5.019  14.276  1.00  0.00     0.008 C 
BRANCH  25  26
HETATM   26  C5  UNL     1      -7.068   4.747  12.848  1.00  0.00     0.028 C 
BRANCH  26  27
HETATM   27  C4  UNL     1      -6.930   3.265  12.611  1.00  0.00    -0.025 C 
HETATM   28  C2  UNL     1      -6.230   2.634  11.648  1.00  0.00    -0.091 C 
HETATM   29  C1  UNL     1      -6.203   1.126  11.590  1.00  0.00     0.042 C 
HETATM   30  C3  UNL     1      -5.422   3.303  10.572  1.00  0.00     0.042 C 
ENDBRANCH  26  27
ENDBRANCH  25  26
ENDBRANCH  23  25
ENDBRANCH   1  23
BRANCH  22  31
HETATM   31  O5  UNL     1       0.010   4.259  11.115  1.00  0.00    -0.394 OA
HETATM   32  H46 UNL     1      -0.117   3.989  10.188  1.00  0.00     0.210 HD
ENDBRANCH  22  31
BRANCH  18  33
HETATM   33  C27 UNL     1       3.225   7.658  13.441  1.00  0.00     0.151 C 
HETATM   34  O2  UNL     1       2.923   7.967  14.584  1.00  0.00    -0.649 OA
BRANCH  33  35
HETATM   35  O3  UNL     1       4.490   7.317  13.163  1.00  0.00    -0.776 OA
HETATM   36  H40 UNL     1       4.949   7.368  14.030  1.00  0.00     0.167 HD
ENDBRANCH  33  35
ENDBRANCH  18  33
BRANCH  20  37
HETATM   37  O4  UNL     1       3.801   6.636  10.556  1.00  0.00    -0.394 OA
HETATM   38  H42 UNL     1       4.564   6.794  11.140  1.00  0.00     0.210 HD
ENDBRANCH  20  37
TORSDOF 8
ENDMDL
MODEL 4
REMARK minimizedAffinity -8.52669239
REMARK CNNscore 0.555961847
REMARK CNNaffinity 6.86937571
REMARK  8 active torsions:
REMARK  status: ('A' for Active; 'I' for Inactive)
REMARK    1  A    between atoms: C4_4  and  C5_5 
REMARK    2  A    between atoms: C5_5  and  C6_6 
REMARK    3  A    between atoms: C6_6  and  C7_7 
REMARK    4  A    between atoms: C7_7  and  C9_9 
REMARK    5  A    between atoms: C25_26  and  C27_28 
REMARK    6  A    between atoms: C27_28  and  O3_30 
REMARK    7  A    between atoms: C28_31  and  O4_32 
REMARK    8  A    between atoms: C30_34  and  O5_35 
ROOT
HETATM    1  C9  UNL     1      -4.494   9.112  14.656  1.00  0.00    -0.002 C 
HETATM    2  C10 UNL     1      -4.295   9.450  16.162  1.00  0.00     0.007 C 
HETATM    3  C11 UNL     1      -2.782   9.469  16.437  1.00  0.00     0.015 C 
HETATM    4  C12 UNL     1      -2.119   9.518  15.046  1.00  0.00    -0.005 C 
HETATM    5  C13 UNL     1      -2.133  11.011  14.593  1.00  0.00     0.021 C 
HETATM    6  C14 UNL     1      -0.671   9.070  14.861  1.00  0.00    -0.000 C 
HETATM    7  C15 UNL     1      -0.241   8.546  13.682  1.00  0.00    -0.058 C 
HETATM    8  C16 UNL     1      -1.231   8.315  12.528  1.00  0.00     0.036 C 
HETATM    9  C17 UNL     1      -2.713   8.671  12.768  1.00  0.00     0.015 C 
HETATM   10  C18 UNL     1      -3.092   8.562  14.249  1.00  0.00    -0.028 C 
HETATM   11  C19 UNL     1      -2.975   7.068  14.685  1.00  0.00     0.016 C 
HETATM   12  C20 UNL     1       1.237   8.094  13.424  1.00  0.00     0.011 C 
HETATM   13  C21 UNL     1       1.238   6.560  13.626  1.00  0.00     0.023 C 
HETATM   14  C22 UNL     1       2.175   8.851  14.423  1.00  0.00     0.029 C 
HETATM   15  C23 UNL     1       1.687   8.732  15.868  1.00  0.00     0.090 C 
HETATM   16  C24 UNL     1       0.279   9.250  16.006  1.00  0.00     0.157 C 
HETATM   17  O1  UNL     1      -0.078   9.767  17.064  1.00  0.00    -0.293 OA
HETATM   18  C25 UNL     1       3.724   8.607  14.266  1.00  0.00     0.072 C 
HETATM   19  C26 UNL     1       4.432   9.967  14.539  1.00  0.00     0.030 C 
HETATM   20  C28 UNL     1       4.086   8.086  12.853  1.00  0.00     0.139 C 
HETATM   21  C29 UNL     1       3.207   8.710  11.775  1.00  0.00     0.065 C 
HETATM   22  C30 UNL     1       1.703   8.483  11.971  1.00  0.00     0.133 C 
ENDROOT
BRANCH   1  23
HETATM   23  C7  UNL     1      -5.767   8.244  14.433  1.00  0.00    -0.014 C 
HETATM   24  C8  UNL     1      -5.645   7.425  13.135  1.00  0.00     0.010 C 
BRANCH  23  25
HETATM   25  C6  UNL     1      -6.145   7.310  15.601  1.00  0.00     0.008 C 
BRANCH  25  26
HETATM   26  C5  UNL     1      -7.519   6.639  15.497  1.00  0.00     0.028 C 
BRANCH  26  27
HETATM   27  C4  UNL     1      -7.376   5.207  15.050  1.00  0.00    -0.025 C 
HETATM   28  C2  UNL     1      -7.785   4.647  13.895  1.00  0.00    -0.091 C 
HETATM   29  C1  UNL     1      -7.529   3.183  13.625  1.00  0.00     0.042 C 
HETATM   30  C3  UNL     1      -8.500   5.359  12.781  1.00  0.00     0.042 C 
ENDBRANCH  26  27
ENDBRANCH  25  26
ENDBRANCH  23  25
ENDBRANCH   1  23
BRANCH  22  31
HETATM   31  O5  UNL     1       1.276   7.496  11.025  1.00  0.00    -0.394 OA
HETATM   32  H46 UNL     1       1.364   7.885  10.137  1.00  0.00     0.210 HD
ENDBRANCH  22  31
BRANCH  18  33
HETATM   33  C27 UNL     1       4.288   7.618  15.293  1.00  0.00     0.151 C 
HETATM   34  O2  UNL     1       5.416   7.633  15.764  1.00  0.00    -0.649 OA
BRANCH  33  35
HETATM   35  O3  UNL     1       3.430   6.661  15.670  1.00  0.00    -0.776 OA
HETATM   36  H40 UNL     1       3.930   6.136  16.332  1.00  0.00     0.167 HD
ENDBRANCH  33  35
ENDBRANCH  18  33
BRANCH  20  37
HETATM   37  O4  UNL     1       5.442   8.384  12.504  1.00  0.00    -0.394 OA
HETATM   38  H42 UNL     1       6.030   7.913  13.122  1.00  0.00     0.210 HD
ENDBRANCH  20  37
TORSDOF 8
ENDMDL
MODEL 5
REMARK minimizedAffinity -8.95648861
REMARK CNNscore 0.51228106
REMARK CNNaffinity 6.62507248
REMARK  8 active torsions:
REMARK  status: ('A' for Active; 'I' for Inactive)
REMARK    1  A    between atoms: C4_4  and  C5_5 
REMARK    2  A    between atoms: C5_5  and  C6_6 
REMARK    3  A    between atoms: C6_6  and  C7_7 
REMARK    4  A    between atoms: C7_7  and  C9_9 
REMARK    5  A    between atoms: C25_26  and  C27_28 
REMARK    6  A    between atoms: C27_28  and  O3_30 
REMARK    7  A    between atoms: C28_31  and  O4_32 
REMARK    8  A    between atoms: C30_34  and  O5_35 
ROOT
HETATM    1  C9  UNL     1      -5.369   6.509  15.079  1.00  0.00    -0.002 C 
HETATM    2  C10 UNL     1      -5.636   5.215  14.255  1.00  0.00     0.007 C 
HETATM    3  C11 UNL     1      -4.421   4.988  13.341  1.00  0.00     0.015 C 
HETATM    4  C12 UNL     1      -3.318   5.910  13.899  1.00  0.00    -0.005 C 
HETATM    5  C13 UNL     1      -2.658   5.152  15.093  1.00  0.00     0.021 C 
HETATM    6  C14 UNL     1      -2.147   6.339  13.018  1.00  0.00    -0.000 C 
HETATM    7  C15 UNL     1      -1.518   7.528  13.212  1.00  0.00    -0.058 C 
HETATM    8  C16 UNL     1      -2.029   8.512  14.277  1.00  0.00     0.036 C 
HETATM    9  C17 UNL     1      -3.281   8.112  15.086  1.00  0.00     0.015 C 
HETATM   10  C18 UNL     1      -4.190   7.166  14.295  1.00  0.00    -0.028 C 
HETATM   11  C19 UNL     1      -4.755   7.934  13.059  1.00  0.00     0.016 C 
HETATM   12  C20 UNL     1      -0.295   8.010  12.358  1.00  0.00     0.011 C 
HETATM   13  C21 UNL     1      -0.887   8.971  11.300  1.00  0.00     0.023 C 
HETATM   14  C22 UNL     1       0.405   6.757  11.733  1.00  0.00     0.029 C 
HETATM   15  C23 UNL     1      -0.590   5.845  11.012  1.00  0.00     0.090 C 
HETATM   16  C24 UNL     1      -1.685   5.398  11.946  1.00  0.00     0.157 C 
HETATM   17  O1  UNL     1      -2.209   4.296  11.785  1.00  0.00    -0.293 OA
HETATM   18  C25 UNL     1       1.723   7.018  10.907  1.00  0.00     0.072 C 
HETATM   19  C26 UNL     1       2.695   5.840  11.212  1.00  0.00     0.030 C 
HETATM   20  C28 UNL     1       2.380   8.369  11.281  1.00  0.00     0.139 C 
HETATM   21  C29 UNL     1       2.226   8.684  12.766  1.00  0.00     0.065 C 
HETATM   22  C30 UNL     1       0.775   8.734  13.257  1.00  0.00     0.133 C 
ENDROOT
BRANCH   1  23
HETATM   23  C7  UNL     1      -6.683   7.307  15.325  1.00  0.00    -0.014 C 
HETATM   24  C8  UNL     1      -6.444   8.816  15.138  1.00  0.00     0.010 C 
BRANCH  23  25
HETATM   25  C6  UNL     1      -7.894   6.866  14.477  1.00  0.00     0.008 C 
BRANCH  25  26
HETATM   26  C5  UNL     1      -9.260   6.978  15.163  1.00  0.00     0.028 C 
BRANCH  26  27
HETATM   27  C4  UNL     1     -10.358   7.103  14.138  1.00  0.00    -0.025 C 
HETATM   28  C2  UNL     1     -11.166   8.155  13.902  1.00  0.00    -0.091 C 
HETATM   29  C1  UNL     1     -12.203   8.089  12.807  1.00  0.00     0.042 C 
HETATM   30  C3  UNL     1     -11.142   9.461  14.645  1.00  0.00     0.042 C 
ENDBRANCH  26  27
ENDBRANCH  25  26
ENDBRANCH  23  25
ENDBRANCH   1  23
BRANCH  22  31
HETATM   31  O5  UNL     1       0.420  10.107  13.455  1.00  0.00    -0.394 OA
HETATM   32  H46 UNL     1       0.954  10.444  14.196  1.00  0.00     0.210 HD
ENDBRANCH  22  31
BRANCH  18  33
HETATM   33  C27 UNL     1       1.499   7.006   9.391  1.00  0.00     0.151 C 
HETATM   34  O2  UNL     1       0.833   7.811   8.755  1.00  0.00    -0.649 OA
BRANCH  33  35
HETATM   35  O3  UNL     1       2.101   5.997   8.749  1.00  0.00    -0.776 OA
HETATM   36  H40 UNL     1       1.880   6.146   7.804  1.00  0.00     0.167 HD
ENDBRANCH  33  35
ENDBRANCH  18  33
BRANCH  20  37
HETATM   37  O4  UNL     1       3.784   8.377  11.001  1.00  0.00    -0.394 OA
HETATM   38  H42 UNL     1       3.906   8.277  10.040  1.00  0.00     0.210 HD
ENDBRANCH  20  37
TORSDOF 8
ENDMDL
MODEL 6
REMARK minimizedAffinity -9.06116199
REMARK CNNscore 0.482443094
REMARK CNNaffinity 6.93103838
REMARK  8 active torsions:
REMARK  status: ('A' for Active; 'I' for Inactive)
REMARK    1  A    between atoms: C4_4  and  C5_5 
REMARK    2  A    between atoms: C5_5  and  C6_6 
REMARK    3  A    between atoms: C6_6  and  C7_7 
REMARK    4  A    between atoms: C7_7  and  C9_9 
REMARK    5  A    between atoms: C25_26  and  C27_28 
REMARK    6  A    between atoms: C27_28  and  O3_30 
REMARK    7  A    between atoms: C28_31  and  O4_32 
REMARK    8  A    between atoms: C30_34  and  O5_35 
ROOT
HETATM    1  C9  UNL     1      -3.935   6.664  14.792  1.00  0.00    -0.002 C 
HETATM    2  C10 UNL     1      -4.347   5.384  14.009  1.00  0.00     0.007 C 
HETATM    3  C11 UNL     1      -3.224   5.072  13.006  1.00  0.00     0.015 C 
HETATM    4  C12 UNL     1      -2.026   5.927  13.463  1.00  0.00    -0.005 C 
HETATM    5  C13 UNL     1      -1.322   5.139  14.612  1.00  0.00     0.021 C 
HETATM    6  C14 UNL     1      -0.903   6.273  12.488  1.00  0.00    -0.000 C 
HETATM    7  C15 UNL     1      -0.188   7.422  12.616  1.00  0.00    -0.058 C 
HETATM    8  C16 UNL     1      -0.550   8.445  13.705  1.00  0.00     0.036 C 
HETATM    9  C17 UNL     1      -1.757   8.132  14.614  1.00  0.00     0.015 C 
HETATM   10  C18 UNL     1      -2.784   7.239  13.910  1.00  0.00    -0.028 C 
HETATM   11  C19 UNL     1      -3.395   8.031  12.711  1.00  0.00     0.016 C 
HETATM   12  C20 UNL     1       0.992   7.818  11.663  1.00  0.00     0.011 C 
HETATM   13  C21 UNL     1       0.380   8.806  10.642  1.00  0.00     0.023 C 
HETATM   14  C22 UNL     1       1.561   6.518  11.002  1.00  0.00     0.029 C 
HETATM   15  C23 UNL     1       0.458   5.665  10.374  1.00  0.00     0.090 C 
HETATM   16  C24 UNL     1      -0.587   5.296  11.396  1.00  0.00     0.157 C 
HETATM   17  O1  UNL     1      -1.189   4.229  11.292  1.00  0.00    -0.293 OA
HETATM   18  C25 UNL     1       2.823   6.688  10.073  1.00  0.00     0.072 C 
HETATM   19  C26 UNL     1       3.741   5.454  10.317  1.00  0.00     0.030 C 
HETATM   20  C28 UNL     1       3.591   7.999  10.376  1.00  0.00     0.139 C 
HETATM   21  C29 UNL     1       3.575   8.335  11.864  1.00  0.00     0.065 C 
HETATM   22  C30 UNL     1       2.172   8.481  12.466  1.00  0.00     0.133 C 
ENDROOT
BRANCH   1  23
HETATM   23  C7  UNL     1      -5.174   7.546  15.129  1.00  0.00    -0.014 C 
HETATM   24  C8  UNL     1      -5.789   8.131  13.844  1.00  0.00     0.010 C 
BRANCH  23  25
HETATM   25  C6  UNL     1      -6.274   6.853  15.960  1.00  0.00     0.008 C 
BRANCH  25  26
HETATM   26  C5  UNL     1      -7.601   6.610  15.232  1.00  0.00     0.028 C 
BRANCH  26  27
HETATM   27  C4  UNL     1      -7.676   5.191  14.730  1.00  0.00    -0.025 C 
HETATM   28  C2  UNL     1      -7.885   4.760  13.471  1.00  0.00    -0.091 C 
HETATM   29  C1  UNL     1      -7.909   3.281  13.166  1.00  0.00     0.042 C 
HETATM   30  C3  UNL     1      -8.103   5.636  12.270  1.00  0.00     0.042 C 
ENDBRANCH  26  27
ENDBRANCH  25  26
ENDBRANCH  23  25
ENDBRANCH   1  23
BRANCH  22  31
HETATM   31  O5  UNL     1       1.920   9.876  12.672  1.00  0.00    -0.394 OA
HETATM   32  H46 UNL     1       2.531  10.185  13.365  1.00  0.00     0.210 HD
ENDBRANCH  22  31
BRANCH  18  33
HETATM   33  C27 UNL     1       2.480   6.678   8.579  1.00  0.00     0.151 C 
HETATM   34  O2  UNL     1       1.969   7.594   7.950  1.00  0.00    -0.649 OA
BRANCH  33  35
HETATM   35  O3  UNL     1       2.779   5.534   7.949  1.00  0.00    -0.776 OA
HETATM   36  H40 UNL     1       2.521   5.699   7.016  1.00  0.00     0.167 HD
ENDBRANCH  33  35
ENDBRANCH  18  33
BRANCH  20  37
HETATM   37  O4  UNL     1       4.967   7.916   9.987  1.00  0.00    -0.394 OA
HETATM   38  H42 UNL     1       5.006   7.800   9.021  1.00  0.00     0.210 HD
ENDBRANCH  20  37
TORSDOF 8
ENDMDL
MODEL 7
REMARK minimizedAffinity -7.44041109
REMARK CNNscore 0.46584934
REMARK CNNaffinity 6.4929471
REMARK  8 active torsions:
REMARK  status: ('A' for Active; 'I' for Inactive)
REMARK    1  A    between atoms: C4_4  and  C5_5 
REMARK    2  A    between atoms: C5_5  and  C6_6 
REMARK    3  A    between atoms: C6_6  and  C7_7 
REMARK    4  A    between atoms: C7_7  and  C9_9 
REMARK    5  A    between atoms: C25_26  and  C27_28 
REMARK    6  A    between atoms: C27_28  and  O3_30 
REMARK    7  A    between atoms: C28_31  and  O4_32 
REMARK    8  A    between atoms: C30_34  and  O5_35 
ROOT
HETATM    1  C9  UNL     1      -4.043   8.775  14.359  1.00  0.00    -0.002 C 
HETATM    2  C10 UNL     1      -3.908   9.000  15.894  1.00  0.00     0.007 C 
HETATM    3  C11 UNL     1      -2.408   9.073  16.222  1.00  0.00     0.015 C 
HETATM    4  C12 UNL     1      -1.706   9.268  14.863  1.00  0.00    -0.005 C 
HETATM    5  C13 UNL     1      -1.785  10.791  14.530  1.00  0.00     0.021 C 
HETATM    6  C14 UNL     1      -0.232   8.911  14.694  1.00  0.00    -0.000 C 
HETATM    7  C15 UNL     1       0.262   8.507  13.493  1.00  0.00    -0.058 C 
HETATM    8  C16 UNL     1      -0.678   8.320  12.291  1.00  0.00     0.036 C 
HETATM    9  C17 UNL     1      -2.184   8.579  12.506  1.00  0.00     0.015 C 
HETATM   10  C18 UNL     1      -2.601   8.332  13.959  1.00  0.00    -0.028 C 
HETATM   11  C19 UNL     1      -2.419   6.815  14.280  1.00  0.00     0.016 C 
HETATM   12  C20 UNL     1       1.770   8.153  13.252  1.00  0.00     0.011 C 
HETATM   13  C21 UNL     1       1.846   6.610  13.331  1.00  0.00     0.023 C 
HETATM   14  C22 UNL     1       2.634   8.873  14.340  1.00  0.00     0.029 C 
HETATM   15  C23 UNL     1       2.109   8.612  15.753  1.00  0.00     0.090 C 
HETATM   16  C24 UNL     1       0.672   9.045  15.882  1.00  0.00     0.157 C 
HETATM   17  O1  UNL     1       0.256   9.456  16.965  1.00  0.00    -0.293 OA
HETATM   18  C25 UNL     1       4.199   8.721  14.219  1.00  0.00     0.072 C 
HETATM   19  C26 UNL     1       4.824  10.089  14.623  1.00  0.00     0.030 C 
HETATM   20  C28 UNL     1       4.631   8.335  12.782  1.00  0.00     0.139 C 
HETATM   21  C29 UNL     1       3.753   9.000  11.726  1.00  0.00     0.065 C 
HETATM   22  C30 UNL     1       2.259   8.680  11.852  1.00  0.00     0.133 C 
ENDROOT
BRANCH   1  23
HETATM   23  C7  UNL     1      -5.261   7.865  14.024  1.00  0.00    -0.014 C 
HETATM   24  C8  UNL     1      -4.813   6.643  13.201  1.00  0.00     0.010 C 
BRANCH  23  25
HETATM   25  C6  UNL     1      -6.091   7.396  15.237  1.00  0.00     0.008 C 
BRANCH  25  26
HETATM   26  C5  UNL     1      -7.612   7.400  15.041  1.00  0.00     0.028 C 
BRANCH  26  27
HETATM   27  C4  UNL     1      -8.168   8.784  15.257  1.00  0.00    -0.025 C 
HETATM   28  C2  UNL     1      -9.455   9.183  15.224  1.00  0.00    -0.091 C 
HETATM   29  C1  UNL     1      -9.813  10.626  15.486  1.00  0.00     0.042 C 
HETATM   30  C3  UNL     1     -10.638   8.299  14.948  1.00  0.00     0.042 C 
ENDBRANCH  26  27
ENDBRANCH  25  26
ENDBRANCH  23  25
ENDBRANCH   1  23
BRANCH  22  31
HETATM   31  O5  UNL     1       1.914   7.753  10.816  1.00  0.00    -0.394 OA
HETATM   32  H46 UNL     1       2.008   8.217   9.965  1.00  0.00     0.210 HD
ENDBRANCH  22  31
BRANCH  18  33
HETATM   33  C27 UNL     1       4.783   7.682  15.182  1.00  0.00     0.151 C 
HETATM   34  O2  UNL     1       4.148   6.984  15.960  1.00  0.00    -0.649 OA
BRANCH  33  35
HETATM   35  O3  UNL     1       6.117   7.571  15.137  1.00  0.00    -0.776 OA
HETATM   36  H40 UNL     1       6.321   6.862  15.785  1.00  0.00     0.167 HD
ENDBRANCH  33  35
ENDBRANCH  18  33
BRANCH  20  37
HETATM   37  O4  UNL     1       5.980   8.729  12.505  1.00  0.00    -0.394 OA
HETATM   38  H42 UNL     1       6.572   8.240  13.104  1.00  0.00     0.210 HD
ENDBRANCH  20  37
TORSDOF 8
ENDMDL
MODEL 8
REMARK minimizedAffinity -6.45475817
REMARK CNNscore 0.410524666
REMARK CNNaffinity 5.3693161
REMARK  8 active torsions:
REMARK  status: ('A' for Active; 'I' for Inactive)
REMARK    1  A    between atoms: C4_4  and  C5_5 
REMARK    2  A    between atoms: C5_5  and  C6_6 
REMARK    3  A    between atoms: C6_6  and  C7_7 
REMARK    4  A    between atoms: C7_7  and  C9_9 
REMARK    5  A    between atoms: C25_26  and  C27_28 
REMARK    6  A    between atoms: C27_28  and  O3_30 
REMARK    7  A    between atoms: C28_31  and  O4_32 
REMARK    8  A    between atoms: C30_34  and  O5_35 
ROOT
HETATM    1  C9  UNL     1     -18.114   5.123  14.246  1.00  0.00    -0.002 C 
HETATM    2  C10 UNL     1     -18.072   4.932  12.702  1.00  0.00     0.007 C 
HETATM    3  C11 UNL     1     -17.691   3.469  12.425  1.00  0.00     0.015 C 
HETATM    4  C12 UNL     1     -17.883   2.740  13.770  1.00  0.00    -0.005 C 
HETATM    5  C13 UNL     1     -19.402   2.403  13.887  1.00  0.00     0.021 C 
HETATM    6  C14 UNL     1     -17.170   1.418  14.044  1.00  0.00    -0.000 C 
HETATM    7  C15 UNL     1     -16.824   1.052  15.307  1.00  0.00    -0.058 C 
HETATM    8  C16 UNL     1     -17.070   2.007  16.487  1.00  0.00     0.036 C 
HETATM    9  C17 UNL     1     -17.692   3.386  16.179  1.00  0.00     0.015 C 
HETATM   10  C18 UNL     1     -17.361   3.856  14.759  1.00  0.00    -0.028 C 
HETATM   11  C19 UNL     1     -15.821   4.092  14.658  1.00  0.00     0.016 C 
HETATM   12  C20 UNL     1     -16.116  -0.303  15.653  1.00  0.00     0.011 C 
HETATM   13  C21 UNL     1     -14.615   0.043  15.789  1.00  0.00     0.023 C 
HETATM   14  C22 UNL     1     -16.414  -1.330  14.510  1.00  0.00     0.029 C 
HETATM   15  C23 UNL     1     -16.105  -0.754  13.127  1.00  0.00     0.090 C 
HETATM   16  C24 UNL     1     -16.886   0.512  12.884  1.00  0.00     0.157 C 
HETATM   17  O1  UNL     1     -17.235   0.801  11.740  1.00  0.00    -0.293 OA
HETATM   18  C25 UNL     1     -15.867  -2.795  14.711  1.00  0.00     0.072 C 
HETATM   19  C26 UNL     1     -16.944  -3.768  14.147  1.00  0.00     0.030 C 
HETATM   20  C28 UNL     1     -15.588  -3.107  16.203  1.00  0.00     0.139 C 
HETATM   21  C29 UNL     1     -16.608  -2.442  17.123  1.00  0.00     0.065 C 
HETATM   22  C30 UNL     1     -16.688  -0.917  16.985  1.00  0.00     0.133 C 
ENDROOT
BRANCH   1  23
HETATM   23  C7  UNL     1     -17.621   6.542  14.657  1.00  0.00    -0.014 C 
HETATM   24  C8  UNL     1     -16.681   6.459  15.872  1.00  0.00     0.010 C 
BRANCH  23  25
HETATM   25  C6  UNL     1     -16.947   7.359  13.535  1.00  0.00     0.008 C 
BRANCH  25  26
HETATM   26  C5  UNL     1     -15.591   6.829  13.053  1.00  0.00     0.028 C 
BRANCH  26  27
HETATM   27  C4  UNL     1     -14.678   7.971  12.687  1.00  0.00    -0.025 C 
HETATM   28  C2  UNL     1     -13.770   8.596  13.462  1.00  0.00    -0.091 C 
HETATM   29  C1  UNL     1     -12.931   9.719  12.898  1.00  0.00     0.042 C 
HETATM   30  C3  UNL     1     -13.479   8.278  14.901  1.00  0.00     0.042 C 
ENDBRANCH  26  27
ENDBRANCH  25  26
ENDBRANCH  23  25
ENDBRANCH   1  23
BRANCH  22  31
HETATM   31  O5  UNL     1     -16.045  -0.334  18.124  1.00  0.00    -0.394 OA
HETATM   32  H46 UNL     1     -16.583  -0.550  18.906  1.00  0.00     0.210 HD
ENDBRANCH  22  31
BRANCH  18  33
HETATM   33  C27 UNL     1     -14.582  -3.074  13.923  1.00  0.00     0.151 C 
HETATM   34  O2  UNL     1     -14.514  -3.379  12.741  1.00  0.00    -0.649 OA
BRANCH  33  35
HETATM   35  O3  UNL     1     -13.457  -2.970  14.642  1.00  0.00    -0.776 OA
HETATM   36  H40 UNL     1     -12.741  -3.155  13.996  1.00  0.00     0.167 HD
ENDBRANCH  33  35
ENDBRANCH  18  33
BRANCH  20  37
HETATM   37  O4  UNL     1     -15.641  -4.511  16.475  1.00  0.00    -0.394 OA
HETATM   38  H42 UNL     1     -14.930  -4.948  15.972  1.00  0.00     0.210 HD
ENDBRANCH  20  37
TORSDOF 8
ENDMDL
MODEL 9
REMARK minimizedAffinity -8.52680397
REMARK CNNscore 0.402278215
REMARK CNNaffinity 6.72888374
REMARK  8 active torsions:
REMARK  status: ('A' for Active; 'I' for Inactive)
REMARK    1  A    between atoms: C4_4  and  C5_5 
REMARK    2  A    between atoms: C5_5  and  C6_6 
REMARK    3  A    between atoms: C6_6  and  C7_7 
REMARK    4  A    between atoms: C7_7  and  C9_9 
REMARK    5  A    between atoms: C25_26  and  C27_28 
REMARK    6  A    between atoms: C27_28  and  O3_30 
REMARK    7  A    between atoms: C28_31  and  O4_32 
REMARK    8  A    between atoms: C30_34  and  O5_35 
ROOT
HETATM    1  C9  UNL     1      -5.497   6.672  13.598  1.00  0.00    -0.002 C 
HETATM    2  C10 UNL     1      -6.083   7.980  14.205  1.00  0.00     0.007 C 
HETATM    3  C11 UNL     1      -4.899   8.866  14.627  1.00  0.00     0.015 C 
HETATM    4  C12 UNL     1      -3.668   8.252  13.933  1.00  0.00    -0.005 C 
HETATM    5  C13 UNL     1      -3.655   8.799  12.471  1.00  0.00     0.021 C 
HETATM    6  C14 UNL     1      -2.262   8.528  14.462  1.00  0.00    -0.000 C 
HETATM    7  C15 UNL     1      -1.260   7.622  14.305  1.00  0.00    -0.058 C 
HETATM    8  C16 UNL     1      -1.544   6.255  13.661  1.00  0.00     0.036 C 
HETATM    9  C17 UNL     1      -2.993   5.948  13.231  1.00  0.00     0.015 C 
HETATM   10  C18 UNL     1      -4.013   6.717  14.076  1.00  0.00    -0.028 C 
HETATM   11  C19 UNL     1      -3.928   6.205  15.549  1.00  0.00     0.016 C 
HETATM   12  C20 UNL     1       0.207   7.860  14.803  1.00  0.00     0.011 C 
HETATM   13  C21 UNL     1       0.308   7.113  16.154  1.00  0.00     0.023 C 
HETATM   14  C22 UNL     1       0.451   9.401  14.927  1.00  0.00     0.029 C 
HETATM   15  C23 UNL     1      -0.645  10.090  15.740  1.00  0.00     0.090 C 
HETATM   16  C24 UNL     1      -2.003   9.842  15.135  1.00  0.00     0.157 C 
HETATM   17  O1  UNL     1      -2.883  10.695  15.243  1.00  0.00    -0.293 OA
HETATM   18  C25 UNL     1       1.906   9.860  15.326  1.00  0.00     0.072 C 
HETATM   19  C26 UNL     1       2.218  11.151  14.513  1.00  0.00     0.030 C 
HETATM   20  C28 UNL     1       2.959   8.765  15.023  1.00  0.00     0.139 C 
HETATM   21  C29 UNL     1       2.626   7.992  13.751  1.00  0.00     0.065 C 
HETATM   22  C30 UNL     1       1.254   7.310  13.763  1.00  0.00     0.133 C 
ENDROOT
BRANCH   1  23
HETATM   23  C7  UNL     1      -6.389   5.441  13.935  1.00  0.00    -0.014 C 
HETATM   24  C8  UNL     1      -7.366   5.776  15.076  1.00  0.00     0.010 C 
BRANCH  23  25
HETATM   25  C6  UNL     1      -7.167   4.841  12.746  1.00  0.00     0.008 C 
BRANCH  25  26
HETATM   26  C5  UNL     1      -6.871   3.369  12.434  1.00  0.00     0.028 C 
BRANCH  26  27
HETATM   27  C4  UNL     1      -5.385   3.137  12.343  1.00  0.00    -0.025 C 
HETATM   28  C2  UNL     1      -4.603   3.146  11.245  1.00  0.00    -0.091 C 
HETATM   29  C1  UNL     1      -3.117   2.906  11.366  1.00  0.00     0.042 C 
HETATM   30  C3  UNL     1      -5.071   3.388   9.838  1.00  0.00     0.042 C 
ENDBRANCH  26  27
ENDBRANCH  25  26
ENDBRANCH  23  25
ENDBRANCH   1  23
BRANCH  22  31
HETATM   31  O5  UNL     1       1.458   5.905  13.950  1.00  0.00    -0.394 OA
HETATM   32  H46 UNL     1       1.907   5.566  13.156  1.00  0.00     0.210 HD
ENDBRANCH  22  31
BRANCH  18  33
HETATM   33  C27 UNL     1       2.034  10.243  16.804  1.00  0.00     0.151 C 
HETATM   34  O2  UNL     1       1.819  11.347  17.284  1.00  0.00    -0.649 OA
BRANCH  33  35
HETATM   35  O3  UNL     1       2.431   9.244  17.604  1.00  0.00    -0.776 OA
HETATM   36  H40 UNL     1       2.441   9.643  18.501  1.00  0.00     0.167 HD
ENDBRANCH  33  35
ENDBRANCH  18  33
BRANCH  20  37
HETATM   37  O4  UNL     1       4.268   9.318  14.840  1.00  0.00    -0.394 OA
HETATM   38  H42 UNL     1       4.545   9.733  15.677  1.00  0.00     0.210 HD
ENDBRANCH  20  37
TORSDOF 8
ENDMDL
