MODEL 1
REMARK minimizedAffinity -8.63917637
REMARK  12 active torsions:
REMARK  status: ('A' for Active; 'I' for Inactive)
REMARK    1  A    between atoms: C2_2  and  C3_3 
REMARK    2  A    between atoms: C2_2  and  C13_14 
REMARK    3  A    between atoms: C3_3  and  C4_4 
REMARK    4  A    between atoms: C4_4  and  C5_5 
REMARK    5  A    between atoms: C13_14  and  C14_15 
REMARK    6  A    between atoms: C14_15  and  O2_16 
REMARK    7  A    between atoms: C14_15  and  C15_17 
REMARK    8  A    between atoms: C16_18  and  C18_20 
REMARK    9  A    between atoms: C18_20  and  C19_21 
REMARK       I    between atoms: C19_21  and  N1_23 
REMARK   10  A    between atoms: N1_23  and  C20_24 
REMARK   11  A    between atoms: C20_24  and  C21_25 
REMARK   12  A    between atoms: C21_25  and  C22_26 
ROOT
HETATM    1  C14 UNL     1      -2.941  50.534 -27.562  1.00  0.00     0.145 C 
ENDROOT
BRANCH   1   2
HETATM    2  C13 UNL     1      -3.004  49.047 -27.134  1.00  0.00     0.069 C 
BRANCH   2   3
HETATM    3  C2  UNL     1      -4.383  48.421 -26.989  1.00  0.00    -0.086 C 
HETATM    4  C1  UNL     1      -5.049  47.983 -28.073  1.00  0.00     0.014 C 
BRANCH   3   5
HETATM    5  C3  UNL     1      -4.991  48.293 -25.606  1.00  0.00     0.034 C 
BRANCH   5   6
HETATM    6  C4  UNL     1      -4.062  48.688 -24.446  1.00  0.00     0.010 C 
BRANCH   6   7
HETATM    7  C5  UNL     1      -4.564  48.321 -23.022  1.00  0.00     0.001 C 
HETATM    8  C6  UNL     1      -6.085  48.026 -23.087  1.00  0.00     0.006 C 
HETATM    9  C7  UNL     1      -6.922  49.273 -22.860  1.00  0.00     0.008 C 
HETATM   10  C8  UNL     1      -6.743  49.788 -21.441  1.00  0.00     0.079 C 
HETATM   11  C9  UNL     1      -5.366  49.484 -20.885  1.00  0.00     0.135 C 
HETATM   12  O1  UNL     1      -5.201  49.435 -19.664  1.00  0.00    -0.297 OA
HETATM   13  C10 UNL     1      -4.199  49.348 -21.881  1.00  0.00     0.017 C 
HETATM   14  C11 UNL     1      -3.890  50.782 -22.357  1.00  0.00     0.023 C 
HETATM   15  C12 UNL     1      -2.965  48.835 -21.108  1.00  0.00     0.023 C 
ENDBRANCH   6   7
ENDBRANCH   5   6
ENDBRANCH   3   5
ENDBRANCH   2   3
ENDBRANCH   1   2
BRANCH   1  16
HETATM   16  O2  UNL     1      -3.388  50.720 -28.904  1.00  0.00    -0.391 OA
HETATM   17  H23 UNL     1      -4.133  50.111 -29.042  1.00  0.00     0.210 HD
ENDBRANCH   1  16
BRANCH   1  18
HETATM   18  C15 UNL     1      -1.573  51.149 -27.459  1.00  0.00     0.007 C 
HETATM   19  C16 UNL     1      -0.842  51.333 -26.340  1.00  0.00    -0.076 C 
HETATM   20  C17 UNL     1      -1.263  50.869 -24.970  1.00  0.00     0.043 C 
BRANCH  19  21
HETATM   21  C18 UNL     1       0.510  52.014 -26.399  1.00  0.00     0.136 C 
BRANCH  21  22
HETATM   22  C19 UNL     1       0.461  53.381 -25.722  1.00  0.00     0.221 C 
HETATM   23  O3  UNL     1       0.064  54.391 -26.298  1.00  0.00    -0.273 OA
HETATM   24  N1  UNL     1       0.917  53.380 -24.421  1.00  0.00    -0.361 N 
HETATM   25  H30 UNL     1       1.465  52.585 -24.110  1.00  0.00     0.162 HD
BRANCH  24  26
HETATM   26  C20 UNL     1       1.091  54.617 -23.679  1.00  0.00     0.127 C 
BRANCH  26  27
HETATM   27  C21 UNL     1       1.766  54.401 -22.320  1.00  0.00     0.058 C 
BRANCH  27  28
HETATM   28  C22 UNL     1       0.935  53.537 -21.397  1.00  0.00    -0.057 A 
HETATM   29  C23 UNL     1       0.335  52.364 -21.874  1.00  0.00     0.007 A 
HETATM   30  C24 UNL     1      -0.465  51.587 -21.036  1.00  0.00     0.001 A 
HETATM   31  C25 UNL     1      -0.668  51.971 -19.713  1.00  0.00     0.000 A 
HETATM   32  C26 UNL     1      -0.072  53.134 -19.226  1.00  0.00     0.001 A 
HETATM   33  C27 UNL     1       0.723  53.916 -20.066  1.00  0.00     0.007 A 
ENDBRANCH  27  28
ENDBRANCH  26  27
ENDBRANCH  24  26
ENDBRANCH  21  22
ENDBRANCH  19  21
ENDBRANCH   1  18
TORSDOF 12
ENDMDL
MODEL 2
REMARK minimizedAffinity -8.63843822
REMARK  12 active torsions:
REMARK  status: ('A' for Active; 'I' for Inactive)
REMARK    1  A    between atoms: C2_2  and  C3_3 
REMARK    2  A    between atoms: C2_2  and  C13_14 
REMARK    3  A    between atoms: C3_3  and  C4_4 
REMARK    4  A    between atoms: C4_4  and  C5_5 
REMARK    5  A    between atoms: C13_14  and  C14_15 
REMARK    6  A    between atoms: C14_15  and  O2_16 
REMARK    7  A    between atoms: C14_15  and  C15_17 
REMARK    8  A    between atoms: C16_18  and  C18_20 
REMARK    9  A    between atoms: C18_20  and  C19_21 
REMARK       I    between atoms: C19_21  and  N1_23 
REMARK   10  A    between atoms: N1_23  and  C20_24 
REMARK   11  A    between atoms: C20_24  and  C21_25 
REMARK   12  A    between atoms: C21_25  and  C22_26 
ROOT
HETATM    1  C14 UNL     1       0.968  53.398 -24.004  1.00  0.00     0.145 C 
ENDROOT
BRANCH   1   2
HETATM    2  C13 UNL     1       0.012  53.145 -22.812  1.00  0.00     0.069 C 
BRANCH   2   3
HETATM    3  C2  UNL     1       0.645  52.798 -21.472  1.00  0.00    -0.086 C 
HETATM    4  C1  UNL     1       1.582  53.601 -20.934  1.00  0.00     0.014 C 
BRANCH   3   5
HETATM    5  C3  UNL     1       0.200  51.540 -20.752  1.00  0.00     0.034 C 
BRANCH   5   6
HETATM    6  C4  UNL     1      -0.566  50.529 -21.621  1.00  0.00     0.010 C 
BRANCH   6   7
HETATM    7  C5  UNL     1      -1.703  49.748 -20.905  1.00  0.00     0.001 C 
HETATM    8  C6  UNL     1      -1.723  48.291 -21.437  1.00  0.00     0.006 C 
HETATM    9  C7  UNL     1      -2.628  48.134 -22.646  1.00  0.00     0.008 C 
HETATM   10  C8  UNL     1      -4.080  48.368 -22.263  1.00  0.00     0.079 C 
HETATM   11  C9  UNL     1      -4.225  49.354 -21.121  1.00  0.00     0.135 C 
HETATM   12  O1  UNL     1      -5.240  49.329 -20.423  1.00  0.00    -0.297 OA
HETATM   13  C10 UNL     1      -3.128  50.422 -20.946  1.00  0.00     0.017 C 
HETATM   14  C11 UNL     1      -3.348  51.434 -22.089  1.00  0.00     0.023 C 
HETATM   15  C12 UNL     1      -3.384  51.159 -19.613  1.00  0.00     0.023 C 
ENDBRANCH   6   7
ENDBRANCH   5   6
ENDBRANCH   3   5
ENDBRANCH   2   3
ENDBRANCH   1   2
BRANCH   1  16
HETATM   16  O2  UNL     1       1.504  54.720 -23.984  1.00  0.00    -0.391 OA
HETATM   17  H23 UNL     1       1.671  54.944 -23.053  1.00  0.00     0.210 HD
ENDBRANCH   1  16
BRANCH   1  18
HETATM   18  C15 UNL     1       0.339  53.194 -25.354  1.00  0.00     0.007 C 
HETATM   19  C16 UNL     1       0.849  52.507 -26.397  1.00  0.00    -0.076 C 
HETATM   20  C17 UNL     1       2.146  51.743 -26.353  1.00  0.00     0.043 C 
BRANCH  19  21
HETATM   21  C18 UNL     1       0.105  52.431 -27.716  1.00  0.00     0.136 C 
BRANCH  21  22
HETATM   22  C19 UNL     1      -1.387  52.204 -27.487  1.00  0.00     0.221 C 
HETATM   23  O3  UNL     1      -2.199  53.125 -27.454  1.00  0.00    -0.273 OA
HETATM   24  N1  UNL     1      -1.731  50.882 -27.305  1.00  0.00    -0.361 N 
HETATM   25  H30 UNL     1      -0.992  50.224 -27.084  1.00  0.00     0.162 HD
BRANCH  24  26
HETATM   26  C20 UNL     1      -3.078  50.498 -26.918  1.00  0.00     0.127 C 
BRANCH  26  27
HETATM   27  C21 UNL     1      -3.159  49.052 -26.415  1.00  0.00     0.058 C 
BRANCH  27  28
HETATM   28  C22 UNL     1      -4.512  48.429 -26.672  1.00  0.00    -0.057 A 
HETATM   29  C23 UNL     1      -4.912  48.119 -27.979  1.00  0.00     0.007 A 
HETATM   30  C24 UNL     1      -6.177  47.582 -28.223  1.00  0.00     0.001 A 
HETATM   31  C25 UNL     1      -7.049  47.343 -27.165  1.00  0.00     0.000 A 
HETATM   32  C26 UNL     1      -6.660  47.644 -25.859  1.00  0.00     0.001 A 
HETATM   33  C27 UNL     1      -5.398  48.188 -25.614  1.00  0.00     0.007 A 
ENDBRANCH  27  28
ENDBRANCH  26  27
ENDBRANCH  24  26
ENDBRANCH  21  22
ENDBRANCH  19  21
ENDBRANCH   1  18
TORSDOF 12
ENDMDL
MODEL 3
REMARK minimizedAffinity -8.59451771
REMARK  12 active torsions:
REMARK  status: ('A' for Active; 'I' for Inactive)
REMARK    1  A    between atoms: C2_2  and  C3_3 
REMARK    2  A    between atoms: C2_2  and  C13_14 
REMARK    3  A    between atoms: C3_3  and  C4_4 
REMARK    4  A    between atoms: C4_4  and  C5_5 
REMARK    5  A    between atoms: C13_14  and  C14_15 
REMARK    6  A    between atoms: C14_15  and  O2_16 
REMARK    7  A    between atoms: C14_15  and  C15_17 
REMARK    8  A    between atoms: C16_18  and  C18_20 
REMARK    9  A    between atoms: C18_20  and  C19_21 
REMARK       I    between atoms: C19_21  and  N1_23 
REMARK   10  A    between atoms: N1_23  and  C20_24 
REMARK   11  A    between atoms: C20_24  and  C21_25 
REMARK   12  A    between atoms: C21_25  and  C22_26 
ROOT
HETATM    1  C14 UNL     1      -4.516  48.790 -24.856  1.00  0.00     0.145 C 
ENDROOT
BRANCH   1   2
HETATM    2  C13 UNL     1      -3.371  48.727 -25.898  1.00  0.00     0.069 C 
BRANCH   2   3
HETATM    3  C2  UNL     1      -3.716  49.094 -27.334  1.00  0.00    -0.086 C 
HETATM    4  C1  UNL     1      -4.491  48.282 -28.076  1.00  0.00     0.014 C 
BRANCH   3   5
HETATM    5  C3  UNL     1      -3.177  50.388 -27.912  1.00  0.00     0.034 C 
BRANCH   5   6
HETATM    6  C4  UNL     1      -2.619  51.380 -26.878  1.00  0.00     0.010 C 
BRANCH   6   7
HETATM    7  C5  UNL     1      -1.136  51.164 -26.466  1.00  0.00     0.001 C 
HETATM    8  C6  UNL     1      -1.041  51.154 -24.918  1.00  0.00     0.006 C 
HETATM    9  C7  UNL     1      -0.805  52.542 -24.349  1.00  0.00     0.008 C 
HETATM   10  C8  UNL     1       0.561  53.064 -24.762  1.00  0.00     0.079 C 
HETATM   11  C9  UNL     1       1.002  52.531 -26.111  1.00  0.00     0.135 C 
HETATM   12  O1  UNL     1       2.202  52.495 -26.387  1.00  0.00    -0.297 OA
HETATM   13  C10 UNL     1      -0.091  52.145 -27.126  1.00  0.00     0.017 C 
HETATM   14  C11 UNL     1      -0.671  53.479 -27.639  1.00  0.00     0.023 C 
HETATM   15  C12 UNL     1       0.589  51.440 -28.320  1.00  0.00     0.023 C 
ENDBRANCH   6   7
ENDBRANCH   5   6
ENDBRANCH   3   5
ENDBRANCH   2   3
ENDBRANCH   1   2
BRANCH   1  16
HETATM   16  O2  UNL     1      -5.046  50.107 -24.729  1.00  0.00    -0.391 OA
HETATM   17  H23 UNL     1      -5.056  50.497 -25.620  1.00  0.00     0.210 HD
ENDBRANCH   1  16
BRANCH   1  18
HETATM   18  C15 UNL     1      -4.122  48.334 -23.479  1.00  0.00     0.007 C 
HETATM   19  C16 UNL     1      -4.908  47.735 -22.560  1.00  0.00    -0.076 C 
HETATM   20  C17 UNL     1      -6.343  47.344 -22.802  1.00  0.00     0.043 C 
BRANCH  19  21
HETATM   21  C18 UNL     1      -4.369  47.376 -21.191  1.00  0.00     0.136 C 
BRANCH  21  22
HETATM   22  C19 UNL     1      -3.623  48.555 -20.573  1.00  0.00     0.221 C 
HETATM   23  O3  UNL     1      -4.164  49.635 -20.347  1.00  0.00    -0.273 OA
HETATM   24  N1  UNL     1      -2.293  48.304 -20.311  1.00  0.00    -0.361 N 
HETATM   25  H30 UNL     1      -1.864  47.502 -20.759  1.00  0.00     0.162 HD
BRANCH  24  26
HETATM   26  C20 UNL     1      -1.397  49.359 -19.872  1.00  0.00     0.127 C 
BRANCH  26  27
HETATM   27  C21 UNL     1      -0.605  49.980 -21.030  1.00  0.00     0.058 C 
BRANCH  27  28
HETATM   28  C22 UNL     1      -0.043  51.338 -20.677  1.00  0.00    -0.057 A 
HETATM   29  C23 UNL     1      -0.576  52.071 -19.608  1.00  0.00     0.007 A 
HETATM   30  C24 UNL     1      -0.087  53.342 -19.307  1.00  0.00     0.001 A 
HETATM   31  C25 UNL     1       0.944  53.890 -20.066  1.00  0.00     0.000 A 
HETATM   32  C26 UNL     1       1.485  53.169 -21.129  1.00  0.00     0.001 A 
HETATM   33  C27 UNL     1       0.991  51.900 -21.437  1.00  0.00     0.007 A 
ENDBRANCH  27  28
ENDBRANCH  26  27
ENDBRANCH  24  26
ENDBRANCH  21  22
ENDBRANCH  19  21
ENDBRANCH   1  18
TORSDOF 12
ENDMDL
MODEL 4
REMARK minimizedAffinity -8.51375198
REMARK  12 active torsions:
REMARK  status: ('A' for Active; 'I' for Inactive)
REMARK    1  A    between atoms: C2_2  and  C3_3 
REMARK    2  A    between atoms: C2_2  and  C13_14 
REMARK    3  A    between atoms: C3_3  and  C4_4 
REMARK    4  A    between atoms: C4_4  and  C5_5 
REMARK    5  A    between atoms: C13_14  and  C14_15 
REMARK    6  A    between atoms: C14_15  and  O2_16 
REMARK    7  A    between atoms: C14_15  and  C15_17 
REMARK    8  A    between atoms: C16_18  and  C18_20 
REMARK    9  A    between atoms: C18_20  and  C19_21 
REMARK       I    between atoms: C19_21  and  N1_23 
REMARK   10  A    between atoms: N1_23  and  C20_24 
REMARK   11  A    between atoms: C20_24  and  C21_25 
REMARK   12  A    between atoms: C21_25  and  C22_26 
ROOT
HETATM    1  C14 UNL     1      -2.847  50.622 -27.547  1.00  0.00     0.145 C 
ENDROOT
BRANCH   1   2
HETATM    2  C13 UNL     1      -2.758  49.169 -27.017  1.00  0.00     0.069 C 
BRANCH   2   3
HETATM    3  C2  UNL     1      -4.034  48.550 -26.465  1.00  0.00    -0.086 C 
HETATM    4  C1  UNL     1      -5.048  48.232 -27.290  1.00  0.00     0.014 C 
BRANCH   3   5
HETATM    5  C3  UNL     1      -4.141  48.291 -24.975  1.00  0.00     0.034 C 
BRANCH   5   6
HETATM    6  C4  UNL     1      -2.894  48.666 -24.157  1.00  0.00     0.010 C 
BRANCH   6   7
HETATM    7  C5  UNL     1      -3.136  48.952 -22.649  1.00  0.00     0.001 C 
HETATM    8  C6  UNL     1      -2.139  48.109 -21.812  1.00  0.00     0.006 C 
HETATM    9  C7  UNL     1      -2.701  46.745 -21.453  1.00  0.00     0.008 C 
HETATM   10  C8  UNL     1      -3.888  46.885 -20.515  1.00  0.00     0.079 C 
HETATM   11  C9  UNL     1      -4.657  48.171 -20.741  1.00  0.00     0.135 C 
HETATM   12  O1  UNL     1      -5.344  48.636 -19.830  1.00  0.00    -0.297 OA
HETATM   13  C10 UNL     1      -4.624  48.793 -22.151  1.00  0.00     0.017 C 
HETATM   14  C11 UNL     1      -5.519  47.890 -23.023  1.00  0.00     0.023 C 
HETATM   15  C12 UNL     1      -5.291  50.183 -22.078  1.00  0.00     0.023 C 
ENDBRANCH   6   7
ENDBRANCH   5   6
ENDBRANCH   3   5
ENDBRANCH   2   3
ENDBRANCH   1   2
BRANCH   1  16
HETATM   16  O2  UNL     1      -3.361  50.671 -28.876  1.00  0.00    -0.391 OA
HETATM   17  H23 UNL     1      -4.054  49.992 -28.938  1.00  0.00     0.210 HD
ENDBRANCH   1  16
BRANCH   1  18
HETATM   18  C15 UNL     1      -1.536  51.358 -27.550  1.00  0.00     0.007 C 
HETATM   19  C16 UNL     1      -0.793  51.707 -26.479  1.00  0.00    -0.076 C 
HETATM   20  C17 UNL     1      -1.131  51.337 -25.059  1.00  0.00     0.043 C 
BRANCH  19  21
HETATM   21  C18 UNL     1       0.492  52.493 -26.648  1.00  0.00     0.136 C 
BRANCH  21  22
HETATM   22  C19 UNL     1       0.467  53.765 -25.804  1.00  0.00     0.221 C 
HETATM   23  O3  UNL     1       0.116  54.852 -26.257  1.00  0.00    -0.273 OA
HETATM   24  N1  UNL     1       0.887  53.584 -24.504  1.00  0.00    -0.361 N 
HETATM   25  H30 UNL     1       1.402  52.739 -24.284  1.00  0.00     0.162 HD
BRANCH  24  26
HETATM   26  C20 UNL     1       1.078  54.712 -23.608  1.00  0.00     0.127 C 
BRANCH  26  27
HETATM   27  C21 UNL     1       1.872  54.339 -22.351  1.00  0.00     0.058 C 
BRANCH  27  28
HETATM   28  C22 UNL     1       1.051  53.529 -21.373  1.00  0.00    -0.057 A 
HETATM   29  C23 UNL     1       0.636  54.093 -20.159  1.00  0.00     0.007 A 
HETATM   30  C24 UNL     1      -0.086  53.334 -19.237  1.00  0.00     0.001 A 
HETATM   31  C25 UNL     1      -0.405  52.009 -19.521  1.00  0.00     0.000 A 
HETATM   32  C26 UNL     1      -0.001  51.439 -20.728  1.00  0.00     0.001 A 
HETATM   33  C27 UNL     1       0.728  52.194 -21.648  1.00  0.00     0.007 A 
ENDBRANCH  27  28
ENDBRANCH  26  27
ENDBRANCH  24  26
ENDBRANCH  21  22
ENDBRANCH  19  21
ENDBRANCH   1  18
TORSDOF 12
ENDMDL
MODEL 5
REMARK minimizedAffinity -8.40758896
REMARK  12 active torsions:
REMARK  status: ('A' for Active; 'I' for Inactive)
REMARK    1  A    between atoms: C2_2  and  C3_3 
REMARK    2  A    between atoms: C2_2  and  C13_14 
REMARK    3  A    between atoms: C3_3  and  C4_4 
REMARK    4  A    between atoms: C4_4  and  C5_5 
REMARK    5  A    between atoms: C13_14  and  C14_15 
REMARK    6  A    between atoms: C14_15  and  O2_16 
REMARK    7  A    between atoms: C14_15  and  C15_17 
REMARK    8  A    between atoms: C16_18  and  C18_20 
REMARK    9  A    between atoms: C18_20  and  C19_21 
REMARK       I    between atoms: C19_21  and  N1_23 
REMARK   10  A    between atoms: N1_23  and  C20_24 
REMARK   11  A    between atoms: C20_24  and  C21_25 
REMARK   12  A    between atoms: C21_25  and  C22_26 
ROOT
HETATM    1  C14 UNL     1      -4.404  48.536 -24.814  1.00  0.00     0.145 C 
ENDROOT
BRANCH   1   2
HETATM    2  C13 UNL     1      -3.331  48.516 -25.930  1.00  0.00     0.069 C 
BRANCH   2   3
HETATM    3  C2  UNL     1      -3.746  49.022 -27.305  1.00  0.00    -0.086 C 
HETATM    4  C1  UNL     1      -4.610  48.315 -28.057  1.00  0.00     0.014 C 
BRANCH   3   5
HETATM    5  C3  UNL     1      -3.178  50.334 -27.808  1.00  0.00     0.034 C 
BRANCH   5   6
HETATM    6  C4  UNL     1      -2.590  51.249 -26.721  1.00  0.00     0.010 C 
BRANCH   6   7
HETATM    7  C5  UNL     1      -1.086  51.032 -26.395  1.00  0.00     0.001 C 
HETATM    8  C6  UNL     1      -0.918  50.915 -24.857  1.00  0.00     0.006 C 
HETATM    9  C7  UNL     1      -0.676  52.263 -24.203  1.00  0.00     0.008 C 
HETATM   10  C8  UNL     1       0.661  52.838 -24.641  1.00  0.00     0.079 C 
HETATM   11  C9  UNL     1       1.045  52.409 -26.043  1.00  0.00     0.135 C 
HETATM   12  O1  UNL     1       2.231  52.415 -26.376  1.00  0.00    -0.297 OA
HETATM   13  C10 UNL     1      -0.089  52.075 -27.031  1.00  0.00     0.017 C 
HETATM   14  C11 UNL     1      -0.712  53.431 -27.421  1.00  0.00     0.023 C 
HETATM   15  C12 UNL     1       0.544  51.469 -28.302  1.00  0.00     0.023 C 
ENDBRANCH   6   7
ENDBRANCH   5   6
ENDBRANCH   3   5
ENDBRANCH   2   3
ENDBRANCH   1   2
BRANCH   1  16
HETATM   16  O2  UNL     1      -5.168  49.740 -24.833  1.00  0.00    -0.391 OA
HETATM   17  H23 UNL     1      -5.303  49.976 -25.766  1.00  0.00     0.210 HD
ENDBRANCH   1  16
BRANCH   1  18
HETATM   18  C15 UNL     1      -3.851  48.382 -23.424  1.00  0.00     0.007 C 
HETATM   19  C16 UNL     1      -4.498  47.918 -22.334  1.00  0.00    -0.076 C 
HETATM   20  C17 UNL     1      -5.909  47.392 -22.350  1.00  0.00     0.043 C 
BRANCH  19  21
HETATM   21  C18 UNL     1      -3.810  47.866 -20.985  1.00  0.00     0.136 C 
BRANCH  21  22
HETATM   22  C19 UNL     1      -2.354  48.311 -21.100  1.00  0.00     0.221 C 
HETATM   23  O3  UNL     1      -1.419  47.515 -21.122  1.00  0.00    -0.273 OA
HETATM   24  N1  UNL     1      -2.188  49.679 -21.157  1.00  0.00    -0.361 N 
HETATM   25  H30 UNL     1      -2.965  50.264 -20.871  1.00  0.00     0.162 HD
BRANCH  24  26
HETATM   26  C20 UNL     1      -0.868  50.282 -21.107  1.00  0.00     0.127 C 
BRANCH  26  27
HETATM   27  C21 UNL     1      -0.844  51.583 -20.295  1.00  0.00     0.058 C 
BRANCH  27  28
HETATM   28  C22 UNL     1      -0.229  51.394 -18.926  1.00  0.00    -0.057 A 
HETATM   29  C23 UNL     1       0.530  52.418 -18.343  1.00  0.00     0.007 A 
HETATM   30  C24 UNL     1       1.132  52.231 -17.098  1.00  0.00     0.001 A 
HETATM   31  C25 UNL     1       0.976  51.024 -16.422  1.00  0.00     0.000 A 
HETATM   32  C26 UNL     1       0.219  49.999 -16.991  1.00  0.00     0.001 A 
HETATM   33  C27 UNL     1      -0.378  50.182 -18.240  1.00  0.00     0.007 A 
ENDBRANCH  27  28
ENDBRANCH  26  27
ENDBRANCH  24  26
ENDBRANCH  21  22
ENDBRANCH  19  21
ENDBRANCH   1  18
TORSDOF 12
ENDMDL
MODEL 6
REMARK minimizedAffinity -8.20704556
REMARK  12 active torsions:
REMARK  status: ('A' for Active; 'I' for Inactive)
REMARK    1  A    between atoms: C2_2  and  C3_3 
REMARK    2  A    between atoms: C2_2  and  C13_14 
REMARK    3  A    between atoms: C3_3  and  C4_4 
REMARK    4  A    between atoms: C4_4  and  C5_5 
REMARK    5  A    between atoms: C13_14  and  C14_15 
REMARK    6  A    between atoms: C14_15  and  O2_16 
REMARK    7  A    between atoms: C14_15  and  C15_17 
REMARK    8  A    between atoms: C16_18  and  C18_20 
REMARK    9  A    between atoms: C18_20  and  C19_21 
REMARK       I    between atoms: C19_21  and  N1_23 
REMARK   10  A    between atoms: N1_23  and  C20_24 
REMARK   11  A    between atoms: C20_24  and  C21_25 
REMARK   12  A    between atoms: C21_25  and  C22_26 
ROOT
HETATM    1  C14 UNL     1       0.309  52.737 -24.728  1.00  0.00     0.145 C 
ENDROOT
BRANCH   1   2
HETATM    2  C13 UNL     1       0.913  51.652 -25.655  1.00  0.00     0.069 C 
BRANCH   2   3
HETATM    3  C2  UNL     1       0.407  51.601 -27.090  1.00  0.00    -0.086 C 
HETATM    4  C1  UNL     1       1.264  51.743 -28.118  1.00  0.00     0.014 C 
BRANCH   3   5
HETATM    5  C3  UNL     1      -1.072  51.382 -27.341  1.00  0.00     0.034 C 
BRANCH   5   6
HETATM    6  C4  UNL     1      -1.731  50.309 -26.458  1.00  0.00     0.010 C 
BRANCH   6   7
HETATM    7  C5  UNL     1      -3.230  50.539 -26.120  1.00  0.00     0.001 C 
HETATM    8  C6  UNL     1      -3.422  52.007 -25.659  1.00  0.00     0.006 C 
HETATM    9  C7  UNL     1      -3.250  52.164 -24.158  1.00  0.00     0.008 C 
HETATM   10  C8  UNL     1      -4.356  51.435 -23.414  1.00  0.00     0.079 C 
HETATM   11  C9  UNL     1      -4.853  50.216 -24.165  1.00  0.00     0.135 C 
HETATM   12  O1  UNL     1      -5.985  49.783 -23.938  1.00  0.00    -0.297 OA
HETATM   13  C10 UNL     1      -3.872  49.505 -25.116  1.00  0.00     0.017 C 
HETATM   14  C11 UNL     1      -2.875  48.762 -24.205  1.00  0.00     0.023 C 
HETATM   15  C12 UNL     1      -4.661  48.442 -25.912  1.00  0.00     0.023 C 
ENDBRANCH   6   7
ENDBRANCH   5   6
ENDBRANCH   3   5
ENDBRANCH   2   3
ENDBRANCH   1   2
BRANCH   1  16
HETATM   16  O2  UNL     1       0.778  54.042 -25.062  1.00  0.00    -0.391 OA
HETATM   17  H23 UNL     1       0.841  54.082 -26.032  1.00  0.00     0.210 HD
ENDBRANCH   1  16
BRANCH   1  18
HETATM   18  C15 UNL     1       0.588  52.525 -23.267  1.00  0.00     0.007 C 
HETATM   19  C16 UNL     1       1.095  53.419 -22.393  1.00  0.00    -0.076 C 
HETATM   20  C17 UNL     1       1.407  54.852 -22.738  1.00  0.00     0.043 C 
BRANCH  19  21
HETATM   21  C18 UNL     1       1.361  53.034 -20.952  1.00  0.00     0.136 C 
BRANCH  21  22
HETATM   22  C19 UNL     1       0.408  51.932 -20.499  1.00  0.00     0.221 C 
HETATM   23  O3  UNL     1       0.234  50.901 -21.144  1.00  0.00    -0.273 OA
HETATM   24  N1  UNL     1      -0.247  52.207 -19.317  1.00  0.00    -0.361 N 
HETATM   25  H30 UNL     1      -0.255  53.166 -18.990  1.00  0.00     0.162 HD
BRANCH  24  26
HETATM   26  C20 UNL     1      -1.306  51.344 -18.821  1.00  0.00     0.127 C 
BRANCH  26  27
HETATM   27  C21 UNL     1      -0.791  49.963 -18.396  1.00  0.00     0.058 C 
BRANCH  27  28
HETATM   28  C22 UNL     1      -0.022  50.013 -17.095  1.00  0.00    -0.057 A 
HETATM   29  C23 UNL     1       0.649  51.183 -16.713  1.00  0.00     0.007 A 
HETATM   30  C24 UNL     1       1.394  51.218 -15.534  1.00  0.00     0.001 A 
HETATM   31  C25 UNL     1       1.470  50.089 -14.723  1.00  0.00     0.000 A 
HETATM   32  C26 UNL     1       0.803  48.921 -15.091  1.00  0.00     0.001 A 
HETATM   33  C27 UNL     1       0.063  48.881 -16.275  1.00  0.00     0.007 A 
ENDBRANCH  27  28
ENDBRANCH  26  27
ENDBRANCH  24  26
ENDBRANCH  21  22
ENDBRANCH  19  21
ENDBRANCH   1  18
TORSDOF 12
ENDMDL
MODEL 7
REMARK minimizedAffinity -8.18886566
REMARK  12 active torsions:
REMARK  status: ('A' for Active; 'I' for Inactive)
REMARK    1  A    between atoms: C2_2  and  C3_3 
REMARK    2  A    between atoms: C2_2  and  C13_14 
REMARK    3  A    between atoms: C3_3  and  C4_4 
REMARK    4  A    between atoms: C4_4  and  C5_5 
REMARK    5  A    between atoms: C13_14  and  C14_15 
REMARK    6  A    between atoms: C14_15  and  O2_16 
REMARK    7  A    between atoms: C14_15  and  C15_17 
REMARK    8  A    between atoms: C16_18  and  C18_20 
REMARK    9  A    between atoms: C18_20  and  C19_21 
REMARK       I    between atoms: C19_21  and  N1_23 
REMARK   10  A    between atoms: N1_23  and  C20_24 
REMARK   11  A    between atoms: C20_24  and  C21_25 
REMARK   12  A    between atoms: C21_25  and  C22_26 
ROOT
HETATM    1  C14 UNL     1      -5.514  49.122 -23.906  1.00  0.00     0.145 C 
ENDROOT
BRANCH   1   2
HETATM    2  C13 UNL     1      -4.419  48.446 -24.768  1.00  0.00     0.069 C 
BRANCH   2   3
HETATM    3  C2  UNL     1      -4.655  48.382 -26.270  1.00  0.00    -0.086 C 
HETATM    4  C1  UNL     1      -5.804  47.880 -26.757  1.00  0.00     0.014 C 
BRANCH   3   5
HETATM    5  C3  UNL     1      -3.579  48.898 -27.206  1.00  0.00     0.034 C 
BRANCH   5   6
HETATM    6  C4  UNL     1      -2.260  49.299 -26.525  1.00  0.00     0.010 C 
BRANCH   6   7
HETATM    7  C5  UNL     1      -1.903  50.811 -26.579  1.00  0.00     0.001 C 
HETATM    8  C6  UNL     1      -0.566  50.983 -27.346  1.00  0.00     0.006 C 
HETATM    9  C7  UNL     1       0.638  50.921 -26.422  1.00  0.00     0.008 C 
HETATM   10  C8  UNL     1       0.645  52.106 -25.471  1.00  0.00     0.079 C 
HETATM   11  C9  UNL     1      -0.753  52.589 -25.138  1.00  0.00     0.135 C 
HETATM   12  O1  UNL     1      -0.920  53.750 -24.758  1.00  0.00    -0.297 OA
HETATM   13  C10 UNL     1      -1.903  51.565 -25.194  1.00  0.00     0.017 C 
HETATM   14  C11 UNL     1      -1.720  50.668 -23.953  1.00  0.00     0.023 C 
HETATM   15  C12 UNL     1      -3.234  52.329 -25.027  1.00  0.00     0.023 C 
ENDBRANCH   6   7
ENDBRANCH   5   6
ENDBRANCH   3   5
ENDBRANCH   2   3
ENDBRANCH   1   2
BRANCH   1  16
HETATM   16  O2  UNL     1      -5.983  50.332 -24.498  1.00  0.00    -0.391 OA
HETATM   17  H23 UNL     1      -6.015  50.185 -25.458  1.00  0.00     0.210 HD
ENDBRANCH   1  16
BRANCH   1  18
HETATM   18  C15 UNL     1      -5.081  49.451 -22.505  1.00  0.00     0.007 C 
HETATM   19  C16 UNL     1      -5.869  49.595 -21.419  1.00  0.00    -0.076 C 
HETATM   20  C17 UNL     1      -7.358  49.369 -21.419  1.00  0.00     0.043 C 
BRANCH  19  21
HETATM   21  C18 UNL     1      -5.279  49.975 -20.075  1.00  0.00     0.136 C 
BRANCH  21  22
HETATM   22  C19 UNL     1      -3.815  50.383 -20.219  1.00  0.00     0.221 C 
HETATM   23  O3  UNL     1      -3.470  51.434 -20.752  1.00  0.00    -0.273 OA
HETATM   24  N1  UNL     1      -2.924  49.460 -19.715  1.00  0.00    -0.361 N 
HETATM   25  H30 UNL     1      -3.262  48.521 -19.537  1.00  0.00     0.162 HD
BRANCH  24  26
HETATM   26  C20 UNL     1      -1.492  49.608 -19.909  1.00  0.00     0.127 C 
BRANCH  26  27
HETATM   27  C21 UNL     1      -0.890  50.714 -19.034  1.00  0.00     0.058 C 
BRANCH  27  28
HETATM   28  C22 UNL     1      -0.140  51.746 -19.846  1.00  0.00    -0.057 A 
HETATM   29  C23 UNL     1       0.058  53.038 -19.341  1.00  0.00     0.007 A 
HETATM   30  C24 UNL     1       0.713  54.004 -20.106  1.00  0.00     0.001 A 
HETATM   31  C25 UNL     1       1.182  53.686 -21.378  1.00  0.00     0.000 A 
HETATM   32  C26 UNL     1       0.994  52.402 -21.889  1.00  0.00     0.001 A 
HETATM   33  C27 UNL     1       0.332  51.437 -21.128  1.00  0.00     0.007 A 
ENDBRANCH  27  28
ENDBRANCH  26  27
ENDBRANCH  24  26
ENDBRANCH  21  22
ENDBRANCH  19  21
ENDBRANCH   1  18
TORSDOF 12
ENDMDL
MODEL 8
REMARK minimizedAffinity -8.17479324
REMARK  12 active torsions:
REMARK  status: ('A' for Active; 'I' for Inactive)
REMARK    1  A    between atoms: C2_2  and  C3_3 
REMARK    2  A    between atoms: C2_2  and  C13_14 
REMARK    3  A    between atoms: C3_3  and  C4_4 
REMARK    4  A    between atoms: C4_4  and  C5_5 
REMARK    5  A    between atoms: C13_14  and  C14_15 
REMARK    6  A    between atoms: C14_15  and  O2_16 
REMARK    7  A    between atoms: C14_15  and  C15_17 
REMARK    8  A    between atoms: C16_18  and  C18_20 
REMARK    9  A    between atoms: C18_20  and  C19_21 
REMARK       I    between atoms: C19_21  and  N1_23 
REMARK   10  A    between atoms: N1_23  and  C20_24 
REMARK   11  A    between atoms: C20_24  and  C21_25 
REMARK   12  A    between atoms: C21_25  and  C22_26 
ROOT
HETATM    1  C14 UNL     1      -2.633  50.388 -27.163  1.00  0.00     0.145 C 
ENDROOT
BRANCH   1   2
HETATM    2  C13 UNL     1      -2.873  48.883 -26.885  1.00  0.00     0.069 C 
BRANCH   2   3
HETATM    3  C2  UNL     1      -4.315  48.395 -26.890  1.00  0.00    -0.086 C 
HETATM    4  C1  UNL     1      -4.923  48.083 -28.049  1.00  0.00     0.014 C 
BRANCH   3   5
HETATM    5  C3  UNL     1      -5.050  48.261 -25.571  1.00  0.00     0.034 C 
BRANCH   5   6
HETATM    6  C4  UNL     1      -4.378  48.958 -24.377  1.00  0.00     0.010 C 
BRANCH   6   7
HETATM    7  C5  UNL     1      -5.312  49.822 -23.484  1.00  0.00     0.001 C 
HETATM    8  C6  UNL     1      -4.635  51.193 -23.229  1.00  0.00     0.006 C 
HETATM    9  C7  UNL     1      -3.765  51.181 -21.985  1.00  0.00     0.008 C 
HETATM   10  C8  UNL     1      -4.614  50.992 -20.739  1.00  0.00     0.079 C 
HETATM   11  C9  UNL     1      -5.857  50.168 -21.005  1.00  0.00     0.135 C 
HETATM   12  O1  UNL     1      -6.832  50.281 -20.259  1.00  0.00    -0.297 OA
HETATM   13  C10 UNL     1      -5.810  49.139 -22.152  1.00  0.00     0.017 C 
HETATM   14  C11 UNL     1      -4.932  47.982 -21.635  1.00  0.00     0.023 C 
HETATM   15  C12 UNL     1      -7.237  48.588 -22.361  1.00  0.00     0.023 C 
ENDBRANCH   6   7
ENDBRANCH   5   6
ENDBRANCH   3   5
ENDBRANCH   2   3
ENDBRANCH   1   2
BRANCH   1  16
HETATM   16  O2  UNL     1      -2.860  50.719 -28.531  1.00  0.00    -0.391 OA
HETATM   17  H23 UNL     1      -3.621  50.193 -28.828  1.00  0.00     0.210 HD
ENDBRANCH   1  16
BRANCH   1  18
HETATM   18  C15 UNL     1      -1.252  50.867 -26.812  1.00  0.00     0.007 C 
HETATM   19  C16 UNL     1      -0.925  51.920 -26.034  1.00  0.00    -0.076 C 
HETATM   20  C17 UNL     1      -1.928  52.774 -25.303  1.00  0.00     0.043 C 
BRANCH  19  21
HETATM   21  C18 UNL     1       0.524  52.303 -25.813  1.00  0.00     0.136 C 
BRANCH  21  22
HETATM   22  C19 UNL     1       0.716  52.934 -24.436  1.00  0.00     0.221 C 
HETATM   23  O3  UNL     1       1.131  54.081 -24.287  1.00  0.00    -0.273 OA
HETATM   24  N1  UNL     1       0.401  52.098 -23.387  1.00  0.00    -0.361 N 
HETATM   25  H30 UNL     1       0.324  51.105 -23.576  1.00  0.00     0.162 HD
BRANCH  24  26
HETATM   26  C20 UNL     1       0.674  52.477 -22.011  1.00  0.00     0.127 C 
BRANCH  26  27
HETATM   27  C21 UNL     1      -0.528  52.250 -21.087  1.00  0.00     0.058 C 
BRANCH  27  28
HETATM   28  C22 UNL     1      -0.112  51.847 -19.691  1.00  0.00    -0.057 A 
HETATM   29  C23 UNL     1      -0.501  50.607 -19.166  1.00  0.00     0.007 A 
HETATM   30  C24 UNL     1      -0.153  50.250 -17.862  1.00  0.00     0.001 A 
HETATM   31  C25 UNL     1       0.592  51.124 -17.075  1.00  0.00     0.000 A 
HETATM   32  C26 UNL     1       0.988  52.358 -17.589  1.00  0.00     0.001 A 
HETATM   33  C27 UNL     1       0.634  52.720 -18.890  1.00  0.00     0.007 A 
ENDBRANCH  27  28
ENDBRANCH  26  27
ENDBRANCH  24  26
ENDBRANCH  21  22
ENDBRANCH  19  21
ENDBRANCH   1  18
TORSDOF 12
ENDMDL
MODEL 9
REMARK minimizedAffinity -8.15467834
REMARK  12 active torsions:
REMARK  status: ('A' for Active; 'I' for Inactive)
REMARK    1  A    between atoms: C2_2  and  C3_3 
REMARK    2  A    between atoms: C2_2  and  C13_14 
REMARK    3  A    between atoms: C3_3  and  C4_4 
REMARK    4  A    between atoms: C4_4  and  C5_5 
REMARK    5  A    between atoms: C13_14  and  C14_15 
REMARK    6  A    between atoms: C14_15  and  O2_16 
REMARK    7  A    between atoms: C14_15  and  C15_17 
REMARK    8  A    between atoms: C16_18  and  C18_20 
REMARK    9  A    between atoms: C18_20  and  C19_21 
REMARK       I    between atoms: C19_21  and  N1_23 
REMARK   10  A    between atoms: N1_23  and  C20_24 
REMARK   11  A    between atoms: C20_24  and  C21_25 
REMARK   12  A    between atoms: C21_25  and  C22_26 
ROOT
HETATM    1  C14 UNL     1      -5.056  49.457 -23.380  1.00  0.00     0.145 C 
ENDROOT
BRANCH   1   2
HETATM    2  C13 UNL     1      -4.018  48.501 -24.018  1.00  0.00     0.069 C 
BRANCH   2   3
HETATM    3  C2  UNL     1      -3.672  48.726 -25.483  1.00  0.00    -0.086 C 
HETATM    4  C1  UNL     1      -4.513  48.320 -26.451  1.00  0.00     0.014 C 
BRANCH   3   5
HETATM    5  C3  UNL     1      -2.369  49.419 -25.833  1.00  0.00     0.034 C 
BRANCH   5   6
HETATM    6  C4  UNL     1      -1.726  50.215 -24.686  1.00  0.00     0.010 C 
BRANCH   6   7
HETATM    7  C5  UNL     1      -1.611  51.749 -24.908  1.00  0.00     0.001 C 
HETATM    8  C6  UNL     1      -2.773  52.212 -25.825  1.00  0.00     0.006 C 
HETATM    9  C7  UNL     1      -2.401  52.156 -27.296  1.00  0.00     0.008 C 
HETATM   10  C8  UNL     1      -1.308  53.165 -27.610  1.00  0.00     0.079 C 
HETATM   11  C9  UNL     1      -0.386  53.405 -26.431  1.00  0.00     0.135 C 
HETATM   12  O1  UNL     1       0.250  54.459 -26.363  1.00  0.00    -0.297 OA
HETATM   13  C10 UNL     1      -0.207  52.265 -25.411  1.00  0.00     0.017 C 
HETATM   14  C11 UNL     1       0.670  51.211 -26.116  1.00  0.00     0.023 C 
HETATM   15  C12 UNL     1       0.594  52.815 -24.211  1.00  0.00     0.023 C 
ENDBRANCH   6   7
ENDBRANCH   5   6
ENDBRANCH   3   5
ENDBRANCH   2   3
ENDBRANCH   1   2
BRANCH   1  16
HETATM   16  O2  UNL     1      -5.795  50.174 -24.367  1.00  0.00    -0.391 OA
HETATM   17  H23 UNL     1      -5.953  49.562 -25.105  1.00  0.00     0.210 HD
ENDBRANCH   1  16
BRANCH   1  18
HETATM   18  C15 UNL     1      -4.466  50.471 -22.441  1.00  0.00     0.007 C 
HETATM   19  C16 UNL     1      -3.967  50.250 -21.208  1.00  0.00    -0.076 C 
HETATM   20  C17 UNL     1      -3.848  48.887 -20.576  1.00  0.00     0.043 C 
BRANCH  19  21
HETATM   21  C18 UNL     1      -3.445  51.394 -20.363  1.00  0.00     0.136 C 
BRANCH  21  22
HETATM   22  C19 UNL     1      -1.937  51.277 -20.159  1.00  0.00     0.221 C 
HETATM   23  O3  UNL     1      -1.152  51.142 -21.094  1.00  0.00    -0.273 OA
HETATM   24  N1  UNL     1      -1.544  51.320 -18.839  1.00  0.00    -0.361 N 
HETATM   25  H30 UNL     1      -2.251  51.169 -18.127  1.00  0.00     0.162 HD
BRANCH  24  26
HETATM   26  C20 UNL     1      -0.168  51.065 -18.451  1.00  0.00     0.127 C 
BRANCH  26  27
HETATM   27  C21 UNL     1       0.560  52.332 -17.989  1.00  0.00     0.058 C 
BRANCH  27  28
HETATM   28  C22 UNL     1       1.546  52.056 -16.876  1.00  0.00    -0.057 A 
HETATM   29  C23 UNL     1       1.222  51.158 -15.850  1.00  0.00     0.007 A 
HETATM   30  C24 UNL     1       2.113  50.932 -14.800  1.00  0.00     0.001 A 
HETATM   31  C25 UNL     1       3.336  51.595 -14.769  1.00  0.00     0.000 A 
HETATM   32  C26 UNL     1       3.671  52.487 -15.787  1.00  0.00     0.001 A 
HETATM   33  C27 UNL     1       2.778  52.720 -16.834  1.00  0.00     0.007 A 
ENDBRANCH  27  28
ENDBRANCH  26  27
ENDBRANCH  24  26
ENDBRANCH  21  22
ENDBRANCH  19  21
ENDBRANCH   1  18
TORSDOF 12
ENDMDL
