MODEL 1
REMARK minimizedAffinity -9.55874729
REMARK  13 active torsions:
REMARK  status: ('A' for Active; 'I' for Inactive)
REMARK    1  A    between atoms: C2_2  and  C3_3 
REMARK    2  A    between atoms: C2_2  and  C9_11 
REMARK    3  A    between atoms: C3_3  and  C4_4 
REMARK    4  A    between atoms: C4_4  and  C5_5 
REMARK    5  A    between atoms: C5_5  and  C6_6 
REMARK    6  A    between atoms: C6_6  and  O1_8 
REMARK    7  A    between atoms: C6_6  and  C8_9 
REMARK    8  A    between atoms: C8_9  and  O2_10 
REMARK    9  A    between atoms: C10_12  and  O3_13 
REMARK   10  A    between atoms: C11_14  and  O4_15 
REMARK   11  A    between atoms: C13_17  and  O5_18 
REMARK   12  A    between atoms: C15_20  and  O6_21 
REMARK   13  A    between atoms: C18_24  and  O7_25 
ROOT
HETATM    1  C9  UNL     1      -0.821  51.138 -21.300  1.00  0.00     0.029 C 
HETATM    2  C10 UNL     1      -1.072  51.711 -19.874  1.00  0.00     0.152 C 
HETATM    3  C11 UNL     1      -2.590  51.599 -19.615  1.00  0.00     0.155 C 
HETATM    4  C12 UNL     1      -3.019  50.476 -20.564  1.00  0.00     0.060 C 
HETATM    5  C13 UNL     1      -4.535  50.184 -20.755  1.00  0.00     0.071 C 
HETATM    6  C14 UNL     1      -5.097  49.406 -19.541  1.00  0.00     0.071 C 
HETATM    7  C15 UNL     1      -5.153  47.900 -19.753  1.00  0.00     0.126 C 
HETATM    8  C16 UNL     1      -6.093  47.506 -20.908  1.00  0.00     0.025 C 
HETATM    9  C17 UNL     1      -5.764  46.076 -21.392  1.00  0.00     0.039 C 
HETATM   10  C18 UNL     1      -6.801  45.559 -22.394  1.00  0.00     0.118 C 
HETATM   11  C19 UNL     1      -7.324  46.640 -23.340  1.00  0.00     0.032 C 
HETATM   12  C20 UNL     1      -6.340  47.802 -23.458  1.00  0.00     0.012 C 
HETATM   13  C21 UNL     1      -6.106  48.532 -22.093  1.00  0.00    -0.031 C 
HETATM   14  C22 UNL     1      -7.341  49.472 -21.913  1.00  0.00     0.016 C 
HETATM   15  C23 UNL     1      -4.801  49.432 -22.121  1.00  0.00     0.029 C 
HETATM   16  C24 UNL     1      -3.518  48.701 -22.592  1.00  0.00     0.009 C 
HETATM   17  C25 UNL     1      -2.310  49.629 -22.818  1.00  0.00     0.011 C 
HETATM   18  C26 UNL     1      -2.257  50.847 -21.873  1.00  0.00    -0.029 C 
HETATM   19  C27 UNL     1      -2.837  52.079 -22.600  1.00  0.00     0.016 C 
ENDROOT
BRANCH   1  20
HETATM   20  C2  UNL     1       0.294  51.838 -22.135  1.00  0.00    -0.011 C 
HETATM   21  C1  UNL     1       1.072  52.971 -21.457  1.00  0.00     0.010 C 
BRANCH  20  22
HETATM   22  C3  UNL     1      -0.249  52.300 -23.509  1.00  0.00     0.005 C 
BRANCH  22  23
HETATM   23  C4  UNL     1       0.746  53.027 -24.428  1.00  0.00     0.003 C 
BRANCH  23  24
HETATM   24  C5  UNL     1       0.397  52.920 -25.917  1.00  0.00     0.040 C 
BRANCH  24  25
HETATM   25  C6  UNL     1       0.997  51.707 -26.667  1.00  0.00     0.075 C 
HETATM   26  C7  UNL     1       0.939  51.978 -28.175  1.00  0.00     0.048 C 
BRANCH  25  27
HETATM   27  O1  UNL     1       0.183  50.554 -26.412  1.00  0.00    -0.388 OA
HETATM   28  H14 UNL     1       0.511  50.198 -25.561  1.00  0.00     0.210 HD
ENDBRANCH  25  27
BRANCH  25  29
HETATM   29  C8  UNL     1       2.447  51.374 -26.261  1.00  0.00     0.201 C 
BRANCH  29  30
HETATM   30  O2  UNL     1       3.311  51.468 -27.396  1.00  0.00    -0.398 OA
HETATM   31  H17 UNL     1       4.211  51.268 -27.081  1.00  0.00     0.209 HD
ENDBRANCH  29  30
ENDBRANCH  25  29
ENDBRANCH  24  25
ENDBRANCH  23  24
ENDBRANCH  22  23
ENDBRANCH  20  22
ENDBRANCH   1  20
BRANCH   2  32
HETATM   32  O3  UNL     1      -0.632  53.044 -19.674  1.00  0.00    -0.393 OA
HETATM   33  H20 UNL     1      -0.834  53.259 -18.745  1.00  0.00     0.210 HD
ENDBRANCH   2  32
BRANCH   3  34
HETATM   34  O4  UNL     1      -2.799  51.306 -18.241  1.00  0.00    -0.392 OA
HETATM   35  H22 UNL     1      -3.714  51.546 -18.018  1.00  0.00     0.210 HD
ENDBRANCH   3  34
BRANCH   5  36
HETATM   36  O5  UNL     1      -5.227  51.440 -20.826  1.00  0.00    -0.389 OA
HETATM   37  H24 UNL     1      -5.426  51.750 -19.927  1.00  0.00     0.210 HD
ENDBRANCH   5  36
BRANCH   7  38
HETATM   38  O6  UNL     1      -5.616  47.326 -18.527  1.00  0.00    -0.395 OA
HETATM   39  H28 UNL     1      -5.799  46.382 -18.678  1.00  0.00     0.210 HD
ENDBRANCH   7  38
BRANCH  10  40
HETATM   40  O7  UNL     1      -7.895  45.007 -21.666  1.00  0.00    -0.396 OA
HETATM   41  H33 UNL     1      -8.524  44.646 -22.314  1.00  0.00     0.210 HD
ENDBRANCH  10  40
TORSDOF 13
ENDMDL
MODEL 2
REMARK minimizedAffinity -9.20188713
REMARK  13 active torsions:
REMARK  status: ('A' for Active; 'I' for Inactive)
REMARK    1  A    between atoms: C2_2  and  C3_3 
REMARK    2  A    between atoms: C2_2  and  C9_11 
REMARK    3  A    between atoms: C3_3  and  C4_4 
REMARK    4  A    between atoms: C4_4  and  C5_5 
REMARK    5  A    between atoms: C5_5  and  C6_6 
REMARK    6  A    between atoms: C6_6  and  O1_8 
REMARK    7  A    between atoms: C6_6  and  C8_9 
REMARK    8  A    between atoms: C8_9  and  O2_10 
REMARK    9  A    between atoms: C10_12  and  O3_13 
REMARK   10  A    between atoms: C11_14  and  O4_15 
REMARK   11  A    between atoms: C13_17  and  O5_18 
REMARK   12  A    between atoms: C15_20  and  O6_21 
REMARK   13  A    between atoms: C18_24  and  O7_25 
ROOT
HETATM    1  C9  UNL     1       6.053  66.031 -36.669  1.00  0.00     0.029 C 
HETATM    2  C10 UNL     1       5.152  65.273 -35.650  1.00  0.00     0.152 C 
HETATM    3  C11 UNL     1       3.762  65.943 -35.709  1.00  0.00     0.155 C 
HETATM    4  C12 UNL     1       3.746  66.582 -37.101  1.00  0.00     0.060 C 
HETATM    5  C13 UNL     1       2.578  67.537 -37.483  1.00  0.00     0.071 C 
HETATM    6  C14 UNL     1       1.301  66.729 -37.814  1.00  0.00     0.071 C 
HETATM    7  C15 UNL     1       1.103  66.482 -39.302  1.00  0.00     0.126 C 
HETATM    8  C16 UNL     1       0.924  67.791 -40.094  1.00  0.00     0.025 C 
HETATM    9  C17 UNL     1       1.203  67.544 -41.594  1.00  0.00     0.039 C 
HETATM   10  C18 UNL     1       0.838  68.759 -42.451  1.00  0.00     0.118 C 
HETATM   11  C19 UNL     1       1.145  70.096 -41.774  1.00  0.00     0.032 C 
HETATM   12  C20 UNL     1       2.215  69.942 -40.695  1.00  0.00     0.012 C 
HETATM   13  C21 UNL     1       1.766  68.990 -39.536  1.00  0.00    -0.031 C 
HETATM   14  C22 UNL     1       0.840  69.858 -38.627  1.00  0.00     0.016 C 
HETATM   15  C23 UNL     1       2.997  68.502 -38.664  1.00  0.00     0.029 C 
HETATM   16  C24 UNL     1       4.165  67.886 -39.476  1.00  0.00     0.009 C 
HETATM   17  C25 UNL     1       5.434  67.612 -38.648  1.00  0.00     0.011 C 
HETATM   18  C26 UNL     1       5.165  67.225 -37.179  1.00  0.00    -0.029 C 
HETATM   19  C27 UNL     1       5.330  68.474 -36.287  1.00  0.00     0.016 C 
ENDROOT
BRANCH   1  20
HETATM   20  C2  UNL     1       7.549  66.204 -36.266  1.00  0.00    -0.011 C 
HETATM   21  C1  UNL     1       8.286  67.430 -36.819  1.00  0.00     0.010 C 
BRANCH  20  22
HETATM   22  C3  UNL     1       8.354  64.914 -36.552  1.00  0.00     0.005 C 
BRANCH  22  23
HETATM   23  C4  UNL     1       8.749  64.070 -35.330  1.00  0.00     0.003 C 
BRANCH  23  24
HETATM   24  C5  UNL     1       8.403  62.583 -35.474  1.00  0.00     0.040 C 
BRANCH  24  25
HETATM   25  C6  UNL     1       8.138  61.819 -34.155  1.00  0.00     0.075 C 
HETATM   26  C7  UNL     1       7.701  60.388 -34.490  1.00  0.00     0.048 C 
BRANCH  25  27
HETATM   27  O1  UNL     1       7.048  62.445 -33.465  1.00  0.00    -0.388 OA
HETATM   28  H14 UNL     1       7.457  63.181 -32.965  1.00  0.00     0.210 HD
ENDBRANCH  25  27
BRANCH  25  29
HETATM   29  C8  UNL     1       9.351  61.775 -33.202  1.00  0.00     0.201 C 
BRANCH  29  30
HETATM   30  O2  UNL     1       8.939  61.351 -31.900  1.00  0.00    -0.398 OA
HETATM   31  H17 UNL     1       9.741  61.324 -31.348  1.00  0.00     0.209 HD
ENDBRANCH  29  30
ENDBRANCH  25  29
ENDBRANCH  24  25
ENDBRANCH  23  24
ENDBRANCH  22  23
ENDBRANCH  20  22
ENDBRANCH   1  20
BRANCH   2  32
HETATM   32  O3  UNL     1       5.635  65.252 -34.317  1.00  0.00    -0.393 OA
HETATM   33  H20 UNL     1       4.988  64.736 -33.803  1.00  0.00     0.210 HD
ENDBRANCH   2  32
BRANCH   3  34
HETATM   34  O4  UNL     1       2.766  64.948 -35.520  1.00  0.00    -0.392 OA
HETATM   35  H22 UNL     1       1.946  65.390 -35.244  1.00  0.00     0.210 HD
ENDBRANCH   3  34
BRANCH   5  36
HETATM   36  O5  UNL     1       2.288  68.366 -36.347  1.00  0.00    -0.389 OA
HETATM   37  H24 UNL     1       1.677  67.897 -35.754  1.00  0.00     0.210 HD
ENDBRANCH   5  36
BRANCH   7  38
HETATM   38  O6  UNL     1      -0.064  65.666 -39.435  1.00  0.00    -0.395 OA
HETATM   39  H28 UNL     1      -0.298  65.613 -40.378  1.00  0.00     0.210 HD
ENDBRANCH   7  38
BRANCH  10  40
HETATM   40  O7  UNL     1      -0.555  68.698 -42.751  1.00  0.00    -0.396 OA
HETATM   41  H33 UNL     1      -0.762  69.451 -43.330  1.00  0.00     0.210 HD
ENDBRANCH  10  40
TORSDOF 13
ENDMDL
MODEL 3
REMARK minimizedAffinity -9.17726612
REMARK  13 active torsions:
REMARK  status: ('A' for Active; 'I' for Inactive)
REMARK    1  A    between atoms: C2_2  and  C3_3 
REMARK    2  A    between atoms: C2_2  and  C9_11 
REMARK    3  A    between atoms: C3_3  and  C4_4 
REMARK    4  A    between atoms: C4_4  and  C5_5 
REMARK    5  A    between atoms: C5_5  and  C6_6 
REMARK    6  A    between atoms: C6_6  and  O1_8 
REMARK    7  A    between atoms: C6_6  and  C8_9 
REMARK    8  A    between atoms: C8_9  and  O2_10 
REMARK    9  A    between atoms: C10_12  and  O3_13 
REMARK   10  A    between atoms: C11_14  and  O4_15 
REMARK   11  A    between atoms: C13_17  and  O5_18 
REMARK   12  A    between atoms: C15_20  and  O6_21 
REMARK   13  A    between atoms: C18_24  and  O7_25 
ROOT
HETATM    1  C9  UNL     1       0.283  51.620 -21.085  1.00  0.00     0.029 C 
HETATM    2  C10 UNL     1       0.385  52.063 -19.596  1.00  0.00     0.152 C 
HETATM    3  C11 UNL     1      -0.940  51.646 -18.921  1.00  0.00     0.155 C 
HETATM    4  C12 UNL     1      -1.440  50.509 -19.817  1.00  0.00     0.060 C 
HETATM    5  C13 UNL     1      -2.870  49.939 -19.590  1.00  0.00     0.071 C 
HETATM    6  C14 UNL     1      -2.894  49.008 -18.354  1.00  0.00     0.071 C 
HETATM    7  C15 UNL     1      -2.754  47.532 -18.698  1.00  0.00     0.126 C 
HETATM    8  C16 UNL     1      -3.921  47.021 -19.565  1.00  0.00     0.025 C 
HETATM    9  C17 UNL     1      -3.517  45.707 -20.271  1.00  0.00     0.039 C 
HETATM   10  C18 UNL     1      -4.705  45.049 -20.978  1.00  0.00     0.118 C 
HETATM   11  C19 UNL     1      -5.668  46.053 -21.613  1.00  0.00     0.032 C 
HETATM   12  C20 UNL     1      -4.979  47.389 -21.888  1.00  0.00     0.012 C 
HETATM   13  C21 UNL     1      -4.468  48.082 -20.580  1.00  0.00    -0.031 C 
HETATM   14  C22 UNL     1      -5.730  48.754 -19.952  1.00  0.00     0.016 C 
HETATM   15  C23 UNL     1      -3.407  49.218 -20.891  1.00  0.00     0.029 C 
HETATM   16  C24 UNL     1      -2.224  48.773 -21.788  1.00  0.00     0.009 C 
HETATM   17  C25 UNL     1      -1.318  49.928 -22.256  1.00  0.00     0.011 C 
HETATM   18  C26 UNL     1      -1.187  51.085 -21.244  1.00  0.00    -0.029 C 
HETATM   19  C27 UNL     1      -2.162  52.215 -21.638  1.00  0.00     0.016 C 
ENDROOT
BRANCH   1  20
HETATM   20  C2  UNL     1       0.954  52.563 -22.130  1.00  0.00    -0.011 C 
HETATM   21  C1  UNL     1       1.184  54.021 -21.714  1.00  0.00     0.010 C 
BRANCH  20  22
HETATM   22  C3  UNL     1       0.219  52.498 -23.490  1.00  0.00     0.005 C 
BRANCH  22  23
HETATM   23  C4  UNL     1       0.888  53.229 -24.665  1.00  0.00     0.003 C 
BRANCH  23  24
HETATM   24  C5  UNL     1       0.300  52.860 -26.032  1.00  0.00     0.040 C 
BRANCH  24  25
HETATM   25  C6  UNL     1       0.929  51.630 -26.730  1.00  0.00     0.075 C 
HETATM   26  C7  UNL     1       0.833  51.819 -28.249  1.00  0.00     0.048 C 
BRANCH  25  27
HETATM   27  O1  UNL     1       0.163  50.465 -26.399  1.00  0.00    -0.388 OA
HETATM   28  H14 UNL     1       0.519  50.166 -25.537  1.00  0.00     0.210 HD
ENDBRANCH  25  27
BRANCH  25  29
HETATM   29  C8  UNL     1       2.398  51.370 -26.337  1.00  0.00     0.201 C 
BRANCH  29  30
HETATM   30  O2  UNL     1       3.277  52.043 -27.242  1.00  0.00    -0.398 OA
HETATM   31  H17 UNL     1       4.184  51.860 -26.938  1.00  0.00     0.209 HD
ENDBRANCH  29  30
ENDBRANCH  25  29
ENDBRANCH  24  25
ENDBRANCH  23  24
ENDBRANCH  22  23
ENDBRANCH  20  22
ENDBRANCH   1  20
BRANCH   2  32
HETATM   32  O3  UNL     1       0.631  53.444 -19.393  1.00  0.00    -0.393 OA
HETATM   33  H20 UNL     1       0.689  53.570 -18.429  1.00  0.00     0.210 HD
ENDBRANCH   2  32
BRANCH   3  34
HETATM   34  O4  UNL     1      -0.668  51.251 -17.584  1.00  0.00    -0.392 OA
HETATM   35  H22 UNL     1      -1.497  51.297 -17.081  1.00  0.00     0.210 HD
ENDBRANCH   3  34
BRANCH   5  36
HETATM   36  O5  UNL     1      -3.753  51.038 -19.325  1.00  0.00    -0.389 OA
HETATM   37  H24 UNL     1      -3.718  51.259 -18.379  1.00  0.00     0.210 HD
ENDBRANCH   5  36
BRANCH   7  38
HETATM   38  O6  UNL     1      -2.717  46.819 -17.458  1.00  0.00    -0.395 OA
HETATM   39  H28 UNL     1      -2.775  45.867 -17.648  1.00  0.00     0.210 HD
ENDBRANCH   7  38
BRANCH  10  40
HETATM   40  O7  UNL     1      -5.416  44.260 -20.026  1.00  0.00    -0.396 OA
HETATM   41  H33 UNL     1      -6.141  43.816 -20.498  1.00  0.00     0.210 HD
ENDBRANCH  10  40
TORSDOF 13
ENDMDL
MODEL 4
REMARK minimizedAffinity -9.16483688
REMARK  13 active torsions:
REMARK  status: ('A' for Active; 'I' for Inactive)
REMARK    1  A    between atoms: C2_2  and  C3_3 
REMARK    2  A    between atoms: C2_2  and  C9_11 
REMARK    3  A    between atoms: C3_3  and  C4_4 
REMARK    4  A    between atoms: C4_4  and  C5_5 
REMARK    5  A    between atoms: C5_5  and  C6_6 
REMARK    6  A    between atoms: C6_6  and  O1_8 
REMARK    7  A    between atoms: C6_6  and  C8_9 
REMARK    8  A    between atoms: C8_9  and  O2_10 
REMARK    9  A    between atoms: C10_12  and  O3_13 
REMARK   10  A    between atoms: C11_14  and  O4_15 
REMARK   11  A    between atoms: C13_17  and  O5_18 
REMARK   12  A    between atoms: C15_20  and  O6_21 
REMARK   13  A    between atoms: C18_24  and  O7_25 
ROOT
HETATM    1  C9  UNL     1      -2.265  51.439 -21.311  1.00  0.00     0.029 C 
HETATM    2  C10 UNL     1      -3.496  50.488 -21.235  1.00  0.00     0.152 C 
HETATM    3  C11 UNL     1      -3.227  49.512 -20.069  1.00  0.00     0.155 C 
HETATM    4  C12 UNL     1      -2.236  50.285 -19.194  1.00  0.00     0.060 C 
HETATM    5  C13 UNL     1      -1.553  49.558 -18.000  1.00  0.00     0.071 C 
HETATM    6  C14 UNL     1      -2.534  49.424 -16.811  1.00  0.00     0.071 C 
HETATM    7  C15 UNL     1      -2.378  50.516 -15.763  1.00  0.00     0.126 C 
HETATM    8  C16 UNL     1      -0.990  50.493 -15.097  1.00  0.00     0.025 C 
HETATM    9  C17 UNL     1      -0.706  51.854 -14.421  1.00  0.00     0.039 C 
HETATM   10  C18 UNL     1       0.566  51.816 -13.570  1.00  0.00     0.118 C 
HETATM   11  C19 UNL     1       1.678  50.959 -14.177  1.00  0.00     0.032 C 
HETATM   12  C20 UNL     1       1.502  50.802 -15.686  1.00  0.00     0.012 C 
HETATM   13  C21 UNL     1       0.170  50.071 -16.062  1.00  0.00    -0.031 C 
HETATM   14  C22 UNL     1       0.460  48.551 -15.843  1.00  0.00     0.016 C 
HETATM   15  C23 UNL     1      -0.210  50.286 -17.586  1.00  0.00     0.029 C 
HETATM   16  C24 UNL     1      -0.234  51.765 -18.047  1.00  0.00     0.009 C 
HETATM   17  C25 UNL     1      -0.395  51.950 -19.567  1.00  0.00     0.011 C 
HETATM   18  C26 UNL     1      -1.251  50.866 -20.254  1.00  0.00    -0.029 C 
HETATM   19  C27 UNL     1      -0.319  49.806 -20.880  1.00  0.00     0.016 C 
ENDROOT
BRANCH   1  20
HETATM   20  C2  UNL     1      -1.831  51.888 -22.739  1.00  0.00    -0.011 C 
HETATM   21  C1  UNL     1      -2.872  52.624 -23.590  1.00  0.00     0.010 C 
BRANCH  20  22
HETATM   22  C3  UNL     1      -1.221  50.707 -23.531  1.00  0.00     0.005 C 
BRANCH  22  23
HETATM   23  C4  UNL     1      -1.193  50.852 -25.062  1.00  0.00     0.003 C 
BRANCH  23  24
HETATM   24  C5  UNL     1       0.030  51.617 -25.583  1.00  0.00     0.040 C 
BRANCH  24  25
HETATM   25  C6  UNL     1      -0.185  52.434 -26.879  1.00  0.00     0.075 C 
HETATM   26  C7  UNL     1       0.558  51.744 -28.029  1.00  0.00     0.048 C 
BRANCH  25  27
HETATM   27  O1  UNL     1       0.402  53.732 -26.713  1.00  0.00    -0.388 OA
HETATM   28  H14 UNL     1      -0.284  54.261 -26.258  1.00  0.00     0.210 HD
ENDBRANCH  25  27
BRANCH  25  29
HETATM   29  C8  UNL     1      -1.667  52.620 -27.265  1.00  0.00     0.201 C 
BRANCH  29  30
HETATM   30  O2  UNL     1      -1.820  53.779 -28.088  1.00  0.00    -0.398 OA
HETATM   31  H17 UNL     1      -2.765  53.838 -28.315  1.00  0.00     0.209 HD
ENDBRANCH  29  30
ENDBRANCH  25  29
ENDBRANCH  24  25
ENDBRANCH  23  24
ENDBRANCH  22  23
ENDBRANCH  20  22
ENDBRANCH   1  20
BRANCH   2  32
HETATM   32  O3  UNL     1      -3.778  49.771 -22.425  1.00  0.00    -0.393 OA
HETATM   33  H20 UNL     1      -4.573  49.239 -22.239  1.00  0.00     0.210 HD
ENDBRANCH   2  32
BRANCH   3  34
HETATM   34  O4  UNL     1      -4.459  49.218 -19.425  1.00  0.00    -0.392 OA
HETATM   35  H22 UNL     1      -4.347  48.393 -18.924  1.00  0.00     0.210 HD
ENDBRANCH   3  34
BRANCH   5  36
HETATM   36  O5  UNL     1      -1.198  48.234 -18.425  1.00  0.00    -0.389 OA
HETATM   37  H24 UNL     1      -1.963  47.645 -18.314  1.00  0.00     0.210 HD
ENDBRANCH   5  36
BRANCH   7  38
HETATM   38  O6  UNL     1      -3.396  50.297 -14.782  1.00  0.00    -0.395 OA
HETATM   39  H28 UNL     1      -3.231  50.889 -14.028  1.00  0.00     0.210 HD
ENDBRANCH   7  38
BRANCH  10  40
HETATM   40  O7  UNL     1       0.233  51.303 -12.282  1.00  0.00    -0.396 OA
HETATM   41  H33 UNL     1       1.040  51.324 -11.741  1.00  0.00     0.210 HD
ENDBRANCH  10  40
TORSDOF 13
ENDMDL
MODEL 5
REMARK minimizedAffinity -8.858531
REMARK  13 active torsions:
REMARK  status: ('A' for Active; 'I' for Inactive)
REMARK    1  A    between atoms: C2_2  and  C3_3 
REMARK    2  A    between atoms: C2_2  and  C9_11 
REMARK    3  A    between atoms: C3_3  and  C4_4 
REMARK    4  A    between atoms: C4_4  and  C5_5 
REMARK    5  A    between atoms: C5_5  and  C6_6 
REMARK    6  A    between atoms: C6_6  and  O1_8 
REMARK    7  A    between atoms: C6_6  and  C8_9 
REMARK    8  A    between atoms: C8_9  and  O2_10 
REMARK    9  A    between atoms: C10_12  and  O3_13 
REMARK   10  A    between atoms: C11_14  and  O4_15 
REMARK   11  A    between atoms: C13_17  and  O5_18 
REMARK   12  A    between atoms: C15_20  and  O6_21 
REMARK   13  A    between atoms: C18_24  and  O7_25 
ROOT
HETATM    1  C9  UNL     1      -2.053  48.956 -19.759  1.00  0.00     0.029 C 
HETATM    2  C10 UNL     1      -3.240  47.984 -20.022  1.00  0.00     0.152 C 
HETATM    3  C11 UNL     1      -3.970  48.509 -21.277  1.00  0.00     0.155 C 
HETATM    4  C12 UNL     1      -2.884  49.319 -21.993  1.00  0.00     0.060 C 
HETATM    5  C13 UNL     1      -3.275  50.191 -23.221  1.00  0.00     0.071 C 
HETATM    6  C14 UNL     1      -3.474  49.306 -24.475  1.00  0.00     0.071 C 
HETATM    7  C15 UNL     1      -2.249  49.236 -25.374  1.00  0.00     0.126 C 
HETATM    8  C16 UNL     1      -1.869  50.612 -25.953  1.00  0.00     0.025 C 
HETATM    9  C17 UNL     1      -0.403  50.592 -26.443  1.00  0.00     0.039 C 
HETATM   10  C18 UNL     1      -0.040  51.864 -27.214  1.00  0.00     0.118 C 
HETATM   11  C19 UNL     1      -0.694  53.125 -26.647  1.00  0.00     0.032 C 
HETATM   12  C20 UNL     1      -1.081  52.943 -25.181  1.00  0.00     0.012 C 
HETATM   13  C21 UNL     1      -2.138  51.807 -24.976  1.00  0.00    -0.031 C 
HETATM   14  C22 UNL     1      -3.510  52.450 -25.356  1.00  0.00     0.016 C 
HETATM   15  C23 UNL     1      -2.215  51.339 -23.463  1.00  0.00     0.029 C 
HETATM   16  C24 UNL     1      -0.852  50.957 -22.832  1.00  0.00     0.009 C 
HETATM   17  C25 UNL     1      -0.908  50.709 -21.313  1.00  0.00     0.011 C 
HETATM   18  C26 UNL     1      -2.238  50.109 -20.813  1.00  0.00    -0.029 C 
HETATM   19  C27 UNL     1      -3.131  51.241 -20.263  1.00  0.00     0.016 C 
ENDROOT
BRANCH   1  20
HETATM   20  C2  UNL     1      -1.706  49.228 -18.264  1.00  0.00    -0.011 C 
HETATM   21  C1  UNL     1      -2.609  50.204 -17.500  1.00  0.00     0.010 C 
BRANCH  20  22
HETATM   22  C3  UNL     1      -0.220  49.629 -18.103  1.00  0.00     0.005 C 
BRANCH  22  23
HETATM   23  C4  UNL     1       0.057  50.949 -17.365  1.00  0.00     0.003 C 
BRANCH  23  24
HETATM   24  C5  UNL     1       0.631  50.757 -15.957  1.00  0.00     0.040 C 
BRANCH  24  25
HETATM   25  C6  UNL     1       1.650  51.823 -15.489  1.00  0.00     0.075 C 
HETATM   26  C7  UNL     1       2.675  51.157 -14.563  1.00  0.00     0.048 C 
BRANCH  25  27
HETATM   27  O1  UNL     1       0.962  52.816 -14.716  1.00  0.00    -0.388 OA
HETATM   28  H14 UNL     1       0.599  53.441 -15.376  1.00  0.00     0.210 HD
ENDBRANCH  25  27
BRANCH  25  29
HETATM   29  C8  UNL     1       2.386  52.535 -16.643  1.00  0.00     0.201 C 
BRANCH  29  30
HETATM   30  O2  UNL     1       3.513  53.255 -16.138  1.00  0.00    -0.398 OA
HETATM   31  H17 UNL     1       3.948  53.667 -16.906  1.00  0.00     0.209 HD
ENDBRANCH  29  30
ENDBRANCH  25  29
ENDBRANCH  24  25
ENDBRANCH  23  24
ENDBRANCH  22  23
ENDBRANCH  20  22
ENDBRANCH   1  20
BRANCH   2  32
HETATM   32  O3  UNL     1      -4.150  47.839 -18.945  1.00  0.00    -0.393 OA
HETATM   33  H20 UNL     1      -4.820  47.196 -19.241  1.00  0.00     0.210 HD
ENDBRANCH   2  32
BRANCH   3  34
HETATM   34  O4  UNL     1      -4.450  47.401 -22.025  1.00  0.00    -0.392 OA
HETATM   35  H22 UNL     1      -5.155  47.717 -22.614  1.00  0.00     0.210 HD
ENDBRANCH   3  34
BRANCH   5  36
HETATM   36  O5  UNL     1      -4.528  50.830 -22.936  1.00  0.00    -0.389 OA
HETATM   37  H24 UNL     1      -5.257  50.228 -23.162  1.00  0.00     0.210 HD
ENDBRANCH   5  36
BRANCH   7  38
HETATM   38  O6  UNL     1      -2.564  48.328 -26.434  1.00  0.00    -0.395 OA
HETATM   39  H28 UNL     1      -1.856  48.375 -27.100  1.00  0.00     0.210 HD
ENDBRANCH   7  38
BRANCH  10  40
HETATM   40  O7  UNL     1      -0.444  51.700 -28.571  1.00  0.00    -0.396 OA
HETATM   41  H33 UNL     1      -0.170  52.497 -29.056  1.00  0.00     0.210 HD
ENDBRANCH  10  40
TORSDOF 13
ENDMDL
MODEL 6
REMARK minimizedAffinity -8.75336456
REMARK  13 active torsions:
REMARK  status: ('A' for Active; 'I' for Inactive)
REMARK    1  A    between atoms: C2_2  and  C3_3 
REMARK    2  A    between atoms: C2_2  and  C9_11 
REMARK    3  A    between atoms: C3_3  and  C4_4 
REMARK    4  A    between atoms: C4_4  and  C5_5 
REMARK    5  A    between atoms: C5_5  and  C6_6 
REMARK    6  A    between atoms: C6_6  and  O1_8 
REMARK    7  A    between atoms: C6_6  and  C8_9 
REMARK    8  A    between atoms: C8_9  and  O2_10 
REMARK    9  A    between atoms: C10_12  and  O3_13 
REMARK   10  A    between atoms: C11_14  and  O4_15 
REMARK   11  A    between atoms: C13_17  and  O5_18 
REMARK   12  A    between atoms: C15_20  and  O6_21 
REMARK   13  A    between atoms: C18_24  and  O7_25 
ROOT
HETATM    1  C9  UNL     1      -2.080  51.466 -24.501  1.00  0.00     0.029 C 
HETATM    2  C10 UNL     1      -3.250  52.390 -24.948  1.00  0.00     0.152 C 
HETATM    3  C11 UNL     1      -4.551  51.582 -24.747  1.00  0.00     0.155 C 
HETATM    4  C12 UNL     1      -4.156  50.553 -23.683  1.00  0.00     0.060 C 
HETATM    5  C13 UNL     1      -5.144  49.402 -23.339  1.00  0.00     0.071 C 
HETATM    6  C14 UNL     1      -6.294  49.922 -22.443  1.00  0.00     0.071 C 
HETATM    7  C15 UNL     1      -6.067  49.682 -20.958  1.00  0.00     0.126 C 
HETATM    8  C16 UNL     1      -5.984  48.183 -20.613  1.00  0.00     0.025 C 
HETATM    9  C17 UNL     1      -5.297  47.993 -19.242  1.00  0.00     0.039 C 
HETATM   10  C18 UNL     1      -5.375  46.542 -18.759  1.00  0.00     0.118 C 
HETATM   11  C19 UNL     1      -5.241  45.518 -19.886  1.00  0.00     0.032 C 
HETATM   12  C20 UNL     1      -4.525  46.111 -21.098  1.00  0.00     0.012 C 
HETATM   13  C21 UNL     1      -5.306  47.313 -21.727  1.00  0.00    -0.031 C 
HETATM   14  C22 UNL     1      -6.432  46.663 -22.593  1.00  0.00     0.016 C 
HETATM   15  C23 UNL     1      -4.385  48.178 -22.685  1.00  0.00     0.029 C 
HETATM   16  C24 UNL     1      -3.050  48.647 -22.053  1.00  0.00     0.009 C 
HETATM   17  C25 UNL     1      -2.075  49.300 -23.050  1.00  0.00     0.011 C 
HETATM   18  C26 UNL     1      -2.758  50.082 -24.191  1.00  0.00    -0.029 C 
HETATM   19  C27 UNL     1      -2.824  49.189 -25.448  1.00  0.00     0.016 C 
ENDROOT
BRANCH   1  20
HETATM   20  C2  UNL     1      -0.756  51.593 -25.314  1.00  0.00    -0.011 C 
HETATM   21  C1  UNL     1      -0.464  50.504 -26.354  1.00  0.00     0.010 C 
BRANCH  20  22
HETATM   22  C3  UNL     1       0.458  51.782 -24.373  1.00  0.00     0.005 C 
BRANCH  22  23
HETATM   23  C4  UNL     1       0.352  52.914 -23.339  1.00  0.00     0.003 C 
BRANCH  23  24
HETATM   24  C5  UNL     1      -0.503  52.552 -22.119  1.00  0.00     0.040 C 
BRANCH  24  25
HETATM   25  C6  UNL     1       0.273  52.226 -20.820  1.00  0.00     0.075 C 
HETATM   26  C7  UNL     1       1.658  52.880 -20.894  1.00  0.00     0.048 C 
BRANCH  25  27
HETATM   27  O1  UNL     1       0.476  50.809 -20.743  1.00  0.00    -0.388 OA
HETATM   28  H14 UNL     1      -0.348  50.458 -20.347  1.00  0.00     0.210 HD
ENDBRANCH  25  27
BRANCH  25  29
HETATM   29  C8  UNL     1      -0.442  52.682 -19.532  1.00  0.00     0.201 C 
BRANCH  29  30
HETATM   30  O2  UNL     1       0.414  53.536 -18.769  1.00  0.00    -0.398 OA
HETATM   31  H17 UNL     1      -0.091  53.807 -17.981  1.00  0.00     0.209 HD
ENDBRANCH  29  30
ENDBRANCH  25  29
ENDBRANCH  24  25
ENDBRANCH  23  24
ENDBRANCH  22  23
ENDBRANCH  20  22
ENDBRANCH   1  20
BRANCH   2  32
HETATM   32  O3  UNL     1      -3.166  52.869 -26.280  1.00  0.00    -0.393 OA
HETATM   33  H20 UNL     1      -3.944  53.441 -26.411  1.00  0.00     0.210 HD
ENDBRANCH   2  32
BRANCH   3  34
HETATM   34  O4  UNL     1      -5.582  52.468 -24.337  1.00  0.00    -0.392 OA
HETATM   35  H22 UNL     1      -6.436  52.041 -24.517  1.00  0.00     0.210 HD
ENDBRANCH   3  34
BRANCH   5  36
HETATM   36  O5  UNL     1      -5.725  48.929 -24.563  1.00  0.00    -0.389 OA
HETATM   37  H24 UNL     1      -6.490  49.484 -24.792  1.00  0.00     0.210 HD
ENDBRANCH   5  36
BRANCH   7  38
HETATM   38  O6  UNL     1      -7.168  50.282 -20.268  1.00  0.00    -0.395 OA
HETATM   39  H28 UNL     1      -7.125  50.020 -19.332  1.00  0.00     0.210 HD
ENDBRANCH   7  38
BRANCH  10  40
HETATM   40  O7  UNL     1      -6.626  46.352 -18.102  1.00  0.00    -0.396 OA
HETATM   41  H33 UNL     1      -6.643  45.440 -17.765  1.00  0.00     0.210 HD
ENDBRANCH  10  40
TORSDOF 13
ENDMDL
MODEL 7
REMARK minimizedAffinity -8.6914978
REMARK  13 active torsions:
REMARK  status: ('A' for Active; 'I' for Inactive)
REMARK    1  A    between atoms: C2_2  and  C3_3 
REMARK    2  A    between atoms: C2_2  and  C9_11 
REMARK    3  A    between atoms: C3_3  and  C4_4 
REMARK    4  A    between atoms: C4_4  and  C5_5 
REMARK    5  A    between atoms: C5_5  and  C6_6 
REMARK    6  A    between atoms: C6_6  and  O1_8 
REMARK    7  A    between atoms: C6_6  and  C8_9 
REMARK    8  A    between atoms: C8_9  and  O2_10 
REMARK    9  A    between atoms: C10_12  and  O3_13 
REMARK   10  A    between atoms: C11_14  and  O4_15 
REMARK   11  A    between atoms: C13_17  and  O5_18 
REMARK   12  A    between atoms: C15_20  and  O6_21 
REMARK   13  A    between atoms: C18_24  and  O7_25 
ROOT
HETATM    1  C9  UNL     1      -3.158  50.876 -23.347  1.00  0.00     0.029 C 
HETATM    2  C10 UNL     1      -4.543  51.515 -23.659  1.00  0.00     0.152 C 
HETATM    3  C11 UNL     1      -5.595  50.402 -23.461  1.00  0.00     0.155 C 
HETATM    4  C12 UNL     1      -4.895  49.432 -22.504  1.00  0.00     0.060 C 
HETATM    5  C13 UNL     1      -5.554  48.054 -22.207  1.00  0.00     0.071 C 
HETATM    6  C14 UNL     1      -6.731  48.218 -21.216  1.00  0.00     0.071 C 
HETATM    7  C15 UNL     1      -6.354  47.941 -19.768  1.00  0.00     0.126 C 
HETATM    8  C16 UNL     1      -5.891  46.488 -19.551  1.00  0.00     0.025 C 
HETATM    9  C17 UNL     1      -5.087  46.380 -18.235  1.00  0.00     0.039 C 
HETATM   10  C18 UNL     1      -4.784  44.925 -17.868  1.00  0.00     0.118 C 
HETATM   11  C19 UNL     1      -4.485  44.041 -19.080  1.00  0.00     0.032 C 
HETATM   12  C20 UNL     1      -4.016  44.871 -20.273  1.00  0.00     0.012 C 
HETATM   13  C21 UNL     1      -5.102  45.886 -20.764  1.00  0.00    -0.031 C 
HETATM   14  C22 UNL     1      -6.096  45.040 -21.623  1.00  0.00     0.016 C 
HETATM   15  C23 UNL     1      -4.481  47.011 -21.693  1.00  0.00     0.029 C 
HETATM   16  C24 UNL     1      -3.258  47.748 -21.091  1.00  0.00     0.009 C 
HETATM   17  C25 UNL     1      -2.537  48.684 -22.078  1.00  0.00     0.011 C 
HETATM   18  C26 UNL     1      -3.462  49.350 -23.117  1.00  0.00    -0.029 C 
HETATM   19  C27 UNL     1      -3.398  48.554 -24.438  1.00  0.00     0.016 C 
ENDROOT
BRANCH   1  20
HETATM   20  C2  UNL     1      -1.960  51.375 -24.211  1.00  0.00    -0.011 C 
HETATM   21  C1  UNL     1      -1.173  52.583 -23.689  1.00  0.00     0.010 C 
BRANCH  20  22
HETATM   22  C3  UNL     1      -2.393  51.606 -25.679  1.00  0.00     0.005 C 
BRANCH  22  23
HETATM   23  C4  UNL     1      -1.543  50.917 -26.759  1.00  0.00     0.003 C 
BRANCH  23  24
HETATM   24  C5  UNL     1      -0.080  50.709 -26.348  1.00  0.00     0.040 C 
BRANCH  24  25
HETATM   25  C6  UNL     1       0.950  51.656 -27.009  1.00  0.00     0.075 C 
HETATM   26  C7  UNL     1       0.473  53.103 -26.839  1.00  0.00     0.048 C 
BRANCH  25  27
HETATM   27  O1  UNL     1       0.993  51.386 -28.417  1.00  0.00    -0.388 OA
HETATM   28  H14 UNL     1       1.613  50.635 -28.510  1.00  0.00     0.210 HD
ENDBRANCH  25  27
BRANCH  25  29
HETATM   29  C8  UNL     1       2.380  51.517 -26.447  1.00  0.00     0.201 C 
BRANCH  29  30
HETATM   30  O2  UNL     1       3.331  51.524 -27.515  1.00  0.00    -0.398 OA
HETATM   31  H17 UNL     1       4.212  51.452 -27.104  1.00  0.00     0.209 HD
ENDBRANCH  29  30
ENDBRANCH  25  29
ENDBRANCH  24  25
ENDBRANCH  23  24
ENDBRANCH  22  23
ENDBRANCH  20  22
ENDBRANCH   1  20
BRANCH   2  32
HETATM   32  O3  UNL     1      -4.665  52.087 -24.950  1.00  0.00    -0.393 OA
HETATM   33  H20 UNL     1      -5.565  52.460 -24.996  1.00  0.00     0.210 HD
ENDBRANCH   2  32
BRANCH   3  34
HETATM   34  O4  UNL     1      -6.779  50.981 -22.930  1.00  0.00    -0.392 OA
HETATM   35  H22 UNL     1      -7.515  50.372 -23.101  1.00  0.00     0.210 HD
ENDBRANCH   3  34
BRANCH   5  36
HETATM   36  O5  UNL     1      -6.086  47.537 -23.435  1.00  0.00    -0.389 OA
HETATM   37  H24 UNL     1      -6.975  47.903 -23.580  1.00  0.00     0.210 HD
ENDBRANCH   5  36
BRANCH   7  38
HETATM   38  O6  UNL     1      -7.516  48.207 -18.978  1.00  0.00    -0.395 OA
HETATM   39  H28 UNL     1      -7.350  47.901 -18.070  1.00  0.00     0.210 HD
ENDBRANCH   7  38
BRANCH  10  40
HETATM   40  O7  UNL     1      -5.905  44.392 -17.168  1.00  0.00    -0.396 OA
HETATM   41  H33 UNL     1      -5.681  43.483 -16.905  1.00  0.00     0.210 HD
ENDBRANCH  10  40
TORSDOF 13
ENDMDL
MODEL 8
REMARK minimizedAffinity -8.65562344
REMARK  13 active torsions:
REMARK  status: ('A' for Active; 'I' for Inactive)
REMARK    1  A    between atoms: C2_2  and  C3_3 
REMARK    2  A    between atoms: C2_2  and  C9_11 
REMARK    3  A    between atoms: C3_3  and  C4_4 
REMARK    4  A    between atoms: C4_4  and  C5_5 
REMARK    5  A    between atoms: C5_5  and  C6_6 
REMARK    6  A    between atoms: C6_6  and  O1_8 
REMARK    7  A    between atoms: C6_6  and  C8_9 
REMARK    8  A    between atoms: C8_9  and  O2_10 
REMARK    9  A    between atoms: C10_12  and  O3_13 
REMARK   10  A    between atoms: C11_14  and  O4_15 
REMARK   11  A    between atoms: C13_17  and  O5_18 
REMARK   12  A    between atoms: C15_20  and  O6_21 
REMARK   13  A    between atoms: C18_24  and  O7_25 
ROOT
HETATM    1  C9  UNL     1      -3.068  49.170 -26.047  1.00  0.00     0.029 C 
HETATM    2  C10 UNL     1      -2.506  50.521 -26.580  1.00  0.00     0.152 C 
HETATM    3  C11 UNL     1      -2.492  51.495 -25.382  1.00  0.00     0.155 C 
HETATM    4  C12 UNL     1      -2.446  50.554 -24.174  1.00  0.00     0.060 C 
HETATM    5  C13 UNL     1      -2.622  51.147 -22.746  1.00  0.00     0.071 C 
HETATM    6  C14 UNL     1      -1.321  51.844 -22.282  1.00  0.00     0.071 C 
HETATM    7  C15 UNL     1      -0.433  50.965 -21.413  1.00  0.00     0.126 C 
HETATM    8  C16 UNL     1      -1.121  50.559 -20.096  1.00  0.00     0.025 C 
HETATM    9  C17 UNL     1      -0.414  49.326 -19.490  1.00  0.00     0.039 C 
HETATM   10  C18 UNL     1      -0.924  49.009 -18.081  1.00  0.00     0.118 C 
HETATM   11  C19 UNL     1      -2.423  49.258 -17.907  1.00  0.00     0.032 C 
HETATM   12  C20 UNL     1      -3.154  49.219 -19.248  1.00  0.00     0.012 C 
HETATM   13  C21 UNL     1      -2.666  50.335 -20.231  1.00  0.00    -0.031 C 
HETATM   14  C22 UNL     1      -3.391  51.638 -19.765  1.00  0.00     0.016 C 
HETATM   15  C23 UNL     1      -3.100  50.036 -21.726  1.00  0.00     0.029 C 
HETATM   16  C24 UNL     1      -2.716  48.627 -22.244  1.00  0.00     0.009 C 
HETATM   17  C25 UNL     1      -3.324  48.271 -23.613  1.00  0.00     0.011 C 
HETATM   18  C26 UNL     1      -3.499  49.472 -24.565  1.00  0.00    -0.029 C 
HETATM   19  C27 UNL     1      -4.957  49.971 -24.489  1.00  0.00     0.016 C 
ENDROOT
BRANCH   1  20
HETATM   20  C2  UNL     1      -3.960  48.359 -27.035  1.00  0.00    -0.011 C 
HETATM   21  C1  UNL     1      -4.125  48.919 -28.453  1.00  0.00     0.010 C 
BRANCH  20  22
HETATM   22  C3  UNL     1      -5.342  48.050 -26.411  1.00  0.00     0.005 C 
BRANCH  22  23
HETATM   23  C4  UNL     1      -6.458  47.646 -27.387  1.00  0.00     0.003 C 
BRANCH  23  24
HETATM   24  C5  UNL     1      -7.806  47.383 -26.703  1.00  0.00     0.040 C 
BRANCH  24  25
HETATM   25  C6  UNL     1      -8.989  48.258 -27.181  1.00  0.00     0.075 C 
HETATM   26  C7  UNL     1     -10.077  47.347 -27.761  1.00  0.00     0.048 C 
BRANCH  25  27
HETATM   27  O1  UNL     1      -8.538  49.110 -28.243  1.00  0.00    -0.388 OA
HETATM   28  H14 UNL     1      -8.139  49.883 -27.793  1.00  0.00     0.210 HD
ENDBRANCH  25  27
BRANCH  25  29
HETATM   29  C8  UNL     1      -9.598  49.146 -26.076  1.00  0.00     0.201 C 
BRANCH  29  30
HETATM   30  O2  UNL     1      -8.571  49.617 -25.200  1.00  0.00    -0.398 OA
HETATM   31  H17 UNL     1      -9.006  50.183 -24.537  1.00  0.00     0.209 HD
ENDBRANCH  29  30
ENDBRANCH  25  29
ENDBRANCH  24  25
ENDBRANCH  23  24
ENDBRANCH  22  23
ENDBRANCH  20  22
ENDBRANCH   1  20
BRANCH   2  32
HETATM   32  O3  UNL     1      -3.221  51.084 -27.667  1.00  0.00    -0.393 OA
HETATM   33  H20 UNL     1      -2.751  51.904 -27.903  1.00  0.00     0.210 HD
ENDBRANCH   2  32
BRANCH   3  34
HETATM   34  O4  UNL     1      -1.358  52.344 -25.496  1.00  0.00    -0.392 OA
HETATM   35  H22 UNL     1      -1.516  53.131 -24.950  1.00  0.00     0.210 HD
ENDBRANCH   3  34
BRANCH   5  36
HETATM   36  O5  UNL     1      -3.655  52.141 -22.798  1.00  0.00    -0.389 OA
HETATM   37  H24 UNL     1      -3.272  52.990 -23.075  1.00  0.00     0.210 HD
ENDBRANCH   5  36
BRANCH   7  38
HETATM   38  O6  UNL     1       0.751  51.719 -21.135  1.00  0.00    -0.395 OA
HETATM   39  H28 UNL     1       1.271  51.242 -20.466  1.00  0.00     0.210 HD
ENDBRANCH   7  38
BRANCH  10  40
HETATM   40  O7  UNL     1      -0.207  49.816 -17.149  1.00  0.00    -0.396 OA
HETATM   41  H33 UNL     1      -0.512  49.574 -16.258  1.00  0.00     0.210 HD
ENDBRANCH  10  40
TORSDOF 13
ENDMDL
MODEL 9
REMARK minimizedAffinity -8.62213039
REMARK  13 active torsions:
REMARK  status: ('A' for Active; 'I' for Inactive)
REMARK    1  A    between atoms: C2_2  and  C3_3 
REMARK    2  A    between atoms: C2_2  and  C9_11 
REMARK    3  A    between atoms: C3_3  and  C4_4 
REMARK    4  A    between atoms: C4_4  and  C5_5 
REMARK    5  A    between atoms: C5_5  and  C6_6 
REMARK    6  A    between atoms: C6_6  and  O1_8 
REMARK    7  A    between atoms: C6_6  and  C8_9 
REMARK    8  A    between atoms: C8_9  and  O2_10 
REMARK    9  A    between atoms: C10_12  and  O3_13 
REMARK   10  A    between atoms: C11_14  and  O4_15 
REMARK   11  A    between atoms: C13_17  and  O5_18 
REMARK   12  A    between atoms: C15_20  and  O6_21 
REMARK   13  A    between atoms: C18_24  and  O7_25 
ROOT
HETATM    1  C9  UNL     1      -1.902  51.122 -22.674  1.00  0.00     0.029 C 
HETATM    2  C10 UNL     1      -2.903  52.271 -22.992  1.00  0.00     0.152 C 
HETATM    3  C11 UNL     1      -4.278  51.607 -23.222  1.00  0.00     0.155 C 
HETATM    4  C12 UNL     1      -4.153  50.283 -22.461  1.00  0.00     0.060 C 
HETATM    5  C13 UNL     1      -5.273  49.214 -22.611  1.00  0.00     0.071 C 
HETATM    6  C14 UNL     1      -6.514  49.606 -21.774  1.00  0.00     0.071 C 
HETATM    7  C15 UNL     1      -6.565  48.939 -20.407  1.00  0.00     0.126 C 
HETATM    8  C16 UNL     1      -6.659  47.405 -20.508  1.00  0.00     0.025 C 
HETATM    9  C17 UNL     1      -6.234  46.760 -19.169  1.00  0.00     0.039 C 
HETATM   10  C18 UNL     1      -6.507  45.254 -19.147  1.00  0.00     0.118 C 
HETATM   11  C19 UNL     1      -6.264  44.572 -20.494  1.00  0.00     0.032 C 
HETATM   12  C20 UNL     1      -5.307  45.383 -21.365  1.00  0.00     0.012 C 
HETATM   13  C21 UNL     1      -5.871  46.799 -21.720  1.00  0.00    -0.031 C 
HETATM   14  C22 UNL     1      -6.880  46.557 -22.888  1.00  0.00     0.016 C 
HETATM   15  C23 UNL     1      -4.735  47.773 -22.243  1.00  0.00     0.029 C 
HETATM   16  C24 UNL     1      -3.495  47.880 -21.319  1.00  0.00     0.009 C 
HETATM   17  C25 UNL     1      -2.316  48.656 -21.933  1.00  0.00     0.011 C 
HETATM   18  C26 UNL     1      -2.730  49.801 -22.881  1.00  0.00    -0.029 C 
HETATM   19  C27 UNL     1      -2.650  49.305 -24.340  1.00  0.00     0.016 C 
ENDROOT
BRANCH   1  20
HETATM   20  C2  UNL     1      -0.453  51.302 -23.218  1.00  0.00    -0.011 C 
HETATM   21  C1  UNL     1       0.371  52.464 -22.651  1.00  0.00     0.010 C 
BRANCH  20  22
HETATM   22  C3  UNL     1      -0.441  51.336 -24.765  1.00  0.00     0.005 C 
BRANCH  22  23
HETATM   23  C4  UNL     1       0.627  52.225 -25.422  1.00  0.00     0.003 C 
BRANCH  23  24
HETATM   24  C5  UNL     1       0.044  53.323 -26.320  1.00  0.00     0.040 C 
BRANCH  24  25
HETATM   25  C6  UNL     1      -0.618  52.843 -27.633  1.00  0.00     0.075 C 
HETATM   26  C7  UNL     1       0.246  51.736 -28.248  1.00  0.00     0.048 C 
BRANCH  25  27
HETATM   27  O1  UNL     1      -0.640  53.931 -28.567  1.00  0.00    -0.388 OA
HETATM   28  H14 UNL     1      -1.445  54.441 -28.340  1.00  0.00     0.210 HD
ENDBRANCH  25  27
BRANCH  25  29
HETATM   29  C8  UNL     1      -2.062  52.330 -27.457  1.00  0.00     0.201 C 
BRANCH  29  30
HETATM   30  O2  UNL     1      -2.243  51.111 -28.182  1.00  0.00    -0.398 OA
HETATM   31  H17 UNL     1      -3.161  50.824 -28.021  1.00  0.00     0.209 HD
ENDBRANCH  29  30
ENDBRANCH  25  29
ENDBRANCH  24  25
ENDBRANCH  23  24
ENDBRANCH  22  23
ENDBRANCH  20  22
ENDBRANCH   1  20
BRANCH   2  32
HETATM   32  O3  UNL     1      -2.555  53.084 -24.100  1.00  0.00    -0.393 OA
HETATM   33  H20 UNL     1      -3.252  53.762 -24.167  1.00  0.00     0.210 HD
ENDBRANCH   2  32
BRANCH   3  34
HETATM   34  O4  UNL     1      -5.292  52.467 -22.722  1.00  0.00    -0.392 OA
HETATM   35  H22 UNL     1      -6.133  52.215 -23.137  1.00  0.00     0.210 HD
ENDBRANCH   3  34
BRANCH   5  36
HETATM   36  O5  UNL     1      -5.671  49.174 -23.989  1.00  0.00    -0.389 OA
HETATM   37  H24 UNL     1      -6.339  49.860 -24.152  1.00  0.00     0.210 HD
ENDBRANCH   5  36
BRANCH   7  38
HETATM   38  O6  UNL     1      -7.717  49.457 -19.736  1.00  0.00    -0.395 OA
HETATM   39  H28 UNL     1      -7.856  48.944 -18.921  1.00  0.00     0.210 HD
ENDBRANCH   7  38
BRANCH  10  40
HETATM   40  O7  UNL     1      -7.863  45.047 -18.759  1.00  0.00    -0.396 OA
HETATM   41  H33 UNL     1      -8.010  44.087 -18.708  1.00  0.00     0.210 HD
ENDBRANCH  10  40
TORSDOF 13
ENDMDL
