MODEL 1
REMARK minimizedAffinity -7.96229267
REMARK  14 active torsions:
REMARK  status: ('A' for Active; 'I' for Inactive)
REMARK    1  A    between atoms: O1_2  and  C2_3 
REMARK    2  A    between atoms: C2_3  and  C3_4 
REMARK    3  A    between atoms: C2_3  and  C24_30 
REMARK    4  A    between atoms: C3_4  and  C5_6 
REMARK    5  A    between atoms: C6_8  and  C8_10 
REMARK    6  A    between atoms: C8_10  and  C9_11 
REMARK    7  A    between atoms: C9_11  and  O3_13 
REMARK    8  A    between atoms: C9_11  and  C11_14 
REMARK    9  A    between atoms: C12_15  and  C13_16 
REMARK   10  A    between atoms: C14_17  and  C16_19 
REMARK   11  A    between atoms: C17_21  and  C18_22 
REMARK   12  A    between atoms: C18_22  and  C19_23 
REMARK   13  A    between atoms: C19_23  and  O6_25 
REMARK   14  A    between atoms: C24_30  and  O7_32 
ROOT
HETATM    1  C9  UNL     1      -0.728  52.131 -26.700  1.00  0.00     0.075 C 
HETATM    2  C10 UNL     1       0.063  53.102 -27.584  1.00  0.00     0.050 C 
ENDROOT
BRANCH   1   3
HETATM    3  C8  UNL     1      -1.404  52.824 -25.492  1.00  0.00     0.082 C 
BRANCH   3   4
HETATM    4  C6  UNL     1      -1.451  52.004 -24.215  1.00  0.00     0.087 A 
HETATM    5  C5  UNL     1      -0.202  51.941 -23.337  1.00  0.00     0.163 A 
HETATM    6  O2  UNL     1      -0.546  50.882 -24.238  1.00  0.00    -0.369 OA
HETATM    7  C7  UNL     1      -2.805  51.615 -23.693  1.00  0.00     0.049 C 
BRANCH   5   8
HETATM    8  C3  UNL     1      -0.240  51.569 -21.879  1.00  0.00     0.045 C 
HETATM    9  C4  UNL     1      -1.497  50.729 -21.612  1.00  0.00     0.015 C 
BRANCH   8  10
HETATM   10  C2  UNL     1      -0.213  52.822 -20.959  1.00  0.00     0.155 C 
BRANCH  10  11
HETATM   11  O1  UNL     1      -0.739  52.417 -19.679  1.00  0.00    -0.388 OA
HETATM   12  C1  UNL     1       0.045  51.416 -19.042  1.00  0.00     0.202 C 
ENDBRANCH  10  11
BRANCH  10  13
HETATM   13  C24 UNL     1       1.210  53.429 -20.780  1.00  0.00     0.143 C 
HETATM   14  C25 UNL     1       1.597  54.381 -21.905  1.00  0.00     0.042 C 
BRANCH  13  15
HETATM   15  O7  UNL     1       1.348  54.151 -19.553  1.00  0.00    -0.393 OA
HETATM   16  H42 UNL     1       1.282  53.495 -18.835  1.00  0.00     0.210 HD
ENDBRANCH  13  15
ENDBRANCH  10  13
ENDBRANCH   8  10
ENDBRANCH   5   8
ENDBRANCH   3   4
ENDBRANCH   1   3
BRANCH   1  17
HETATM   17  O3  UNL     1       0.207  51.160 -26.212  1.00  0.00    -0.386 OA
HETATM   18  H18 UNL     1       0.475  50.618 -26.975  1.00  0.00     0.211 HD
ENDBRANCH   1  17
BRANCH   1  19
HETATM   19  C11 UNL     1      -1.783  51.336 -27.449  1.00  0.00     0.010 C 
HETATM   20  C12 UNL     1      -2.372  50.191 -27.063  1.00  0.00    -0.001 C 
BRANCH  20  21
HETATM   21  C13 UNL     1      -3.402  49.546 -27.847  1.00  0.00     0.005 C 
HETATM   22  C14 UNL     1      -4.378  48.727 -27.402  1.00  0.00    -0.055 C 
HETATM   23  C15 UNL     1      -4.557  48.289 -25.971  1.00  0.00     0.046 C 
BRANCH  22  24
HETATM   24  C16 UNL     1      -5.441  48.189 -28.355  1.00  0.00     0.154 C 
HETATM   25  O4  UNL     1      -4.756  47.574 -29.459  1.00  0.00    -0.375 OA
HETATM   26  C17 UNL     1      -5.638  47.168 -30.513  1.00  0.00     0.132 C 
HETATM   27  C20 UNL     1      -6.596  46.097 -29.982  1.00  0.00     0.033 C 
HETATM   28  C21 UNL     1      -7.363  46.613 -28.770  1.00  0.00     0.009 C 
HETATM   29  C22 UNL     1      -6.404  47.169 -27.705  1.00  0.00     0.015 C 
HETATM   30  C23 UNL     1      -7.206  47.754 -26.543  1.00  0.00     0.012 C 
BRANCH  26  31
HETATM   31  C18 UNL     1      -4.768  46.643 -31.653  1.00  0.00     0.141 C 
BRANCH  31  32
HETATM   32  C19 UNL     1      -4.586  47.668 -32.732  1.00  0.00     0.141 C 
HETATM   33  O5  UNL     1      -4.675  47.498 -33.935  1.00  0.00    -0.650 OA
BRANCH  32  34
HETATM   34  O6  UNL     1      -4.325  48.892 -32.231  1.00  0.00    -0.776 OA
HETATM   35  H29 UNL     1      -4.243  49.465 -33.022  1.00  0.00     0.167 HD
ENDBRANCH  32  34
ENDBRANCH  31  32
ENDBRANCH  26  31
ENDBRANCH  22  24
ENDBRANCH  20  21
ENDBRANCH   1  19
TORSDOF 14
ENDMDL
MODEL 2
REMARK minimizedAffinity -7.90836477
REMARK  14 active torsions:
REMARK  status: ('A' for Active; 'I' for Inactive)
REMARK    1  A    between atoms: O1_2  and  C2_3 
REMARK    2  A    between atoms: C2_3  and  C3_4 
REMARK    3  A    between atoms: C2_3  and  C24_30 
REMARK    4  A    between atoms: C3_4  and  C5_6 
REMARK    5  A    between atoms: C6_8  and  C8_10 
REMARK    6  A    between atoms: C8_10  and  C9_11 
REMARK    7  A    between atoms: C9_11  and  O3_13 
REMARK    8  A    between atoms: C9_11  and  C11_14 
REMARK    9  A    between atoms: C12_15  and  C13_16 
REMARK   10  A    between atoms: C14_17  and  C16_19 
REMARK   11  A    between atoms: C17_21  and  C18_22 
REMARK   12  A    between atoms: C18_22  and  C19_23 
REMARK   13  A    between atoms: C19_23  and  O6_25 
REMARK   14  A    between atoms: C24_30  and  O7_32 
ROOT
HETATM    1  C9  UNL     1      -4.303  49.304 -24.309  1.00  0.00     0.075 C 
HETATM    2  C10 UNL     1      -3.136  48.555 -23.657  1.00  0.00     0.050 C 
ENDROOT
BRANCH   1   3
HETATM    3  C8  UNL     1      -3.971  50.782 -24.631  1.00  0.00     0.082 C 
BRANCH   3   4
HETATM    4  C6  UNL     1      -2.568  51.035 -25.152  1.00  0.00     0.087 A 
HETATM    5  C5  UNL     1      -1.608  51.864 -24.301  1.00  0.00     0.163 A 
HETATM    6  O2  UNL     1      -2.311  52.429 -25.413  1.00  0.00    -0.369 OA
HETATM    7  C7  UNL     1      -2.078  50.160 -26.271  1.00  0.00     0.049 C 
BRANCH   5   8
HETATM    8  C3  UNL     1      -0.112  51.810 -24.460  1.00  0.00     0.045 C 
HETATM    9  C4  UNL     1       0.545  52.310 -23.164  1.00  0.00     0.015 C 
BRANCH   8  10
HETATM   10  C2  UNL     1       0.374  52.647 -25.677  1.00  0.00     0.155 C 
BRANCH  10  11
HETATM   11  O1  UNL     1       1.042  53.810 -25.149  1.00  0.00    -0.388 OA
HETATM   12  C1  UNL     1       0.335  55.021 -25.388  1.00  0.00     0.202 C 
ENDBRANCH  10  11
BRANCH  10  13
HETATM   13  C24 UNL     1       1.336  51.865 -26.621  1.00  0.00     0.143 C 
HETATM   14  C25 UNL     1       0.963  52.000 -28.093  1.00  0.00     0.042 C 
BRANCH  13  15
HETATM   15  O7  UNL     1       2.695  52.289 -26.491  1.00  0.00    -0.393 OA
HETATM   16  H42 UNL     1       2.984  52.028 -25.597  1.00  0.00     0.210 HD
ENDBRANCH  13  15
ENDBRANCH  10  13
ENDBRANCH   8  10
ENDBRANCH   5   8
ENDBRANCH   3   4
ENDBRANCH   1   3
BRANCH   1  17
HETATM   17  O3  UNL     1      -5.391  49.268 -23.376  1.00  0.00    -0.386 OA
HETATM   18  H18 UNL     1      -5.698  48.345 -23.336  1.00  0.00     0.211 HD
ENDBRANCH   1  17
BRANCH   1  19
HETATM   19  C11 UNL     1      -4.831  48.646 -25.571  1.00  0.00     0.010 C 
HETATM   20  C12 UNL     1      -6.042  48.095 -25.762  1.00  0.00    -0.001 C 
BRANCH  20  21
HETATM   21  C13 UNL     1      -6.447  47.533 -27.032  1.00  0.00     0.005 C 
HETATM   22  C14 UNL     1      -5.838  47.686 -28.227  1.00  0.00    -0.055 C 
HETATM   23  C15 UNL     1      -4.610  48.524 -28.473  1.00  0.00     0.046 C 
BRANCH  22  24
HETATM   24  C16 UNL     1      -6.353  46.958 -29.464  1.00  0.00     0.154 C 
HETATM   25  O4  UNL     1      -5.324  47.030 -30.465  1.00  0.00    -0.375 OA
HETATM   26  C17 UNL     1      -5.742  46.524 -31.739  1.00  0.00     0.132 C 
HETATM   27  C20 UNL     1      -6.073  45.034 -31.604  1.00  0.00     0.033 C 
HETATM   28  C21 UNL     1      -7.135  44.814 -30.533  1.00  0.00     0.009 C 
HETATM   29  C22 UNL     1      -6.729  45.480 -29.208  1.00  0.00     0.015 C 
HETATM   30  C23 UNL     1      -7.850  45.313 -28.182  1.00  0.00     0.012 C 
BRANCH  26  31
HETATM   31  C18 UNL     1      -4.597  46.769 -32.720  1.00  0.00     0.141 C 
BRANCH  31  32
HETATM   32  C19 UNL     1      -5.007  47.678 -33.839  1.00  0.00     0.141 C 
HETATM   33  O5  UNL     1      -4.343  48.559 -34.356  1.00  0.00    -0.650 OA
BRANCH  32  34
HETATM   34  O6  UNL     1      -6.251  47.407 -34.284  1.00  0.00    -0.776 OA
HETATM   35  H29 UNL     1      -6.393  48.048 -35.012  1.00  0.00     0.167 HD
ENDBRANCH  32  34
ENDBRANCH  31  32
ENDBRANCH  26  31
ENDBRANCH  22  24
ENDBRANCH  20  21
ENDBRANCH   1  19
TORSDOF 14
ENDMDL
MODEL 3
REMARK minimizedAffinity -7.88180304
REMARK  14 active torsions:
REMARK  status: ('A' for Active; 'I' for Inactive)
REMARK    1  A    between atoms: O1_2  and  C2_3 
REMARK    2  A    between atoms: C2_3  and  C3_4 
REMARK    3  A    between atoms: C2_3  and  C24_30 
REMARK    4  A    between atoms: C3_4  and  C5_6 
REMARK    5  A    between atoms: C6_8  and  C8_10 
REMARK    6  A    between atoms: C8_10  and  C9_11 
REMARK    7  A    between atoms: C9_11  and  O3_13 
REMARK    8  A    between atoms: C9_11  and  C11_14 
REMARK    9  A    between atoms: C12_15  and  C13_16 
REMARK   10  A    between atoms: C14_17  and  C16_19 
REMARK   11  A    between atoms: C17_21  and  C18_22 
REMARK   12  A    between atoms: C18_22  and  C19_23 
REMARK   13  A    between atoms: C19_23  and  O6_25 
REMARK   14  A    between atoms: C24_30  and  O7_32 
ROOT
HETATM    1  C9  UNL     1      -3.597  49.194 -24.716  1.00  0.00     0.075 C 
HETATM    2  C10 UNL     1      -4.891  48.372 -24.715  1.00  0.00     0.050 C 
ENDROOT
BRANCH   1   3
HETATM    3  C8  UNL     1      -3.833  50.696 -25.008  1.00  0.00     0.082 C 
BRANCH   3   4
HETATM    4  C6  UNL     1      -2.910  51.309 -26.045  1.00  0.00     0.087 A 
HETATM    5  C5  UNL     1      -1.597  51.937 -25.577  1.00  0.00     0.163 A 
HETATM    6  O2  UNL     1      -2.750  52.733 -25.878  1.00  0.00    -0.369 OA
HETATM    7  C7  UNL     1      -3.142  50.940 -27.483  1.00  0.00     0.049 C 
BRANCH   5   8
HETATM    8  C3  UNL     1      -0.420  52.158 -26.490  1.00  0.00     0.045 C 
HETATM    9  C4  UNL     1       0.474  50.909 -26.460  1.00  0.00     0.015 C 
BRANCH   8  10
HETATM   10  C2  UNL     1       0.393  53.422 -26.094  1.00  0.00     0.155 C 
BRANCH  10  11
HETATM   11  O1  UNL     1      -0.137  54.522 -26.861  1.00  0.00    -0.388 OA
HETATM   12  C1  UNL     1      -0.531  54.152 -28.176  1.00  0.00     0.202 C 
ENDBRANCH  10  11
BRANCH  10  13
HETATM   13  C24 UNL     1       0.322  53.754 -24.573  1.00  0.00     0.143 C 
HETATM   14  C25 UNL     1       0.680  52.565 -23.689  1.00  0.00     0.042 C 
BRANCH  13  15
HETATM   15  O7  UNL     1       1.190  54.828 -24.205  1.00  0.00    -0.393 OA
HETATM   16  H42 UNL     1       0.839  55.630 -24.636  1.00  0.00     0.210 HD
ENDBRANCH  13  15
ENDBRANCH  10  13
ENDBRANCH   8  10
ENDBRANCH   5   8
ENDBRANCH   3   4
ENDBRANCH   1   3
BRANCH   1  17
HETATM   17  O3  UNL     1      -2.762  48.648 -25.746  1.00  0.00    -0.386 OA
HETATM   18  H18 UNL     1      -2.480  47.767 -25.444  1.00  0.00     0.211 HD
ENDBRANCH   1  17
BRANCH   1  19
HETATM   19  C11 UNL     1      -2.790  49.075 -23.436  1.00  0.00     0.010 C 
HETATM   20  C12 UNL     1      -1.997  50.006 -22.879  1.00  0.00    -0.001 C 
BRANCH  20  21
HETATM   21  C13 UNL     1      -1.309  49.789 -21.625  1.00  0.00     0.005 C 
HETATM   22  C14 UNL     1      -1.639  50.285 -20.413  1.00  0.00    -0.055 C 
HETATM   23  C15 UNL     1      -2.795  51.212 -20.141  1.00  0.00     0.046 C 
BRANCH  22  24
HETATM   24  C16 UNL     1      -0.848  49.894 -19.169  1.00  0.00     0.154 C 
HETATM   25  O4  UNL     1      -0.349  51.106 -18.579  1.00  0.00    -0.375 OA
HETATM   26  C17 UNL     1       0.551  50.872 -17.488  1.00  0.00     0.132 C 
HETATM   27  C20 UNL     1      -0.199  50.151 -16.363  1.00  0.00     0.033 C 
HETATM   28  C21 UNL     1      -0.819  48.855 -16.873  1.00  0.00     0.009 C 
HETATM   29  C22 UNL     1      -1.674  49.107 -18.125  1.00  0.00     0.015 C 
HETATM   30  C23 UNL     1      -2.211  47.779 -18.659  1.00  0.00     0.012 C 
BRANCH  26  31
HETATM   31  C18 UNL     1       1.083  52.232 -17.041  1.00  0.00     0.141 C 
BRANCH  31  32
HETATM   32  C19 UNL     1       1.687  52.171 -15.670  1.00  0.00     0.141 C 
HETATM   33  O5  UNL     1       2.722  51.618 -15.344  1.00  0.00    -0.650 OA
BRANCH  32  34
HETATM   34  O6  UNL     1       0.957  52.850 -14.762  1.00  0.00    -0.776 OA
HETATM   35  H29 UNL     1       1.456  52.748 -13.926  1.00  0.00     0.167 HD
ENDBRANCH  32  34
ENDBRANCH  31  32
ENDBRANCH  26  31
ENDBRANCH  22  24
ENDBRANCH  20  21
ENDBRANCH   1  19
TORSDOF 14
ENDMDL
MODEL 4
REMARK minimizedAffinity -7.84824371
REMARK  14 active torsions:
REMARK  status: ('A' for Active; 'I' for Inactive)
REMARK    1  A    between atoms: O1_2  and  C2_3 
REMARK    2  A    between atoms: C2_3  and  C3_4 
REMARK    3  A    between atoms: C2_3  and  C24_30 
REMARK    4  A    between atoms: C3_4  and  C5_6 
REMARK    5  A    between atoms: C6_8  and  C8_10 
REMARK    6  A    between atoms: C8_10  and  C9_11 
REMARK    7  A    between atoms: C9_11  and  O3_13 
REMARK    8  A    between atoms: C9_11  and  C11_14 
REMARK    9  A    between atoms: C12_15  and  C13_16 
REMARK   10  A    between atoms: C14_17  and  C16_19 
REMARK   11  A    between atoms: C17_21  and  C18_22 
REMARK   12  A    between atoms: C18_22  and  C19_23 
REMARK   13  A    between atoms: C19_23  and  O6_25 
REMARK   14  A    between atoms: C24_30  and  O7_32 
ROOT
HETATM    1  C9  UNL     1      -0.472  52.023 -26.474  1.00  0.00     0.075 C 
HETATM    2  C10 UNL     1       0.923  52.305 -27.044  1.00  0.00     0.050 C 
ENDROOT
BRANCH   1   3
HETATM    3  C8  UNL     1      -1.053  50.665 -26.939  1.00  0.00     0.082 C 
BRANCH   3   4
HETATM    4  C6  UNL     1      -2.568  50.568 -26.927  1.00  0.00     0.087 A 
HETATM    5  C5  UNL     1      -3.225  49.286 -27.437  1.00  0.00     0.163 A 
HETATM    6  O2  UNL     1      -3.132  50.462 -28.250  1.00  0.00    -0.369 OA
HETATM    7  C7  UNL     1      -3.317  51.558 -26.080  1.00  0.00     0.049 C 
BRANCH   5   8
HETATM    8  C3  UNL     1      -4.627  48.879 -27.071  1.00  0.00     0.045 C 
HETATM    9  C4  UNL     1      -4.616  48.270 -25.661  1.00  0.00     0.015 C 
BRANCH   8  10
HETATM   10  C2  UNL     1      -5.227  47.875 -28.096  1.00  0.00     0.155 C 
BRANCH  10  11
HETATM   11  O1  UNL     1      -6.657  48.055 -28.075  1.00  0.00    -0.388 OA
HETATM   12  C1  UNL     1      -7.359  46.923 -27.578  1.00  0.00     0.202 C 
ENDBRANCH  10  11
BRANCH  10  13
HETATM   13  C24 UNL     1      -4.689  48.073 -29.544  1.00  0.00     0.143 C 
HETATM   14  C25 UNL     1      -5.239  47.047 -30.528  1.00  0.00     0.042 C 
BRANCH  13  15
HETATM   15  O7  UNL     1      -4.994  49.366 -30.071  1.00  0.00    -0.393 OA
HETATM   16  H42 UNL     1      -4.485  50.009 -29.543  1.00  0.00     0.210 HD
ENDBRANCH  13  15
ENDBRANCH  10  13
ENDBRANCH   8  10
ENDBRANCH   5   8
ENDBRANCH   3   4
ENDBRANCH   1   3
BRANCH   1  17
HETATM   17  O3  UNL     1      -1.329  53.075 -26.938  1.00  0.00    -0.386 OA
HETATM   18  H18 UNL     1      -1.050  53.888 -26.481  1.00  0.00     0.211 HD
ENDBRANCH   1  17
BRANCH   1  19
HETATM   19  C11 UNL     1      -0.543  52.082 -24.959  1.00  0.00     0.010 C 
HETATM   20  C12 UNL     1       0.425  52.462 -24.108  1.00  0.00    -0.001 C 
BRANCH  20  21
HETATM   21  C13 UNL     1       0.222  52.518 -22.677  1.00  0.00     0.005 C 
HETATM   22  C14 UNL     1      -0.490  51.661 -21.916  1.00  0.00    -0.055 C 
HETATM   23  C15 UNL     1      -1.259  50.473 -22.436  1.00  0.00     0.046 C 
BRANCH  22  24
HETATM   24  C16 UNL     1      -0.542  51.820 -20.400  1.00  0.00     0.154 C 
HETATM   25  O4  UNL     1      -0.623  50.502 -19.832  1.00  0.00    -0.375 OA
HETATM   26  C17 UNL     1      -0.841  50.512 -18.415  1.00  0.00     0.132 C 
HETATM   27  C20 UNL     1       0.355  51.178 -17.727  1.00  0.00     0.033 C 
HETATM   28  C21 UNL     1       0.577  52.583 -18.275  1.00  0.00     0.009 C 
HETATM   29  C22 UNL     1       0.675  52.569 -19.809  1.00  0.00     0.015 C 
HETATM   30  C23 UNL     1       0.813  53.999 -20.331  1.00  0.00     0.012 C 
BRANCH  26  31
HETATM   31  C18 UNL     1      -1.019  49.061 -17.976  1.00  0.00     0.141 C 
BRANCH  31  32
HETATM   32  C19 UNL     1      -1.864  48.286 -18.942  1.00  0.00     0.141 C 
HETATM   33  O5  UNL     1      -3.079  48.187 -18.946  1.00  0.00    -0.650 OA
BRANCH  32  34
HETATM   34  O6  UNL     1      -1.125  47.685 -19.896  1.00  0.00    -0.776 OA
HETATM   35  H29 UNL     1      -1.783  47.232 -20.463  1.00  0.00     0.167 HD
ENDBRANCH  32  34
ENDBRANCH  31  32
ENDBRANCH  26  31
ENDBRANCH  22  24
ENDBRANCH  20  21
ENDBRANCH   1  19
TORSDOF 14
ENDMDL
MODEL 5
REMARK minimizedAffinity -7.83299351
REMARK  14 active torsions:
REMARK  status: ('A' for Active; 'I' for Inactive)
REMARK    1  A    between atoms: O1_2  and  C2_3 
REMARK    2  A    between atoms: C2_3  and  C3_4 
REMARK    3  A    between atoms: C2_3  and  C24_30 
REMARK    4  A    between atoms: C3_4  and  C5_6 
REMARK    5  A    between atoms: C6_8  and  C8_10 
REMARK    6  A    between atoms: C8_10  and  C9_11 
REMARK    7  A    between atoms: C9_11  and  O3_13 
REMARK    8  A    between atoms: C9_11  and  C11_14 
REMARK    9  A    between atoms: C12_15  and  C13_16 
REMARK   10  A    between atoms: C14_17  and  C16_19 
REMARK   11  A    between atoms: C17_21  and  C18_22 
REMARK   12  A    between atoms: C18_22  and  C19_23 
REMARK   13  A    between atoms: C19_23  and  O6_25 
REMARK   14  A    between atoms: C24_30  and  O7_32 
ROOT
HETATM    1  C9  UNL     1      -4.930  48.706 -24.426  1.00  0.00     0.075 C 
HETATM    2  C10 UNL     1      -5.312  47.945 -23.151  1.00  0.00     0.050 C 
ENDROOT
BRANCH   1   3
HETATM    3  C8  UNL     1      -3.401  48.883 -24.591  1.00  0.00     0.082 C 
BRANCH   3   4
HETATM    4  C6  UNL     1      -2.972  49.850 -25.680  1.00  0.00     0.087 A 
HETATM    5  C5  UNL     1      -2.364  51.191 -25.272  1.00  0.00     0.163 A 
HETATM    6  O2  UNL     1      -3.735  51.074 -25.672  1.00  0.00    -0.369 OA
HETATM    7  C7  UNL     1      -2.817  49.301 -27.070  1.00  0.00     0.049 C 
BRANCH   5   8
HETATM    8  C3  UNL     1      -1.505  52.018 -26.191  1.00  0.00     0.045 C 
HETATM    9  C4  UNL     1      -2.332  52.413 -27.424  1.00  0.00     0.015 C 
BRANCH   8  10
HETATM   10  C2  UNL     1      -0.215  51.262 -26.617  1.00  0.00     0.155 C 
BRANCH  10  11
HETATM   11  O1  UNL     1       0.059  51.632 -27.984  1.00  0.00    -0.388 OA
HETATM   12  C1  UNL     1       0.197  53.035 -28.169  1.00  0.00     0.202 C 
ENDBRANCH  10  11
BRANCH  10  13
HETATM   13  C24 UNL     1       1.018  51.587 -25.722  1.00  0.00     0.143 C 
HETATM   14  C25 UNL     1       2.345  51.280 -26.405  1.00  0.00     0.042 C 
BRANCH  13  15
HETATM   15  O7  UNL     1       1.058  52.960 -25.322  1.00  0.00    -0.393 OA
HETATM   16  H42 UNL     1       0.296  53.099 -24.730  1.00  0.00     0.210 HD
ENDBRANCH  13  15
ENDBRANCH  10  13
ENDBRANCH   8  10
ENDBRANCH   5   8
ENDBRANCH   3   4
ENDBRANCH   1   3
BRANCH   1  17
HETATM   17  O3  UNL     1      -5.537  50.002 -24.332  1.00  0.00    -0.386 OA
HETATM   18  H18 UNL     1      -6.498  49.870 -24.416  1.00  0.00     0.211 HD
ENDBRANCH   1  17
BRANCH   1  19
HETATM   19  C11 UNL     1      -5.483  48.092 -25.699  1.00  0.00     0.010 C 
HETATM   20  C12 UNL     1      -6.759  47.762 -25.961  1.00  0.00    -0.001 C 
BRANCH  20  21
HETATM   21  C13 UNL     1      -7.174  47.221 -27.238  1.00  0.00     0.005 C 
HETATM   22  C14 UNL     1      -6.530  47.325 -28.419  1.00  0.00    -0.055 C 
HETATM   23  C15 UNL     1      -5.243  48.078 -28.642  1.00  0.00     0.046 C 
BRANCH  22  24
HETATM   24  C16 UNL     1      -7.066  46.626 -29.664  1.00  0.00     0.154 C 
HETATM   25  O4  UNL     1      -6.427  47.226 -30.803  1.00  0.00    -0.375 OA
HETATM   26  C17 UNL     1      -6.961  46.772 -32.053  1.00  0.00     0.132 C 
HETATM   27  C20 UNL     1      -6.709  45.266 -32.191  1.00  0.00     0.033 C 
HETATM   28  C21 UNL     1      -7.308  44.510 -31.011  1.00  0.00     0.009 C 
HETATM   29  C22 UNL     1      -6.826  45.099 -29.675  1.00  0.00     0.015 C 
HETATM   30  C23 UNL     1      -7.509  44.374 -28.515  1.00  0.00     0.012 C 
BRANCH  26  31
HETATM   31  C18 UNL     1      -6.271  47.571 -33.156  1.00  0.00     0.141 C 
BRANCH  31  32
HETATM   32  C19 UNL     1      -4.792  47.662 -32.935  1.00  0.00     0.141 C 
HETATM   33  O5  UNL     1      -3.922  46.997 -33.469  1.00  0.00    -0.650 OA
BRANCH  32  34
HETATM   34  O6  UNL     1      -4.468  48.631 -32.054  1.00  0.00    -0.776 OA
HETATM   35  H29 UNL     1      -3.490  48.600 -32.008  1.00  0.00     0.167 HD
ENDBRANCH  32  34
ENDBRANCH  31  32
ENDBRANCH  26  31
ENDBRANCH  22  24
ENDBRANCH  20  21
ENDBRANCH   1  19
TORSDOF 14
ENDMDL
MODEL 6
REMARK minimizedAffinity -7.75056314
REMARK  14 active torsions:
REMARK  status: ('A' for Active; 'I' for Inactive)
REMARK    1  A    between atoms: O1_2  and  C2_3 
REMARK    2  A    between atoms: C2_3  and  C3_4 
REMARK    3  A    between atoms: C2_3  and  C24_30 
REMARK    4  A    between atoms: C3_4  and  C5_6 
REMARK    5  A    between atoms: C6_8  and  C8_10 
REMARK    6  A    between atoms: C8_10  and  C9_11 
REMARK    7  A    between atoms: C9_11  and  O3_13 
REMARK    8  A    between atoms: C9_11  and  C11_14 
REMARK    9  A    between atoms: C12_15  and  C13_16 
REMARK   10  A    between atoms: C14_17  and  C16_19 
REMARK   11  A    between atoms: C17_21  and  C18_22 
REMARK   12  A    between atoms: C18_22  and  C19_23 
REMARK   13  A    between atoms: C19_23  and  O6_25 
REMARK   14  A    between atoms: C24_30  and  O7_32 
ROOT
HETATM    1  C9  UNL     1      -6.592  47.648 -28.728  1.00  0.00     0.075 C 
HETATM    2  C10 UNL     1      -6.107  47.527 -30.177  1.00  0.00     0.050 C 
ENDROOT
BRANCH   1   3
HETATM    3  C8  UNL     1      -7.298  46.368 -28.216  1.00  0.00     0.082 C 
BRANCH   3   4
HETATM    4  C6  UNL     1      -8.234  46.569 -27.038  1.00  0.00     0.087 A 
HETATM    5  C5  UNL     1      -9.707  46.195 -27.200  1.00  0.00     0.163 A 
HETATM    6  O2  UNL     1      -9.257  47.551 -27.298  1.00  0.00    -0.369 OA
HETATM    7  C7  UNL     1      -7.610  46.760 -25.684  1.00  0.00     0.049 C 
BRANCH   5   8
HETATM    8  C3  UNL     1     -10.616  45.912 -26.033  1.00  0.00     0.045 C 
HETATM    9  C4  UNL     1     -10.732  44.392 -25.849  1.00  0.00     0.015 C 
BRANCH   8  10
HETATM   10  C2  UNL     1     -12.022  46.549 -26.225  1.00  0.00     0.155 C 
BRANCH  10  11
HETATM   11  O1  UNL     1     -12.240  47.434 -25.109  1.00  0.00    -0.388 OA
HETATM   12  C1  UNL     1     -12.748  46.772 -23.958  1.00  0.00     0.202 C 
ENDBRANCH  10  11
BRANCH  10  13
HETATM   13  C24 UNL     1     -12.169  47.335 -27.562  1.00  0.00     0.143 C 
HETATM   14  C25 UNL     1     -13.334  46.846 -28.414  1.00  0.00     0.042 C 
BRANCH  13  15
HETATM   15  O7  UNL     1     -12.357  48.737 -27.356  1.00  0.00    -0.393 OA
HETATM   16  H42 UNL     1     -11.527  49.077 -26.975  1.00  0.00     0.210 HD
ENDBRANCH  13  15
ENDBRANCH  10  13
ENDBRANCH   8  10
ENDBRANCH   5   8
ENDBRANCH   3   4
ENDBRANCH   1   3
BRANCH   1  17
HETATM   17  O3  UNL     1      -7.527  48.735 -28.693  1.00  0.00    -0.386 OA
HETATM   18  H18 UNL     1      -7.016  49.551 -28.838  1.00  0.00     0.211 HD
ENDBRANCH   1  17
BRANCH   1  19
HETATM   19  C11 UNL     1      -5.501  48.022 -27.741  1.00  0.00     0.010 C 
HETATM   20  C12 UNL     1      -4.192  48.194 -27.994  1.00  0.00    -0.001 C 
BRANCH  20  21
HETATM   21  C13 UNL     1      -3.251  48.596 -26.972  1.00  0.00     0.005 C 
HETATM   22  C14 UNL     1      -2.736  49.827 -26.772  1.00  0.00    -0.055 C 
HETATM   23  C15 UNL     1      -3.024  51.037 -27.624  1.00  0.00     0.046 C 
BRANCH  22  24
HETATM   24  C16 UNL     1      -1.809  50.104 -25.592  1.00  0.00     0.154 C 
HETATM   25  O4  UNL     1      -1.244  51.411 -25.787  1.00  0.00    -0.375 OA
HETATM   26  C17 UNL     1      -0.226  51.732 -24.831  1.00  0.00     0.132 C 
HETATM   27  C20 UNL     1      -0.844  51.760 -23.428  1.00  0.00     0.033 C 
HETATM   28  C21 UNL     1      -1.519  50.431 -23.111  1.00  0.00     0.009 C 
HETATM   29  C22 UNL     1      -2.511  50.038 -24.217  1.00  0.00     0.015 C 
HETATM   30  C23 UNL     1      -3.107  48.664 -23.911  1.00  0.00     0.012 C 
BRANCH  26  31
HETATM   31  C18 UNL     1       0.355  53.088 -25.227  1.00  0.00     0.141 C 
BRANCH  31  32
HETATM   32  C19 UNL     1       0.177  53.363 -26.690  1.00  0.00     0.141 C 
HETATM   33  O5  UNL     1      -0.431  54.288 -27.199  1.00  0.00    -0.650 OA
BRANCH  32  34
HETATM   34  O6  UNL     1       0.814  52.456 -27.459  1.00  0.00    -0.776 OA
HETATM   35  H29 UNL     1       0.637  52.750 -28.377  1.00  0.00     0.167 HD
ENDBRANCH  32  34
ENDBRANCH  31  32
ENDBRANCH  26  31
ENDBRANCH  22  24
ENDBRANCH  20  21
ENDBRANCH   1  19
TORSDOF 14
ENDMDL
MODEL 7
REMARK minimizedAffinity -7.74091244
REMARK  14 active torsions:
REMARK  status: ('A' for Active; 'I' for Inactive)
REMARK    1  A    between atoms: O1_2  and  C2_3 
REMARK    2  A    between atoms: C2_3  and  C3_4 
REMARK    3  A    between atoms: C2_3  and  C24_30 
REMARK    4  A    between atoms: C3_4  and  C5_6 
REMARK    5  A    between atoms: C6_8  and  C8_10 
REMARK    6  A    between atoms: C8_10  and  C9_11 
REMARK    7  A    between atoms: C9_11  and  O3_13 
REMARK    8  A    between atoms: C9_11  and  C11_14 
REMARK    9  A    between atoms: C12_15  and  C13_16 
REMARK   10  A    between atoms: C14_17  and  C16_19 
REMARK   11  A    between atoms: C17_21  and  C18_22 
REMARK   12  A    between atoms: C18_22  and  C19_23 
REMARK   13  A    between atoms: C19_23  and  O6_25 
REMARK   14  A    between atoms: C24_30  and  O7_32 
ROOT
HETATM    1  C9  UNL     1      -6.262  47.746 -29.909  1.00  0.00     0.075 C 
HETATM    2  C10 UNL     1      -5.860  46.627 -30.875  1.00  0.00     0.050 C 
ENDROOT
BRANCH   1   3
HETATM    3  C8  UNL     1      -7.258  47.278 -28.819  1.00  0.00     0.082 C 
BRANCH   3   4
HETATM    4  C6  UNL     1      -8.703  47.157 -29.268  1.00  0.00     0.087 A 
HETATM    5  C5  UNL     1      -9.495  45.915 -28.863  1.00  0.00     0.163 A 
HETATM    6  O2  UNL     1      -8.919  46.050 -30.167  1.00  0.00    -0.369 OA
HETATM    7  C7  UNL     1      -9.383  48.407 -29.752  1.00  0.00     0.049 C 
BRANCH   5   8
HETATM    8  C3  UNL     1     -11.000  45.872 -28.838  1.00  0.00     0.045 C 
HETATM    9  C4  UNL     1     -11.541  46.658 -30.042  1.00  0.00     0.015 C 
BRANCH   8  10
HETATM   10  C2  UNL     1     -11.576  46.440 -27.510  1.00  0.00     0.155 C 
BRANCH  10  11
HETATM   11  O1  UNL     1     -10.495  47.113 -26.835  1.00  0.00    -0.388 OA
HETATM   12  C1  UNL     1     -10.385  46.761 -25.461  1.00  0.00     0.202 C 
ENDBRANCH  10  11
BRANCH  10  13
HETATM   13  C24 UNL     1     -12.764  47.425 -27.722  1.00  0.00     0.143 C 
HETATM   14  C25 UNL     1     -14.010  47.030 -26.938  1.00  0.00     0.042 C 
BRANCH  13  15
HETATM   15  O7  UNL     1     -12.438  48.765 -27.346  1.00  0.00    -0.393 OA
HETATM   16  H42 UNL     1     -11.763  49.075 -27.978  1.00  0.00     0.210 HD
ENDBRANCH  13  15
ENDBRANCH  10  13
ENDBRANCH   8  10
ENDBRANCH   5   8
ENDBRANCH   3   4
ENDBRANCH   1   3
BRANCH   1  17
HETATM   17  O3  UNL     1      -6.887  48.769 -30.696  1.00  0.00    -0.386 OA
HETATM   18  H18 UNL     1      -6.189  49.170 -31.243  1.00  0.00     0.211 HD
ENDBRANCH   1  17
BRANCH   1  19
HETATM   19  C11 UNL     1      -5.087  48.423 -29.226  1.00  0.00     0.010 C 
HETATM   20  C12 UNL     1      -4.634  48.215 -27.978  1.00  0.00    -0.001 C 
BRANCH  20  21
HETATM   21  C13 UNL     1      -3.470  48.894 -27.452  1.00  0.00     0.005 C 
HETATM   22  C14 UNL     1      -3.225  49.221 -26.166  1.00  0.00    -0.055 C 
HETATM   23  C15 UNL     1      -4.162  48.968 -25.013  1.00  0.00     0.046 C 
BRANCH  22  24
HETATM   24  C16 UNL     1      -1.904  49.871 -25.764  1.00  0.00     0.154 C 
HETATM   25  O4  UNL     1      -1.558  50.813 -26.793  1.00  0.00    -0.375 OA
HETATM   26  C17 UNL     1      -0.253  51.379 -26.622  1.00  0.00     0.132 C 
HETATM   27  C20 UNL     1      -0.218  52.176 -25.313  1.00  0.00     0.033 C 
HETATM   28  C21 UNL     1      -0.611  51.292 -24.135  1.00  0.00     0.009 C 
HETATM   29  C22 UNL     1      -1.951  50.587 -24.395  1.00  0.00     0.015 C 
HETATM   30  C23 UNL     1      -2.274  49.647 -23.234  1.00  0.00     0.012 C 
BRANCH  26  31
HETATM   31  C18 UNL     1       0.019  52.263 -27.837  1.00  0.00     0.141 C 
BRANCH  31  32
HETATM   32  C19 UNL     1      -0.746  53.551 -27.771  1.00  0.00     0.141 C 
HETATM   33  O5  UNL     1      -0.300  54.664 -27.555  1.00  0.00    -0.650 OA
BRANCH  32  34
HETATM   34  O6  UNL     1      -2.060  53.375 -28.015  1.00  0.00    -0.776 OA
HETATM   35  H29 UNL     1      -2.440  54.276 -27.959  1.00  0.00     0.167 HD
ENDBRANCH  32  34
ENDBRANCH  31  32
ENDBRANCH  26  31
ENDBRANCH  22  24
ENDBRANCH  20  21
ENDBRANCH   1  19
TORSDOF 14
ENDMDL
MODEL 8
REMARK minimizedAffinity -7.70092058
REMARK  14 active torsions:
REMARK  status: ('A' for Active; 'I' for Inactive)
REMARK    1  A    between atoms: O1_2  and  C2_3 
REMARK    2  A    between atoms: C2_3  and  C3_4 
REMARK    3  A    between atoms: C2_3  and  C24_30 
REMARK    4  A    between atoms: C3_4  and  C5_6 
REMARK    5  A    between atoms: C6_8  and  C8_10 
REMARK    6  A    between atoms: C8_10  and  C9_11 
REMARK    7  A    between atoms: C9_11  and  O3_13 
REMARK    8  A    between atoms: C9_11  and  C11_14 
REMARK    9  A    between atoms: C12_15  and  C13_16 
REMARK   10  A    between atoms: C14_17  and  C16_19 
REMARK   11  A    between atoms: C17_21  and  C18_22 
REMARK   12  A    between atoms: C18_22  and  C19_23 
REMARK   13  A    between atoms: C19_23  and  O6_25 
REMARK   14  A    between atoms: C24_30  and  O7_32 
ROOT
HETATM    1  C9  UNL     1      -3.993  49.399 -24.127  1.00  0.00     0.075 C 
HETATM    2  C10 UNL     1      -2.837  48.449 -23.793  1.00  0.00     0.050 C 
ENDROOT
BRANCH   1   3
HETATM    3  C8  UNL     1      -3.689  50.873 -23.763  1.00  0.00     0.082 C 
BRANCH   3   4
HETATM    4  C6  UNL     1      -2.299  51.134 -23.214  1.00  0.00     0.087 A 
HETATM    5  C5  UNL     1      -2.053  50.939 -21.718  1.00  0.00     0.163 A 
HETATM    6  O2  UNL     1      -2.262  52.238 -22.286  1.00  0.00    -0.369 OA
HETATM    7  C7  UNL     1      -1.167  51.200 -24.200  1.00  0.00     0.049 C 
BRANCH   5   8
HETATM    8  C3  UNL     1      -0.684  50.718 -21.133  1.00  0.00     0.045 C 
HETATM    9  C4  UNL     1      -0.510  49.224 -20.822  1.00  0.00     0.015 C 
BRANCH   8  10
HETATM   10  C2  UNL     1      -0.454  51.572 -19.854  1.00  0.00     0.155 C 
BRANCH  10  11
HETATM   11  O1  UNL     1      -0.161  50.655 -18.781  1.00  0.00    -0.388 OA
HETATM   12  C1  UNL     1      -0.809  50.992 -17.561  1.00  0.00     0.202 C 
ENDBRANCH  10  11
BRANCH  10  13
HETATM   13  C24 UNL     1       0.702  52.606 -19.998  1.00  0.00     0.143 C 
HETATM   14  C25 UNL     1       1.113  52.840 -21.447  1.00  0.00     0.042 C 
BRANCH  13  15
HETATM   15  O7  UNL     1       0.370  53.882 -19.444  1.00  0.00    -0.393 OA
HETATM   16  H42 UNL     1       0.290  53.755 -18.481  1.00  0.00     0.210 HD
ENDBRANCH  13  15
ENDBRANCH  10  13
ENDBRANCH   8  10
ENDBRANCH   5   8
ENDBRANCH   3   4
ENDBRANCH   1   3
BRANCH   1  17
HETATM   17  O3  UNL     1      -5.124  48.959 -23.364  1.00  0.00    -0.386 OA
HETATM   18  H18 UNL     1      -5.405  48.107 -23.742  1.00  0.00     0.211 HD
ENDBRANCH   1  17
BRANCH   1  19
HETATM   19  C11 UNL     1      -4.438  49.344 -25.577  1.00  0.00     0.010 C 
HETATM   20  C12 UNL     1      -4.065  48.456 -26.515  1.00  0.00    -0.001 C 
BRANCH  20  21
HETATM   21  C13 UNL     1      -4.595  48.480 -27.861  1.00  0.00     0.005 C 
HETATM   22  C14 UNL     1      -5.745  47.924 -28.298  1.00  0.00    -0.055 C 
HETATM   23  C15 UNL     1      -6.696  47.120 -27.450  1.00  0.00     0.046 C 
BRANCH  22  24
HETATM   24  C16 UNL     1      -6.201  48.109 -29.742  1.00  0.00     0.154 C 
HETATM   25  O4  UNL     1      -5.262  47.417 -30.581  1.00  0.00    -0.375 OA
HETATM   26  C17 UNL     1      -5.481  47.646 -31.979  1.00  0.00     0.132 C 
HETATM   27  C20 UNL     1      -6.857  47.095 -32.369  1.00  0.00     0.033 C 
HETATM   28  C21 UNL     1      -7.951  47.725 -31.514  1.00  0.00     0.009 C 
HETATM   29  C22 UNL     1      -7.630  47.587 -30.017  1.00  0.00     0.015 C 
HETATM   30  C23 UNL     1      -8.701  48.301 -29.191  1.00  0.00     0.012 C 
BRANCH  26  31
HETATM   31  C18 UNL     1      -4.352  46.949 -32.734  1.00  0.00     0.141 C 
BRANCH  31  32
HETATM   32  C19 UNL     1      -3.720  47.853 -33.749  1.00  0.00     0.141 C 
HETATM   33  O5  UNL     1      -4.274  48.441 -34.662  1.00  0.00    -0.650 OA
BRANCH  32  34
HETATM   34  O6  UNL     1      -2.395  48.003 -33.543  1.00  0.00    -0.776 OA
HETATM   35  H29 UNL     1      -2.108  48.617 -34.250  1.00  0.00     0.167 HD
ENDBRANCH  32  34
ENDBRANCH  31  32
ENDBRANCH  26  31
ENDBRANCH  22  24
ENDBRANCH  20  21
ENDBRANCH   1  19
TORSDOF 14
ENDMDL
MODEL 9
REMARK minimizedAffinity -7.68431282
REMARK  14 active torsions:
REMARK  status: ('A' for Active; 'I' for Inactive)
REMARK    1  A    between atoms: O1_2  and  C2_3 
REMARK    2  A    between atoms: C2_3  and  C3_4 
REMARK    3  A    between atoms: C2_3  and  C24_30 
REMARK    4  A    between atoms: C3_4  and  C5_6 
REMARK    5  A    between atoms: C6_8  and  C8_10 
REMARK    6  A    between atoms: C8_10  and  C9_11 
REMARK    7  A    between atoms: C9_11  and  O3_13 
REMARK    8  A    between atoms: C9_11  and  C11_14 
REMARK    9  A    between atoms: C12_15  and  C13_16 
REMARK   10  A    between atoms: C14_17  and  C16_19 
REMARK   11  A    between atoms: C17_21  and  C18_22 
REMARK   12  A    between atoms: C18_22  and  C19_23 
REMARK   13  A    between atoms: C19_23  and  O6_25 
REMARK   14  A    between atoms: C24_30  and  O7_32 
ROOT
HETATM    1  C9  UNL     1      -4.519  48.927 -25.008  1.00  0.00     0.075 C 
HETATM    2  C10 UNL     1      -5.221  48.474 -23.722  1.00  0.00     0.050 C 
ENDROOT
BRANCH   1   3
HETATM    3  C8  UNL     1      -2.977  48.811 -24.929  1.00  0.00     0.082 C 
BRANCH   3   4
HETATM    4  C6  UNL     1      -2.207  49.986 -25.504  1.00  0.00     0.087 A 
HETATM    5  C5  UNL     1      -1.335  50.820 -24.567  1.00  0.00     0.163 A 
HETATM    6  O2  UNL     1      -2.639  51.254 -24.969  1.00  0.00    -0.369 OA
HETATM    7  C7  UNL     1      -2.042  50.041 -26.997  1.00  0.00     0.049 C 
BRANCH   5   8
HETATM    8  C3  UNL     1      -0.203  51.687 -25.052  1.00  0.00     0.045 C 
HETATM    9  C4  UNL     1       0.662  52.096 -23.850  1.00  0.00     0.015 C 
BRANCH   8  10
HETATM   10  C2  UNL     1      -0.717  52.945 -25.808  1.00  0.00     0.155 C 
BRANCH  10  11
HETATM   11  O1  UNL     1      -0.511  54.075 -24.937  1.00  0.00    -0.388 OA
HETATM   12  C1  UNL     1       0.194  55.142 -25.558  1.00  0.00     0.202 C 
ENDBRANCH  10  11
BRANCH  10  13
HETATM   13  C24 UNL     1       0.002  53.186 -27.169  1.00  0.00     0.143 C 
HETATM   14  C25 UNL     1       1.061  52.134 -27.477  1.00  0.00     0.042 C 
BRANCH  13  15
HETATM   15  O7  UNL     1      -0.906  53.204 -28.273  1.00  0.00    -0.393 OA
HETATM   16  H42 UNL     1      -1.466  53.994 -28.161  1.00  0.00     0.210 HD
ENDBRANCH  13  15
ENDBRANCH  10  13
ENDBRANCH   8  10
ENDBRANCH   5   8
ENDBRANCH   3   4
ENDBRANCH   1   3
BRANCH   1  17
HETATM   17  O3  UNL     1      -4.870  50.303 -25.208  1.00  0.00    -0.386 OA
HETATM   18  H18 UNL     1      -5.815  50.323 -25.438  1.00  0.00     0.211 HD
ENDBRANCH   1  17
BRANCH   1  19
HETATM   19  C11 UNL     1      -4.992  48.204 -26.256  1.00  0.00     0.010 C 
HETATM   20  C12 UNL     1      -4.797  48.566 -27.535  1.00  0.00    -0.001 C 
BRANCH  20  21
HETATM   21  C13 UNL     1      -5.260  47.766 -28.648  1.00  0.00     0.005 C 
HETATM   22  C14 UNL     1      -6.538  47.544 -29.020  1.00  0.00    -0.055 C 
HETATM   23  C15 UNL     1      -7.755  48.072 -28.304  1.00  0.00     0.046 C 
BRANCH  22  24
HETATM   24  C16 UNL     1      -6.857  46.733 -30.273  1.00  0.00     0.154 C 
HETATM   25  O4  UNL     1      -6.109  47.308 -31.358  1.00  0.00    -0.375 OA
HETATM   26  C17 UNL     1      -6.441  46.741 -32.632  1.00  0.00     0.132 C 
HETATM   27  C20 UNL     1      -6.077  45.253 -32.630  1.00  0.00     0.033 C 
HETATM   28  C21 UNL     1      -6.779  44.527 -31.488  1.00  0.00     0.009 C 
HETATM   29  C22 UNL     1      -6.520  45.230 -30.146  1.00  0.00     0.015 C 
HETATM   30  C23 UNL     1      -7.305  44.529 -29.037  1.00  0.00     0.012 C 
BRANCH  26  31
HETATM   31  C18 UNL     1      -5.661  47.520 -33.689  1.00  0.00     0.141 C 
BRANCH  31  32
HETATM   32  C19 UNL     1      -4.219  47.677 -33.313  1.00  0.00     0.141 C 
HETATM   33  O5  UNL     1      -3.595  47.028 -32.492  1.00  0.00    -0.650 OA
BRANCH  32  34
HETATM   34  O6  UNL     1      -3.609  48.644 -34.028  1.00  0.00    -0.776 OA
HETATM   35  H29 UNL     1      -2.684  48.637 -33.706  1.00  0.00     0.167 HD
ENDBRANCH  32  34
ENDBRANCH  31  32
ENDBRANCH  26  31
ENDBRANCH  22  24
ENDBRANCH  20  21
ENDBRANCH   1  19
TORSDOF 14
ENDMDL
