MODEL 1
REMARK minimizedAffinity -7.11211634
REMARK CNNscore 0.403081298
REMARK CNNaffinity 6.15841818
REMARK  6 active torsions:
REMARK  status: ('A' for Active; 'I' for Inactive)
REMARK    1  A    between atoms: C2_2  and  C4_4 
REMARK    2  A    between atoms: C4_4  and  C5_5 
REMARK    3  A    between atoms: C11_13  and  O2_14 
REMARK    4  A    between atoms: C12_16  and  N2_17 
REMARK    5  A    between atoms: C12_16  and  C29_37 
REMARK       I    between atoms: N2_17  and  C13_18 
REMARK    6  A    between atoms: C13_18  and  C14_20 
ROOT
HETATM    1  C5  UNL     1       3.721   7.540   9.412  1.00  0.00     0.185 C 
HETATM    2  C6  UNL     1       3.247   6.076   9.622  1.00  0.00     0.243 C 
HETATM    3  O1  UNL     1       3.629   5.143   8.923  1.00  0.00    -0.271 OA
HETATM    4  N1  UNL     1       2.290   5.911  10.605  1.00  0.00    -0.338 N 
HETATM    5  C7  UNL     1       1.751   4.632  11.015  1.00  0.00     0.127 C 
HETATM    6  C8  UNL     1       0.617   4.999  11.965  1.00  0.00     0.022 C 
HETATM    7  C9  UNL     1       1.082   6.326  12.570  1.00  0.00     0.034 C 
HETATM    8  C10 UNL     1       1.732   7.024  11.374  1.00  0.00     0.173 C 
HETATM    9  C11 UNL     1       2.769   8.137  11.688  1.00  0.00     0.276 C 
HETATM   10  O3  UNL     1       3.361   7.989  12.962  1.00  0.00    -0.295 OA
HETATM   11  C12 UNL     1       4.721   8.445  12.899  1.00  0.00     0.227 C 
HETATM   12  C32 UNL     1       5.047   8.235  11.413  1.00  0.00     0.281 C 
HETATM   13  O5  UNL     1       6.154   8.228  10.896  1.00  0.00    -0.268 OA
HETATM   14  N5  UNL     1       3.844   8.161  10.745  1.00  0.00    -0.277 N 
ENDROOT
BRANCH  11  15
HETATM   15  N2  UNL     1       4.756   9.871  13.177  1.00  0.00    -0.321 N 
HETATM   16  C13 UNL     1       5.848  10.673  12.951  1.00  0.00     0.226 C 
HETATM   17  O4  UNL     1       6.920  10.254  12.530  1.00  0.00    -0.273 OA
HETATM   18  H19 UNL     1       3.893  10.291  13.504  1.00  0.00     0.166 HD
BRANCH  16  19
HETATM   19  C14 UNL     1       5.607  12.137  13.294  1.00  0.00     0.107 C 
HETATM   20  C15 UNL     1       5.369  12.308  14.796  1.00  0.00     0.027 C 
HETATM   21  C16 UNL     1       5.065  13.774  15.134  1.00  0.00     0.054 C 
HETATM   22  C17 UNL     1       4.771  14.000  16.608  1.00  0.00    -0.039 A 
HETATM   23  C26 UNL     1       3.878  14.321  14.221  1.00  0.00     0.235 C 
HETATM   24  C18 UNL     1       5.281  13.277  17.695  1.00  0.00     0.008 A 
HETATM   25  C24 UNL     1       3.961  15.098  16.924  1.00  0.00     0.005 A 
HETATM   26  C19 UNL     1       4.956  13.632  19.016  1.00  0.00     0.003 A 
HETATM   27  C20 UNL     1       4.123  14.723  19.310  1.00  0.00     0.030 A 
HETATM   28  C21 UNL     1       3.640  15.449  18.221  1.00  0.00     0.043 A 
HETATM   29  N3  UNL     1       2.832  16.560  18.124  1.00  0.00    -0.365 N 
HETATM   30  C22 UNL     1       2.644  16.903  16.800  1.00  0.00     0.096 A 
HETATM   31  H27 UNL     1       2.433  17.050  18.913  1.00  0.00     0.165 HD
HETATM   32  C23 UNL     1       3.342  15.998  16.035  1.00  0.00    -0.028 A 
HETATM   33  C25 UNL     1       3.528  15.822  14.564  1.00  0.00     0.077 C 
HETATM   34  N4  UNL     1       4.197  14.118  12.778  1.00  0.00     0.090 N 
HETATM   35  C27 UNL     1       3.135  14.613  11.895  1.00  0.00     0.310 C 
HETATM   36  C28 UNL     1       4.422  12.685  12.497  1.00  0.00     0.286 C 
ENDBRANCH  16  19
ENDBRANCH  11  15
BRANCH  11  37
HETATM   37  C29 UNL     1       5.593   7.607  13.863  1.00  0.00     0.043 C 
HETATM   38  C30 UNL     1       5.841   8.285  15.215  1.00  0.00     0.015 C 
HETATM   39  C31 UNL     1       6.931   7.197  13.231  1.00  0.00     0.015 C 
ENDBRANCH  11  37
BRANCH   9  40
HETATM   40  O2  UNL     1       2.151   9.404  11.637  1.00  0.00    -0.347 OA
HETATM   41  H18 UNL     1       1.723   9.480  12.507  1.00  0.00     0.215 HD
ENDBRANCH   9  40
BRANCH   1  42
HETATM   42  C4  UNL     1       2.764   8.344   8.516  1.00  0.00     0.039 C 
BRANCH  42  43
HETATM   43  C2  UNL     1       1.578   7.527   7.958  1.00  0.00    -0.020 C 
HETATM   44  C1  UNL     1       0.226   8.188   8.214  1.00  0.00     0.009 C 
HETATM   45  C3  UNL     1       1.770   7.304   6.454  1.00  0.00     0.009 C 
ENDBRANCH  42  43
ENDBRANCH   1  42
TORSDOF 6
ENDMDL
MODEL 2
REMARK minimizedAffinity -8.23940659
REMARK CNNscore 0.359885275
REMARK CNNaffinity 7.18947554
REMARK  6 active torsions:
REMARK  status: ('A' for Active; 'I' for Inactive)
REMARK    1  A    between atoms: C2_2  and  C4_4 
REMARK    2  A    between atoms: C4_4  and  C5_5 
REMARK    3  A    between atoms: C11_13  and  O2_14 
REMARK    4  A    between atoms: C12_16  and  N2_17 
REMARK    5  A    between atoms: C12_16  and  C29_37 
REMARK       I    between atoms: N2_17  and  C13_18 
REMARK    6  A    between atoms: C13_18  and  C14_20 
ROOT
HETATM    1  C5  UNL     1       1.972  12.750  17.226  1.00  0.00     0.185 C 
HETATM    2  C6  UNL     1       2.459  13.179  18.637  1.00  0.00     0.243 C 
HETATM    3  O1  UNL     1       2.981  14.266  18.862  1.00  0.00    -0.271 OA
HETATM    4  N1  UNL     1       2.338  12.208  19.612  1.00  0.00    -0.338 N 
HETATM    5  C7  UNL     1       2.667  12.406  21.008  1.00  0.00     0.127 C 
HETATM    6  C8  UNL     1       2.551  11.012  21.614  1.00  0.00     0.022 C 
HETATM    7  C9  UNL     1       1.488  10.339  20.741  1.00  0.00     0.034 C 
HETATM    8  C10 UNL     1       1.826  10.864  19.345  1.00  0.00     0.173 C 
HETATM    9  C11 UNL     1       0.688  10.837  18.289  1.00  0.00     0.276 C 
HETATM   10  O3  UNL     1      -0.599  10.850  18.872  1.00  0.00    -0.295 OA
HETATM   11  C12 UNL     1      -1.489  11.583  18.017  1.00  0.00     0.227 C 
HETATM   12  C32 UNL     1      -0.515  12.517  17.284  1.00  0.00     0.281 C 
HETATM   13  O5  UNL     1      -0.795  13.513  16.636  1.00  0.00    -0.268 OA
HETATM   14  N5  UNL     1       0.741  11.959  17.403  1.00  0.00    -0.277 N 
ENDROOT
BRANCH  11  15
HETATM   15  N2  UNL     1      -2.067  10.672  17.042  1.00  0.00    -0.321 N 
HETATM   16  C13 UNL     1      -2.747  11.075  15.920  1.00  0.00     0.226 C 
HETATM   17  O4  UNL     1      -2.971  12.249  15.649  1.00  0.00    -0.273 OA
HETATM   18  H19 UNL     1      -1.898   9.683  17.190  1.00  0.00     0.166 HD
BRANCH  16  19
HETATM   19  C14 UNL     1      -3.218   9.919  15.047  1.00  0.00     0.107 C 
HETATM   20  C15 UNL     1      -4.689   9.598  15.322  1.00  0.00     0.027 C 
HETATM   21  C16 UNL     1      -5.147   8.393  14.489  1.00  0.00     0.054 C 
HETATM   22  C17 UNL     1      -6.590   7.995  14.755  1.00  0.00    -0.039 A 
HETATM   23  C26 UNL     1      -4.161   7.159  14.705  1.00  0.00     0.235 C 
HETATM   24  C18 UNL     1      -7.645   8.834  15.137  1.00  0.00     0.008 A 
HETATM   25  C24 UNL     1      -6.923   6.655  14.519  1.00  0.00     0.005 A 
HETATM   26  C19 UNL     1      -8.946   8.331  15.303  1.00  0.00     0.003 A 
HETATM   27  C20 UNL     1      -9.254   6.978  15.085  1.00  0.00     0.030 A 
HETATM   28  C21 UNL     1      -8.201   6.158  14.682  1.00  0.00     0.043 A 
HETATM   29  N3  UNL     1      -8.129   4.818  14.368  1.00  0.00    -0.365 N 
HETATM   30  C22 UNL     1      -6.838   4.476  14.018  1.00  0.00     0.096 A 
HETATM   31  H27 UNL     1      -8.912   4.179  14.394  1.00  0.00     0.165 HD
HETATM   32  C23 UNL     1      -6.069   5.613  14.109  1.00  0.00    -0.028 A 
HETATM   33  C25 UNL     1      -4.622   5.897  13.876  1.00  0.00     0.077 C 
HETATM   34  N4  UNL     1      -2.755   7.561  14.411  1.00  0.00     0.090 N 
HETATM   35  C27 UNL     1      -1.808   6.455  14.589  1.00  0.00     0.310 C 
HETATM   36  C28 UNL     1      -2.346   8.683  15.281  1.00  0.00     0.286 C 
ENDBRANCH  16  19
ENDBRANCH  11  15
BRANCH  11  37
HETATM   37  C29 UNL     1      -2.545  12.318  18.875  1.00  0.00     0.043 C 
HETATM   38  C30 UNL     1      -3.899  11.603  18.931  1.00  0.00     0.015 C 
HETATM   39  C31 UNL     1      -2.740  13.776  18.436  1.00  0.00     0.015 C 
ENDBRANCH  11  37
BRANCH   9  40
HETATM   40  O2  UNL     1       0.794   9.680  17.490  1.00  0.00    -0.347 OA
HETATM   41  H18 UNL     1       0.379   8.991  18.037  1.00  0.00     0.215 HD
ENDBRANCH   9  40
BRANCH   1  42
HETATM   42  C4  UNL     1       3.037  11.947  16.458  1.00  0.00     0.039 C 
BRANCH  42  43
HETATM   43  C2  UNL     1       3.353  12.492  15.049  1.00  0.00    -0.020 C 
HETATM   44  C1  UNL     1       3.166  11.448  13.951  1.00  0.00     0.009 C 
HETATM   45  C3  UNL     1       2.472  13.712  14.760  1.00  0.00     0.009 C 
ENDBRANCH  42  43
ENDBRANCH   1  42
TORSDOF 6
ENDMDL
MODEL 3
REMARK minimizedAffinity -9.61170197
REMARK CNNscore 0.351384938
REMARK CNNaffinity 6.78579283
REMARK  6 active torsions:
REMARK  status: ('A' for Active; 'I' for Inactive)
REMARK    1  A    between atoms: C2_2  and  C4_4 
REMARK    2  A    between atoms: C4_4  and  C5_5 
REMARK    3  A    between atoms: C11_13  and  O2_14 
REMARK    4  A    between atoms: C12_16  and  N2_17 
REMARK    5  A    between atoms: C12_16  and  C29_37 
REMARK       I    between atoms: N2_17  and  C13_18 
REMARK    6  A    between atoms: C13_18  and  C14_20 
ROOT
HETATM    1  C5  UNL     1       2.502  10.593  20.040  1.00  0.00     0.185 C 
HETATM    2  C6  UNL     1       2.989  12.055  20.241  1.00  0.00     0.243 C 
HETATM    3  O1  UNL     1       4.155  12.343  20.488  1.00  0.00    -0.271 OA
HETATM    4  N1  UNL     1       1.990  13.009  20.206  1.00  0.00    -0.338 N 
HETATM    5  C7  UNL     1       2.217  14.435  20.305  1.00  0.00     0.127 C 
HETATM    6  C8  UNL     1       0.815  15.023  20.411  1.00  0.00     0.022 C 
HETATM    7  C9  UNL     1      -0.045  14.022  19.635  1.00  0.00     0.034 C 
HETATM    8  C10 UNL     1       0.575  12.680  20.029  1.00  0.00     0.173 C 
HETATM    9  C11 UNL     1       0.336  11.486  19.066  1.00  0.00     0.276 C 
HETATM   10  O3  UNL     1       0.063  11.897  17.742  1.00  0.00    -0.295 OA
HETATM   11  C12 UNL     1       0.613  10.931  16.833  1.00  0.00     0.227 C 
HETATM   12  C32 UNL     1       1.749  10.329  17.673  1.00  0.00     0.281 C 
HETATM   13  O5  UNL     1       2.680   9.648  17.272  1.00  0.00    -0.268 OA
HETATM   14  N5  UNL     1       1.465  10.612  18.992  1.00  0.00    -0.277 N 
ENDROOT
BRANCH  11  15
HETATM   15  N2  UNL     1      -0.375   9.893  16.590  1.00  0.00    -0.321 N 
HETATM   16  C13 UNL     1      -0.321   9.010  15.540  1.00  0.00     0.226 C 
HETATM   17  O4  UNL     1       0.547   9.038  14.676  1.00  0.00    -0.273 OA
HETATM   18  H19 UNL     1      -1.110   9.794  17.282  1.00  0.00     0.166 HD
BRANCH  16  19
HETATM   19  C14 UNL     1      -1.460   7.998  15.538  1.00  0.00     0.107 C 
HETATM   20  C15 UNL     1      -1.304   7.011  14.379  1.00  0.00     0.027 C 
HETATM   21  C16 UNL     1      -2.485   6.031  14.339  1.00  0.00     0.054 C 
HETATM   22  C17 UNL     1      -2.412   5.053  13.177  1.00  0.00    -0.039 A 
HETATM   23  C26 UNL     1      -3.868   6.823  14.337  1.00  0.00     0.235 C 
HETATM   24  C18 UNL     1      -1.257   4.552  12.562  1.00  0.00     0.008 A 
HETATM   25  C24 UNL     1      -3.629   4.535  12.718  1.00  0.00     0.005 A 
HETATM   26  C19 UNL     1      -1.341   3.611  11.521  1.00  0.00     0.003 A 
HETATM   27  C20 UNL     1      -2.574   3.122  11.059  1.00  0.00     0.030 A 
HETATM   28  C21 UNL     1      -3.715   3.610  11.696  1.00  0.00     0.043 A 
HETATM   29  N3  UNL     1      -5.059   3.354  11.528  1.00  0.00    -0.365 N 
HETATM   30  C22 UNL     1      -5.803   4.100  12.420  1.00  0.00     0.096 A 
HETATM   31  H27 UNL     1      -5.440   2.713  10.846  1.00  0.00     0.165 HD
HETATM   32  C23 UNL     1      -4.925   4.846  13.172  1.00  0.00    -0.028 A 
HETATM   33  C25 UNL     1      -5.100   5.838  14.272  1.00  0.00     0.077 C 
HETATM   34  N4  UNL     1      -3.934   7.755  15.500  1.00  0.00     0.090 N 
HETATM   35  C27 UNL     1      -5.194   8.505  15.546  1.00  0.00     0.310 C 
HETATM   36  C28 UNL     1      -2.810   8.714  15.457  1.00  0.00     0.286 C 
ENDBRANCH  16  19
ENDBRANCH  11  15
BRANCH  11  37
HETATM   37  C29 UNL     1       1.087  11.644  15.545  1.00  0.00     0.043 C 
HETATM   38  C30 UNL     1       2.491  12.247  15.656  1.00  0.00     0.015 C 
HETATM   39  C31 UNL     1       0.093  12.715  15.073  1.00  0.00     0.015 C 
ENDBRANCH  11  37
BRANCH   9  40
HETATM   40  O2  UNL     1      -0.753  10.710  19.516  1.00  0.00    -0.347 OA
HETATM   41  H18 UNL     1      -1.528  11.200  19.191  1.00  0.00     0.215 HD
ENDBRANCH   9  40
BRANCH   1  42
HETATM   42  C4  UNL     1       1.962   9.972  21.340  1.00  0.00     0.039 C 
BRANCH  42  43
HETATM   43  C2  UNL     1       3.008   9.178  22.150  1.00  0.00    -0.020 C 
HETATM   44  C1  UNL     1       3.844  10.062  23.073  1.00  0.00     0.009 C 
HETATM   45  C3  UNL     1       2.308   8.088  22.968  1.00  0.00     0.009 C 
ENDBRANCH  42  43
ENDBRANCH   1  42
TORSDOF 6
ENDMDL
MODEL 4
REMARK minimizedAffinity -8.37445354
REMARK CNNscore 0.298176497
REMARK CNNaffinity 6.62919092
REMARK  6 active torsions:
REMARK  status: ('A' for Active; 'I' for Inactive)
REMARK    1  A    between atoms: C2_2  and  C4_4 
REMARK    2  A    between atoms: C4_4  and  C5_5 
REMARK    3  A    between atoms: C11_13  and  O2_14 
REMARK    4  A    between atoms: C12_16  and  N2_17 
REMARK    5  A    between atoms: C12_16  and  C29_37 
REMARK       I    between atoms: N2_17  and  C13_18 
REMARK    6  A    between atoms: C13_18  and  C14_20 
ROOT
HETATM    1  C5  UNL     1      -0.586  14.586  15.742  1.00  0.00     0.185 C 
HETATM    2  C6  UNL     1      -0.563  15.188  17.174  1.00  0.00     0.243 C 
HETATM    3  O1  UNL     1      -0.889  16.346  17.417  1.00  0.00    -0.271 OA
HETATM    4  N1  UNL     1      -0.063  14.347  18.149  1.00  0.00    -0.338 N 
HETATM    5  C7  UNL     1      -0.007  14.671  19.558  1.00  0.00     0.127 C 
HETATM    6  C8  UNL     1       0.789  13.523  20.168  1.00  0.00     0.022 C 
HETATM    7  C9  UNL     1       0.466  12.345  19.246  1.00  0.00     0.034 C 
HETATM    8  C10 UNL     1       0.441  13.003  17.865  1.00  0.00     0.173 C 
HETATM    9  C11 UNL     1      -0.353  12.269  16.751  1.00  0.00     0.276 C 
HETATM   10  O3  UNL     1      -1.360  11.422  17.265  1.00  0.00    -0.295 OA
HETATM   11  C12 UNL     1      -2.473  11.419  16.358  1.00  0.00     0.227 C 
HETATM   12  C32 UNL     1      -2.314  12.783  15.671  1.00  0.00     0.281 C 
HETATM   13  O5  UNL     1      -3.148  13.372  15.001  1.00  0.00    -0.268 OA
HETATM   14  N5  UNL     1      -1.007  13.178  15.860  1.00  0.00    -0.277 N 
ENDROOT
BRANCH  11  15
HETATM   15  N2  UNL     1      -2.270  10.380  15.362  1.00  0.00    -0.321 N 
HETATM   16  C13 UNL     1      -2.054   9.058  15.662  1.00  0.00     0.226 C 
HETATM   17  O4  UNL     1      -1.969   8.628  16.806  1.00  0.00    -0.273 OA
HETATM   18  H19 UNL     1      -2.354  10.660  14.391  1.00  0.00     0.166 HD
BRANCH  16  19
HETATM   19  C14 UNL     1      -1.909   8.172  14.431  1.00  0.00     0.107 C 
HETATM   20  C15 UNL     1      -3.113   7.237  14.294  1.00  0.00     0.027 C 
HETATM   21  C16 UNL     1      -2.938   6.301  13.090  1.00  0.00     0.054 C 
HETATM   22  C17 UNL     1      -4.082   5.312  12.929  1.00  0.00    -0.039 A 
HETATM   23  C26 UNL     1      -1.535   5.548  13.168  1.00  0.00     0.235 C 
HETATM   24  C18 UNL     1      -5.422   5.500  13.293  1.00  0.00     0.008 A 
HETATM   25  C24 UNL     1      -3.783   4.109  12.277  1.00  0.00     0.005 A 
HETATM   26  C19 UNL     1      -6.386   4.509  13.039  1.00  0.00     0.003 A 
HETATM   27  C20 UNL     1      -6.060   3.299  12.405  1.00  0.00     0.030 A 
HETATM   28  C21 UNL     1      -4.728   3.134  12.026  1.00  0.00     0.043 A 
HETATM   29  N3  UNL     1      -4.059   2.114  11.385  1.00  0.00    -0.365 N 
HETATM   30  C22 UNL     1      -2.725   2.435  11.236  1.00  0.00     0.096 A 
HETATM   31  H27 UNL     1      -4.488   1.253  11.073  1.00  0.00     0.165 HD
HETATM   32  C23 UNL     1      -2.533   3.680  11.790  1.00  0.00    -0.028 A 
HETATM   33  C25 UNL     1      -1.339   4.560  11.952  1.00  0.00     0.077 C 
HETATM   34  N4  UNL     1      -0.423   6.535  13.296  1.00  0.00     0.090 N 
HETATM   35  C27 UNL     1       0.892   5.890  13.364  1.00  0.00     0.310 C 
HETATM   36  C28 UNL     1      -0.609   7.368  14.501  1.00  0.00     0.286 C 
ENDBRANCH  16  19
ENDBRANCH  11  15
BRANCH  11  37
HETATM   37  C29 UNL     1      -3.790  11.261  17.154  1.00  0.00     0.043 C 
HETATM   38  C30 UNL     1      -4.710  12.483  17.072  1.00  0.00     0.015 C 
HETATM   39  C31 UNL     1      -3.541  10.891  18.623  1.00  0.00     0.015 C 
ENDBRANCH  11  37
BRANCH   9  40
HETATM   40  O2  UNL     1       0.520  11.486  15.968  1.00  0.00    -0.347 OA
HETATM   41  H18 UNL     1       0.632  10.677  16.498  1.00  0.00     0.215 HD
ENDBRANCH   9  40
BRANCH   1  42
HETATM   42  C4  UNL     1       0.778  14.696  15.038  1.00  0.00     0.039 C 
BRANCH  42  43
HETATM   43  C2  UNL     1       0.810  15.700  13.866  1.00  0.00    -0.020 C 
HETATM   44  C1  UNL     1       1.780  15.292  12.759  1.00  0.00     0.009 C 
HETATM   45  C3  UNL     1      -0.600  15.861  13.287  1.00  0.00     0.009 C 
ENDBRANCH  42  43
ENDBRANCH   1  42
TORSDOF 6
ENDMDL
MODEL 5
REMARK minimizedAffinity -9.35012913
REMARK CNNscore 0.262417018
REMARK CNNaffinity 6.94073725
REMARK  6 active torsions:
REMARK  status: ('A' for Active; 'I' for Inactive)
REMARK    1  A    between atoms: C2_2  and  C4_4 
REMARK    2  A    between atoms: C4_4  and  C5_5 
REMARK    3  A    between atoms: C11_13  and  O2_14 
REMARK    4  A    between atoms: C12_16  and  N2_17 
REMARK    5  A    between atoms: C12_16  and  C29_37 
REMARK       I    between atoms: N2_17  and  C13_18 
REMARK    6  A    between atoms: C13_18  and  C14_20 
ROOT
HETATM    1  C5  UNL     1      -4.687  13.923  18.572  1.00  0.00     0.185 C 
HETATM    2  C6  UNL     1      -4.070  15.235  18.013  1.00  0.00     0.243 C 
HETATM    3  O1  UNL     1      -3.590  16.106  18.730  1.00  0.00    -0.271 OA
HETATM    4  N1  UNL     1      -4.181  15.391  16.644  1.00  0.00    -0.338 N 
HETATM    5  C7  UNL     1      -3.624  16.500  15.900  1.00  0.00     0.127 C 
HETATM    6  C8  UNL     1      -4.177  16.312  14.492  1.00  0.00     0.022 C 
HETATM    7  C9  UNL     1      -4.351  14.795  14.384  1.00  0.00     0.034 C 
HETATM    8  C10 UNL     1      -4.853  14.421  15.780  1.00  0.00     0.173 C 
HETATM    9  C11 UNL     1      -4.648  12.949  16.229  1.00  0.00     0.276 C 
HETATM   10  O3  UNL     1      -3.582  12.314  15.552  1.00  0.00    -0.295 OA
HETATM   11  C12 UNL     1      -2.949  11.387  16.446  1.00  0.00     0.227 C 
HETATM   12  C32 UNL     1      -3.279  12.003  17.814  1.00  0.00     0.281 C 
HETATM   13  O5  UNL     1      -2.757  11.740  18.886  1.00  0.00    -0.268 OA
HETATM   14  N5  UNL     1      -4.357  12.841  17.626  1.00  0.00    -0.277 N 
ENDROOT
BRANCH  11  15
HETATM   15  N2  UNL     1      -3.621  10.101  16.351  1.00  0.00    -0.321 N 
HETATM   16  C13 UNL     1      -3.735   9.376  15.191  1.00  0.00     0.226 C 
HETATM   17  O4  UNL     1      -3.315   9.762  14.107  1.00  0.00    -0.273 OA
HETATM   18  H19 UNL     1      -3.972   9.707  17.218  1.00  0.00     0.166 HD
BRANCH  16  19
HETATM   19  C14 UNL     1      -4.455   8.046  15.375  1.00  0.00     0.107 C 
HETATM   20  C15 UNL     1      -4.189   7.119  14.186  1.00  0.00     0.027 C 
HETATM   21  C16 UNL     1      -4.964   5.804  14.340  1.00  0.00     0.054 C 
HETATM   22  C17 UNL     1      -4.778   4.858  13.164  1.00  0.00    -0.039 A 
HETATM   23  C26 UNL     1      -6.509   6.094  14.606  1.00  0.00     0.235 C 
HETATM   24  C18 UNL     1      -3.652   4.742  12.339  1.00  0.00     0.008 A 
HETATM   25  C24 UNL     1      -5.816   3.948  12.922  1.00  0.00     0.005 A 
HETATM   26  C19 UNL     1      -3.603   3.784  11.312  1.00  0.00     0.003 A 
HETATM   27  C20 UNL     1      -4.665   2.897  11.071  1.00  0.00     0.030 A 
HETATM   28  C21 UNL     1      -5.771   3.006  11.914  1.00  0.00     0.043 A 
HETATM   29  N3  UNL     1      -6.960   2.315  11.988  1.00  0.00    -0.365 N 
HETATM   30  C22 UNL     1      -7.739   2.809  13.015  1.00  0.00     0.096 A 
HETATM   31  H27 UNL     1      -7.222   1.557  11.372  1.00  0.00     0.165 HD
HETATM   32  C23 UNL     1      -7.039   3.833  13.610  1.00  0.00    -0.028 A 
HETATM   33  C25 UNL     1      -7.335   4.755  14.745  1.00  0.00     0.077 C 
HETATM   34  N4  UNL     1      -6.672   6.999  15.780  1.00  0.00     0.090 N 
HETATM   35  C27 UNL     1      -8.081   7.292  16.070  1.00  0.00     0.310 C 
HETATM   36  C28 UNL     1      -5.958   8.272  15.554  1.00  0.00     0.286 C 
ENDBRANCH  16  19
ENDBRANCH  11  15
BRANCH  11  37
HETATM   37  C29 UNL     1      -1.436  11.315  16.133  1.00  0.00     0.043 C 
HETATM   38  C30 UNL     1      -0.689  10.251  16.943  1.00  0.00     0.015 C 
HETATM   39  C31 UNL     1      -0.743  12.676  16.292  1.00  0.00     0.015 C 
ENDBRANCH  11  37
BRANCH   9  40
HETATM   40  O2  UNL     1      -5.821  12.202  15.996  1.00  0.00    -0.347 OA
HETATM   41  H18 UNL     1      -5.762  11.980  15.051  1.00  0.00     0.215 HD
ENDBRANCH   9  40
BRANCH   1  42
HETATM   42  C4  UNL     1      -6.207  14.032  18.778  1.00  0.00     0.039 C 
BRANCH  42  43
HETATM   43  C2  UNL     1      -6.651  14.034  20.256  1.00  0.00    -0.020 C 
HETATM   44  C1  UNL     1      -7.995  13.342  20.476  1.00  0.00     0.009 C 
HETATM   45  C3  UNL     1      -5.575  13.363  21.117  1.00  0.00     0.009 C 
ENDBRANCH  42  43
ENDBRANCH   1  42
TORSDOF 6
ENDMDL
MODEL 6
REMARK minimizedAffinity -7.16316271
REMARK CNNscore 0.261970073
REMARK CNNaffinity 6.08585119
REMARK  6 active torsions:
REMARK  status: ('A' for Active; 'I' for Inactive)
REMARK    1  A    between atoms: C2_2  and  C4_4 
REMARK    2  A    between atoms: C4_4  and  C5_5 
REMARK    3  A    between atoms: C11_13  and  O2_14 
REMARK    4  A    between atoms: C12_16  and  N2_17 
REMARK    5  A    between atoms: C12_16  and  C29_37 
REMARK       I    between atoms: N2_17  and  C13_18 
REMARK    6  A    between atoms: C13_18  and  C14_20 
ROOT
HETATM    1  C5  UNL     1     -14.574   2.878  26.266  1.00  0.00     0.185 C 
HETATM    2  C6  UNL     1     -15.974   2.317  26.636  1.00  0.00     0.243 C 
HETATM    3  O1  UNL     1     -16.222   1.800  27.720  1.00  0.00    -0.271 OA
HETATM    4  N1  UNL     1     -16.906   2.365  25.617  1.00  0.00    -0.338 N 
HETATM    5  C7  UNL     1     -18.288   1.959  25.752  1.00  0.00     0.127 C 
HETATM    6  C8  UNL     1     -18.830   2.017  24.329  1.00  0.00     0.022 C 
HETATM    7  C9  UNL     1     -17.988   3.118  23.679  1.00  0.00     0.034 C 
HETATM    8  C10 UNL     1     -16.602   2.870  24.277  1.00  0.00     0.173 C 
HETATM    9  C11 UNL     1     -15.614   4.067  24.280  1.00  0.00     0.276 C 
HETATM   10  O3  UNL     1     -16.269   5.318  24.241  1.00  0.00    -0.295 OA
HETATM   11  C12 UNL     1     -15.504   6.269  24.997  1.00  0.00     0.227 C 
HETATM   12  C32 UNL     1     -14.763   5.353  25.983  1.00  0.00     0.281 C 
HETATM   13  O5  UNL     1     -14.183   5.687  27.004  1.00  0.00    -0.268 OA
HETATM   14  N5  UNL     1     -14.783   4.085  25.444  1.00  0.00    -0.277 N 
ENDROOT
BRANCH  11  15
HETATM   15  N2  UNL     1     -14.521   6.888  24.124  1.00  0.00    -0.321 N 
HETATM   16  C13 UNL     1     -13.471   7.654  24.567  1.00  0.00     0.226 C 
HETATM   17  O4  UNL     1     -13.283   7.927  25.746  1.00  0.00    -0.273 OA
HETATM   18  H19 UNL     1     -14.600   6.683  23.134  1.00  0.00     0.166 HD
BRANCH  16  19
HETATM   19  C14 UNL     1     -12.568   8.153  23.446  1.00  0.00     0.107 C 
HETATM   20  C15 UNL     1     -11.922   9.488  23.827  1.00  0.00     0.027 C 
HETATM   21  C16 UNL     1     -11.062  10.022  22.674  1.00  0.00     0.054 C 
HETATM   22  C17 UNL     1     -10.431  11.372  22.973  1.00  0.00    -0.039 A 
HETATM   23  C26 UNL     1     -11.907  10.070  21.323  1.00  0.00     0.235 C 
HETATM   24  C18 UNL     1     -10.046  11.869  24.226  1.00  0.00     0.008 A 
HETATM   25  C24 UNL     1     -10.129  12.181  21.870  1.00  0.00     0.005 A 
HETATM   26  C19 UNL     1      -9.427  13.125  24.347  1.00  0.00     0.003 A 
HETATM   27  C20 UNL     1      -9.155  13.931  23.229  1.00  0.00     0.030 A 
HETATM   28  C21 UNL     1      -9.521  13.416  21.986  1.00  0.00     0.043 A 
HETATM   29  N3  UNL     1      -9.401  13.901  20.702  1.00  0.00    -0.365 N 
HETATM   30  C22 UNL     1      -9.922  12.997  19.797  1.00  0.00     0.096 A 
HETATM   31  H27 UNL     1      -8.992  14.793  20.462  1.00  0.00     0.165 HD
HETATM   32  C23 UNL     1     -10.384  11.916  20.511  1.00  0.00    -0.028 A 
HETATM   33  C25 UNL     1     -11.051  10.639  20.123  1.00  0.00     0.077 C 
HETATM   34  N4  UNL     1     -12.493   8.730  21.030  1.00  0.00     0.090 N 
HETATM   35  C27 UNL     1     -13.277   8.721  19.789  1.00  0.00     0.310 C 
HETATM   36  C28 UNL     1     -13.358   8.291  22.144  1.00  0.00     0.286 C 
ENDBRANCH  16  19
ENDBRANCH  11  15
BRANCH  11  37
HETATM   37  C29 UNL     1     -16.457   7.284  25.670  1.00  0.00     0.043 C 
HETATM   38  C30 UNL     1     -16.590   8.604  24.904  1.00  0.00     0.015 C 
HETATM   39  C31 UNL     1     -16.075   7.563  27.130  1.00  0.00     0.015 C 
ENDBRANCH  11  37
BRANCH   9  40
HETATM   40  O2  UNL     1     -14.753   3.990  23.165  1.00  0.00    -0.347 OA
HETATM   41  H18 UNL     1     -15.289   4.361  22.442  1.00  0.00     0.215 HD
ENDBRANCH   9  40
BRANCH   1  42
HETATM   42  C4  UNL     1     -13.708   1.847  25.522  1.00  0.00     0.039 C 
BRANCH  42  43
HETATM   43  C2  UNL     1     -12.207   1.898  25.881  1.00  0.00    -0.020 C 
HETATM   44  C1  UNL     1     -11.925   1.484  27.323  1.00  0.00     0.009 C 
HETATM   45  C3  UNL     1     -11.417   1.003  24.920  1.00  0.00     0.009 C 
ENDBRANCH  42  43
ENDBRANCH   1  42
TORSDOF 6
ENDMDL
MODEL 7
REMARK minimizedAffinity -7.29264259
REMARK CNNscore 0.256139815
REMARK CNNaffinity 5.60658789
REMARK  6 active torsions:
REMARK  status: ('A' for Active; 'I' for Inactive)
REMARK    1  A    between atoms: C2_2  and  C4_4 
REMARK    2  A    between atoms: C4_4  and  C5_5 
REMARK    3  A    between atoms: C11_13  and  O2_14 
REMARK    4  A    between atoms: C12_16  and  N2_17 
REMARK    5  A    between atoms: C12_16  and  C29_37 
REMARK       I    between atoms: N2_17  and  C13_18 
REMARK    6  A    between atoms: C13_18  and  C14_20 
ROOT
HETATM    1  C5  UNL     1       4.350  11.731  22.170  1.00  0.00     0.185 C 
HETATM    2  C6  UNL     1       5.077  13.011  22.667  1.00  0.00     0.243 C 
HETATM    3  O1  UNL     1       6.080  12.978  23.374  1.00  0.00    -0.271 OA
HETATM    4  N1  UNL     1       4.460  14.199  22.326  1.00  0.00    -0.338 N 
HETATM    5  C7  UNL     1       4.990  15.511  22.626  1.00  0.00     0.127 C 
HETATM    6  C8  UNL     1       3.868  16.461  22.226  1.00  0.00     0.022 C 
HETATM    7  C9  UNL     1       3.161  15.711  21.095  1.00  0.00     0.034 C 
HETATM    8  C10 UNL     1       3.201  14.262  21.584  1.00  0.00     0.173 C 
HETATM    9  C11 UNL     1       3.064  13.152  20.507  1.00  0.00     0.276 C 
HETATM   10  O3  UNL     1       3.458  13.586  19.221  1.00  0.00    -0.295 OA
HETATM   11  C12 UNL     1       4.054  12.483  18.521  1.00  0.00     0.227 C 
HETATM   12  C32 UNL     1       4.563  11.618  19.683  1.00  0.00     0.281 C 
HETATM   13  O5  UNL     1       5.364  10.699  19.622  1.00  0.00    -0.268 OA
HETATM   14  N5  UNL     1       3.861  12.002  20.806  1.00  0.00    -0.277 N 
ENDROOT
BRANCH  11  15
HETATM   15  N2  UNL     1       3.013  11.746  17.825  1.00  0.00    -0.321 N 
HETATM   16  C13 UNL     1       2.441  10.590  18.297  1.00  0.00     0.226 C 
HETATM   17  O4  UNL     1       2.784  10.041  19.337  1.00  0.00    -0.273 OA
HETATM   18  H19 UNL     1       2.661  12.157  16.967  1.00  0.00     0.166 HD
BRANCH  16  19
HETATM   19  C14 UNL     1       1.348  10.039  17.390  1.00  0.00     0.107 C 
HETATM   20  C15 UNL     1       1.945   9.507  16.085  1.00  0.00     0.027 C 
HETATM   21  C16 UNL     1       0.838   9.010  15.146  1.00  0.00     0.054 C 
HETATM   22  C17 UNL     1       1.366   8.513  13.809  1.00  0.00    -0.039 A 
HETATM   23  C26 UNL     1      -0.269  10.138  14.942  1.00  0.00     0.235 C 
HETATM   24  C18 UNL     1       2.612   7.923  13.556  1.00  0.00     0.008 A 
HETATM   25  C24 UNL     1       0.484   8.580  12.723  1.00  0.00     0.005 A 
HETATM   26  C19 UNL     1       2.947   7.466  12.270  1.00  0.00     0.003 A 
HETATM   27  C20 UNL     1       2.056   7.565  11.189  1.00  0.00     0.030 A 
HETATM   28  C21 UNL     1       0.811   8.131  11.459  1.00  0.00     0.043 A 
HETATM   29  N3  UNL     1      -0.295   8.372  10.674  1.00  0.00    -0.365 N 
HETATM   30  C22 UNL     1      -1.296   8.959  11.421  1.00  0.00     0.096 A 
HETATM   31  H27 UNL     1      -0.359   8.150   9.689  1.00  0.00     0.165 HD
HETATM   32  C23 UNL     1      -0.825   9.099  12.706  1.00  0.00    -0.028 A 
HETATM   33  C25 UNL     1      -1.410   9.661  13.959  1.00  0.00     0.077 C 
HETATM   34  N4  UNL     1      -0.796  10.593  16.261  1.00  0.00     0.090 N 
HETATM   35  C27 UNL     1      -1.826  11.629  16.127  1.00  0.00     0.310 C 
HETATM   36  C28 UNL     1       0.300  11.116  17.102  1.00  0.00     0.286 C 
ENDBRANCH  16  19
ENDBRANCH  11  15
BRANCH  11  37
HETATM   37  C29 UNL     1       5.170  13.006  17.585  1.00  0.00     0.043 C 
HETATM   38  C30 UNL     1       5.674  11.961  16.585  1.00  0.00     0.015 C 
HETATM   39  C31 UNL     1       6.353  13.598  18.364  1.00  0.00     0.015 C 
ENDBRANCH  11  37
BRANCH   9  40
HETATM   40  O2  UNL     1       1.726  12.713  20.429  1.00  0.00    -0.347 OA
HETATM   41  H18 UNL     1       1.301  13.387  19.869  1.00  0.00     0.215 HD
ENDBRANCH   9  40
BRANCH   1  42
HETATM   42  C4  UNL     1       3.195  11.316  23.098  1.00  0.00     0.039 C 
BRANCH  42  43
HETATM   43  C2  UNL     1       3.352   9.912  23.721  1.00  0.00    -0.020 C 
HETATM   44  C1  UNL     1       2.425   9.682  24.912  1.00  0.00     0.009 C 
HETATM   45  C3  UNL     1       3.099   8.843  22.652  1.00  0.00     0.009 C 
ENDBRANCH  42  43
ENDBRANCH   1  42
TORSDOF 6
ENDMDL
MODEL 8
REMARK minimizedAffinity -9.15666294
REMARK CNNscore 0.255847484
REMARK CNNaffinity 6.75290918
REMARK  6 active torsions:
REMARK  status: ('A' for Active; 'I' for Inactive)
REMARK    1  A    between atoms: C2_2  and  C4_4 
REMARK    2  A    between atoms: C4_4  and  C5_5 
REMARK    3  A    between atoms: C11_13  and  O2_14 
REMARK    4  A    between atoms: C12_16  and  N2_17 
REMARK    5  A    between atoms: C12_16  and  C29_37 
REMARK       I    between atoms: N2_17  and  C13_18 
REMARK    6  A    between atoms: C13_18  and  C14_20 
ROOT
HETATM    1  C5  UNL     1       0.566  13.261  15.998  1.00  0.00     0.185 C 
HETATM    2  C6  UNL     1       0.730  13.809  17.442  1.00  0.00     0.243 C 
HETATM    3  O1  UNL     1       0.789  15.007  17.699  1.00  0.00    -0.271 OA
HETATM    4  N1  UNL     1       0.891  12.841  18.415  1.00  0.00    -0.338 N 
HETATM    5  C7  UNL     1       0.997  13.116  19.832  1.00  0.00     0.127 C 
HETATM    6  C8  UNL     1       1.352  11.766  20.442  1.00  0.00     0.022 C 
HETATM    7  C9  UNL     1       0.698  10.766  19.486  1.00  0.00     0.034 C 
HETATM    8  C10 UNL     1       0.941  11.409  18.119  1.00  0.00     0.173 C 
HETATM    9  C11 UNL     1      -0.007  10.986  16.964  1.00  0.00     0.276 C 
HETATM   10  O3  UNL     1      -1.254  10.508  17.427  1.00  0.00    -0.295 OA
HETATM   11  C12 UNL     1      -2.272  10.877  16.485  1.00  0.00     0.227 C 
HETATM   12  C32 UNL     1      -1.652  12.121  15.832  1.00  0.00     0.281 C 
HETATM   13  O5  UNL     1      -2.222  12.957  15.148  1.00  0.00    -0.268 OA
HETATM   14  N5  UNL     1      -0.295  12.066  16.072  1.00  0.00    -0.277 N 
ENDROOT
BRANCH  11  15
HETATM   15  N2  UNL     1      -2.381   9.838  15.474  1.00  0.00    -0.321 N 
HETATM   16  C13 UNL     1      -2.430   8.495  15.753  1.00  0.00     0.226 C 
HETATM   17  O4  UNL     1      -2.344   8.035  16.885  1.00  0.00    -0.273 OA
HETATM   18  H19 UNL     1      -2.482  10.148  14.513  1.00  0.00     0.166 HD
BRANCH  16  19
HETATM   19  C14 UNL     1      -2.582   7.623  14.513  1.00  0.00     0.107 C 
HETATM   20  C15 UNL     1      -3.949   6.933  14.502  1.00  0.00     0.027 C 
HETATM   21  C16 UNL     1      -4.078   6.005  13.286  1.00  0.00     0.054 C 
HETATM   22  C17 UNL     1      -5.399   5.253  13.245  1.00  0.00    -0.039 A 
HETATM   23  C26 UNL     1      -2.842   5.001  13.216  1.00  0.00     0.235 C 
HETATM   24  C18 UNL     1      -6.635   5.681  13.747  1.00  0.00     0.008 A 
HETATM   25  C24 UNL     1      -5.401   4.028  12.564  1.00  0.00     0.005 A 
HETATM   26  C19 UNL     1      -7.789   4.894  13.595  1.00  0.00     0.003 A 
HETATM   27  C20 UNL     1      -7.764   3.658  12.930  1.00  0.00     0.030 A 
HETATM   28  C21 UNL     1      -6.534   3.253  12.414  1.00  0.00     0.043 A 
HETATM   29  N3  UNL     1      -6.138   2.139  11.706  1.00  0.00    -0.365 N 
HETATM   30  C22 UNL     1      -4.790   2.207  11.418  1.00  0.00     0.096 A 
HETATM   31  H27 UNL     1      -6.752   1.381  11.440  1.00  0.00     0.165 HD
HETATM   32  C23 UNL     1      -4.311   3.382  11.950  1.00  0.00    -0.028 A 
HETATM   33  C25 UNL     1      -2.962   4.018  11.986  1.00  0.00     0.077 C 
HETATM   34  N4  UNL     1      -1.557   5.759  13.228  1.00  0.00     0.090 N 
HETATM   35  C27 UNL     1      -0.387   4.877  13.158  1.00  0.00     0.310 C 
HETATM   36  C28 UNL     1      -1.457   6.588  14.446  1.00  0.00     0.286 C 
ENDBRANCH  16  19
ENDBRANCH  11  15
BRANCH  11  37
HETATM   37  C29 UNL     1      -3.597  11.150  17.234  1.00  0.00     0.043 C 
HETATM   38  C30 UNL     1      -4.061  12.608  17.155  1.00  0.00     0.015 C 
HETATM   39  C31 UNL     1      -3.541  10.696  18.700  1.00  0.00     0.015 C 
ENDBRANCH  11  37
BRANCH   9  40
HETATM   40  O2  UNL     1       0.592   9.968  16.193  1.00  0.00    -0.347 OA
HETATM   41  H18 UNL     1       0.415   9.162  16.709  1.00  0.00     0.215 HD
ENDBRANCH   9  40
BRANCH   1  42
HETATM   42  C4  UNL     1       1.917  12.927  15.341  1.00  0.00     0.039 C 
BRANCH  42  43
HETATM   43  C2  UNL     1       2.607  14.128  14.659  1.00  0.00    -0.020 C 
HETATM   44  C1  UNL     1       3.777  13.715  13.769  1.00  0.00     0.009 C 
HETATM   45  C3  UNL     1       1.580  14.912  13.836  1.00  0.00     0.009 C 
ENDBRANCH  42  43
ENDBRANCH   1  42
TORSDOF 6
ENDMDL
MODEL 9
REMARK minimizedAffinity -9.71110344
REMARK CNNscore 0.224631488
REMARK CNNaffinity 6.86827326
REMARK  6 active torsions:
REMARK  status: ('A' for Active; 'I' for Inactive)
REMARK    1  A    between atoms: C2_2  and  C4_4 
REMARK    2  A    between atoms: C4_4  and  C5_5 
REMARK    3  A    between atoms: C11_13  and  O2_14 
REMARK    4  A    between atoms: C12_16  and  N2_17 
REMARK    5  A    between atoms: C12_16  and  C29_37 
REMARK       I    between atoms: N2_17  and  C13_18 
REMARK    6  A    between atoms: C13_18  and  C14_20 
ROOT
HETATM    1  C5  UNL     1       1.308   9.891  13.985  1.00  0.00     0.185 C 
HETATM    2  C6  UNL     1       2.194  10.980  14.652  1.00  0.00     0.243 C 
HETATM    3  O1  UNL     1       2.798  11.834  14.011  1.00  0.00    -0.271 OA
HETATM    4  N1  UNL     1       2.322  10.864  16.023  1.00  0.00    -0.338 N 
HETATM    5  C7  UNL     1       3.044  11.800  16.858  1.00  0.00     0.127 C 
HETATM    6  C8  UNL     1       3.055  11.135  18.229  1.00  0.00     0.022 C 
HETATM    7  C9  UNL     1       1.764  10.313  18.231  1.00  0.00     0.034 C 
HETATM    8  C10 UNL     1       1.707   9.785  16.796  1.00  0.00     0.173 C 
HETATM    9  C11 UNL     1       0.314   9.359  16.259  1.00  0.00     0.276 C 
HETATM   10  O3  UNL     1      -0.751  10.000  16.931  1.00  0.00    -0.295 OA
HETATM   11  C12 UNL     1      -1.822  10.222  16.001  1.00  0.00     0.227 C 
HETATM   12  C32 UNL     1      -1.065  10.277  14.666  1.00  0.00     0.281 C 
HETATM   13  O5  UNL     1      -1.482  10.698  13.599  1.00  0.00    -0.268 OA
HETATM   14  N5  UNL     1       0.151   9.659  14.869  1.00  0.00    -0.277 N 
ENDROOT
BRANCH  11  15
HETATM   15  N2  UNL     1      -2.688   9.054  15.986  1.00  0.00    -0.321 N 
HETATM   16  C13 UNL     1      -3.894   8.998  15.332  1.00  0.00     0.226 C 
HETATM   17  O4  UNL     1      -4.381   9.945  14.727  1.00  0.00    -0.273 OA
HETATM   18  H19 UNL     1      -2.335   8.222  16.447  1.00  0.00     0.166 HD
BRANCH  16  19
HETATM   19  C14 UNL     1      -4.583   7.644  15.446  1.00  0.00     0.107 C 
HETATM   20  C15 UNL     1      -4.312   6.794  14.202  1.00  0.00     0.027 C 
HETATM   21  C16 UNL     1      -5.058   5.455  14.288  1.00  0.00     0.054 C 
HETATM   22  C17 UNL     1      -4.866   4.584  13.057  1.00  0.00    -0.039 A 
HETATM   23  C26 UNL     1      -6.605   5.696  14.586  1.00  0.00     0.235 C 
HETATM   24  C18 UNL     1      -3.747   4.540  12.214  1.00  0.00     0.008 A 
HETATM   25  C24 UNL     1      -5.888   3.667  12.773  1.00  0.00     0.005 A 
HETATM   26  C19 UNL     1      -3.691   3.645  11.132  1.00  0.00     0.003 A 
HETATM   27  C20 UNL     1      -4.737   2.750  10.852  1.00  0.00     0.030 A 
HETATM   28  C21 UNL     1      -5.835   2.787  11.711  1.00  0.00     0.043 A 
HETATM   29  N3  UNL     1      -7.008   2.067  11.758  1.00  0.00    -0.365 N 
HETATM   30  C22 UNL     1      -7.785   2.483  12.820  1.00  0.00     0.096 A 
HETATM   31  H27 UNL     1      -7.262   1.340  11.102  1.00  0.00     0.165 HD
HETATM   32  C23 UNL     1      -7.100   3.486  13.466  1.00  0.00    -0.028 A 
HETATM   33  C25 UNL     1      -7.401   4.334  14.656  1.00  0.00     0.077 C 
HETATM   34  N4  UNL     1      -6.773   6.528  15.813  1.00  0.00     0.090 N 
HETATM   35  C27 UNL     1      -8.183   6.773  16.135  1.00  0.00     0.310 C 
HETATM   36  C28 UNL     1      -6.088   7.827  15.654  1.00  0.00     0.286 C 
ENDBRANCH  16  19
ENDBRANCH  11  15
BRANCH  11  37
HETATM   37  C29 UNL     1      -2.560  11.532  16.364  1.00  0.00     0.043 C 
HETATM   38  C30 UNL     1      -1.685  12.784  16.252  1.00  0.00     0.015 C 
HETATM   39  C31 UNL     1      -3.207  11.469  17.755  1.00  0.00     0.015 C 
ENDBRANCH  11  37
BRANCH   9  40
HETATM   40  O2  UNL     1       0.144   7.966  16.399  1.00  0.00    -0.347 OA
HETATM   41  H18 UNL     1      -0.122   7.865  17.329  1.00  0.00     0.215 HD
ENDBRANCH   9  40
BRANCH   1  42
HETATM   42  C4  UNL     1       2.079   8.584  13.732  1.00  0.00     0.039 C 
BRANCH  42  43
HETATM   43  C2  UNL     1       2.136   8.156  12.250  1.00  0.00    -0.020 C 
HETATM   44  C1  UNL     1       2.371   6.657  12.071  1.00  0.00     0.009 C 
HETATM   45  C3  UNL     1       0.838   8.565  11.545  1.00  0.00     0.009 C 
ENDBRANCH  42  43
ENDBRANCH   1  42
TORSDOF 6
ENDMDL
