MODEL 1
REMARK minimizedAffinity -6.49768543
REMARK CNNscore 0.561644375
REMARK CNNaffinity 6.68019438
REMARK  14 active torsions:
REMARK  status: ('A' for Active; 'I' for Inactive)
REMARK    1  A    between atoms: C2_2  and  C30_34 
REMARK    2  A    between atoms: C3_3  and  C4_4 
REMARK    3  A    between atoms: C4_4  and  C5_5 
REMARK    4  A    between atoms: C5_5  and  C6_6 
REMARK    5  A    between atoms: C6_6  and  C8_8 
REMARK    6  A    between atoms: C16_16  and  C17_17 
REMARK    7  A    between atoms: C17_17  and  O1_19 
REMARK    8  A    between atoms: C17_17  and  C19_20 
REMARK    9  A    between atoms: C19_20  and  O2_21 
REMARK   10  A    between atoms: C20_22  and  C21_23 
REMARK   11  A    between atoms: C21_23  and  C22_24 
REMARK   12  A    between atoms: C22_24  and  C23_25 
REMARK   13  A    between atoms: C23_25  and  O4_27 
REMARK   14  A    between atoms: C30_34  and  O5_35 
ROOT
HETATM    1  C8  UNL     1      -4.405   7.026  15.358  1.00  0.00    -0.002 C 
HETATM    2  C9  UNL     1      -3.174   6.116  15.279  1.00  0.00     0.006 C 
HETATM    3  C10 UNL     1      -2.032   7.092  15.488  1.00  0.00     0.011 C 
HETATM    4  C11 UNL     1      -2.376   8.296  14.569  1.00  0.00    -0.032 C 
HETATM    5  C12 UNL     1      -1.756   7.974  13.181  1.00  0.00     0.016 C 
HETATM    6  C13 UNL     1      -1.689   9.587  15.127  1.00  0.00     0.004 C 
HETATM    7  C14 UNL     1      -1.765  10.821  14.154  1.00  0.00     0.007 C 
HETATM    8  C15 UNL     1      -1.559  12.248  14.748  1.00  0.00     0.009 C 
HETATM    9  C16 UNL     1      -1.883  12.408  16.267  1.00  0.00     0.031 C 
HETATM   10  C20 UNL     1      -1.258  11.185  16.951  1.00  0.00    -0.025 A 
HETATM   11  C24 UNL     1      -1.718  10.108  17.876  1.00  0.00     0.021 A 
HETATM   12  C25 UNL     1      -2.236  10.014  16.476  1.00  0.00    -0.027 A 
HETATM   13  C26 UNL     1      -3.762   9.937  16.595  1.00  0.00     0.011 C 
HETATM   14  C27 UNL     1      -4.499   9.603  15.307  1.00  0.00     0.011 C 
HETATM   15  C28 UNL     1      -3.978   8.336  14.571  1.00  0.00    -0.032 C 
HETATM   16  C29 UNL     1      -4.562   8.400  13.147  1.00  0.00     0.016 C 
ENDROOT
BRANCH   1  17
HETATM   17  C6  UNL     1      -5.731   6.248  15.090  1.00  0.00    -0.014 C 
HETATM   18  C7  UNL     1      -6.048   5.932  13.624  1.00  0.00     0.010 C 
BRANCH  17  19
HETATM   19  C5  UNL     1      -6.984   6.851  15.765  1.00  0.00     0.008 C 
BRANCH  19  20
HETATM   20  C4  UNL     1      -7.691   7.916  14.917  1.00  0.00     0.028 C 
BRANCH  20  21
HETATM   21  C3  UNL     1      -9.185   7.779  15.019  1.00  0.00    -0.022 C 
HETATM   22  C2  UNL     1     -10.012   7.054  14.237  1.00  0.00    -0.064 C 
HETATM   23  C1  UNL     1      -9.588   6.240  13.044  1.00  0.00     0.045 C 
BRANCH  22  24
HETATM   24  C30 UNL     1     -11.498   7.041  14.498  1.00  0.00     0.197 C 
BRANCH  24  25
HETATM   25  O5  UNL     1     -11.777   7.876  15.611  1.00  0.00    -0.397 OA
HETATM   26  H50 UNL     1     -11.387   8.744  15.405  1.00  0.00     0.209 HD
ENDBRANCH  24  25
ENDBRANCH  22  24
ENDBRANCH  20  21
ENDBRANCH  19  20
ENDBRANCH  17  19
ENDBRANCH   1  17
BRANCH  10  27
HETATM   27  C21 UNL     1       0.295  11.116  16.867  1.00  0.00     0.021 C 
BRANCH  27  28
HETATM   28  C22 UNL     1       0.980  11.080  18.239  1.00  0.00     0.111 C 
BRANCH  28  29
HETATM   29  C23 UNL     1       2.289  10.343  18.172  1.00  0.00     0.139 C 
HETATM   30  O3  UNL     1       3.370  10.698  18.610  1.00  0.00    -0.650 OA
BRANCH  29  31
HETATM   31  O4  UNL     1       2.173   9.177  17.505  1.00  0.00    -0.776 OA
HETATM   32  H38 UNL     1       3.077   8.802  17.517  1.00  0.00     0.167 HD
ENDBRANCH  29  31
ENDBRANCH  28  29
ENDBRANCH  27  28
ENDBRANCH  10  27
BRANCH   9  33
HETATM   33  C17 UNL     1      -1.524  13.802  16.865  1.00  0.00     0.080 C 
HETATM   34  C18 UNL     1      -1.618  13.756  18.401  1.00  0.00     0.048 C 
BRANCH  33  35
HETATM   35  O1  UNL     1      -0.196  14.187  16.494  1.00  0.00    -0.388 OA
HETATM   36  H30 UNL     1       0.021  15.021  16.948  1.00  0.00     0.210 HD
ENDBRANCH  33  35
BRANCH  33  37
HETATM   37  C19 UNL     1      -2.479  14.906  16.336  1.00  0.00     0.201 C 
BRANCH  37  38
HETATM   38  O2  UNL     1      -3.847  14.523  16.339  1.00  0.00    -0.398 OA
HETATM   39  H33 UNL     1      -4.162  14.534  17.258  1.00  0.00     0.209 HD
ENDBRANCH  37  38
ENDBRANCH  33  37
ENDBRANCH   9  33
TORSDOF 14
ENDMDL
MODEL 2
REMARK minimizedAffinity -6.05913973
REMARK CNNscore 0.561183929
REMARK CNNaffinity 6.85160398
REMARK  14 active torsions:
REMARK  status: ('A' for Active; 'I' for Inactive)
REMARK    1  A    between atoms: C2_2  and  C30_34 
REMARK    2  A    between atoms: C3_3  and  C4_4 
REMARK    3  A    between atoms: C4_4  and  C5_5 
REMARK    4  A    between atoms: C5_5  and  C6_6 
REMARK    5  A    between atoms: C6_6  and  C8_8 
REMARK    6  A    between atoms: C16_16  and  C17_17 
REMARK    7  A    between atoms: C17_17  and  O1_19 
REMARK    8  A    between atoms: C17_17  and  C19_20 
REMARK    9  A    between atoms: C19_20  and  O2_21 
REMARK   10  A    between atoms: C20_22  and  C21_23 
REMARK   11  A    between atoms: C21_23  and  C22_24 
REMARK   12  A    between atoms: C22_24  and  C23_25 
REMARK   13  A    between atoms: C23_25  and  O4_27 
REMARK   14  A    between atoms: C30_34  and  O5_35 
ROOT
HETATM    1  C8  UNL     1     -10.946   8.275  15.228  1.00  0.00    -0.002 C 
HETATM    2  C9  UNL     1     -11.035   9.798  15.084  1.00  0.00     0.006 C 
HETATM    3  C10 UNL     1     -12.472  10.002  14.643  1.00  0.00     0.011 C 
HETATM    4  C11 UNL     1     -12.695   8.935  13.537  1.00  0.00    -0.032 C 
HETATM    5  C12 UNL     1     -12.263   9.600  12.200  1.00  0.00     0.016 C 
HETATM    6  C13 UNL     1     -14.220   8.594  13.447  1.00  0.00     0.004 C 
HETATM    7  C14 UNL     1     -14.602   7.706  12.206  1.00  0.00     0.007 C 
HETATM    8  C15 UNL     1     -15.945   6.915  12.244  1.00  0.00     0.009 C 
HETATM    9  C16 UNL     1     -16.499   6.580  13.664  1.00  0.00     0.031 C 
HETATM   10  C20 UNL     1     -16.333   7.867  14.483  1.00  0.00    -0.025 A 
HETATM   11  C24 UNL     1     -15.715   8.250  15.786  1.00  0.00     0.021 A 
HETATM   12  C25 UNL     1     -14.750   7.913  14.695  1.00  0.00    -0.027 A 
HETATM   13  C26 UNL     1     -13.830   6.828  15.265  1.00  0.00     0.011 C 
HETATM   14  C27 UNL     1     -12.618   6.489  14.411  1.00  0.00     0.011 C 
HETATM   15  C28 UNL     1     -11.760   7.714  13.986  1.00  0.00    -0.032 C 
HETATM   16  C29 UNL     1     -10.853   7.222  12.843  1.00  0.00     0.016 C 
ENDROOT
BRANCH   1  17
HETATM   17  C6  UNL     1      -9.508   7.802  15.606  1.00  0.00    -0.014 C 
HETATM   18  C7  UNL     1      -8.355   8.712  15.165  1.00  0.00     0.010 C 
BRANCH  17  19
HETATM   19  C5  UNL     1      -9.183   6.342  15.216  1.00  0.00     0.008 C 
BRANCH  19  20
HETATM   20  C4  UNL     1      -7.896   6.192  14.396  1.00  0.00     0.028 C 
BRANCH  20  21
HETATM   21  C3  UNL     1      -7.878   4.880  13.660  1.00  0.00    -0.022 C 
HETATM   22  C2  UNL     1      -6.816   4.224  13.148  1.00  0.00    -0.064 C 
HETATM   23  C1  UNL     1      -5.393   4.714  13.184  1.00  0.00     0.045 C 
BRANCH  22  24
HETATM   24  C30 UNL     1      -6.998   2.907  12.435  1.00  0.00     0.197 C 
BRANCH  24  25
HETATM   25  O5  UNL     1      -8.248   2.350  12.812  1.00  0.00    -0.397 OA
HETATM   26  H50 UNL     1      -8.917   3.033  12.627  1.00  0.00     0.209 HD
ENDBRANCH  24  25
ENDBRANCH  22  24
ENDBRANCH  20  21
ENDBRANCH  19  20
ENDBRANCH  17  19
ENDBRANCH   1  17
BRANCH  10  27
HETATM   27  C21 UNL     1     -17.184   9.071  13.983  1.00  0.00     0.021 C 
BRANCH  27  28
HETATM   28  C22 UNL     1     -17.236   9.188  12.455  1.00  0.00     0.111 C 
BRANCH  28  29
HETATM   29  C23 UNL     1     -16.906  10.585  12.007  1.00  0.00     0.139 C 
HETATM   30  O3  UNL     1     -16.252  11.426  12.599  1.00  0.00    -0.650 OA
BRANCH  29  31
HETATM   31  O4  UNL     1     -17.464  10.874  10.814  1.00  0.00    -0.776 OA
HETATM   32  H38 UNL     1     -17.193  11.798  10.637  1.00  0.00     0.167 HD
ENDBRANCH  29  31
ENDBRANCH  28  29
ENDBRANCH  27  28
ENDBRANCH  10  27
BRANCH   9  33
HETATM   33  C17 UNL     1     -17.913   5.925  13.673  1.00  0.00     0.080 C 
HETATM   34  C18 UNL     1     -18.619   6.213  15.010  1.00  0.00     0.048 C 
BRANCH  33  35
HETATM   35  O1  UNL     1     -18.718   6.440  12.606  1.00  0.00    -0.388 OA
HETATM   36  H30 UNL     1     -19.614   6.069  12.690  1.00  0.00     0.210 HD
ENDBRANCH  33  35
BRANCH  33  37
HETATM   37  C19 UNL     1     -17.825   4.388  13.472  1.00  0.00     0.201 C 
BRANCH  37  38
HETATM   38  O2  UNL     1     -17.123   3.718  14.511  1.00  0.00    -0.398 OA
HETATM   39  H33 UNL     1     -17.695   3.696  15.296  1.00  0.00     0.209 HD
ENDBRANCH  37  38
ENDBRANCH  33  37
ENDBRANCH   9  33
TORSDOF 14
ENDMDL
MODEL 3
REMARK minimizedAffinity -7.26559305
REMARK CNNscore 0.547223032
REMARK CNNaffinity 6.94532251
REMARK  14 active torsions:
REMARK  status: ('A' for Active; 'I' for Inactive)
REMARK    1  A    between atoms: C2_2  and  C30_34 
REMARK    2  A    between atoms: C3_3  and  C4_4 
REMARK    3  A    between atoms: C4_4  and  C5_5 
REMARK    4  A    between atoms: C5_5  and  C6_6 
REMARK    5  A    between atoms: C6_6  and  C8_8 
REMARK    6  A    between atoms: C16_16  and  C17_17 
REMARK    7  A    between atoms: C17_17  and  O1_19 
REMARK    8  A    between atoms: C17_17  and  C19_20 
REMARK    9  A    between atoms: C19_20  and  O2_21 
REMARK   10  A    between atoms: C20_22  and  C21_23 
REMARK   11  A    between atoms: C21_23  and  C22_24 
REMARK   12  A    between atoms: C22_24  and  C23_25 
REMARK   13  A    between atoms: C23_25  and  O4_27 
REMARK   14  A    between atoms: C30_34  and  O5_35 
ROOT
HETATM    1  C8  UNL     1      -4.961   7.183  15.379  1.00  0.00    -0.002 C 
HETATM    2  C9  UNL     1      -3.852   6.126  15.403  1.00  0.00     0.006 C 
HETATM    3  C10 UNL     1      -2.604   6.965  15.599  1.00  0.00     0.011 C 
HETATM    4  C11 UNL     1      -2.764   8.141  14.598  1.00  0.00    -0.032 C 
HETATM    5  C12 UNL     1      -2.145   7.657  13.257  1.00  0.00     0.016 C 
HETATM    6  C13 UNL     1      -1.938   9.370  15.106  1.00  0.00     0.004 C 
HETATM    7  C14 UNL     1      -1.828  10.540  14.060  1.00  0.00     0.007 C 
HETATM    8  C15 UNL     1      -1.463  11.966  14.576  1.00  0.00     0.009 C 
HETATM    9  C16 UNL     1      -1.813  12.260  16.069  1.00  0.00     0.031 C 
HETATM   10  C20 UNL     1      -1.369  11.015  16.848  1.00  0.00    -0.025 A 
HETATM   11  C24 UNL     1      -1.990  10.064  17.816  1.00  0.00     0.021 A 
HETATM   12  C25 UNL     1      -2.471   9.946  16.404  1.00  0.00    -0.027 A 
HETATM   13  C26 UNL     1      -3.997  10.065  16.468  1.00  0.00     0.011 C 
HETATM   14  C27 UNL     1      -4.728   9.744  15.173  1.00  0.00     0.011 C 
HETATM   15  C28 UNL     1      -4.348   8.379  14.534  1.00  0.00    -0.032 C 
HETATM   16  C29 UNL     1      -4.873   8.424  13.087  1.00  0.00     0.016 C 
ENDROOT
BRANCH   1  17
HETATM   17  C6  UNL     1      -6.364   6.560  15.105  1.00  0.00    -0.014 C 
HETATM   18  C7  UNL     1      -7.006   5.793  16.269  1.00  0.00     0.010 C 
BRANCH  17  19
HETATM   19  C5  UNL     1      -6.455   5.706  13.820  1.00  0.00     0.008 C 
BRANCH  19  20
HETATM   20  C4  UNL     1      -7.125   4.342  14.029  1.00  0.00     0.028 C 
BRANCH  20  21
HETATM   21  C3  UNL     1      -6.913   3.452  12.836  1.00  0.00    -0.022 C 
HETATM   22  C2  UNL     1      -5.753   3.137  12.224  1.00  0.00    -0.064 C 
HETATM   23  C1  UNL     1      -4.397   3.664  12.610  1.00  0.00     0.045 C 
BRANCH  22  24
HETATM   24  C30 UNL     1      -5.742   2.218  11.027  1.00  0.00     0.197 C 
BRANCH  24  25
HETATM   25  O5  UNL     1      -4.833   1.156  11.271  1.00  0.00    -0.397 OA
HETATM   26  H50 UNL     1      -5.103   0.755  12.115  1.00  0.00     0.209 HD
ENDBRANCH  24  25
ENDBRANCH  22  24
ENDBRANCH  20  21
ENDBRANCH  19  20
ENDBRANCH  17  19
ENDBRANCH   1  17
BRANCH  10  27
HETATM   27  C21 UNL     1       0.165  10.750  16.830  1.00  0.00     0.021 C 
BRANCH  27  28
HETATM   28  C22 UNL     1       0.795  10.714  18.228  1.00  0.00     0.111 C 
BRANCH  28  29
HETATM   29  C23 UNL     1       2.044   9.878  18.238  1.00  0.00     0.139 C 
HETATM   30  O3  UNL     1       2.502   9.206  17.330  1.00  0.00    -0.650 OA
BRANCH  29  31
HETATM   31  O4  UNL     1       2.653   9.901  19.441  1.00  0.00    -0.776 OA
HETATM   32  H38 UNL     1       3.433   9.320  19.328  1.00  0.00     0.167 HD
ENDBRANCH  29  31
ENDBRANCH  28  29
ENDBRANCH  27  28
ENDBRANCH  10  27
BRANCH   9  33
HETATM   33  C17 UNL     1      -1.302  13.634  16.598  1.00  0.00     0.080 C 
HETATM   34  C18 UNL     1       0.130  13.892  16.097  1.00  0.00     0.048 C 
BRANCH  33  35
HETATM   35  O1  UNL     1      -2.148  14.698  16.148  1.00  0.00    -0.388 OA
HETATM   36  H30 UNL     1      -1.756  15.543  16.431  1.00  0.00     0.210 HD
ENDBRANCH  33  35
BRANCH  33  37
HETATM   37  C19 UNL     1      -1.307  13.678  18.151  1.00  0.00     0.201 C 
BRANCH  37  38
HETATM   38  O2  UNL     1      -0.798  14.892  18.685  1.00  0.00    -0.398 OA
HETATM   39  H33 UNL     1      -1.466  15.585  18.551  1.00  0.00     0.209 HD
ENDBRANCH  37  38
ENDBRANCH  33  37
ENDBRANCH   9  33
TORSDOF 14
ENDMDL
MODEL 4
REMARK minimizedAffinity -6.79649162
REMARK CNNscore 0.480177641
REMARK CNNaffinity 6.7045188
REMARK  14 active torsions:
REMARK  status: ('A' for Active; 'I' for Inactive)
REMARK    1  A    between atoms: C2_2  and  C30_34 
REMARK    2  A    between atoms: C3_3  and  C4_4 
REMARK    3  A    between atoms: C4_4  and  C5_5 
REMARK    4  A    between atoms: C5_5  and  C6_6 
REMARK    5  A    between atoms: C6_6  and  C8_8 
REMARK    6  A    between atoms: C16_16  and  C17_17 
REMARK    7  A    between atoms: C17_17  and  O1_19 
REMARK    8  A    between atoms: C17_17  and  C19_20 
REMARK    9  A    between atoms: C19_20  and  O2_21 
REMARK   10  A    between atoms: C20_22  and  C21_23 
REMARK   11  A    between atoms: C21_23  and  C22_24 
REMARK   12  A    between atoms: C22_24  and  C23_25 
REMARK   13  A    between atoms: C23_25  and  O4_27 
REMARK   14  A    between atoms: C30_34  and  O5_35 
ROOT
HETATM    1  C8  UNL     1      -3.256   7.842  14.775  1.00  0.00    -0.002 C 
HETATM    2  C9  UNL     1      -2.295   6.803  15.361  1.00  0.00     0.006 C 
HETATM    3  C10 UNL     1      -1.397   7.649  16.245  1.00  0.00     0.011 C 
HETATM    4  C11 UNL     1      -1.037   8.879  15.369  1.00  0.00    -0.032 C 
HETATM    5  C12 UNL     1       0.238   8.485  14.570  1.00  0.00     0.016 C 
HETATM    6  C13 UNL     1      -0.681  10.089  16.297  1.00  0.00     0.004 C 
HETATM    7  C14 UNL     1      -0.070  11.320  15.532  1.00  0.00     0.007 C 
HETATM    8  C15 UNL     1      -0.113  12.719  16.221  1.00  0.00     0.009 C 
HETATM    9  C16 UNL     1      -1.237  12.919  17.286  1.00  0.00     0.031 C 
HETATM   10  C20 UNL     1      -1.236  11.638  18.130  1.00  0.00    -0.025 A 
HETATM   11  C24 UNL     1      -2.241  10.621  18.557  1.00  0.00     0.021 A 
HETATM   12  C25 UNL     1      -1.863  10.579  17.111  1.00  0.00    -0.027 A 
HETATM   13  C26 UNL     1      -3.179  10.670  16.329  1.00  0.00     0.011 C 
HETATM   14  C27 UNL     1      -3.065  10.414  14.834  1.00  0.00     0.011 C 
HETATM   15  C28 UNL     1      -2.335   9.095  14.455  1.00  0.00    -0.032 C 
HETATM   16  C29 UNL     1      -1.983   9.217  12.961  1.00  0.00     0.016 C 
ENDROOT
BRANCH   1  17
HETATM   17  C6  UNL     1      -4.250   7.214  13.750  1.00  0.00    -0.014 C 
HETATM   18  C7  UNL     1      -5.534   8.006  13.475  1.00  0.00     0.010 C 
BRANCH  17  19
HETATM   19  C5  UNL     1      -4.611   5.736  14.020  1.00  0.00     0.008 C 
BRANCH  19  20
HETATM   20  C4  UNL     1      -5.860   5.257  13.270  1.00  0.00     0.028 C 
BRANCH  20  21
HETATM   21  C3  UNL     1      -5.537   4.090  12.377  1.00  0.00    -0.022 C 
HETATM   22  C2  UNL     1      -6.263   2.972  12.169  1.00  0.00    -0.064 C 
HETATM   23  C1  UNL     1      -7.569   2.646  12.843  1.00  0.00     0.045 C 
BRANCH  22  24
HETATM   24  C30 UNL     1      -5.769   1.902  11.227  1.00  0.00     0.197 C 
BRANCH  24  25
HETATM   25  O5  UNL     1      -6.633   0.780  11.312  1.00  0.00    -0.397 OA
HETATM   26  H50 UNL     1      -7.532   1.115  11.144  1.00  0.00     0.209 HD
ENDBRANCH  24  25
ENDBRANCH  22  24
ENDBRANCH  20  21
ENDBRANCH  19  20
ENDBRANCH  17  19
ENDBRANCH   1  17
BRANCH  10  27
HETATM   27  C21 UNL     1       0.068  11.398  18.947  1.00  0.00     0.021 C 
BRANCH  27  28
HETATM   28  C22 UNL     1       1.346  11.525  18.109  1.00  0.00     0.111 C 
BRANCH  28  29
HETATM   29  C23 UNL     1       2.308  10.411  18.416  1.00  0.00     0.139 C 
HETATM   30  O3  UNL     1       2.548   9.906  19.500  1.00  0.00    -0.650 OA
BRANCH  29  31
HETATM   31  O4  UNL     1       2.966  10.000  17.313  1.00  0.00    -0.776 OA
HETATM   32  H38 UNL     1       3.562   9.294  17.637  1.00  0.00     0.167 HD
ENDBRANCH  29  31
ENDBRANCH  28  29
ENDBRANCH  27  28
ENDBRANCH  10  27
BRANCH   9  33
HETATM   33  C17 UNL     1      -1.162  14.267  18.064  1.00  0.00     0.080 C 
HETATM   34  C18 UNL     1       0.230  14.899  17.892  1.00  0.00     0.048 C 
BRANCH  33  35
HETATM   35  O1  UNL     1      -2.150  15.186  17.584  1.00  0.00    -0.388 OA
HETATM   36  H30 UNL     1      -2.023  16.039  18.036  1.00  0.00     0.210 HD
ENDBRANCH  33  35
BRANCH  33  37
HETATM   37  C19 UNL     1      -1.436  14.061  19.579  1.00  0.00     0.201 C 
BRANCH  37  38
HETATM   38  O2  UNL     1      -0.406  14.568  20.417  1.00  0.00    -0.398 OA
HETATM   39  H33 UNL     1      -0.471  15.537  20.422  1.00  0.00     0.209 HD
ENDBRANCH  37  38
ENDBRANCH  33  37
ENDBRANCH   9  33
TORSDOF 14
ENDMDL
MODEL 5
REMARK minimizedAffinity -7.08347225
REMARK CNNscore 0.457679003
REMARK CNNaffinity 6.7883954
REMARK  14 active torsions:
REMARK  status: ('A' for Active; 'I' for Inactive)
REMARK    1  A    between atoms: C2_2  and  C30_34 
REMARK    2  A    between atoms: C3_3  and  C4_4 
REMARK    3  A    between atoms: C4_4  and  C5_5 
REMARK    4  A    between atoms: C5_5  and  C6_6 
REMARK    5  A    between atoms: C6_6  and  C8_8 
REMARK    6  A    between atoms: C16_16  and  C17_17 
REMARK    7  A    between atoms: C17_17  and  O1_19 
REMARK    8  A    between atoms: C17_17  and  C19_20 
REMARK    9  A    between atoms: C19_20  and  O2_21 
REMARK   10  A    between atoms: C20_22  and  C21_23 
REMARK   11  A    between atoms: C21_23  and  C22_24 
REMARK   12  A    between atoms: C22_24  and  C23_25 
REMARK   13  A    between atoms: C23_25  and  O4_27 
REMARK   14  A    between atoms: C30_34  and  O5_35 
ROOT
HETATM    1  C8  UNL     1      -4.145   7.931  15.277  1.00  0.00    -0.002 C 
HETATM    2  C9  UNL     1      -3.217   6.779  15.677  1.00  0.00     0.006 C 
HETATM    3  C10 UNL     1      -2.057   7.505  16.331  1.00  0.00     0.011 C 
HETATM    4  C11 UNL     1      -1.740   8.681  15.367  1.00  0.00    -0.032 C 
HETATM    5  C12 UNL     1      -0.721   8.130  14.330  1.00  0.00     0.016 C 
HETATM    6  C13 UNL     1      -1.052   9.836  16.168  1.00  0.00     0.004 C 
HETATM    7  C14 UNL     1      -0.468  10.982  15.260  1.00  0.00     0.007 C 
HETATM    8  C15 UNL     1      -0.193  12.374  15.906  1.00  0.00     0.009 C 
HETATM    9  C16 UNL     1      -1.034  12.713  17.177  1.00  0.00     0.031 C 
HETATM   10  C20 UNL     1      -1.013  11.442  18.035  1.00  0.00    -0.025 A 
HETATM   11  C24 UNL     1      -2.022  10.560  18.690  1.00  0.00     0.021 A 
HETATM   12  C25 UNL     1      -1.967  10.471  17.198  1.00  0.00    -0.027 A 
HETATM   13  C26 UNL     1      -3.396  10.726  16.707  1.00  0.00     0.011 C 
HETATM   14  C27 UNL     1      -3.632  10.459  15.228  1.00  0.00     0.011 C 
HETATM   15  C28 UNL     1      -3.165   9.058  14.739  1.00  0.00    -0.032 C 
HETATM   16  C29 UNL     1      -3.124   9.136  13.202  1.00  0.00     0.016 C 
ENDROOT
BRANCH   1  17
HETATM   17  C6  UNL     1      -5.402   7.433  14.499  1.00  0.00    -0.014 C 
HETATM   18  C7  UNL     1      -6.758   7.952  14.995  1.00  0.00     0.010 C 
BRANCH  17  19
HETATM   19  C5  UNL     1      -5.481   5.901  14.308  1.00  0.00     0.008 C 
BRANCH  19  20
HETATM   20  C4  UNL     1      -4.847   5.407  13.002  1.00  0.00     0.028 C 
BRANCH  20  21
HETATM   21  C3  UNL     1      -5.319   4.019  12.668  1.00  0.00    -0.022 C 
HETATM   22  C2  UNL     1      -6.583   3.592  12.467  1.00  0.00    -0.064 C 
HETATM   23  C1  UNL     1      -7.817   4.449  12.578  1.00  0.00     0.045 C 
BRANCH  22  24
HETATM   24  C30 UNL     1      -6.862   2.146  12.138  1.00  0.00     0.197 C 
BRANCH  24  25
HETATM   25  O5  UNL     1      -8.153   1.805  12.620  1.00  0.00    -0.397 OA
HETATM   26  H50 UNL     1      -8.767   2.457  12.238  1.00  0.00     0.209 HD
ENDBRANCH  24  25
ENDBRANCH  22  24
ENDBRANCH  20  21
ENDBRANCH  19  20
ENDBRANCH  17  19
ENDBRANCH   1  17
BRANCH  10  27
HETATM   27  C21 UNL     1       0.394  11.040  18.568  1.00  0.00     0.021 C 
BRANCH  27  28
HETATM   28  C22 UNL     1       0.478  11.000  20.099  1.00  0.00     0.111 C 
BRANCH  28  29
HETATM   29  C23 UNL     1       1.862  10.629  20.556  1.00  0.00     0.139 C 
HETATM   30  O3  UNL     1       2.559   9.709  20.162  1.00  0.00    -0.650 OA
BRANCH  29  31
HETATM   31  O4  UNL     1       2.297  11.438  21.542  1.00  0.00    -0.776 OA
HETATM   32  H38 UNL     1       3.188  11.095  21.760  1.00  0.00     0.167 HD
ENDBRANCH  29  31
ENDBRANCH  28  29
ENDBRANCH  27  28
ENDBRANCH  10  27
BRANCH   9  33
HETATM   33  C17 UNL     1      -0.632  14.041  17.887  1.00  0.00     0.080 C 
HETATM   34  C18 UNL     1      -1.227  14.082  19.306  1.00  0.00     0.048 C 
BRANCH  33  35
HETATM   35  O1  UNL     1       0.792  14.157  17.980  1.00  0.00    -0.388 OA
HETATM   36  H30 UNL     1       1.003  14.955  18.495  1.00  0.00     0.210 HD
ENDBRANCH  33  35
BRANCH  33  37
HETATM   37  C19 UNL     1      -1.135  15.279  17.096  1.00  0.00     0.201 C 
BRANCH  37  38
HETATM   38  O2  UNL     1      -0.267  15.671  16.042  1.00  0.00    -0.398 OA
HETATM   39  H33 UNL     1      -0.361  15.029  15.318  1.00  0.00     0.209 HD
ENDBRANCH  37  38
ENDBRANCH  33  37
ENDBRANCH   9  33
TORSDOF 14
ENDMDL
MODEL 6
REMARK minimizedAffinity -8.01843929
REMARK CNNscore 0.450281441
REMARK CNNaffinity 7.04639959
REMARK  14 active torsions:
REMARK  status: ('A' for Active; 'I' for Inactive)
REMARK    1  A    between atoms: C2_2  and  C30_34 
REMARK    2  A    between atoms: C3_3  and  C4_4 
REMARK    3  A    between atoms: C4_4  and  C5_5 
REMARK    4  A    between atoms: C5_5  and  C6_6 
REMARK    5  A    between atoms: C6_6  and  C8_8 
REMARK    6  A    between atoms: C16_16  and  C17_17 
REMARK    7  A    between atoms: C17_17  and  O1_19 
REMARK    8  A    between atoms: C17_17  and  C19_20 
REMARK    9  A    between atoms: C19_20  and  O2_21 
REMARK   10  A    between atoms: C20_22  and  C21_23 
REMARK   11  A    between atoms: C21_23  and  C22_24 
REMARK   12  A    between atoms: C22_24  and  C23_25 
REMARK   13  A    between atoms: C23_25  and  O4_27 
REMARK   14  A    between atoms: C30_34  and  O5_35 
ROOT
HETATM    1  C8  UNL     1      -2.572   8.520  14.357  1.00  0.00    -0.002 C 
HETATM    2  C9  UNL     1      -1.858   8.105  15.648  1.00  0.00     0.006 C 
HETATM    3  C10 UNL     1      -0.525   7.593  15.135  1.00  0.00     0.011 C 
HETATM    4  C11 UNL     1      -0.894   6.688  13.928  1.00  0.00    -0.032 C 
HETATM    5  C12 UNL     1      -1.138   5.267  14.510  1.00  0.00     0.016 C 
HETATM    6  C13 UNL     1       0.321   6.615  12.945  1.00  0.00     0.004 C 
HETATM    7  C14 UNL     1       0.156   5.540  11.807  1.00  0.00     0.007 C 
HETATM    8  C15 UNL     1       1.031   5.678  10.523  1.00  0.00     0.009 C 
HETATM    9  C16 UNL     1       1.534   7.119  10.193  1.00  0.00     0.031 C 
HETATM   10  C20 UNL     1       2.018   7.700  11.528  1.00  0.00    -0.025 A 
HETATM   11  C24 UNL     1       1.762   8.932  12.329  1.00  0.00     0.021 A 
HETATM   12  C25 UNL     1       0.637   7.947  12.292  1.00  0.00    -0.027 A 
HETATM   13  C26 UNL     1      -0.592   8.729  11.816  1.00  0.00     0.011 C 
HETATM   14  C27 UNL     1      -1.915   7.985  11.920  1.00  0.00     0.011 C 
HETATM   15  C28 UNL     1      -2.208   7.374  13.320  1.00  0.00    -0.032 C 
HETATM   16  C29 UNL     1      -3.352   6.365  13.113  1.00  0.00     0.016 C 
ENDROOT
BRANCH   1  17
HETATM   17  C6  UNL     1      -4.026   9.019  14.622  1.00  0.00    -0.014 C 
HETATM   18  C7  UNL     1      -4.163  10.412  15.248  1.00  0.00     0.010 C 
BRANCH  17  19
HETATM   19  C5  UNL     1      -4.922   8.023  15.392  1.00  0.00     0.008 C 
BRANCH  19  20
HETATM   20  C4  UNL     1      -6.234   7.687  14.672  1.00  0.00     0.028 C 
BRANCH  20  21
HETATM   21  C3  UNL     1      -6.448   6.199  14.612  1.00  0.00    -0.022 C 
HETATM   22  C2  UNL     1      -7.452   5.523  14.016  1.00  0.00    -0.064 C 
HETATM   23  C1  UNL     1      -8.616   6.152  13.299  1.00  0.00     0.045 C 
BRANCH  22  24
HETATM   24  C30 UNL     1      -7.496   4.016  14.065  1.00  0.00     0.197 C 
BRANCH  24  25
HETATM   25  O5  UNL     1      -8.610   3.563  13.311  1.00  0.00    -0.397 OA
HETATM   26  H50 UNL     1      -8.519   3.960  12.427  1.00  0.00     0.209 HD
ENDBRANCH  24  25
ENDBRANCH  22  24
ENDBRANCH  20  21
ENDBRANCH  19  20
ENDBRANCH  17  19
ENDBRANCH   1  17
BRANCH  10  27
HETATM   27  C21 UNL     1       3.244   6.969  12.150  1.00  0.00     0.021 C 
BRANCH  27  28
HETATM   28  C22 UNL     1       4.526   7.809  12.140  1.00  0.00     0.111 C 
BRANCH  28  29
HETATM   29  C23 UNL     1       5.664   7.055  11.508  1.00  0.00     0.139 C 
HETATM   30  O3  UNL     1       6.236   7.304  10.461  1.00  0.00    -0.650 OA
BRANCH  29  31
HETATM   31  O4  UNL     1       6.009   5.972  12.232  1.00  0.00    -0.776 OA
HETATM   32  H38 UNL     1       6.738   5.563  11.722  1.00  0.00     0.167 HD
ENDBRANCH  29  31
ENDBRANCH  28  29
ENDBRANCH  27  28
ENDBRANCH  10  27
BRANCH   9  33
HETATM   33  C17 UNL     1       2.527   7.202   8.995  1.00  0.00     0.080 C 
HETATM   34  C18 UNL     1       1.753   7.426   7.683  1.00  0.00     0.048 C 
BRANCH  33  35
HETATM   35  O1  UNL     1       3.451   8.281   9.175  1.00  0.00    -0.388 OA
HETATM   36  H30 UNL     1       4.002   8.351   8.376  1.00  0.00     0.210 HD
ENDBRANCH  33  35
BRANCH  33  37
HETATM   37  C19 UNL     1       3.367   5.903   8.866  1.00  0.00     0.201 C 
BRANCH  37  38
HETATM   38  O2  UNL     1       3.067   5.144   7.703  1.00  0.00    -0.398 OA
HETATM   39  H33 UNL     1       3.450   5.602   6.936  1.00  0.00     0.209 HD
ENDBRANCH  37  38
ENDBRANCH  33  37
ENDBRANCH   9  33
TORSDOF 14
ENDMDL
MODEL 7
REMARK minimizedAffinity -6.31476355
REMARK CNNscore 0.39344123
REMARK CNNaffinity 6.80388975
REMARK  14 active torsions:
REMARK  status: ('A' for Active; 'I' for Inactive)
REMARK    1  A    between atoms: C2_2  and  C30_34 
REMARK    2  A    between atoms: C3_3  and  C4_4 
REMARK    3  A    between atoms: C4_4  and  C5_5 
REMARK    4  A    between atoms: C5_5  and  C6_6 
REMARK    5  A    between atoms: C6_6  and  C8_8 
REMARK    6  A    between atoms: C16_16  and  C17_17 
REMARK    7  A    between atoms: C17_17  and  O1_19 
REMARK    8  A    between atoms: C17_17  and  C19_20 
REMARK    9  A    between atoms: C19_20  and  O2_21 
REMARK   10  A    between atoms: C20_22  and  C21_23 
REMARK   11  A    between atoms: C21_23  and  C22_24 
REMARK   12  A    between atoms: C22_24  and  C23_25 
REMARK   13  A    between atoms: C23_25  and  O4_27 
REMARK   14  A    between atoms: C30_34  and  O5_35 
ROOT
HETATM    1  C8  UNL     1      -8.445   6.952  14.266  1.00  0.00    -0.002 C 
HETATM    2  C9  UNL     1      -8.658   7.184  15.765  1.00  0.00     0.006 C 
HETATM    3  C10 UNL     1      -7.241   7.367  16.273  1.00  0.00     0.011 C 
HETATM    4  C11 UNL     1      -6.435   6.223  15.601  1.00  0.00    -0.032 C 
HETATM    5  C12 UNL     1      -6.544   4.999  16.553  1.00  0.00     0.016 C 
HETATM    6  C13 UNL     1      -4.929   6.638  15.504  1.00  0.00     0.004 C 
HETATM    7  C14 UNL     1      -3.973   5.469  15.060  1.00  0.00     0.007 C 
HETATM    8  C15 UNL     1      -2.575   5.835  14.475  1.00  0.00     0.009 C 
HETATM    9  C16 UNL     1      -2.455   7.252  13.830  1.00  0.00     0.031 C 
HETATM   10  C20 UNL     1      -3.164   8.206  14.800  1.00  0.00    -0.025 A 
HETATM   11  C24 UNL     1      -4.243   9.233  14.715  1.00  0.00     0.021 A 
HETATM   12  C25 UNL     1      -4.697   7.815  14.575  1.00  0.00    -0.027 A 
HETATM   13  C26 UNL     1      -5.484   7.752  13.261  1.00  0.00     0.011 C 
HETATM   14  C27 UNL     1      -6.242   6.456  13.019  1.00  0.00     0.011 C 
HETATM   15  C28 UNL     1      -7.165   6.015  14.190  1.00  0.00    -0.032 C 
HETATM   16  C29 UNL     1      -7.515   4.539  13.925  1.00  0.00     0.016 C 
ENDROOT
BRANCH   1  17
HETATM   17  C6  UNL     1      -9.781   6.654  13.519  1.00  0.00    -0.014 C 
HETATM   18  C7  UNL     1      -9.702   6.574  11.989  1.00  0.00     0.010 C 
BRANCH  17  19
HETATM   19  C5  UNL     1     -10.966   7.562  13.922  1.00  0.00     0.008 C 
BRANCH  19  20
HETATM   20  C4  UNL     1     -12.262   7.263  13.159  1.00  0.00     0.028 C 
BRANCH  20  21
HETATM   21  C3  UNL     1     -13.166   6.371  13.966  1.00  0.00    -0.022 C 
HETATM   22  C2  UNL     1     -14.501   6.212  13.851  1.00  0.00    -0.064 C 
HETATM   23  C1  UNL     1     -15.383   6.951  12.880  1.00  0.00     0.045 C 
BRANCH  22  24
HETATM   24  C30 UNL     1     -15.241   5.263  14.761  1.00  0.00     0.197 C 
BRANCH  24  25
HETATM   25  O5  UNL     1     -16.549   5.061  14.249  1.00  0.00    -0.397 OA
HETATM   26  H50 UNL     1     -16.439   4.770  13.327  1.00  0.00     0.209 HD
ENDBRANCH  24  25
ENDBRANCH  22  24
ENDBRANCH  20  21
ENDBRANCH  19  20
ENDBRANCH  17  19
ENDBRANCH   1  17
BRANCH  10  27
HETATM   27  C21 UNL     1      -2.490   8.332  16.198  1.00  0.00     0.021 C 
BRANCH  27  28
HETATM   28  C22 UNL     1      -2.556   9.748  16.782  1.00  0.00     0.111 C 
BRANCH  28  29
HETATM   29  C23 UNL     1      -1.193  10.383  16.819  1.00  0.00     0.139 C 
HETATM   30  O3  UNL     1      -0.921  11.564  16.954  1.00  0.00    -0.650 OA
BRANCH  29  31
HETATM   31  O4  UNL     1      -0.213   9.474  16.643  1.00  0.00    -0.776 OA
HETATM   32  H38 UNL     1       0.612  10.001  16.673  1.00  0.00     0.167 HD
ENDBRANCH  29  31
ENDBRANCH  28  29
ENDBRANCH  27  28
ENDBRANCH  10  27
BRANCH   9  33
HETATM   33  C17 UNL     1      -1.013   7.647  13.393  1.00  0.00     0.080 C 
HETATM   34  C18 UNL     1      -0.811   7.337  11.899  1.00  0.00     0.048 C 
BRANCH  33  35
HETATM   35  O1  UNL     1      -0.781   9.044  13.610  1.00  0.00    -0.388 OA
HETATM   36  H30 UNL     1       0.097   9.269  13.254  1.00  0.00     0.210 HD
ENDBRANCH  33  35
BRANCH  33  37
HETATM   37  C19 UNL     1       0.058   6.879  14.214  1.00  0.00     0.201 C 
BRANCH  37  38
HETATM   38  O2  UNL     1       1.284   6.697  13.521  1.00  0.00    -0.398 OA
HETATM   39  H33 UNL     1       1.749   7.550  13.501  1.00  0.00     0.209 HD
ENDBRANCH  37  38
ENDBRANCH  33  37
ENDBRANCH   9  33
TORSDOF 14
ENDMDL
MODEL 8
REMARK minimizedAffinity -6.87539148
REMARK CNNscore 0.332084626
REMARK CNNaffinity 6.39505386
REMARK  14 active torsions:
REMARK  status: ('A' for Active; 'I' for Inactive)
REMARK    1  A    between atoms: C2_2  and  C30_34 
REMARK    2  A    between atoms: C3_3  and  C4_4 
REMARK    3  A    between atoms: C4_4  and  C5_5 
REMARK    4  A    between atoms: C5_5  and  C6_6 
REMARK    5  A    between atoms: C6_6  and  C8_8 
REMARK    6  A    between atoms: C16_16  and  C17_17 
REMARK    7  A    between atoms: C17_17  and  O1_19 
REMARK    8  A    between atoms: C17_17  and  C19_20 
REMARK    9  A    between atoms: C19_20  and  O2_21 
REMARK   10  A    between atoms: C20_22  and  C21_23 
REMARK   11  A    between atoms: C21_23  and  C22_24 
REMARK   12  A    between atoms: C22_24  and  C23_25 
REMARK   13  A    between atoms: C23_25  and  O4_27 
REMARK   14  A    between atoms: C30_34  and  O5_35 
ROOT
HETATM    1  C8  UNL     1      -3.578   6.963  14.726  1.00  0.00    -0.002 C 
HETATM    2  C9  UNL     1      -2.217   6.309  14.986  1.00  0.00     0.006 C 
HETATM    3  C10 UNL     1      -1.433   7.432  15.638  1.00  0.00     0.011 C 
HETATM    4  C11 UNL     1      -1.729   8.676  14.756  1.00  0.00    -0.032 C 
HETATM    5  C12 UNL     1      -0.657   8.673  13.629  1.00  0.00     0.016 C 
HETATM    6  C13 UNL     1      -1.541   9.974  15.610  1.00  0.00     0.004 C 
HETATM    7  C14 UNL     1      -1.579  11.302  14.768  1.00  0.00     0.007 C 
HETATM    8  C15 UNL     1      -1.878  12.642  15.508  1.00  0.00     0.009 C 
HETATM    9  C16 UNL     1      -2.680  12.519  16.842  1.00  0.00     0.031 C 
HETATM   10  C20 UNL     1      -2.048  11.342  17.595  1.00  0.00    -0.025 A 
HETATM   11  C24 UNL     1      -2.526  10.078  18.227  1.00  0.00     0.021 A 
HETATM   12  C25 UNL     1      -2.555  10.097  16.732  1.00  0.00    -0.027 A 
HETATM   13  C26 UNL     1      -3.990   9.732  16.334  1.00  0.00     0.011 C 
HETATM   14  C27 UNL     1      -4.204   9.462  14.852  1.00  0.00     0.011 C 
HETATM   15  C28 UNL     1      -3.222   8.429  14.231  1.00  0.00    -0.032 C 
HETATM   16  C29 UNL     1      -3.340   8.594  12.704  1.00  0.00     0.016 C 
ENDROOT
BRANCH   1  17
HETATM   17  C6  UNL     1      -4.557   6.009  13.975  1.00  0.00    -0.014 C 
HETATM   18  C7  UNL     1      -5.919   5.772  14.638  1.00  0.00     0.010 C 
BRANCH  17  19
HETATM   19  C5  UNL     1      -3.948   4.650  13.561  1.00  0.00     0.008 C 
BRANCH  19  20
HETATM   20  C4  UNL     1      -3.974   4.394  12.049  1.00  0.00     0.028 C 
BRANCH  20  21
HETATM   21  C3  UNL     1      -2.737   3.662  11.607  1.00  0.00    -0.022 C 
HETATM   22  C2  UNL     1      -2.563   2.333  11.453  1.00  0.00    -0.064 C 
HETATM   23  C1  UNL     1      -3.603   1.283  11.739  1.00  0.00     0.045 C 
BRANCH  22  24
HETATM   24  C30 UNL     1      -1.236   1.781  10.996  1.00  0.00     0.197 C 
BRANCH  24  25
HETATM   25  O5  UNL     1      -1.324   1.449   9.619  1.00  0.00    -0.397 OA
HETATM   26  H50 UNL     1      -1.632   2.253   9.165  1.00  0.00     0.209 HD
ENDBRANCH  24  25
ENDBRANCH  22  24
ENDBRANCH  20  21
ENDBRANCH  19  20
ENDBRANCH  17  19
ENDBRANCH   1  17
BRANCH  10  27
HETATM   27  C21 UNL     1      -0.567  11.563  18.024  1.00  0.00     0.021 C 
BRANCH  27  28
HETATM   28  C22 UNL     1      -0.372  11.607  19.544  1.00  0.00     0.111 C 
BRANCH  28  29
HETATM   29  C23 UNL     1       0.973  11.060  19.934  1.00  0.00     0.139 C 
HETATM   30  O3  UNL     1       1.213  10.122  20.675  1.00  0.00    -0.650 OA
BRANCH  29  31
HETATM   31  O4  UNL     1       1.980  11.768  19.383  1.00  0.00    -0.776 OA
HETATM   32  H38 UNL     1       2.791  11.331  19.715  1.00  0.00     0.167 HD
ENDBRANCH  29  31
ENDBRANCH  28  29
ENDBRANCH  27  28
ENDBRANCH  10  27
BRANCH   9  33
HETATM   33  C17 UNL     1      -2.832  13.853  17.634  1.00  0.00     0.080 C 
HETATM   34  C18 UNL     1      -3.442  13.577  19.020  1.00  0.00     0.048 C 
BRANCH  33  35
HETATM   35  O1  UNL     1      -1.560  14.489  17.807  1.00  0.00    -0.388 OA
HETATM   36  H30 UNL     1      -1.682  15.273  18.370  1.00  0.00     0.210 HD
ENDBRANCH  33  35
BRANCH  33  37
HETATM   37  C19 UNL     1      -3.740  14.860  16.877  1.00  0.00     0.201 C 
BRANCH  37  38
HETATM   38  O2  UNL     1      -4.190  15.938  17.685  1.00  0.00    -0.398 OA
HETATM   39  H33 UNL     1      -3.443  16.543  17.824  1.00  0.00     0.209 HD
ENDBRANCH  37  38
ENDBRANCH  33  37
ENDBRANCH   9  33
TORSDOF 14
ENDMDL
MODEL 9
REMARK minimizedAffinity -8.00435829
REMARK CNNscore 0.321234345
REMARK CNNaffinity 6.69252014
REMARK  14 active torsions:
REMARK  status: ('A' for Active; 'I' for Inactive)
REMARK    1  A    between atoms: C2_2  and  C30_34 
REMARK    2  A    between atoms: C3_3  and  C4_4 
REMARK    3  A    between atoms: C4_4  and  C5_5 
REMARK    4  A    between atoms: C5_5  and  C6_6 
REMARK    5  A    between atoms: C6_6  and  C8_8 
REMARK    6  A    between atoms: C16_16  and  C17_17 
REMARK    7  A    between atoms: C17_17  and  O1_19 
REMARK    8  A    between atoms: C17_17  and  C19_20 
REMARK    9  A    between atoms: C19_20  and  O2_21 
REMARK   10  A    between atoms: C20_22  and  C21_23 
REMARK   11  A    between atoms: C21_23  and  C22_24 
REMARK   12  A    between atoms: C22_24  and  C23_25 
REMARK   13  A    between atoms: C23_25  and  O4_27 
REMARK   14  A    between atoms: C30_34  and  O5_35 
ROOT
HETATM    1  C8  UNL     1      -3.417   7.567  13.005  1.00  0.00    -0.002 C 
HETATM    2  C9  UNL     1      -3.223   9.074  13.207  1.00  0.00     0.006 C 
HETATM    3  C10 UNL     1      -1.796   9.286  12.739  1.00  0.00     0.011 C 
HETATM    4  C11 UNL     1      -0.993   8.135  13.403  1.00  0.00    -0.032 C 
HETATM    5  C12 UNL     1      -0.543   8.664  14.793  1.00  0.00     0.016 C 
HETATM    6  C13 UNL     1       0.287   7.838  12.552  1.00  0.00     0.004 C 
HETATM    7  C14 UNL     1       1.301   6.857  13.248  1.00  0.00     0.007 C 
HETATM    8  C15 UNL     1       2.348   6.118  12.359  1.00  0.00     0.009 C 
HETATM    9  C16 UNL     1       1.956   5.929  10.859  1.00  0.00     0.031 C 
HETATM   10  C20 UNL     1       1.374   7.277  10.414  1.00  0.00    -0.025 A 
HETATM   11  C24 UNL     1       0.119   7.752   9.761  1.00  0.00     0.021 A 
HETATM   12  C25 UNL     1      -0.032   7.288  11.175  1.00  0.00    -0.027 A 
HETATM   13  C26 UNL     1      -1.137   6.227  11.154  1.00  0.00     0.011 C 
HETATM   14  C27 UNL     1      -1.628   5.773  12.521  1.00  0.00     0.011 C 
HETATM   15  C28 UNL     1      -2.043   6.926  13.477  1.00  0.00    -0.032 C 
HETATM   16  C29 UNL     1      -2.121   6.306  14.884  1.00  0.00     0.016 C 
ENDROOT
BRANCH   1  17
HETATM   17  C6  UNL     1      -4.814   7.081  13.498  1.00  0.00    -0.014 C 
HETATM   18  C7  UNL     1      -5.508   7.959  14.547  1.00  0.00     0.010 C 
BRANCH  17  19
HETATM   19  C5  UNL     1      -4.863   5.606  13.957  1.00  0.00     0.008 C 
BRANCH  19  20
HETATM   20  C4  UNL     1      -6.094   4.842  13.455  1.00  0.00     0.028 C 
BRANCH  20  21
HETATM   21  C3  UNL     1      -5.721   3.883  12.357  1.00  0.00    -0.022 C 
HETATM   22  C2  UNL     1      -6.324   2.725  12.019  1.00  0.00    -0.064 C 
HETATM   23  C1  UNL     1      -7.510   2.125  12.725  1.00  0.00     0.045 C 
BRANCH  22  24
HETATM   24  C30 UNL     1      -5.798   1.891  10.877  1.00  0.00     0.197 C 
BRANCH  24  25
HETATM   25  O5  UNL     1      -4.698   1.121  11.337  1.00  0.00    -0.397 OA
HETATM   26  H50 UNL     1      -5.016   0.629  12.114  1.00  0.00     0.209 HD
ENDBRANCH  24  25
ENDBRANCH  22  24
ENDBRANCH  20  21
ENDBRANCH  19  20
ENDBRANCH  17  19
ENDBRANCH   1  17
BRANCH  10  27
HETATM   27  C21 UNL     1       2.386   8.460  10.429  1.00  0.00     0.021 C 
BRANCH  27  28
HETATM   28  C22 UNL     1       3.159   8.585  11.747  1.00  0.00     0.111 C 
BRANCH  28  29
HETATM   29  C23 UNL     1       4.446   9.338  11.551  1.00  0.00     0.139 C 
HETATM   30  O3  UNL     1       5.292   9.162  10.691  1.00  0.00    -0.650 OA
BRANCH  29  31
HETATM   31  O4  UNL     1       4.625  10.279  12.500  1.00  0.00    -0.776 OA
HETATM   32  H38 UNL     1       5.487  10.686  12.276  1.00  0.00     0.167 HD
ENDBRANCH  29  31
ENDBRANCH  28  29
ENDBRANCH  27  28
ENDBRANCH  10  27
BRANCH   9  33
HETATM   33  C17 UNL     1       3.081   5.325   9.965  1.00  0.00     0.080 C 
HETATM   34  C18 UNL     1       4.461   5.773  10.478  1.00  0.00     0.048 C 
BRANCH  33  35
HETATM   35  O1  UNL     1       3.025   3.894   9.977  1.00  0.00    -0.388 OA
HETATM   36  H30 UNL     1       3.785   3.553   9.474  1.00  0.00     0.210 HD
ENDBRANCH  33  35
BRANCH  33  37
HETATM   37  C19 UNL     1       2.926   5.771   8.485  1.00  0.00     0.201 C 
BRANCH  37  38
HETATM   38  O2  UNL     1       3.300   4.771   7.549  1.00  0.00    -0.398 OA
HETATM   39  H33 UNL     1       2.604   4.094   7.535  1.00  0.00     0.209 HD
ENDBRANCH  37  38
ENDBRANCH  33  37
ENDBRANCH   9  33
TORSDOF 14
ENDMDL
