MODEL 1
REMARK minimizedAffinity -7.74528074
REMARK CNNscore 0.32435286
REMARK CNNaffinity 6.69354868
REMARK  10 active torsions:
REMARK  status: ('A' for Active; 'I' for Inactive)
REMARK    1  A    between atoms: C3_3  and  C4_4 
REMARK    2  A    between atoms: C4_4  and  O1_5 
REMARK    3  A    between atoms: C5_6  and  C6_7 
REMARK    4  A    between atoms: C6_7  and  O2_8 
REMARK    5  A    between atoms: C6_7  and  C7_9 
REMARK    6  A    between atoms: C7_9  and  O3_11 
REMARK    7  A    between atoms: C7_9  and  C9_12 
REMARK    8  A    between atoms: C16_20  and  C17_21 
REMARK    9  A    between atoms: C39_46  and  C40_47 
REMARK   10  A    between atoms: C40_47  and  O8_48 
ROOT
HETATM    1  C9  UNL     1      -9.000 -10.173   1.517  1.00  0.00     0.034 C 
HETATM    2  C10 UNL     1      -9.857 -10.995   2.521  1.00  0.00     0.012 C 
HETATM    3  C11 UNL     1      -8.869 -11.708   3.463  1.00  0.00     0.044 C 
HETATM    4  C12 UNL     1      -7.576 -10.876   3.363  1.00  0.00     0.093 C 
HETATM    5  O4  UNL     1      -7.722  -9.567   3.966  1.00  0.00    -0.363 OA
HETATM    6  C13 UNL     1      -8.377  -9.400   5.223  1.00  0.00     0.263 C 
HETATM    7  C14 UNL     1      -7.443  -9.282   6.346  1.00  0.00    -0.080 C 
HETATM    8  C15 UNL     1      -6.744  -9.113   7.315  1.00  0.00    -0.093 C 
HETATM    9  C16 UNL     1      -5.885  -8.864   8.499  1.00  0.00     0.121 C 
HETATM   10  C23 UNL     1      -4.717  -9.873   8.597  1.00  0.00     0.190 C 
HETATM   11  O5  UNL     1      -3.633  -9.564   7.705  1.00  0.00    -0.384 OA
HETATM   12  C24 UNL     1      -3.775 -10.130   6.404  1.00  0.00     0.122 C 
HETATM   13  C25 UNL     1      -2.897  -9.346   5.424  1.00  0.00     0.033 C 
HETATM   14  C26 UNL     1      -2.582 -10.114   4.132  1.00  0.00     0.013 C 
HETATM   15  C27 UNL     1      -3.601 -11.242   3.791  1.00  0.00    -0.026 C 
HETATM   16  C28 UNL     1      -3.021 -12.041   2.590  1.00  0.00     0.016 C 
HETATM   17  C29 UNL     1      -3.635 -12.233   4.997  1.00  0.00     0.071 C 
HETATM   18  C30 UNL     1      -3.398 -11.604   6.379  1.00  0.00     0.045 C 
HETATM   19  C31 UNL     1      -4.877 -13.100   5.033  1.00  0.00     0.154 C 
HETATM   20  O6  UNL     1      -4.874 -14.213   5.560  1.00  0.00    -0.293 OA
HETATM   21  C32 UNL     1      -6.151 -12.582   4.509  1.00  0.00     0.057 C 
HETATM   22  C33 UNL     1      -6.235 -11.438   3.816  1.00  0.00    -0.036 C 
HETATM   23  C34 UNL     1      -5.013 -10.589   3.443  1.00  0.00     0.026 C 
HETATM   24  C35 UNL     1      -5.067 -10.053   1.975  1.00  0.00     0.011 C 
HETATM   25  C36 UNL     1      -6.450  -9.590   1.496  1.00  0.00     0.014 C 
HETATM   26  C37 UNL     1      -7.529 -10.656   1.797  1.00  0.00    -0.002 C 
HETATM   27  C38 UNL     1      -7.199 -11.956   1.015  1.00  0.00     0.019 C 
ENDROOT
BRANCH   1  28
HETATM   28  C7  UNL     1      -9.547 -10.083   0.043  1.00  0.00     0.087 C 
HETATM   29  C8  UNL     1     -11.032 -10.485  -0.094  1.00  0.00     0.049 C 
BRANCH  28  30
HETATM   30  C6  UNL     1      -9.305  -8.620  -0.521  1.00  0.00     0.181 C 
BRANCH  30  31
HETATM   31  C5  UNL     1     -10.478  -7.628  -0.249  1.00  0.00     0.160 C 
HETATM   32  C3  UNL     1     -11.381  -7.883   0.968  1.00  0.00     0.047 C 
HETATM   33  C2  UNL     1     -12.519  -8.706   0.370  1.00  0.00     0.021 C 
HETATM   34  C1  UNL     1     -13.819  -8.682   1.168  1.00  0.00     0.013 C 
HETATM   35  C39 UNL     1     -12.669  -8.056  -1.001  1.00  0.00     0.149 C 
HETATM   36  O7  UNL     1     -11.363  -7.566  -1.392  1.00  0.00    -0.375 OA
BRANCH  32  37
HETATM   37  C4  UNL     1     -10.700  -8.490   2.187  1.00  0.00     0.172 C 
BRANCH  37  38
HETATM   38  O1  UNL     1     -10.932  -7.696   3.345  1.00  0.00    -0.400 OA
HETATM   39  H8  UNL     1     -10.520  -6.826   3.200  1.00  0.00     0.209 HD
ENDBRANCH  37  38
ENDBRANCH  32  37
BRANCH  35  40
HETATM   40  C40 UNL     1     -13.179  -9.013  -2.076  1.00  0.00     0.196 C 
BRANCH  40  41
HETATM   41  O8  UNL     1     -12.471 -10.250  -1.993  1.00  0.00    -0.398 OA
HETATM   42  H54 UNL     1     -12.444 -10.472  -1.041  1.00  0.00     0.209 HD
ENDBRANCH  40  41
ENDBRANCH  35  40
ENDBRANCH  30  31
BRANCH  30  43
HETATM   43  O2  UNL     1      -8.066  -8.082  -0.048  1.00  0.00    -0.390 OA
HETATM   44  H11 UNL     1      -7.344  -8.611  -0.431  1.00  0.00     0.210 HD
ENDBRANCH  30  43
ENDBRANCH  28  30
BRANCH  28  45
HETATM   45  O3  UNL     1      -8.785 -11.006  -0.746  1.00  0.00    -0.387 OA
HETATM   46  H15 UNL     1      -9.192 -11.029  -1.633  1.00  0.00     0.210 HD
ENDBRANCH  28  45
ENDBRANCH   1  28
BRANCH   9  47
HETATM   47  C17 UNL     1      -6.715  -8.887   9.776  1.00  0.00    -0.040 A 
HETATM   48  C18 UNL     1      -8.113  -9.022   9.736  1.00  0.00     0.008 A 
HETATM   49  C19 UNL     1      -8.850  -9.079  10.918  1.00  0.00     0.001 A 
HETATM   50  C20 UNL     1      -8.208  -8.996  12.150  1.00  0.00     0.000 A 
HETATM   51  C21 UNL     1      -6.824  -8.857  12.203  1.00  0.00     0.001 A 
HETATM   52  C22 UNL     1      -6.079  -8.801  11.024  1.00  0.00     0.008 A 
ENDBRANCH   9  47
TORSDOF 10
ENDMDL
MODEL 2
REMARK minimizedAffinity -7.82648182
REMARK CNNscore 0.297560543
REMARK CNNaffinity 6.26664543
REMARK  10 active torsions:
REMARK  status: ('A' for Active; 'I' for Inactive)
REMARK    1  A    between atoms: C3_3  and  C4_4 
REMARK    2  A    between atoms: C4_4  and  O1_5 
REMARK    3  A    between atoms: C5_6  and  C6_7 
REMARK    4  A    between atoms: C6_7  and  O2_8 
REMARK    5  A    between atoms: C6_7  and  C7_9 
REMARK    6  A    between atoms: C7_9  and  O3_11 
REMARK    7  A    between atoms: C7_9  and  C9_12 
REMARK    8  A    between atoms: C16_20  and  C17_21 
REMARK    9  A    between atoms: C39_46  and  C40_47 
REMARK   10  A    between atoms: C40_47  and  O8_48 
ROOT
HETATM    1  C9  UNL     1       6.276   8.853  13.584  1.00  0.00     0.034 C 
HETATM    2  C10 UNL     1       6.085   7.914  14.809  1.00  0.00     0.012 C 
HETATM    3  C11 UNL     1       7.009   8.448  15.919  1.00  0.00     0.044 C 
HETATM    4  C12 UNL     1       7.251   9.922  15.541  1.00  0.00     0.093 C 
HETATM    5  O4  UNL     1       6.055  10.726  15.690  1.00  0.00    -0.363 OA
HETATM    6  C13 UNL     1       5.210  10.592  16.833  1.00  0.00     0.263 C 
HETATM    7  C14 UNL     1       5.448  11.623  17.847  1.00  0.00    -0.080 C 
HETATM    8  C15 UNL     1       5.536  12.470  18.702  1.00  0.00    -0.093 C 
HETATM    9  C16 UNL     1       5.616  13.535  19.732  1.00  0.00     0.121 C 
HETATM   10  C23 UNL     1       7.075  13.848  20.138  1.00  0.00     0.190 C 
HETATM   11  O5  UNL     1       7.757  14.678  19.183  1.00  0.00    -0.384 OA
HETATM   12  C24 UNL     1       8.395  13.948  18.135  1.00  0.00     0.122 C 
HETATM   13  C25 UNL     1       8.620  14.886  16.945  1.00  0.00     0.033 C 
HETATM   14  C26 UNL     1       9.695  14.389  15.968  1.00  0.00     0.013 C 
HETATM   15  C27 UNL     1       9.951  12.853  16.021  1.00  0.00    -0.026 C 
HETATM   16  C28 UNL     1      11.197  12.562  15.137  1.00  0.00     0.016 C 
HETATM   17  C29 UNL     1      10.362  12.490  17.482  1.00  0.00     0.071 C 
HETATM   18  C30 UNL     1       9.720  13.347  18.584  1.00  0.00     0.045 C 
HETATM   19  C31 UNL     1      10.194  11.020  17.812  1.00  0.00     0.154 C 
HETATM   20  O6  UNL     1      10.881  10.466  18.669  1.00  0.00    -0.293 OA
HETATM   21  C32 UNL     1       9.129  10.239  17.162  1.00  0.00     0.057 C 
HETATM   22  C33 UNL     1       8.407  10.713  16.137  1.00  0.00    -0.036 C 
HETATM   23  C34 UNL     1       8.658  12.085  15.496  1.00  0.00     0.026 C 
HETATM   24  C35 UNL     1       8.587  12.050  13.935  1.00  0.00     0.011 C 
HETATM   25  C36 UNL     1       7.483  11.162  13.347  1.00  0.00     0.014 C 
HETATM   26  C37 UNL     1       7.499   9.755  13.988  1.00  0.00    -0.002 C 
HETATM   27  C38 UNL     1       8.849   9.059  13.664  1.00  0.00     0.019 C 
ENDROOT
BRANCH   1  28
HETATM   28  C7  UNL     1       6.217   8.170  12.166  1.00  0.00     0.087 C 
HETATM   29  C8  UNL     1       7.314   7.107  11.942  1.00  0.00     0.049 C 
BRANCH  28  30
HETATM   30  C6  UNL     1       4.775   7.548  11.939  1.00  0.00     0.181 C 
BRANCH  30  31
HETATM   31  C5  UNL     1       3.902   8.323  10.904  1.00  0.00     0.160 C 
HETATM   32  C3  UNL     1       2.385   8.393  11.138  1.00  0.00     0.047 C 
HETATM   33  C2  UNL     1       1.871   7.200  10.336  1.00  0.00     0.021 C 
HETATM   34  C1  UNL     1       0.402   7.281   9.930  1.00  0.00     0.013 C 
HETATM   35  C39 UNL     1       2.805   7.224   9.132  1.00  0.00     0.149 C 
HETATM   36  O7  UNL     1       4.073   7.765   9.580  1.00  0.00    -0.375 OA
BRANCH  32  37
HETATM   37  C4  UNL     1       1.937   8.449  12.592  1.00  0.00     0.172 C 
BRANCH  37  38
HETATM   38  O1  UNL     1       1.062   9.550  12.809  1.00  0.00    -0.400 OA
HETATM   39  H8  UNL     1       1.560  10.369  12.639  1.00  0.00     0.209 HD
ENDBRANCH  37  38
ENDBRANCH  32  37
BRANCH  35  40
HETATM   40  C40 UNL     1       3.046   5.846   8.519  1.00  0.00     0.196 C 
BRANCH  40  41
HETATM   41  O8  UNL     1       2.392   5.763   7.252  1.00  0.00    -0.398 OA
HETATM   42  H54 UNL     1       2.602   6.601   6.794  1.00  0.00     0.209 HD
ENDBRANCH  40  41
ENDBRANCH  35  40
ENDBRANCH  30  31
BRANCH  30  43
HETATM   43  O2  UNL     1       4.858   6.162  11.597  1.00  0.00    -0.390 OA
HETATM   44  H11 UNL     1       5.209   5.682  12.368  1.00  0.00     0.210 HD
ENDBRANCH  30  43
ENDBRANCH  28  30
BRANCH  28  45
HETATM   45  O3  UNL     1       6.425   9.202  11.192  1.00  0.00    -0.387 OA
HETATM   46  H15 UNL     1       6.495   8.765  10.322  1.00  0.00     0.210 HD
ENDBRANCH  28  45
ENDBRANCH   1  28
BRANCH   9  47
HETATM   47  C17 UNL     1       4.794  13.156  20.957  1.00  0.00    -0.040 A 
HETATM   48  C18 UNL     1       5.000  11.938  21.627  1.00  0.00     0.008 A 
HETATM   49  C19 UNL     1       4.264  11.628  22.768  1.00  0.00     0.001 A 
HETATM   50  C20 UNL     1       3.310  12.518  23.253  1.00  0.00     0.000 A 
HETATM   51  C21 UNL     1       3.092  13.726  22.594  1.00  0.00     0.001 A 
HETATM   52  C22 UNL     1       3.827  14.045  21.452  1.00  0.00     0.008 A 
ENDBRANCH   9  47
TORSDOF 10
ENDMDL
MODEL 3
REMARK minimizedAffinity -8.43516064
REMARK CNNscore 0.278260231
REMARK CNNaffinity 6.11249161
REMARK  10 active torsions:
REMARK  status: ('A' for Active; 'I' for Inactive)
REMARK    1  A    between atoms: C3_3  and  C4_4 
REMARK    2  A    between atoms: C4_4  and  O1_5 
REMARK    3  A    between atoms: C5_6  and  C6_7 
REMARK    4  A    between atoms: C6_7  and  O2_8 
REMARK    5  A    between atoms: C6_7  and  C7_9 
REMARK    6  A    between atoms: C7_9  and  O3_11 
REMARK    7  A    between atoms: C7_9  and  C9_12 
REMARK    8  A    between atoms: C16_20  and  C17_21 
REMARK    9  A    between atoms: C39_46  and  C40_47 
REMARK   10  A    between atoms: C40_47  and  O8_48 
ROOT
HETATM    1  C9  UNL     1      -1.136   9.828  15.033  1.00  0.00     0.034 C 
HETATM    2  C10 UNL     1      -1.434   8.955  16.285  1.00  0.00     0.012 C 
HETATM    3  C11 UNL     1      -1.139   9.835  17.515  1.00  0.00     0.044 C 
HETATM    4  C12 UNL     1      -1.240  11.279  16.986  1.00  0.00     0.093 C 
HETATM    5  O4  UNL     1      -2.599  11.639  16.639  1.00  0.00    -0.363 OA
HETATM    6  C13 UNL     1      -3.696  11.295  17.486  1.00  0.00     0.263 C 
HETATM    7  C14 UNL     1      -4.131  12.405  18.339  1.00  0.00    -0.080 C 
HETATM    8  C15 UNL     1      -4.592  13.281  19.028  1.00  0.00    -0.093 C 
HETATM    9  C16 UNL     1      -5.185  14.370  19.844  1.00  0.00     0.121 C 
HETATM   10  C23 UNL     1      -4.110  15.181  20.605  1.00  0.00     0.190 C 
HETATM   11  O5  UNL     1      -3.431  16.134  19.771  1.00  0.00    -0.384 OA
HETATM   12  C24 UNL     1      -2.292  15.602  19.095  1.00  0.00     0.122 C 
HETATM   13  C25 UNL     1      -1.975  16.487  17.887  1.00  0.00     0.033 C 
HETATM   14  C26 UNL     1      -0.539  16.326  17.368  1.00  0.00     0.013 C 
HETATM   15  C27 UNL     1       0.133  14.973  17.749  1.00  0.00    -0.026 C 
HETATM   16  C28 UNL     1       1.629  15.068  17.333  1.00  0.00     0.016 C 
HETATM   17  C29 UNL     1       0.121  14.858  19.305  1.00  0.00     0.071 C 
HETATM   18  C30 UNL     1      -1.078  15.511  20.009  1.00  0.00     0.045 C 
HETATM   19  C31 UNL     1       0.303  13.440  19.810  1.00  0.00     0.154 C 
HETATM   20  O6  UNL     1       0.796  13.203  20.912  1.00  0.00    -0.293 OA
HETATM   21  C32 UNL     1      -0.198  12.307  19.013  1.00  0.00     0.057 C 
HETATM   22  C33 UNL     1      -0.643  12.448  17.757  1.00  0.00    -0.036 C 
HETATM   23  C34 UNL     1      -0.616  13.783  17.000  1.00  0.00     0.026 C 
HETATM   24  C35 UNL     1      -0.148  13.633  15.516  1.00  0.00     0.011 C 
HETATM   25  C36 UNL     1      -0.672  12.390  14.784  1.00  0.00     0.014 C 
HETATM   26  C37 UNL     1      -0.449  11.113  15.626  1.00  0.00    -0.002 C 
HETATM   27  C38 UNL     1       1.074  10.896  15.836  1.00  0.00     0.019 C 
ENDROOT
BRANCH   1  28
HETATM   28  C7  UNL     1      -0.510   9.082  13.796  1.00  0.00     0.087 C 
HETATM   29  C8  UNL     1       1.019   9.255  13.674  1.00  0.00     0.049 C 
BRANCH  28  30
HETATM   30  C6  UNL     1      -0.901   7.546  13.853  1.00  0.00     0.181 C 
BRANCH  30  31
HETATM   31  C5  UNL     1      -1.660   7.032  12.590  1.00  0.00     0.160 C 
HETATM   32  C3  UNL     1      -2.875   6.114  12.794  1.00  0.00     0.047 C 
HETATM   33  C2  UNL     1      -2.255   4.721  12.705  1.00  0.00     0.021 C 
HETATM   34  C1  UNL     1      -3.230   3.604  12.347  1.00  0.00     0.013 C 
HETATM   35  C39 UNL     1      -1.197   4.933  11.628  1.00  0.00     0.149 C 
HETATM   36  O7  UNL     1      -0.760   6.312  11.718  1.00  0.00    -0.375 OA
BRANCH  32  37
HETATM   37  C4  UNL     1      -3.713   6.383  14.036  1.00  0.00     0.172 C 
BRANCH  37  38
HETATM   38  O1  UNL     1      -5.077   6.596  13.689  1.00  0.00    -0.400 OA
HETATM   39  H8  UNL     1      -5.126   7.399  13.140  1.00  0.00     0.209 HD
ENDBRANCH  37  38
ENDBRANCH  32  37
BRANCH  35  40
HETATM   40  C40 UNL     1       0.017   4.019  11.779  1.00  0.00     0.196 C 
BRANCH  40  41
HETATM   41  O8  UNL     1       1.073   4.480  10.936  1.00  0.00    -0.398 OA
HETATM   42  H54 UNL     1       1.107   5.449  11.066  1.00  0.00     0.209 HD
ENDBRANCH  40  41
ENDBRANCH  35  40
ENDBRANCH  30  31
BRANCH  30  43
HETATM   43  O2  UNL     1       0.243   6.731  14.123  1.00  0.00    -0.390 OA
HETATM   44  H11 UNL     1       0.552   6.935  15.024  1.00  0.00     0.210 HD
ENDBRANCH  30  43
ENDBRANCH  28  30
BRANCH  28  45
HETATM   45  O3  UNL     1      -1.095   9.656  12.619  1.00  0.00    -0.387 OA
HETATM   46  H15 UNL     1      -0.631   9.270  11.851  1.00  0.00     0.210 HD
ENDBRANCH  28  45
ENDBRANCH   1  28
BRANCH   9  47
HETATM   47  C17 UNL     1      -6.214  13.809  20.816  1.00  0.00    -0.040 A 
HETATM   48  C18 UNL     1      -5.912  13.631  22.177  1.00  0.00     0.008 A 
HETATM   49  C19 UNL     1      -6.881  13.153  23.057  1.00  0.00     0.001 A 
HETATM   50  C20 UNL     1      -8.156  12.839  22.596  1.00  0.00     0.000 A 
HETATM   51  C21 UNL     1      -8.466  13.005  21.248  1.00  0.00     0.001 A 
HETATM   52  C22 UNL     1      -7.502  13.486  20.362  1.00  0.00     0.008 A 
ENDBRANCH   9  47
TORSDOF 10
ENDMDL
MODEL 4
REMARK minimizedAffinity -9.81483746
REMARK CNNscore 0.274708122
REMARK CNNaffinity 6.75003815
REMARK  10 active torsions:
REMARK  status: ('A' for Active; 'I' for Inactive)
REMARK    1  A    between atoms: C3_3  and  C4_4 
REMARK    2  A    between atoms: C4_4  and  O1_5 
REMARK    3  A    between atoms: C5_6  and  C6_7 
REMARK    4  A    between atoms: C6_7  and  O2_8 
REMARK    5  A    between atoms: C6_7  and  C7_9 
REMARK    6  A    between atoms: C7_9  and  O3_11 
REMARK    7  A    between atoms: C7_9  and  C9_12 
REMARK    8  A    between atoms: C16_20  and  C17_21 
REMARK    9  A    between atoms: C39_46  and  C40_47 
REMARK   10  A    between atoms: C40_47  and  O8_48 
ROOT
HETATM    1  C9  UNL     1      -1.741  10.451  16.558  1.00  0.00     0.034 C 
HETATM    2  C10 UNL     1      -3.132  10.602  15.878  1.00  0.00     0.012 C 
HETATM    3  C11 UNL     1      -2.962  10.133  14.421  1.00  0.00     0.044 C 
HETATM    4  C12 UNL     1      -1.714   9.229  14.452  1.00  0.00     0.093 C 
HETATM    5  O4  UNL     1      -1.953   7.994  15.173  1.00  0.00    -0.363 OA
HETATM    6  C13 UNL     1      -3.156   7.249  14.987  1.00  0.00     0.263 C 
HETATM    7  C14 UNL     1      -2.995   6.119  14.069  1.00  0.00    -0.080 C 
HETATM    8  C15 UNL     1      -2.933   5.133  13.376  1.00  0.00    -0.093 C 
HETATM    9  C16 UNL     1      -2.845   3.898  12.559  1.00  0.00     0.121 C 
HETATM   10  C23 UNL     1      -2.111   4.134  11.218  1.00  0.00     0.190 C 
HETATM   11  O5  UNL     1      -0.681   4.178  11.362  1.00  0.00    -0.384 OA
HETATM   12  C24 UNL     1      -0.170   5.475  11.665  1.00  0.00     0.122 C 
HETATM   13  C25 UNL     1       1.217   5.326  12.295  1.00  0.00     0.033 C 
HETATM   14  C26 UNL     1       2.063   6.606  12.226  1.00  0.00     0.013 C 
HETATM   15  C27 UNL     1       1.235   7.915  12.067  1.00  0.00    -0.026 C 
HETATM   16  C28 UNL     1       2.243   9.070  11.803  1.00  0.00     0.016 C 
HETATM   17  C29 UNL     1       0.378   7.781  10.769  1.00  0.00     0.071 C 
HETATM   18  C30 UNL     1      -0.090   6.358  10.427  1.00  0.00     0.045 C 
HETATM   19  C31 UNL     1      -0.799   8.735  10.719  1.00  0.00     0.154 C 
HETATM   20  O6  UNL     1      -1.270   9.126   9.651  1.00  0.00    -0.293 OA
HETATM   21  C32 UNL     1      -1.465   9.146  11.966  1.00  0.00     0.057 C 
HETATM   22  C33 UNL     1      -0.962   8.873  13.178  1.00  0.00    -0.036 C 
HETATM   23  C34 UNL     1       0.381   8.163  13.390  1.00  0.00     0.026 C 
HETATM   24  C35 UNL     1       1.237   8.806  14.530  1.00  0.00     0.011 C 
HETATM   25  C36 UNL     1       0.449   9.259  15.766  1.00  0.00     0.014 C 
HETATM   26  C37 UNL     1      -0.774  10.116  15.363  1.00  0.00    -0.002 C 
HETATM   27  C38 UNL     1      -0.284  11.406  14.650  1.00  0.00     0.019 C 
ENDROOT
BRANCH   1  28
HETATM   28  C7  UNL     1      -1.358  11.553  17.615  1.00  0.00     0.087 C 
HETATM   29  C8  UNL     1      -2.435  11.776  18.699  1.00  0.00     0.049 C 
BRANCH  28  30
HETATM   30  C6  UNL     1       0.038  11.190  18.274  1.00  0.00     0.181 C 
BRANCH  30  31
HETATM   31  C5  UNL     1       0.243  11.781  19.704  1.00  0.00     0.160 C 
HETATM   32  C3  UNL     1       1.243  12.934  19.879  1.00  0.00     0.047 C 
HETATM   33  C2  UNL     1       2.531  12.202  20.246  1.00  0.00     0.021 C 
HETATM   34  C1  UNL     1       3.565  13.048  20.984  1.00  0.00     0.013 C 
HETATM   35  C39 UNL     1       1.994  11.064  21.107  1.00  0.00     0.149 C 
HETATM   36  O7  UNL     1       0.665  10.747  20.622  1.00  0.00    -0.375 OA
BRANCH  32  37
HETATM   37  C4  UNL     1       1.349  13.907  18.713  1.00  0.00     0.172 C 
BRANCH  37  38
HETATM   38  O1  UNL     1       1.297  15.253  19.171  1.00  0.00    -0.400 OA
HETATM   39  H8  UNL     1       0.425  15.399  19.578  1.00  0.00     0.209 HD
ENDBRANCH  37  38
ENDBRANCH  32  37
BRANCH  35  40
HETATM   40  C40 UNL     1       2.853   9.803  21.056  1.00  0.00     0.196 C 
BRANCH  40  41
HETATM   41  O8  UNL     1       3.649   9.715  22.238  1.00  0.00    -0.398 OA
HETATM   42  H54 UNL     1       3.045   9.927  22.976  1.00  0.00     0.209 HD
ENDBRANCH  40  41
ENDBRANCH  35  40
ENDBRANCH  30  31
BRANCH  30  43
HETATM   43  O2  UNL     1       0.259   9.777  18.273  1.00  0.00    -0.390 OA
HETATM   44  H11 UNL     1       0.346   9.486  17.348  1.00  0.00     0.210 HD
ENDBRANCH  30  43
ENDBRANCH  28  30
BRANCH  28  45
HETATM   45  O3  UNL     1      -1.216  12.789  16.902  1.00  0.00    -0.387 OA
HETATM   46  H15 UNL     1      -1.084  13.491  17.568  1.00  0.00     0.210 HD
ENDBRANCH  28  45
ENDBRANCH   1  28
BRANCH   9  47
HETATM   47  C17 UNL     1      -4.233   3.323  12.309  1.00  0.00    -0.040 A 
HETATM   48  C18 UNL     1      -4.416   2.166  11.532  1.00  0.00     0.008 A 
HETATM   49  C19 UNL     1      -5.690   1.635  11.347  1.00  0.00     0.001 A 
HETATM   50  C20 UNL     1      -6.798   2.249  11.924  1.00  0.00     0.000 A 
HETATM   51  C21 UNL     1      -6.632   3.399  12.691  1.00  0.00     0.001 A 
HETATM   52  C22 UNL     1      -5.358   3.936  12.883  1.00  0.00     0.008 A 
ENDBRANCH   9  47
TORSDOF 10
ENDMDL
MODEL 5
REMARK minimizedAffinity -8.95930767
REMARK CNNscore 0.238048181
REMARK CNNaffinity 6.85860586
REMARK  10 active torsions:
REMARK  status: ('A' for Active; 'I' for Inactive)
REMARK    1  A    between atoms: C3_3  and  C4_4 
REMARK    2  A    between atoms: C4_4  and  O1_5 
REMARK    3  A    between atoms: C5_6  and  C6_7 
REMARK    4  A    between atoms: C6_7  and  O2_8 
REMARK    5  A    between atoms: C6_7  and  C7_9 
REMARK    6  A    between atoms: C7_9  and  O3_11 
REMARK    7  A    between atoms: C7_9  and  C9_12 
REMARK    8  A    between atoms: C16_20  and  C17_21 
REMARK    9  A    between atoms: C39_46  and  C40_47 
REMARK   10  A    between atoms: C40_47  and  O8_48 
ROOT
HETATM    1  C9  UNL     1      -6.106 -10.525   4.754  1.00  0.00     0.034 C 
HETATM    2  C10 UNL     1      -5.862 -11.680   3.742  1.00  0.00     0.012 C 
HETATM    3  C11 UNL     1      -7.169 -11.851   2.946  1.00  0.00     0.044 C 
HETATM    4  C12 UNL     1      -7.890 -10.497   3.097  1.00  0.00     0.093 C 
HETATM    5  O4  UNL     1      -7.207  -9.433   2.389  1.00  0.00    -0.363 OA
HETATM    6  C13 UNL     1      -6.697  -9.630   1.070  1.00  0.00     0.263 C 
HETATM    7  C14 UNL     1      -7.581  -9.102   0.028  1.00  0.00    -0.080 C 
HETATM    8  C15 UNL     1      -8.219  -8.640  -0.885  1.00  0.00    -0.093 C 
HETATM    9  C16 UNL     1      -8.982  -8.034  -2.004  1.00  0.00     0.121 C 
HETATM   10  C23 UNL     1     -10.493  -8.358  -1.925  1.00  0.00     0.190 C 
HETATM   11  O5  UNL     1     -11.191  -7.545  -0.967  1.00  0.00    -0.384 OA
HETATM   12  C24 UNL     1     -11.190  -8.081   0.355  1.00  0.00     0.122 C 
HETATM   13  C25 UNL     1     -11.473  -6.950   1.348  1.00  0.00     0.033 C 
HETATM   14  C26 UNL     1     -11.969  -7.443   2.715  1.00  0.00     0.013 C 
HETATM   15  C27 UNL     1     -11.579  -8.914   3.047  1.00  0.00    -0.026 C 
HETATM   16  C28 UNL     1     -12.330  -9.308   4.350  1.00  0.00     0.016 C 
HETATM   17  C29 UNL     1     -12.156  -9.825   1.920  1.00  0.00     0.071 C 
HETATM   18  C30 UNL     1     -12.219  -9.191   0.522  1.00  0.00     0.045 C 
HETATM   19  C31 UNL     1     -11.490 -11.184   1.838  1.00  0.00     0.154 C 
HETATM   20  O6  UNL     1     -12.082 -12.169   1.397  1.00  0.00    -0.293 OA
HETATM   21  C32 UNL     1     -10.073 -11.331   2.208  1.00  0.00     0.057 C 
HETATM   22  C33 UNL     1      -9.377 -10.354   2.806  1.00  0.00    -0.036 C 
HETATM   23  C34 UNL     1      -9.997  -9.014   3.221  1.00  0.00     0.026 C 
HETATM   24  C35 UNL     1      -9.530  -8.538   4.636  1.00  0.00     0.011 C 
HETATM   25  C36 UNL     1      -8.050  -8.787   4.956  1.00  0.00     0.014 C 
HETATM   26  C37 UNL     1      -7.650 -10.247   4.640  1.00  0.00    -0.002 C 
HETATM   27  C38 UNL     1      -8.469 -11.210   5.542  1.00  0.00     0.019 C 
ENDROOT
BRANCH   1  28
HETATM   28  C7  UNL     1      -5.420 -10.677   6.163  1.00  0.00     0.087 C 
HETATM   29  C8  UNL     1      -3.898 -10.417   6.145  1.00  0.00     0.049 C 
BRANCH  28  30
HETATM   30  C6  UNL     1      -6.142  -9.725   7.207  1.00  0.00     0.181 C 
BRANCH  30  31
HETATM   31  C5  UNL     1      -6.400 -10.381   8.599  1.00  0.00     0.160 C 
HETATM   32  C3  UNL     1      -7.205  -9.589   9.640  1.00  0.00     0.047 C 
HETATM   33  C2  UNL     1      -6.111  -8.879  10.434  1.00  0.00     0.021 C 
HETATM   34  C1  UNL     1      -6.517  -8.436  11.836  1.00  0.00     0.013 C 
HETATM   35  C39 UNL     1      -5.019  -9.943  10.456  1.00  0.00     0.149 C 
HETATM   36  O7  UNL     1      -5.147 -10.718   9.238  1.00  0.00    -0.375 OA
BRANCH  32  37
HETATM   37  C4  UNL     1      -8.306  -8.693   9.090  1.00  0.00     0.172 C 
BRANCH  37  38
HETATM   38  O1  UNL     1      -7.910  -7.326   9.126  1.00  0.00    -0.400 OA
HETATM   39  H8  UNL     1      -7.784  -7.074  10.057  1.00  0.00     0.209 HD
ENDBRANCH  37  38
ENDBRANCH  32  37
BRANCH  35  40
HETATM   40  C40 UNL     1      -3.607  -9.366  10.528  1.00  0.00     0.196 C 
BRANCH  40  41
HETATM   41  O8  UNL     1      -3.163  -9.350  11.885  1.00  0.00    -0.398 OA
HETATM   42  H54 UNL     1      -3.409 -10.223  12.251  1.00  0.00     0.209 HD
ENDBRANCH  40  41
ENDBRANCH  35  40
ENDBRANCH  30  31
BRANCH  30  43
HETATM   43  O2  UNL     1      -5.438  -8.488   7.352  1.00  0.00    -0.390 OA
HETATM   44  H11 UNL     1      -5.496  -8.008   6.507  1.00  0.00     0.210 HD
ENDBRANCH  30  43
ENDBRANCH  28  30
BRANCH  28  45
HETATM   45  O3  UNL     1      -5.611 -12.036   6.580  1.00  0.00    -0.387 OA
HETATM   46  H15 UNL     1      -5.096 -12.158   7.401  1.00  0.00     0.210 HD
ENDBRANCH  28  45
ENDBRANCH   1  28
BRANCH   9  47
HETATM   47  C17 UNL     1      -8.414  -8.482  -3.344  1.00  0.00    -0.040 A 
HETATM   48  C18 UNL     1      -7.921  -9.785  -3.530  1.00  0.00     0.008 A 
HETATM   49  C19 UNL     1      -7.440 -10.187  -4.774  1.00  0.00     0.001 A 
HETATM   50  C20 UNL     1      -7.435  -9.298  -5.845  1.00  0.00     0.000 A 
HETATM   51  C21 UNL     1      -7.914  -8.002  -5.673  1.00  0.00     0.001 A 
HETATM   52  C22 UNL     1      -8.400  -7.594  -4.431  1.00  0.00     0.008 A 
ENDBRANCH   9  47
TORSDOF 10
ENDMDL
MODEL 6
REMARK minimizedAffinity -7.97584248
REMARK CNNscore 0.237951532
REMARK CNNaffinity 6.02268171
REMARK  10 active torsions:
REMARK  status: ('A' for Active; 'I' for Inactive)
REMARK    1  A    between atoms: C3_3  and  C4_4 
REMARK    2  A    between atoms: C4_4  and  O1_5 
REMARK    3  A    between atoms: C5_6  and  C6_7 
REMARK    4  A    between atoms: C6_7  and  O2_8 
REMARK    5  A    between atoms: C6_7  and  C7_9 
REMARK    6  A    between atoms: C7_9  and  O3_11 
REMARK    7  A    between atoms: C7_9  and  C9_12 
REMARK    8  A    between atoms: C16_20  and  C17_21 
REMARK    9  A    between atoms: C39_46  and  C40_47 
REMARK   10  A    between atoms: C40_47  and  O8_48 
ROOT
HETATM    1  C9  UNL     1      -1.437   9.225  14.829  1.00  0.00     0.034 C 
HETATM    2  C10 UNL     1      -1.811   8.388  16.086  1.00  0.00     0.012 C 
HETATM    3  C11 UNL     1      -1.415   9.232  17.311  1.00  0.00     0.044 C 
HETATM    4  C12 UNL     1      -1.369  10.679  16.781  1.00  0.00     0.093 C 
HETATM    5  O4  UNL     1      -2.688  11.179  16.447  1.00  0.00    -0.363 OA
HETATM    6  C13 UNL     1      -3.805  10.951  17.305  1.00  0.00     0.263 C 
HETATM    7  C14 UNL     1      -4.114  12.100  18.161  1.00  0.00    -0.080 C 
HETATM    8  C15 UNL     1      -4.475  13.020  18.853  1.00  0.00    -0.093 C 
HETATM    9  C16 UNL     1      -4.943  14.164  19.673  1.00  0.00     0.121 C 
HETATM   10  C23 UNL     1      -3.783  14.860  20.423  1.00  0.00     0.190 C 
HETATM   11  O5  UNL     1      -3.016  15.736  19.580  1.00  0.00    -0.384 OA
HETATM   12  C24 UNL     1      -1.946  15.089  18.895  1.00  0.00     0.122 C 
HETATM   13  C25 UNL     1      -1.551  15.936  17.682  1.00  0.00     0.033 C 
HETATM   14  C26 UNL     1      -0.144  15.626  17.150  1.00  0.00     0.013 C 
HETATM   15  C27 UNL     1       0.388  14.211  17.526  1.00  0.00    -0.026 C 
HETATM   16  C28 UNL     1       1.880  14.149  17.095  1.00  0.00     0.016 C 
HETATM   17  C29 UNL     1       0.379  14.098  19.082  1.00  0.00     0.071 C 
HETATM   18  C30 UNL     1      -0.739  14.873  19.797  1.00  0.00     0.045 C 
HETATM   19  C31 UNL     1       0.417  12.669  19.586  1.00  0.00     0.154 C 
HETATM   20  O6  UNL     1       0.894  12.382  20.684  1.00  0.00    -0.293 OA
HETATM   21  C32 UNL     1      -0.207  11.594  18.797  1.00  0.00     0.057 C 
HETATM   22  C33 UNL     1      -0.647  11.780  17.544  1.00  0.00    -0.036 C 
HETATM   23  C34 UNL     1      -0.489  13.104  16.786  1.00  0.00     0.026 C 
HETATM   24  C35 UNL     1      -0.053  12.906  15.297  1.00  0.00     0.011 C 
HETATM   25  C36 UNL     1      -0.711  11.725  14.572  1.00  0.00     0.014 C 
HETATM   26  C37 UNL     1      -0.614  10.431  15.414  1.00  0.00    -0.002 C 
HETATM   27  C38 UNL     1       0.881  10.057  15.609  1.00  0.00     0.019 C 
ENDROOT
BRANCH   1  28
HETATM   28  C7  UNL     1      -0.904   8.417  13.587  1.00  0.00     0.087 C 
HETATM   29  C8  UNL     1      -1.601   8.788  12.259  1.00  0.00     0.049 C 
BRANCH  28  30
HETATM   30  C6  UNL     1       0.667   8.604  13.470  1.00  0.00     0.181 C 
BRANCH  30  31
HETATM   31  C5  UNL     1       1.471   7.267  13.469  1.00  0.00     0.160 C 
HETATM   32  C3  UNL     1       3.006   7.340  13.464  1.00  0.00     0.047 C 
HETATM   33  C2  UNL     1       3.335   7.274  11.975  1.00  0.00     0.021 C 
HETATM   34  C1  UNL     1       4.750   6.804  11.648  1.00  0.00     0.013 C 
HETATM   35  C39 UNL     1       2.273   6.300  11.476  1.00  0.00     0.149 C 
HETATM   36  O7  UNL     1       1.109   6.461  12.324  1.00  0.00    -0.375 OA
BRANCH  32  37
HETATM   37  C4  UNL     1       3.620   8.509  14.222  1.00  0.00     0.172 C 
BRANCH  37  38
HETATM   38  O1  UNL     1       3.910   8.143  15.566  1.00  0.00    -0.400 OA
HETATM   39  H8  UNL     1       3.069   7.934  16.010  1.00  0.00     0.209 HD
ENDBRANCH  37  38
ENDBRANCH  32  37
BRANCH  35  40
HETATM   40  C40 UNL     1       1.864   6.537  10.024  1.00  0.00     0.196 C 
BRANCH  40  41
HETATM   41  O8  UNL     1       0.729   7.402   9.980  1.00  0.00    -0.398 OA
HETATM   42  H54 UNL     1       0.926   8.124  10.610  1.00  0.00     0.209 HD
ENDBRANCH  40  41
ENDBRANCH  35  40
ENDBRANCH  30  31
BRANCH  30  43
HETATM   43  O2  UNL     1       1.010   9.404  12.335  1.00  0.00    -0.390 OA
HETATM   44  H11 UNL     1       0.670  10.304  12.487  1.00  0.00     0.210 HD
ENDBRANCH  30  43
ENDBRANCH  28  30
BRANCH  28  45
HETATM   45  O3  UNL     1      -1.180   7.032  13.836  1.00  0.00    -0.387 OA
HETATM   46  H15 UNL     1      -0.947   6.543  13.023  1.00  0.00     0.210 HD
ENDBRANCH  28  45
ENDBRANCH   1  28
BRANCH   9  47
HETATM   47  C17 UNL     1      -6.016  13.714  20.656  1.00  0.00    -0.040 A 
HETATM   48  C18 UNL     1      -5.703  13.419  21.994  1.00  0.00     0.008 A 
HETATM   49  C19 UNL     1      -6.706  13.046  22.887  1.00  0.00     0.001 A 
HETATM   50  C20 UNL     1      -8.027  12.954  22.460  1.00  0.00     0.000 A 
HETATM   51  C21 UNL     1      -8.350  13.238  21.136  1.00  0.00     0.001 A 
HETATM   52  C22 UNL     1      -7.352  13.615  20.237  1.00  0.00     0.008 A 
ENDBRANCH   9  47
TORSDOF 10
ENDMDL
MODEL 7
REMARK minimizedAffinity -8.04096699
REMARK CNNscore 0.237887055
REMARK CNNaffinity 5.96628189
REMARK  10 active torsions:
REMARK  status: ('A' for Active; 'I' for Inactive)
REMARK    1  A    between atoms: C3_3  and  C4_4 
REMARK    2  A    between atoms: C4_4  and  O1_5 
REMARK    3  A    between atoms: C5_6  and  C6_7 
REMARK    4  A    between atoms: C6_7  and  O2_8 
REMARK    5  A    between atoms: C6_7  and  C7_9 
REMARK    6  A    between atoms: C7_9  and  O3_11 
REMARK    7  A    between atoms: C7_9  and  C9_12 
REMARK    8  A    between atoms: C16_20  and  C17_21 
REMARK    9  A    between atoms: C39_46  and  C40_47 
REMARK   10  A    between atoms: C40_47  and  O8_48 
ROOT
HETATM    1  C9  UNL     1      -0.220  10.215  16.069  1.00  0.00     0.034 C 
HETATM    2  C10 UNL     1       0.047  10.242  17.601  1.00  0.00     0.012 C 
HETATM    3  C11 UNL     1      -0.268  11.673  18.077  1.00  0.00     0.044 C 
HETATM    4  C12 UNL     1      -1.208  12.238  16.994  1.00  0.00     0.093 C 
HETATM    5  O4  UNL     1      -2.505  11.592  17.006  1.00  0.00    -0.363 OA
HETATM    6  C13 UNL     1      -3.188  11.325  18.231  1.00  0.00     0.263 C 
HETATM    7  C14 UNL     1      -4.218  12.320  18.542  1.00  0.00    -0.080 C 
HETATM    8  C15 UNL     1      -5.125  13.058  18.840  1.00  0.00    -0.093 C 
HETATM    9  C16 UNL     1      -6.267  13.940  19.184  1.00  0.00     0.121 C 
HETATM   10  C23 UNL     1      -5.911  15.439  19.046  1.00  0.00     0.190 C 
HETATM   11  O5  UNL     1      -5.927  15.896  17.684  1.00  0.00    -0.384 OA
HETATM   12  C24 UNL     1      -4.687  15.724  17.001  1.00  0.00     0.122 C 
HETATM   13  C25 UNL     1      -4.945  15.740  15.492  1.00  0.00     0.033 C 
HETATM   14  C26 UNL     1      -3.692  16.044  14.658  1.00  0.00     0.013 C 
HETATM   15  C27 UNL     1      -2.348  15.733  15.382  1.00  0.00    -0.026 C 
HETATM   16  C28 UNL     1      -1.204  16.291  14.489  1.00  0.00     0.016 C 
HETATM   17  C29 UNL     1      -2.315  16.566  16.701  1.00  0.00     0.071 C 
HETATM   18  C30 UNL     1      -3.678  16.803  17.370  1.00  0.00     0.045 C 
HETATM   19  C31 UNL     1      -1.326  16.043  17.723  1.00  0.00     0.154 C 
HETATM   20  O6  UNL     1      -0.808  16.782  18.560  1.00  0.00    -0.293 OA
HETATM   21  C32 UNL     1      -1.031  14.602  17.790  1.00  0.00     0.057 C 
HETATM   22  C33 UNL     1      -1.449  13.735  16.857  1.00  0.00    -0.036 C 
HETATM   23  C34 UNL     1      -2.218  14.160  15.599  1.00  0.00     0.026 C 
HETATM   24  C35 UNL     1      -1.728  13.426  14.308  1.00  0.00     0.011 C 
HETATM   25  C36 UNL     1      -1.386  11.941  14.487  1.00  0.00     0.014 C 
HETATM   26  C37 UNL     1      -0.454  11.726  15.702  1.00  0.00    -0.002 C 
HETATM   27  C38 UNL     1       0.889  12.466  15.455  1.00  0.00     0.019 C 
ENDROOT
BRANCH   1  28
HETATM   28  C7  UNL     1       0.751   9.321  15.208  1.00  0.00     0.087 C 
HETATM   29  C8  UNL     1       2.162   9.173  15.816  1.00  0.00     0.049 C 
BRANCH  28  30
HETATM   30  C6  UNL     1       0.087   7.900  14.971  1.00  0.00     0.181 C 
BRANCH  30  31
HETATM   31  C5  UNL     1      -0.864   7.838  13.736  1.00  0.00     0.160 C 
HETATM   32  C3  UNL     1      -2.314   7.379  13.956  1.00  0.00     0.047 C 
HETATM   33  C2  UNL     1      -2.232   5.880  13.680  1.00  0.00     0.021 C 
HETATM   34  C1  UNL     1      -3.556   5.221  13.304  1.00  0.00     0.013 C 
HETATM   35  C39 UNL     1      -1.221   5.840  12.540  1.00  0.00     0.149 C 
HETATM   36  O7  UNL     1      -0.320   6.961  12.723  1.00  0.00    -0.375 OA
BRANCH  32  37
HETATM   37  C4  UNL     1      -2.942   7.770  15.287  1.00  0.00     0.172 C 
BRANCH  37  38
HETATM   38  O1  UNL     1      -2.901   6.682  16.204  1.00  0.00    -0.400 OA
HETATM   39  H8  UNL     1      -3.445   5.961  15.840  1.00  0.00     0.209 HD
ENDBRANCH  37  38
ENDBRANCH  32  37
BRANCH  35  40
HETATM   40  C40 UNL     1      -0.403   4.551  12.495  1.00  0.00     0.196 C 
BRANCH  40  41
HETATM   41  O8  UNL     1      -0.483   3.977  11.190  1.00  0.00    -0.398 OA
HETATM   42  H54 UNL     1      -0.353   4.721  10.569  1.00  0.00     0.209 HD
ENDBRANCH  40  41
ENDBRANCH  35  40
ENDBRANCH  30  31
BRANCH  30  43
HETATM   43  O2  UNL     1       1.079   6.872  14.899  1.00  0.00    -0.390 OA
HETATM   44  H11 UNL     1       1.500   6.798  15.774  1.00  0.00     0.210 HD
ENDBRANCH  30  43
ENDBRANCH  28  30
BRANCH  28  45
HETATM   45  O3  UNL     1       0.904   9.969  13.938  1.00  0.00    -0.387 OA
HETATM   46  H15 UNL     1       1.586   9.474  13.445  1.00  0.00     0.210 HD
ENDBRANCH  28  45
ENDBRANCH   1  28
BRANCH   9  47
HETATM   47  C17 UNL     1      -6.769  13.641  20.590  1.00  0.00    -0.040 A 
HETATM   48  C18 UNL     1      -8.124  13.365  20.839  1.00  0.00     0.008 A 
HETATM   49  C19 UNL     1      -8.556  13.056  22.128  1.00  0.00     0.001 A 
HETATM   50  C20 UNL     1      -7.649  13.026  23.183  1.00  0.00     0.000 A 
HETATM   51  C21 UNL     1      -6.305  13.303  22.951  1.00  0.00     0.001 A 
HETATM   52  C22 UNL     1      -5.865  13.610  21.664  1.00  0.00     0.008 A 
ENDBRANCH   9  47
TORSDOF 10
ENDMDL
MODEL 8
REMARK minimizedAffinity -9.64752865
REMARK CNNscore 0.219403192
REMARK CNNaffinity 6.78545332
REMARK  10 active torsions:
REMARK  status: ('A' for Active; 'I' for Inactive)
REMARK    1  A    between atoms: C3_3  and  C4_4 
REMARK    2  A    between atoms: C4_4  and  O1_5 
REMARK    3  A    between atoms: C5_6  and  C6_7 
REMARK    4  A    between atoms: C6_7  and  O2_8 
REMARK    5  A    between atoms: C6_7  and  C7_9 
REMARK    6  A    between atoms: C7_9  and  O3_11 
REMARK    7  A    between atoms: C7_9  and  C9_12 
REMARK    8  A    between atoms: C16_20  and  C17_21 
REMARK    9  A    between atoms: C39_46  and  C40_47 
REMARK   10  A    between atoms: C40_47  and  O8_48 
ROOT
HETATM    1  C9  UNL     1      -2.067  10.473  16.960  1.00  0.00     0.034 C 
HETATM    2  C10 UNL     1      -3.431  10.649  16.234  1.00  0.00     0.012 C 
HETATM    3  C11 UNL     1      -3.216  10.195  14.778  1.00  0.00     0.044 C 
HETATM    4  C12 UNL     1      -1.980   9.276  14.842  1.00  0.00     0.093 C 
HETATM    5  O4  UNL     1      -2.258   8.036  15.538  1.00  0.00    -0.363 OA
HETATM    6  C13 UNL     1      -3.463   7.308  15.301  1.00  0.00     0.263 C 
HETATM    7  C14 UNL     1      -3.282   6.186  14.375  1.00  0.00    -0.080 C 
HETATM    8  C15 UNL     1      -3.206   5.208  13.673  1.00  0.00    -0.093 C 
HETATM    9  C16 UNL     1      -3.104   3.981  12.845  1.00  0.00     0.121 C 
HETATM   10  C23 UNL     1      -2.320   4.225  11.534  1.00  0.00     0.190 C 
HETATM   11  O5  UNL     1      -0.896   4.250  11.728  1.00  0.00    -0.384 OA
HETATM   12  C24 UNL     1      -0.381   5.537  12.064  1.00  0.00     0.122 C 
HETATM   13  C25 UNL     1       0.981   5.364  12.741  1.00  0.00     0.033 C 
HETATM   14  C26 UNL     1       1.844   6.635  12.717  1.00  0.00     0.013 C 
HETATM   15  C27 UNL     1       1.036   7.956  12.545  1.00  0.00    -0.026 C 
HETATM   16  C28 UNL     1       2.066   9.101  12.332  1.00  0.00     0.016 C 
HETATM   17  C29 UNL     1       0.225   7.848  11.217  1.00  0.00     0.071 C 
HETATM   18  C30 UNL     1      -0.247   6.434  10.841  1.00  0.00     0.045 C 
HETATM   19  C31 UNL     1      -0.939   8.815  11.137  1.00  0.00     0.154 C 
HETATM   20  O6  UNL     1      -1.367   9.225  10.058  1.00  0.00    -0.293 OA
HETATM   21  C32 UNL     1      -1.643   9.220  12.365  1.00  0.00     0.057 C 
HETATM   22  C33 UNL     1      -1.187   8.926  13.590  1.00  0.00    -0.036 C 
HETATM   23  C34 UNL     1       0.140   8.198  13.841  1.00  0.00     0.026 C 
HETATM   24  C35 UNL     1       0.961   8.817  15.018  1.00  0.00     0.011 C 
HETATM   25  C36 UNL     1       0.135   9.265  16.231  1.00  0.00     0.014 C 
HETATM   26  C37 UNL     1      -1.062  10.141  15.796  1.00  0.00    -0.002 C 
HETATM   27  C38 UNL     1      -0.533  11.433  15.116  1.00  0.00     0.019 C 
ENDROOT
BRANCH   1  28
HETATM   28  C7  UNL     1      -1.709  11.559  18.043  1.00  0.00     0.087 C 
HETATM   29  C8  UNL     1      -0.873  11.010  19.220  1.00  0.00     0.049 C 
BRANCH  28  30
HETATM   30  C6  UNL     1      -0.970  12.777  17.346  1.00  0.00     0.181 C 
BRANCH  30  31
HETATM   31  C5  UNL     1      -1.719  14.139  17.480  1.00  0.00     0.160 C 
HETATM   32  C3  UNL     1      -1.983  14.690  18.890  1.00  0.00     0.047 C 
HETATM   33  C2  UNL     1      -3.380  14.154  19.197  1.00  0.00     0.021 C 
HETATM   34  C1  UNL     1      -4.144  14.925  20.269  1.00  0.00     0.013 C 
HETATM   35  C39 UNL     1      -4.046  14.252  17.829  1.00  0.00     0.149 C 
HETATM   36  O7  UNL     1      -3.010  14.073  16.831  1.00  0.00    -0.375 OA
BRANCH  32  37
HETATM   37  C4  UNL     1      -0.918  14.387  19.934  1.00  0.00     0.172 C 
BRANCH  37  38
HETATM   38  O1  UNL     1      -0.715  15.506  20.789  1.00  0.00    -0.400 OA
HETATM   39  H8  UNL     1      -0.374  16.240  20.248  1.00  0.00     0.209 HD
ENDBRANCH  37  38
ENDBRANCH  32  37
BRANCH  35  40
HETATM   40  C40 UNL     1      -5.134  13.205  17.605  1.00  0.00     0.196 C 
BRANCH  40  41
HETATM   41  O8  UNL     1      -5.839  13.496  16.398  1.00  0.00    -0.398 OA
HETATM   42  H54 UNL     1      -5.150  13.709  15.738  1.00  0.00     0.209 HD
ENDBRANCH  40  41
ENDBRANCH  35  40
ENDBRANCH  30  31
BRANCH  30  43
HETATM   43  O2  UNL     1       0.380  12.893  17.803  1.00  0.00    -0.390 OA
HETATM   44  H11 UNL     1       0.869  12.108  17.499  1.00  0.00     0.210 HD
ENDBRANCH  30  43
ENDBRANCH  28  30
BRANCH  28  45
HETATM   45  O3  UNL     1      -2.948  12.031  18.591  1.00  0.00    -0.387 OA
HETATM   46  H15 UNL     1      -2.725  12.624  19.334  1.00  0.00     0.210 HD
ENDBRANCH  28  45
ENDBRANCH   1  28
BRANCH   9  47
HETATM   47  C17 UNL     1      -4.489   3.426  12.539  1.00  0.00    -0.040 A 
HETATM   48  C18 UNL     1      -5.644   3.991  13.105  1.00  0.00     0.008 A 
HETATM   49  C19 UNL     1      -6.904   3.491  12.782  1.00  0.00     0.001 A 
HETATM   50  C20 UNL     1      -7.031   2.422  11.901  1.00  0.00     0.000 A 
HETATM   51  C21 UNL     1      -5.894   1.849  11.337  1.00  0.00     0.001 A 
HETATM   52  C22 UNL     1      -4.629   2.346  11.653  1.00  0.00     0.008 A 
ENDBRANCH   9  47
TORSDOF 10
ENDMDL
MODEL 9
REMARK minimizedAffinity -7.84781981
REMARK CNNscore 0.217208028
REMARK CNNaffinity 6.33752871
REMARK  10 active torsions:
REMARK  status: ('A' for Active; 'I' for Inactive)
REMARK    1  A    between atoms: C3_3  and  C4_4 
REMARK    2  A    between atoms: C4_4  and  O1_5 
REMARK    3  A    between atoms: C5_6  and  C6_7 
REMARK    4  A    between atoms: C6_7  and  O2_8 
REMARK    5  A    between atoms: C6_7  and  C7_9 
REMARK    6  A    between atoms: C7_9  and  O3_11 
REMARK    7  A    between atoms: C7_9  and  C9_12 
REMARK    8  A    between atoms: C16_20  and  C17_21 
REMARK    9  A    between atoms: C39_46  and  C40_47 
REMARK   10  A    between atoms: C40_47  and  O8_48 
ROOT
HETATM    1  C9  UNL     1       2.338   8.546  13.464  1.00  0.00     0.034 C 
HETATM    2  C10 UNL     1       1.716   9.866  14.001  1.00  0.00     0.012 C 
HETATM    3  C11 UNL     1       2.833  10.602  14.763  1.00  0.00     0.044 C 
HETATM    4  C12 UNL     1       4.138  10.017  14.188  1.00  0.00     0.093 C 
HETATM    5  O4  UNL     1       4.356  10.417  12.813  1.00  0.00    -0.363 OA
HETATM    6  C13 UNL     1       4.132  11.762  12.389  1.00  0.00     0.263 C 
HETATM    7  C14 UNL     1       5.365  12.550  12.308  1.00  0.00    -0.080 C 
HETATM    8  C15 UNL     1       6.337  13.249  12.154  1.00  0.00    -0.093 C 
HETATM    9  C16 UNL     1       7.534  14.094  11.924  1.00  0.00     0.121 C 
HETATM   10  C23 UNL     1       8.532  14.029  13.104  1.00  0.00     0.190 C 
HETATM   11  O5  UNL     1       9.333  12.836  13.096  1.00  0.00    -0.384 OA
HETATM   12  C24 UNL     1       8.735  11.732  13.774  1.00  0.00     0.122 C 
HETATM   13  C25 UNL     1       9.380  10.436  13.275  1.00  0.00     0.033 C 
HETATM   14  C26 UNL     1       9.190   9.249  14.231  1.00  0.00     0.013 C 
HETATM   15  C27 UNL     1       7.973   9.388  15.194  1.00  0.00    -0.026 C 
HETATM   16  C28 UNL     1       8.057   8.219  16.216  1.00  0.00     0.016 C 
HETATM   17  C29 UNL     1       8.166  10.700  16.017  1.00  0.00     0.071 C 
HETATM   18  C30 UNL     1       8.886  11.843  15.285  1.00  0.00     0.045 C 
HETATM   19  C31 UNL     1       6.887  11.217  16.644  1.00  0.00     0.154 C 
HETATM   20  O6  UNL     1       6.896  11.894  17.671  1.00  0.00    -0.293 OA
HETATM   21  C32 UNL     1       5.596  10.987  15.973  1.00  0.00     0.057 C 
HETATM   22  C33 UNL     1       5.464  10.168  14.920  1.00  0.00    -0.036 C 
HETATM   23  C34 UNL     1       6.623   9.341  14.348  1.00  0.00     0.026 C 
HETATM   24  C35 UNL     1       6.207   7.879  13.985  1.00  0.00     0.011 C 
HETATM   25  C36 UNL     1       4.821   7.731  13.345  1.00  0.00     0.014 C 
HETATM   26  C37 UNL     1       3.746   8.485  14.162  1.00  0.00    -0.002 C 
HETATM   27  C38 UNL     1       3.651   7.862  15.581  1.00  0.00     0.019 C 
ENDROOT
BRANCH   1  28
HETATM   28  C7  UNL     1       1.394   7.286  13.450  1.00  0.00     0.087 C 
HETATM   29  C8  UNL     1      -0.006   7.550  14.045  1.00  0.00     0.049 C 
BRANCH  28  30
HETATM   30  C6  UNL     1       1.281   6.728  11.970  1.00  0.00     0.181 C 
BRANCH  30  31
HETATM   31  C5  UNL     1       2.213   7.444  10.944  1.00  0.00     0.160 C 
HETATM   32  C3  UNL     1       1.621   7.864   9.590  1.00  0.00     0.047 C 
HETATM   33  C2  UNL     1       1.946   6.666   8.701  1.00  0.00     0.021 C 
HETATM   34  C1  UNL     1       1.966   6.961   7.204  1.00  0.00     0.013 C 
HETATM   35  C39 UNL     1       3.318   6.264   9.230  1.00  0.00     0.149 C 
HETATM   36  O7  UNL     1       3.358   6.615  10.636  1.00  0.00    -0.375 OA
BRANCH  32  37
HETATM   37  C4  UNL     1       0.160   8.293   9.606  1.00  0.00     0.172 C 
BRANCH  37  38
HETATM   38  O1  UNL     1      -0.090   9.194  10.679  1.00  0.00    -0.400 OA
HETATM   39  H8  UNL     1       0.070   8.720  11.514  1.00  0.00     0.209 HD
ENDBRANCH  37  38
ENDBRANCH  32  37
BRANCH  35  40
HETATM   40  C40 UNL     1       3.615   4.774   9.085  1.00  0.00     0.196 C 
BRANCH  40  41
HETATM   41  O8  UNL     1       4.836   4.459   9.756  1.00  0.00    -0.398 OA
HETATM   42  H54 UNL     1       4.786   4.919  10.618  1.00  0.00     0.209 HD
ENDBRANCH  40  41
ENDBRANCH  35  40
ENDBRANCH  30  31
BRANCH  30  43
HETATM   43  O2  UNL     1       1.481   5.312  11.934  1.00  0.00    -0.390 OA
HETATM   44  H11 UNL     1       0.742   4.891  12.407  1.00  0.00     0.210 HD
ENDBRANCH  30  43
ENDBRANCH  28  30
BRANCH  28  45
HETATM   45  O3  UNL     1       2.017   6.285  14.267  1.00  0.00    -0.387 OA
HETATM   46  H15 UNL     1       1.385   5.545  14.345  1.00  0.00     0.210 HD
ENDBRANCH  28  45
ENDBRANCH   1  28
BRANCH   9  47
HETATM   47  C17 UNL     1       7.127  15.537  11.654  1.00  0.00    -0.040 A 
HETATM   48  C18 UNL     1       7.926  16.613  12.076  1.00  0.00     0.008 A 
HETATM   49  C19 UNL     1       7.554  17.924  11.785  1.00  0.00     0.001 A 
HETATM   50  C20 UNL     1       6.382  18.181  11.080  1.00  0.00     0.000 A 
HETATM   51  C21 UNL     1       5.578  17.124  10.662  1.00  0.00     0.001 A 
HETATM   52  C22 UNL     1       5.945  15.809  10.947  1.00  0.00     0.008 A 
ENDBRANCH   9  47
TORSDOF 10
ENDMDL
