MODEL 1
REMARK minimizedAffinity -7.50172806
REMARK CNNscore 0.67949158
REMARK CNNaffinity 7.08104563
REMARK  9 active torsions:
REMARK  status: ('A' for Active; 'I' for Inactive)
REMARK    1  A    between atoms: O1_2  and  C2_3 
REMARK    2  A    between atoms: C2_3  and  C3_4 
REMARK    3  A    between atoms: C3_4  and  C4_5 
REMARK    4  A    between atoms: C4_5  and  O2_6 
REMARK    5  A    between atoms: O2_6  and  C5_7 
REMARK    6  A    between atoms: C15_18  and  O4_19 
REMARK    7  A    between atoms: C21_25  and  O5_27 
REMARK    8  A    between atoms: C23_28  and  O6_29 
REMARK    9  A    between atoms: C29_37  and  O8_38 
ROOT
HETATM    1  C5  UNL     1       0.996  57.374  -3.614  1.00  0.00     0.122 C 
HETATM    2  C6  UNL     1      -0.407  56.986  -4.116  1.00  0.00     0.033 C 
HETATM    3  C7  UNL     1      -0.381  55.937  -5.227  1.00  0.00     0.014 C 
HETATM    4  C8  UNL     1       0.440  56.396  -6.489  1.00  0.00    -0.010 C 
HETATM    5  C9  UNL     1      -0.514  57.322  -7.297  1.00  0.00     0.018 C 
HETATM    6  C10 UNL     1       1.602  57.355  -6.054  1.00  0.00     0.073 C 
HETATM    7  C11 UNL     1       2.103  57.072  -4.636  1.00  0.00     0.045 C 
HETATM    8  C12 UNL     1       2.742  57.530  -7.049  1.00  0.00     0.161 C 
HETATM    9  O3  UNL     1       3.548  58.455  -6.913  1.00  0.00    -0.292 OA
HETATM   10  C13 UNL     1       2.916  56.586  -8.189  1.00  0.00    -0.005 C 
HETATM   11  C14 UNL     1       2.122  55.501  -8.291  1.00  0.00    -0.013 C 
HETATM   12  C15 UNL     1       2.539  54.431  -9.263  1.00  0.00     0.095 C 
HETATM   13  C16 UNL     1       3.413  54.864 -10.436  1.00  0.00     0.026 C 
HETATM   14  C17 UNL     1       4.616  55.643  -9.933  1.00  0.00     0.013 C 
HETATM   15  C18 UNL     1       4.129  56.840  -9.083  1.00  0.00     0.043 C 
HETATM   16  C19 UNL     1       3.636  53.535 -11.199  1.00  0.00     0.016 C 
HETATM   17  C20 UNL     1       2.506  52.548 -10.692  1.00  0.00     0.034 C 
HETATM   18  C21 UNL     1       2.162  51.346 -11.633  1.00  0.00     0.087 C 
HETATM   19  C22 UNL     1       2.068  51.774 -13.119  1.00  0.00     0.049 C 
HETATM   20  C23 UNL     1       3.255  50.182 -11.548  1.00  0.00     0.181 C 
HETATM   21  C24 UNL     1       3.404  49.197 -10.330  1.00  0.00     0.158 C 
HETATM   22  O7  UNL     1       4.753  48.583 -10.486  1.00  0.00    -0.373 OA
HETATM   23  C25 UNL     1       5.686  49.328  -9.626  1.00  0.00     0.185 C 
HETATM   24  C26 UNL     1       4.836  50.413  -8.966  1.00  0.00     0.028 C 
HETATM   25  C27 UNL     1       5.484  50.968  -7.715  1.00  0.00     0.053 C 
HETATM   26  C28 UNL     1       5.778  49.910  -6.656  1.00  0.00     0.309 C 
HETATM   27  N1  UNL     1       5.807  48.530  -7.199  1.00  0.00     0.128 N 
HETATM   28  C29 UNL     1       6.386  48.437  -8.538  1.00  0.00     0.384 C 
HETATM   29  C30 UNL     1       4.764  50.087  -5.492  1.00  0.00     0.233 C 
HETATM   30  O9  UNL     1       3.914  49.263  -5.168  1.00  0.00    -0.277 OA
HETATM   31  N2  UNL     1       4.983  51.310  -4.831  1.00  0.00    -0.243 NA
HETATM   32  C31 UNL     1       4.618  51.457  -3.457  1.00  0.00     0.120 A 
HETATM   33  C32 UNL     1       3.975  52.295  -4.520  1.00  0.00     0.090 A 
HETATM   34  C33 UNL     1       2.502  52.152  -4.754  1.00  0.00     0.115 C 
HETATM   35  C34 UNL     1       2.085  53.301  -5.589  1.00  0.00    -0.104 C 
HETATM   36  C35 UNL     1       1.642  54.161  -6.314  1.00  0.00    -0.090 C 
HETATM   37  C36 UNL     1       0.999  55.116  -7.314  1.00  0.00     0.062 C 
HETATM   38  C37 UNL     1      -0.093  54.242  -8.112  1.00  0.00     0.012 C 
HETATM   39  C38 UNL     1      -0.915  55.019  -9.167  1.00  0.00     0.007 C 
HETATM   40  C39 UNL     1      -0.899  54.404 -10.552  1.00  0.00     0.001 C 
HETATM   41  C40 UNL     1       0.547  54.233 -11.010  1.00  0.00     0.013 C 
HETATM   42  C41 UNL     1       1.470  53.517  -9.972  1.00  0.00     0.002 C 
HETATM   43  C42 UNL     1       0.573  53.006  -8.827  1.00  0.00     0.020 C 
HETATM   44  C43 UNL     1       3.513  49.655  -8.890  1.00  0.00     0.020 C 
HETATM   45  C44 UNL     1       2.298  50.230  -8.228  1.00  0.00     0.013 C 
HETATM   46  H42 UNL     1       6.309  47.927  -6.552  1.00  0.00     0.320 HD
ENDROOT
BRANCH   1  47
HETATM   47  O2  UNL     1       1.006  58.788  -3.379  1.00  0.00    -0.386 OA
BRANCH  47  48
HETATM   48  C4  UNL     1       0.002  59.248  -2.483  1.00  0.00     0.170 C 
BRANCH  48  49
HETATM   49  C3  UNL     1       0.048  60.760  -2.263  1.00  0.00     0.052 C 
BRANCH  49  50
HETATM   50  C2  UNL     1       1.371  61.225  -1.660  1.00  0.00     0.169 C 
BRANCH  50  51
HETATM   51  O1  UNL     1       1.640  62.559  -2.089  1.00  0.00    -0.396 OA
HETATM   52  C1  UNL     1       2.944  62.682  -2.643  1.00  0.00     0.201 C 
ENDBRANCH  50  51
ENDBRANCH  49  50
ENDBRANCH  48  49
ENDBRANCH  47  48
ENDBRANCH   1  47
BRANCH  12  53
HETATM   53  O4  UNL     1       3.398  53.580  -8.446  1.00  0.00    -0.384 OA
HETATM   54  H21 UNL     1       3.868  54.125  -7.796  1.00  0.00     0.211 HD
ENDBRANCH  12  53
BRANCH  18  55
HETATM   55  O5  UNL     1       0.888  50.809 -11.272  1.00  0.00    -0.387 OA
HETATM   56  H33 UNL     1       0.769  50.015 -11.828  1.00  0.00     0.210 HD
ENDBRANCH  18  55
BRANCH  20  57
HETATM   57  O6  UNL     1       3.023  49.288 -12.675  1.00  0.00    -0.390 OA
HETATM   58  H35 UNL     1       3.727  48.609 -12.614  1.00  0.00     0.210 HD
ENDBRANCH  20  57
BRANCH  28  59
HETATM   59  O8  UNL     1       7.750  48.811  -8.438  1.00  0.00    -0.366 OA
HETATM   60  H44 UNL     1       8.270  48.002  -8.581  1.00  0.00     0.212 HD
ENDBRANCH  28  59
TORSDOF 9
ENDMDL
MODEL 2
REMARK minimizedAffinity -7.34711218
REMARK CNNscore 0.519667745
REMARK CNNaffinity 6.81363821
REMARK  9 active torsions:
REMARK  status: ('A' for Active; 'I' for Inactive)
REMARK    1  A    between atoms: O1_2  and  C2_3 
REMARK    2  A    between atoms: C2_3  and  C3_4 
REMARK    3  A    between atoms: C3_4  and  C4_5 
REMARK    4  A    between atoms: C4_5  and  O2_6 
REMARK    5  A    between atoms: O2_6  and  C5_7 
REMARK    6  A    between atoms: C15_18  and  O4_19 
REMARK    7  A    between atoms: C21_25  and  O5_27 
REMARK    8  A    between atoms: C23_28  and  O6_29 
REMARK    9  A    between atoms: C29_37  and  O8_38 
ROOT
HETATM    1  C5  UNL     1      -1.456  53.330  -9.319  1.00  0.00     0.122 C 
HETATM    2  C6  UNL     1      -0.360  52.852 -10.288  1.00  0.00     0.033 C 
HETATM    3  C7  UNL     1       1.044  52.910  -9.687  1.00  0.00     0.014 C 
HETATM    4  C8  UNL     1       1.454  54.355  -9.217  1.00  0.00    -0.010 C 
HETATM    5  C9  UNL     1       1.905  55.104 -10.505  1.00  0.00     0.018 C 
HETATM    6  C10 UNL     1       0.185  55.150  -8.756  1.00  0.00     0.073 C 
HETATM    7  C11 UNL     1      -0.916  54.240  -8.204  1.00  0.00     0.045 C 
HETATM    8  C12 UNL     1       0.432  56.364  -7.869  1.00  0.00     0.161 C 
HETATM    9  O3  UNL     1      -0.464  57.192  -7.684  1.00  0.00    -0.292 OA
HETATM   10  C13 UNL     1       1.748  56.567  -7.198  1.00  0.00    -0.005 C 
HETATM   11  C14 UNL     1       2.701  55.618  -7.287  1.00  0.00    -0.013 C 
HETATM   12  C15 UNL     1       3.871  55.727  -6.346  1.00  0.00     0.095 C 
HETATM   13  C16 UNL     1       4.209  57.118  -5.820  1.00  0.00     0.026 C 
HETATM   14  C17 UNL     1       2.971  57.769  -5.229  1.00  0.00     0.013 C 
HETATM   15  C18 UNL     1       1.850  57.795  -6.294  1.00  0.00     0.043 C 
HETATM   16  C19 UNL     1       5.431  56.845  -4.908  1.00  0.00     0.016 C 
HETATM   17  C20 UNL     1       5.991  55.429  -5.344  1.00  0.00     0.034 C 
HETATM   18  C21 UNL     1       7.483  55.131  -4.976  1.00  0.00     0.087 C 
HETATM   19  C22 UNL     1       8.409  56.341  -5.259  1.00  0.00     0.049 C 
HETATM   20  C23 UNL     1       7.659  54.757  -3.432  1.00  0.00     0.181 C 
HETATM   21  C24 UNL     1       7.219  53.384  -2.800  1.00  0.00     0.158 C 
HETATM   22  O7  UNL     1       7.187  53.622  -1.329  1.00  0.00    -0.373 OA
HETATM   23  C25 UNL     1       5.794  53.912  -0.954  1.00  0.00     0.185 C 
HETATM   24  C26 UNL     1       5.009  53.846  -2.263  1.00  0.00     0.028 C 
HETATM   25  C27 UNL     1       3.526  53.644  -2.033  1.00  0.00     0.053 C 
HETATM   26  C28 UNL     1       3.194  52.386  -1.238  1.00  0.00     0.309 C 
HETATM   27  N1  UNL     1       4.347  51.860  -0.466  1.00  0.00     0.128 N 
HETATM   28  C29 UNL     1       5.203  52.903   0.096  1.00  0.00     0.384 C 
HETATM   29  C30 UNL     1       2.581  51.339  -2.208  1.00  0.00     0.233 C 
HETATM   30  O9  UNL     1       3.090  50.259  -2.491  1.00  0.00    -0.277 OA
HETATM   31  N2  UNL     1       1.335  51.785  -2.688  1.00  0.00    -0.243 NA
HETATM   32  C31 UNL     1       0.345  50.838  -3.098  1.00  0.00     0.120 A 
HETATM   33  C32 UNL     1       0.925  51.819  -4.071  1.00  0.00     0.090 A 
HETATM   34  C33 UNL     1       1.710  51.297  -5.236  1.00  0.00     0.115 C 
HETATM   35  C34 UNL     1       1.867  52.419  -6.188  1.00  0.00    -0.104 C 
HETATM   36  C35 UNL     1       2.107  53.272  -7.010  1.00  0.00    -0.090 C 
HETATM   37  C36 UNL     1       2.576  54.287  -8.047  1.00  0.00     0.062 C 
HETATM   38  C37 UNL     1       4.049  53.812  -8.489  1.00  0.00     0.012 C 
HETATM   39  C38 UNL     1       4.720  54.677  -9.581  1.00  0.00     0.007 C 
HETATM   40  C39 UNL     1       6.099  55.190  -9.216  1.00  0.00     0.001 C 
HETATM   41  C40 UNL     1       6.019  55.950  -7.894  1.00  0.00     0.013 C 
HETATM   42  C41 UNL     1       5.291  55.176  -6.750  1.00  0.00     0.002 C 
HETATM   43  C42 UNL     1       5.024  53.743  -7.253  1.00  0.00     0.020 C 
HETATM   44  C43 UNL     1       5.840  52.783  -2.977  1.00  0.00     0.020 C 
HETATM   45  C44 UNL     1       5.462  52.241  -4.322  1.00  0.00     0.013 C 
HETATM   46  H42 UNL     1       4.005  51.247   0.270  1.00  0.00     0.320 HD
ENDROOT
BRANCH   1  47
HETATM   47  O2  UNL     1      -2.409  54.094 -10.071  1.00  0.00    -0.386 OA
BRANCH  47  48
HETATM   48  C4  UNL     1      -3.648  53.437 -10.299  1.00  0.00     0.170 C 
BRANCH  48  49
HETATM   49  C3  UNL     1      -3.997  53.325 -11.784  1.00  0.00     0.052 C 
BRANCH  49  50
HETATM   50  C2  UNL     1      -3.327  52.130 -12.456  1.00  0.00     0.169 C 
BRANCH  50  51
HETATM   51  O1  UNL     1      -3.340  52.317 -13.870  1.00  0.00    -0.396 OA
HETATM   52  C1  UNL     1      -2.954  51.136 -14.563  1.00  0.00     0.201 C 
ENDBRANCH  50  51
ENDBRANCH  49  50
ENDBRANCH  48  49
ENDBRANCH  47  48
ENDBRANCH   1  47
BRANCH  12  53
HETATM   53  O4  UNL     1       3.407  54.983  -5.179  1.00  0.00    -0.384 OA
HETATM   54  H21 UNL     1       2.448  55.097  -5.085  1.00  0.00     0.211 HD
ENDBRANCH  12  53
BRANCH  18  55
HETATM   55  O5  UNL     1       7.960  54.045  -5.772  1.00  0.00    -0.387 OA
HETATM   56  H33 UNL     1       8.856  53.847  -5.438  1.00  0.00     0.210 HD
ENDBRANCH  18  55
BRANCH  20  57
HETATM   57  O6  UNL     1       9.083  54.822  -3.131  1.00  0.00    -0.390 OA
HETATM   58  H35 UNL     1       9.154  54.623  -2.174  1.00  0.00     0.210 HD
ENDBRANCH  20  57
BRANCH  28  59
HETATM   59  O8  UNL     1       4.433  53.619   1.047  1.00  0.00    -0.366 OA
HETATM   60  H44 UNL     1       4.796  53.396   1.921  1.00  0.00     0.212 HD
ENDBRANCH  28  59
TORSDOF 9
ENDMDL
MODEL 3
REMARK minimizedAffinity -6.93277121
REMARK CNNscore 0.287609547
REMARK CNNaffinity 6.82858086
REMARK  9 active torsions:
REMARK  status: ('A' for Active; 'I' for Inactive)
REMARK    1  A    between atoms: O1_2  and  C2_3 
REMARK    2  A    between atoms: C2_3  and  C3_4 
REMARK    3  A    between atoms: C3_4  and  C4_5 
REMARK    4  A    between atoms: C4_5  and  O2_6 
REMARK    5  A    between atoms: O2_6  and  C5_7 
REMARK    6  A    between atoms: C15_18  and  O4_19 
REMARK    7  A    between atoms: C21_25  and  O5_27 
REMARK    8  A    between atoms: C23_28  and  O6_29 
REMARK    9  A    between atoms: C29_37  and  O8_38 
ROOT
HETATM    1  C5  UNL     1       1.382  48.839 -12.574  1.00  0.00     0.122 C 
HETATM    2  C6  UNL     1       2.845  49.308 -12.667  1.00  0.00     0.033 C 
HETATM    3  C7  UNL     1       3.198  50.389 -11.647  1.00  0.00     0.014 C 
HETATM    4  C8  UNL     1       2.302  51.676 -11.776  1.00  0.00    -0.010 C 
HETATM    5  C9  UNL     1       2.909  52.496 -12.951  1.00  0.00     0.018 C 
HETATM    6  C10 UNL     1       0.876  51.286 -12.300  1.00  0.00     0.073 C 
HETATM    7  C11 UNL     1       0.464  49.869 -11.896  1.00  0.00     0.045 C 
HETATM    8  C12 UNL     1      -0.233  52.303 -12.061  1.00  0.00     0.161 C 
HETATM    9  O3  UNL     1      -1.305  52.206 -12.664  1.00  0.00    -0.292 OA
HETATM   10  C13 UNL     1      -0.054  53.418 -11.089  1.00  0.00    -0.005 C 
HETATM   11  C14 UNL     1       1.059  53.477 -10.330  1.00  0.00    -0.013 C 
HETATM   12  C15 UNL     1       1.048  54.424  -9.161  1.00  0.00     0.095 C 
HETATM   13  C16 UNL     1       0.108  55.623  -9.251  1.00  0.00     0.026 C 
HETATM   14  C17 UNL     1      -1.298  55.161  -9.593  1.00  0.00     0.013 C 
HETATM   15  C18 UNL     1      -1.260  54.338 -10.902  1.00  0.00     0.043 C 
HETATM   16  C19 UNL     1       0.361  56.350  -7.907  1.00  0.00     0.016 C 
HETATM   17  C20 UNL     1       1.744  55.798  -7.368  1.00  0.00     0.034 C 
HETATM   18  C21 UNL     1       2.492  56.699  -6.330  1.00  0.00     0.087 C 
HETATM   19  C22 UNL     1       2.473  58.196  -6.733  1.00  0.00     0.049 C 
HETATM   20  C23 UNL     1       1.849  56.598  -4.870  1.00  0.00     0.181 C 
HETATM   21  C24 UNL     1       2.010  55.355  -3.919  1.00  0.00     0.158 C 
HETATM   22  O7  UNL     1       0.949  55.514  -2.884  1.00  0.00    -0.373 OA
HETATM   23  C25 UNL     1      -0.200  54.690  -3.292  1.00  0.00     0.185 C 
HETATM   24  C26 UNL     1       0.221  54.048  -4.613  1.00  0.00     0.028 C 
HETATM   25  C27 UNL     1      -0.604  52.824  -4.946  1.00  0.00     0.053 C 
HETATM   26  C28 UNL     1      -0.552  51.739  -3.875  1.00  0.00     0.309 C 
HETATM   27  N1  UNL     1      -0.105  52.242  -2.553  1.00  0.00     0.128 N 
HETATM   28  C29 UNL     1      -0.588  53.587  -2.242  1.00  0.00     0.384 C 
HETATM   29  C30 UNL     1       0.316  50.565  -4.406  1.00  0.00     0.233 C 
HETATM   30  O9  UNL     1       1.384  50.205  -3.922  1.00  0.00    -0.277 OA
HETATM   31  N2  UNL     1      -0.316  49.943  -5.500  1.00  0.00    -0.243 NA
HETATM   32  C31 UNL     1      -0.054  48.568  -5.790  1.00  0.00     0.120 A 
HETATM   33  C32 UNL     1       0.296  49.645  -6.771  1.00  0.00     0.090 A 
HETATM   34  C33 UNL     1       1.738  49.852  -7.126  1.00  0.00     0.115 C 
HETATM   35  C34 UNL     1       1.766  50.713  -8.329  1.00  0.00    -0.104 C 
HETATM   36  C35 UNL     1       1.913  51.455  -9.272  1.00  0.00    -0.090 C 
HETATM   37  C36 UNL     1       2.223  52.473 -10.365  1.00  0.00     0.062 C 
HETATM   38  C37 UNL     1       3.563  53.229  -9.890  1.00  0.00     0.012 C 
HETATM   39  C38 UNL     1       4.102  54.293 -10.875  1.00  0.00     0.007 C 
HETATM   40  C39 UNL     1       4.327  55.660 -10.260  1.00  0.00     0.001 C 
HETATM   41  C40 UNL     1       3.032  56.134  -9.604  1.00  0.00     0.013 C 
HETATM   42  C41 UNL     1       2.378  55.091  -8.643  1.00  0.00     0.002 C 
HETATM   43  C42 UNL     1       3.366  53.918  -8.488  1.00  0.00     0.020 C 
HETATM   44  C43 UNL     1       1.719  53.930  -4.344  1.00  0.00     0.020 C 
HETATM   45  C44 UNL     1       2.656  53.266  -5.308  1.00  0.00     0.013 C 
HETATM   46  H42 UNL     1      -0.392  51.587  -1.831  1.00  0.00     0.320 HD
ENDROOT
BRANCH   1  47
HETATM   47  O2  UNL     1       0.894  48.644 -13.908  1.00  0.00    -0.386 OA
BRANCH  47  48
HETATM   48  C4  UNL     1      -0.515  48.778 -14.049  1.00  0.00     0.170 C 
BRANCH  48  49
HETATM   49  C3  UNL     1      -0.915  49.527 -15.320  1.00  0.00     0.052 C 
BRANCH  49  50
HETATM   50  C2  UNL     1       0.132  49.413 -16.424  1.00  0.00     0.169 C 
BRANCH  50  51
HETATM   51  O1  UNL     1       0.092  50.588 -17.233  1.00  0.00    -0.396 OA
HETATM   52  C1  UNL     1      -0.466  50.329 -18.515  1.00  0.00     0.201 C 
ENDBRANCH  50  51
ENDBRANCH  49  50
ENDBRANCH  48  49
ENDBRANCH  47  48
ENDBRANCH   1  47
BRANCH  12  53
HETATM   53  O4  UNL     1       0.504  53.597  -8.089  1.00  0.00    -0.384 OA
HETATM   54  H21 UNL     1      -0.136  52.970  -8.460  1.00  0.00     0.211 HD
ENDBRANCH  12  53
BRANCH  18  55
HETATM   55  O5  UNL     1       3.863  56.304  -6.260  1.00  0.00    -0.387 OA
HETATM   56  H33 UNL     1       4.254  56.835  -5.539  1.00  0.00     0.210 HD
ENDBRANCH  18  55
BRANCH  20  57
HETATM   57  O6  UNL     1       2.395  57.696  -4.081  1.00  0.00    -0.390 OA
HETATM   58  H35 UNL     1       1.957  57.626  -3.207  1.00  0.00     0.210 HD
ENDBRANCH  20  57
BRANCH  28  59
HETATM   59  O8  UNL     1      -2.000  53.519  -2.139  1.00  0.00    -0.366 OA
HETATM   60  H44 UNL     1      -2.215  53.647  -1.200  1.00  0.00     0.212 HD
ENDBRANCH  28  59
TORSDOF 9
ENDMDL
MODEL 4
REMARK minimizedAffinity -7.28164482
REMARK CNNscore 0.235046744
REMARK CNNaffinity 6.26891184
REMARK  9 active torsions:
REMARK  status: ('A' for Active; 'I' for Inactive)
REMARK    1  A    between atoms: O1_2  and  C2_3 
REMARK    2  A    between atoms: C2_3  and  C3_4 
REMARK    3  A    between atoms: C3_4  and  C4_5 
REMARK    4  A    between atoms: C4_5  and  O2_6 
REMARK    5  A    between atoms: O2_6  and  C5_7 
REMARK    6  A    between atoms: C15_18  and  O4_19 
REMARK    7  A    between atoms: C21_25  and  O5_27 
REMARK    8  A    between atoms: C23_28  and  O6_29 
REMARK    9  A    between atoms: C29_37  and  O8_38 
ROOT
HETATM    1  C5  UNL     1     -13.614  42.922 -24.205  1.00  0.00     0.122 C 
HETATM    2  C6  UNL     1     -14.593  43.901 -24.878  1.00  0.00     0.033 C 
HETATM    3  C7  UNL     1     -14.140  44.350 -26.267  1.00  0.00     0.014 C 
HETATM    4  C8  UNL     1     -12.733  45.053 -26.259  1.00  0.00    -0.010 C 
HETATM    5  C9  UNL     1     -12.996  46.517 -25.801  1.00  0.00     0.018 C 
HETATM    6  C10 UNL     1     -11.845  44.464 -25.109  1.00  0.00     0.073 C 
HETATM    7  C11 UNL     1     -12.191  43.010 -24.780  1.00  0.00     0.045 C 
HETATM    8  C12 UNL     1     -10.343  44.689 -25.230  1.00  0.00     0.161 C 
HETATM    9  O3  UNL     1      -9.606  44.503 -24.258  1.00  0.00    -0.292 OA
HETATM   10  C13 UNL     1      -9.736  45.121 -26.521  1.00  0.00    -0.005 C 
HETATM   11  C14 UNL     1     -10.501  45.215 -27.627  1.00  0.00    -0.013 C 
HETATM   12  C15 UNL     1      -9.792  45.343 -28.948  1.00  0.00     0.095 C 
HETATM   13  C16 UNL     1      -8.389  45.942 -28.925  1.00  0.00     0.026 C 
HETATM   14  C17 UNL     1      -7.525  45.212 -27.910  1.00  0.00     0.013 C 
HETATM   15  C18 UNL     1      -8.214  45.261 -26.526  1.00  0.00     0.043 C 
HETATM   16  C19 UNL     1      -7.987  45.916 -30.420  1.00  0.00     0.016 C 
HETATM   17  C20 UNL     1      -9.338  45.757 -31.231  1.00  0.00     0.034 C 
HETATM   18  C21 UNL     1      -9.306  46.213 -32.727  1.00  0.00     0.087 C 
HETATM   19  C22 UNL     1      -8.560  47.559 -32.913  1.00  0.00     0.049 C 
HETATM   20  C23 UNL     1      -8.583  45.142 -33.668  1.00  0.00     0.181 C 
HETATM   21  C24 UNL     1      -9.220  43.766 -34.092  1.00  0.00     0.158 C 
HETATM   22  O7  UNL     1      -8.082  42.948 -34.599  1.00  0.00    -0.373 OA
HETATM   23  C25 UNL     1      -7.635  42.075 -33.502  1.00  0.00     0.185 C 
HETATM   24  C26 UNL     1      -8.547  42.419 -32.325  1.00  0.00     0.028 C 
HETATM   25  C27 UNL     1      -8.570  41.326 -31.278  1.00  0.00     0.053 C 
HETATM   26  C28 UNL     1      -9.012  39.969 -31.817  1.00  0.00     0.309 C 
HETATM   27  N1  UNL     1      -8.894  39.858 -33.291  1.00  0.00     0.128 N 
HETATM   28  C29 UNL     1      -7.726  40.544 -33.841  1.00  0.00     0.384 C 
HETATM   29  C30 UNL     1     -10.446  39.677 -31.295  1.00  0.00     0.233 C 
HETATM   30  O9  UNL     1     -11.444  39.571 -32.002  1.00  0.00    -0.277 OA
HETATM   31  N2  UNL     1     -10.436  39.509 -29.898  1.00  0.00    -0.243 NA
HETATM   32  C31 UNL     1     -11.434  38.704 -29.266  1.00  0.00     0.120 A 
HETATM   33  C32 UNL     1     -11.315  40.166 -28.961  1.00  0.00     0.090 A 
HETATM   34  C33 UNL     1     -12.460  41.068 -29.311  1.00  0.00     0.115 C 
HETATM   35  C34 UNL     1     -12.226  42.352 -28.613  1.00  0.00    -0.104 C 
HETATM   36  C35 UNL     1     -12.110  43.458 -28.140  1.00  0.00    -0.090 C 
HETATM   37  C36 UNL     1     -12.008  44.916 -27.703  1.00  0.00     0.062 C 
HETATM   38  C37 UNL     1     -12.638  45.778 -28.909  1.00  0.00     0.012 C 
HETATM   39  C38 UNL     1     -12.683  47.306 -28.672  1.00  0.00     0.007 C 
HETATM   40  C39 UNL     1     -12.039  48.130 -29.769  1.00  0.00     0.001 C 
HETATM   41  C40 UNL     1     -10.602  47.655 -29.976  1.00  0.00     0.013 C 
HETATM   42  C41 UNL     1     -10.455  46.110 -30.154  1.00  0.00     0.002 C 
HETATM   43  C42 UNL     1     -11.873  45.517 -30.261  1.00  0.00     0.020 C 
HETATM   44  C43 UNL     1      -9.808  42.776 -33.108  1.00  0.00     0.020 C 
HETATM   45  C44 UNL     1     -11.100  43.122 -32.431  1.00  0.00     0.013 C 
HETATM   46  H42 UNL     1      -8.885  38.876 -33.553  1.00  0.00     0.320 HD
ENDROOT
BRANCH   1  47
HETATM   47  O2  UNL     1     -13.535  43.260 -22.814  1.00  0.00    -0.386 OA
BRANCH  47  48
HETATM   48  C4  UNL     1     -14.716  43.843 -22.278  1.00  0.00     0.170 C 
BRANCH  48  49
HETATM   49  C3  UNL     1     -14.438  45.110 -21.468  1.00  0.00     0.052 C 
BRANCH  49  50
HETATM   50  C2  UNL     1     -15.605  46.093 -21.497  1.00  0.00     0.169 C 
BRANCH  50  51
HETATM   51  O1  UNL     1     -15.531  46.944 -20.353  1.00  0.00    -0.396 OA
HETATM   52  C1  UNL     1     -16.744  46.934 -19.610  1.00  0.00     0.201 C 
ENDBRANCH  50  51
ENDBRANCH  49  50
ENDBRANCH  48  49
ENDBRANCH  47  48
ENDBRANCH   1  47
BRANCH  12  53
HETATM   53  O4  UNL     1      -9.603  43.951 -29.341  1.00  0.00    -0.384 OA
HETATM   54  H21 UNL     1      -9.467  43.408 -28.548  1.00  0.00     0.211 HD
ENDBRANCH  12  53
BRANCH  18  55
HETATM   55  O5  UNL     1     -10.642  46.409 -33.193  1.00  0.00    -0.387 OA
HETATM   56  H33 UNL     1     -10.564  46.603 -34.147  1.00  0.00     0.210 HD
ENDBRANCH  18  55
BRANCH  20  57
HETATM   57  O6  UNL     1      -8.319  45.796 -34.944  1.00  0.00    -0.390 OA
HETATM   58  H35 UNL     1      -7.847  45.127 -35.483  1.00  0.00     0.210 HD
ENDBRANCH  20  57
BRANCH  28  59
HETATM   59  O8  UNL     1      -6.573  39.887 -33.340  1.00  0.00    -0.366 OA
HETATM   60  H44 UNL     1      -6.169  39.424 -34.093  1.00  0.00     0.212 HD
ENDBRANCH  28  59
TORSDOF 9
ENDMDL
MODEL 5
REMARK minimizedAffinity -6.70490599
REMARK CNNscore 0.232130229
REMARK CNNaffinity 6.17339754
REMARK  9 active torsions:
REMARK  status: ('A' for Active; 'I' for Inactive)
REMARK    1  A    between atoms: O1_2  and  C2_3 
REMARK    2  A    between atoms: C2_3  and  C3_4 
REMARK    3  A    between atoms: C3_4  and  C4_5 
REMARK    4  A    between atoms: C4_5  and  O2_6 
REMARK    5  A    between atoms: O2_6  and  C5_7 
REMARK    6  A    between atoms: C15_18  and  O4_19 
REMARK    7  A    between atoms: C21_25  and  O5_27 
REMARK    8  A    between atoms: C23_28  and  O6_29 
REMARK    9  A    between atoms: C29_37  and  O8_38 
ROOT
HETATM    1  C5  UNL     1     -13.542  42.745 -24.243  1.00  0.00     0.122 C 
HETATM    2  C6  UNL     1     -14.533  43.731 -24.887  1.00  0.00     0.033 C 
HETATM    3  C7  UNL     1     -14.093  44.213 -26.269  1.00  0.00     0.014 C 
HETATM    4  C8  UNL     1     -12.691  44.927 -26.255  1.00  0.00    -0.010 C 
HETATM    5  C9  UNL     1     -12.963  46.379 -25.763  1.00  0.00     0.018 C 
HETATM    6  C10 UNL     1     -11.791  44.320 -25.124  1.00  0.00     0.073 C 
HETATM    7  C11 UNL     1     -12.123  42.856 -24.825  1.00  0.00     0.045 C 
HETATM    8  C12 UNL     1     -10.292  44.560 -25.251  1.00  0.00     0.161 C 
HETATM    9  O3  UNL     1      -9.547  44.359 -24.288  1.00  0.00    -0.292 OA
HETATM   10  C13 UNL     1      -9.697  45.025 -26.536  1.00  0.00    -0.005 C 
HETATM   11  C14 UNL     1     -10.471  45.137 -27.634  1.00  0.00    -0.013 C 
HETATM   12  C15 UNL     1      -9.771  45.300 -28.956  1.00  0.00     0.095 C 
HETATM   13  C16 UNL     1      -8.373  45.909 -28.929  1.00  0.00     0.026 C 
HETATM   14  C17 UNL     1      -7.497  45.164 -27.937  1.00  0.00     0.013 C 
HETATM   15  C18 UNL     1      -8.176  45.177 -26.547  1.00  0.00     0.043 C 
HETATM   16  C19 UNL     1      -7.981  45.919 -30.428  1.00  0.00     0.016 C 
HETATM   17  C20 UNL     1      -9.337  45.768 -31.233  1.00  0.00     0.034 C 
HETATM   18  C21 UNL     1      -9.318  46.257 -32.719  1.00  0.00     0.087 C 
HETATM   19  C22 UNL     1      -8.584  47.613 -32.880  1.00  0.00     0.049 C 
HETATM   20  C23 UNL     1      -8.593  45.213 -33.688  1.00  0.00     0.181 C 
HETATM   21  C24 UNL     1      -9.222  43.842 -34.138  1.00  0.00     0.158 C 
HETATM   22  O7  UNL     1      -8.082  43.044 -34.671  1.00  0.00    -0.373 OA
HETATM   23  C25 UNL     1      -7.621  42.151 -33.596  1.00  0.00     0.185 C 
HETATM   24  C26 UNL     1      -8.527  42.461 -32.406  1.00  0.00     0.028 C 
HETATM   25  C27 UNL     1      -8.534  41.345 -31.383  1.00  0.00     0.053 C 
HETATM   26  C28 UNL     1      -8.969  39.997 -31.949  1.00  0.00     0.309 C 
HETATM   27  N1  UNL     1      -8.861  39.919 -33.426  1.00  0.00     0.128 N 
HETATM   28  C29 UNL     1      -7.702  40.626 -33.968  1.00  0.00     0.384 C 
HETATM   29  C30 UNL     1     -10.397  39.683 -31.424  1.00  0.00     0.233 C 
HETATM   30  O9  UNL     1     -11.399  39.584 -32.126  1.00  0.00    -0.277 OA
HETATM   31  N2  UNL     1     -10.376  39.484 -30.031  1.00  0.00    -0.243 NA
HETATM   32  C31 UNL     1     -11.364  38.657 -29.410  1.00  0.00     0.120 A 
HETATM   33  C32 UNL     1     -11.254  40.113 -29.074  1.00  0.00     0.090 A 
HETATM   34  C33 UNL     1     -12.408  41.013 -29.396  1.00  0.00     0.115 C 
HETATM   35  C34 UNL     1     -12.179  42.283 -28.672  1.00  0.00    -0.104 C 
HETATM   36  C35 UNL     1     -12.069  43.380 -28.175  1.00  0.00    -0.090 C 
HETATM   37  C36 UNL     1     -11.975  44.828 -27.707  1.00  0.00     0.062 C 
HETATM   38  C37 UNL     1     -12.620  45.711 -28.889  1.00  0.00     0.012 C 
HETATM   39  C38 UNL     1     -12.676  47.233 -28.618  1.00  0.00     0.007 C 
HETATM   40  C39 UNL     1     -12.045  48.086 -29.700  1.00  0.00     0.001 C 
HETATM   41  C40 UNL     1     -10.606  47.628 -29.927  1.00  0.00     0.013 C 
HETATM   42  C41 UNL     1     -10.448  46.089 -30.141  1.00  0.00     0.002 C 
HETATM   43  C42 UNL     1     -11.863  45.486 -30.251  1.00  0.00     0.020 C 
HETATM   44  C43 UNL     1      -9.796  42.826 -33.172  1.00  0.00     0.020 C 
HETATM   45  C44 UNL     1     -11.086  43.147 -32.479  1.00  0.00     0.013 C 
HETATM   46  H42 UNL     1      -8.845  38.944 -33.709  1.00  0.00     0.320 HD
ENDROOT
BRANCH   1  47
HETATM   47  O2  UNL     1     -13.456  43.053 -22.846  1.00  0.00    -0.386 OA
BRANCH  47  48
HETATM   48  C4  UNL     1     -12.448  42.338 -22.142  1.00  0.00     0.170 C 
BRANCH  48  49
HETATM   49  C3  UNL     1     -12.904  40.945 -21.705  1.00  0.00     0.052 C 
BRANCH  49  50
HETATM   50  C2  UNL     1     -12.132  39.829 -22.404  1.00  0.00     0.169 C 
BRANCH  50  51
HETATM   51  O1  UNL     1     -10.789  40.257 -22.631  1.00  0.00    -0.396 OA
HETATM   52  C1  UNL     1     -10.137  39.453 -23.607  1.00  0.00     0.201 C 
ENDBRANCH  50  51
ENDBRANCH  49  50
ENDBRANCH  48  49
ENDBRANCH  47  48
ENDBRANCH   1  47
BRANCH  12  53
HETATM   53  O4  UNL     1      -9.574  43.919 -29.382  1.00  0.00    -0.384 OA
HETATM   54  H21 UNL     1      -9.429  43.360 -28.602  1.00  0.00     0.211 HD
ENDBRANCH  12  53
BRANCH  18  55
HETATM   55  O5  UNL     1     -10.659  46.452 -33.171  1.00  0.00    -0.387 OA
HETATM   56  H33 UNL     1     -10.589  46.668 -34.121  1.00  0.00     0.210 HD
ENDBRANCH  18  55
BRANCH  20  57
HETATM   57  O6  UNL     1      -8.344  45.897 -34.951  1.00  0.00    -0.390 OA
HETATM   58  H35 UNL     1      -7.870  45.244 -35.507  1.00  0.00     0.210 HD
ENDBRANCH  20  57
BRANCH  28  59
HETATM   59  O8  UNL     1      -6.540  39.968 -33.490  1.00  0.00    -0.366 OA
HETATM   60  H44 UNL     1      -6.138  39.525 -34.255  1.00  0.00     0.212 HD
ENDBRANCH  28  59
TORSDOF 9
ENDMDL
MODEL 6
REMARK minimizedAffinity -8.55517483
REMARK CNNscore 0.21864973
REMARK CNNaffinity 7.26902914
REMARK  9 active torsions:
REMARK  status: ('A' for Active; 'I' for Inactive)
REMARK    1  A    between atoms: O1_2  and  C2_3 
REMARK    2  A    between atoms: C2_3  and  C3_4 
REMARK    3  A    between atoms: C3_4  and  C4_5 
REMARK    4  A    between atoms: C4_5  and  O2_6 
REMARK    5  A    between atoms: O2_6  and  C5_7 
REMARK    6  A    between atoms: C15_18  and  O4_19 
REMARK    7  A    between atoms: C21_25  and  O5_27 
REMARK    8  A    between atoms: C23_28  and  O6_29 
REMARK    9  A    between atoms: C29_37  and  O8_38 
ROOT
HETATM    1  C5  UNL     1       2.722  55.235  -9.703  1.00  0.00     0.122 C 
HETATM    2  C6  UNL     1       2.987  54.157  -8.636  1.00  0.00     0.033 C 
HETATM    3  C7  UNL     1       2.171  52.883  -8.850  1.00  0.00     0.014 C 
HETATM    4  C8  UNL     1       0.619  53.139  -8.858  1.00  0.00    -0.010 C 
HETATM    5  C9  UNL     1       0.201  53.233  -7.362  1.00  0.00     0.018 C 
HETATM    6  C10 UNL     1       0.313  54.573  -9.414  1.00  0.00     0.073 C 
HETATM    7  C11 UNL     1       1.369  55.058 -10.411  1.00  0.00     0.045 C 
HETATM    8  C12 UNL     1      -1.106  54.819  -9.907  1.00  0.00     0.161 C 
HETATM    9  O3  UNL     1      -1.505  55.971 -10.105  1.00  0.00    -0.292 OA
HETATM   10  C13 UNL     1      -2.033  53.682 -10.174  1.00  0.00    -0.005 C 
HETATM   11  C14 UNL     1      -1.585  52.414 -10.081  1.00  0.00    -0.013 C 
HETATM   12  C15 UNL     1      -2.455  51.332 -10.660  1.00  0.00     0.095 C 
HETATM   13  C16 UNL     1      -3.950  51.620 -10.750  1.00  0.00     0.026 C 
HETATM   14  C17 UNL     1      -4.186  52.945 -11.455  1.00  0.00     0.013 C 
HETATM   15  C18 UNL     1      -3.411  54.061 -10.715  1.00  0.00     0.043 C 
HETATM   16  C19 UNL     1      -4.507  50.319 -11.378  1.00  0.00     0.016 C 
HETATM   17  C20 UNL     1      -3.388  49.218 -11.162  1.00  0.00     0.034 C 
HETATM   18  C21 UNL     1      -3.862  47.728 -11.218  1.00  0.00     0.087 C 
HETATM   19  C22 UNL     1      -5.187  47.506 -10.446  1.00  0.00     0.049 C 
HETATM   20  C23 UNL     1      -4.103  47.228 -12.718  1.00  0.00     0.181 C 
HETATM   21  C24 UNL     1      -2.949  46.909 -13.738  1.00  0.00     0.158 C 
HETATM   22  O7  UNL     1      -3.605  46.885 -15.076  1.00  0.00    -0.373 OA
HETATM   23  C25 UNL     1      -3.400  48.202 -15.699  1.00  0.00     0.185 C 
HETATM   24  C26 UNL     1      -2.607  49.007 -14.670  1.00  0.00     0.028 C 
HETATM   25  C27 UNL     1      -1.898  50.193 -15.292  1.00  0.00     0.053 C 
HETATM   26  C28 UNL     1      -0.937  49.813 -16.414  1.00  0.00     0.309 C 
HETATM   27  N1  UNL     1      -1.205  48.471 -16.986  1.00  0.00     0.128 N 
HETATM   28  C29 UNL     1      -2.626  48.138 -17.065  1.00  0.00     0.384 C 
HETATM   29  C30 UNL     1       0.517  49.975 -15.891  1.00  0.00     0.233 C 
HETATM   30  O9  UNL     1       1.321  49.059 -15.754  1.00  0.00    -0.277 OA
HETATM   31  N2  UNL     1       0.799  51.331 -15.636  1.00  0.00    -0.243 NA
HETATM   32  C31 UNL     1       2.145  51.808 -15.709  1.00  0.00     0.120 A 
HETATM   33  C32 UNL     1       1.376  51.860 -14.424  1.00  0.00     0.090 A 
HETATM   34  C33 UNL     1       1.869  51.057 -13.259  1.00  0.00     0.115 C 
HETATM   35  C34 UNL     1       1.146  51.544 -12.063  1.00  0.00    -0.104 C 
HETATM   36  C35 UNL     1       0.578  51.819 -11.032  1.00  0.00    -0.090 C 
HETATM   37  C36 UNL     1      -0.155  51.993  -9.706  1.00  0.00     0.062 C 
HETATM   38  C37 UNL     1      -0.213  50.526  -9.045  1.00  0.00     0.012 C 
HETATM   39  C38 UNL     1      -0.883  50.457  -7.652  1.00  0.00     0.007 C 
HETATM   40  C39 UNL     1      -2.003  49.442  -7.544  1.00  0.00     0.001 C 
HETATM   41  C40 UNL     1      -3.039  49.719  -8.631  1.00  0.00     0.013 C 
HETATM   42  C41 UNL     1      -2.439  49.873 -10.066  1.00  0.00     0.002 C 
HETATM   43  C42 UNL     1      -0.945  49.500  -9.989  1.00  0.00     0.020 C 
HETATM   44  C43 UNL     1      -1.813  47.863 -14.045  1.00  0.00     0.020 C 
HETATM   45  C44 UNL     1      -0.769  48.094 -12.994  1.00  0.00     0.013 C 
HETATM   46  H42 UNL     1      -0.774  48.406 -17.904  1.00  0.00     0.320 HD
ENDROOT
BRANCH   1  47
HETATM   47  O2  UNL     1       2.697  56.510  -9.047  1.00  0.00    -0.386 OA
BRANCH  47  48
HETATM   48  C4  UNL     1       3.052  56.476  -7.671  1.00  0.00     0.170 C 
BRANCH  48  49
HETATM   49  C3  UNL     1       4.183  57.445  -7.324  1.00  0.00     0.052 C 
BRANCH  49  50
HETATM   50  C2  UNL     1       5.493  56.729  -7.005  1.00  0.00     0.169 C 
BRANCH  50  51
HETATM   51  O1  UNL     1       5.933  56.017  -8.160  1.00  0.00    -0.396 OA
HETATM   52  C1  UNL     1       7.091  55.237  -7.890  1.00  0.00     0.201 C 
ENDBRANCH  50  51
ENDBRANCH  49  50
ENDBRANCH  48  49
ENDBRANCH  47  48
ENDBRANCH   1  47
BRANCH  12  53
HETATM   53  O4  UNL     1      -1.999  51.266 -12.044  1.00  0.00    -0.384 OA
HETATM   54  H21 UNL     1      -1.732  52.151 -12.338  1.00  0.00     0.211 HD
ENDBRANCH  12  53
BRANCH  18  55
HETATM   55  O5  UNL     1      -2.878  46.894 -10.606  1.00  0.00    -0.387 OA
HETATM   56  H33 UNL     1      -3.182  45.977 -10.750  1.00  0.00     0.210 HD
ENDBRANCH  18  55
BRANCH  20  57
HETATM   57  O6  UNL     1      -4.839  45.973 -12.642  1.00  0.00    -0.390 OA
HETATM   58  H35 UNL     1      -5.001  45.713 -13.573  1.00  0.00     0.210 HD
ENDBRANCH  20  57
BRANCH  28  59
HETATM   59  O8  UNL     1      -3.224  49.042 -17.981  1.00  0.00    -0.366 OA
HETATM   60  H44 UNL     1      -3.458  48.523 -18.768  1.00  0.00     0.212 HD
ENDBRANCH  28  59
TORSDOF 9
ENDMDL
MODEL 7
REMARK minimizedAffinity -6.79552603
REMARK CNNscore 0.186022982
REMARK CNNaffinity 6.59324837
REMARK  9 active torsions:
REMARK  status: ('A' for Active; 'I' for Inactive)
REMARK    1  A    between atoms: O1_2  and  C2_3 
REMARK    2  A    between atoms: C2_3  and  C3_4 
REMARK    3  A    between atoms: C3_4  and  C4_5 
REMARK    4  A    between atoms: C4_5  and  O2_6 
REMARK    5  A    between atoms: O2_6  and  C5_7 
REMARK    6  A    between atoms: C15_18  and  O4_19 
REMARK    7  A    between atoms: C21_25  and  O5_27 
REMARK    8  A    between atoms: C23_28  and  O6_29 
REMARK    9  A    between atoms: C29_37  and  O8_38 
ROOT
HETATM    1  C5  UNL     1       0.574  57.000  -6.289  1.00  0.00     0.122 C 
HETATM    2  C6  UNL     1       1.825  57.236  -7.155  1.00  0.00     0.033 C 
HETATM    3  C7  UNL     1       2.109  56.094  -8.130  1.00  0.00     0.014 C 
HETATM    4  C8  UNL     1       2.310  54.708  -7.414  1.00  0.00    -0.010 C 
HETATM    5  C9  UNL     1       3.776  54.712  -6.892  1.00  0.00     0.018 C 
HETATM    6  C10 UNL     1       1.454  54.652  -6.101  1.00  0.00     0.073 C 
HETATM    7  C11 UNL     1       0.193  55.515  -6.180  1.00  0.00     0.045 C 
HETATM    8  C12 UNL     1       1.174  53.266  -5.534  1.00  0.00     0.161 C 
HETATM    9  O3  UNL     1       0.750  53.140  -4.382  1.00  0.00    -0.292 OA
HETATM   10  C13 UNL     1       1.390  52.043  -6.359  1.00  0.00    -0.005 C 
HETATM   11  C14 UNL     1       1.738  52.160  -7.656  1.00  0.00    -0.013 C 
HETATM   12  C15 UNL     1       1.634  50.926  -8.511  1.00  0.00     0.095 C 
HETATM   13  C16 UNL     1       1.738  49.580  -7.799  1.00  0.00     0.026 C 
HETATM   14  C17 UNL     1       0.758  49.525  -6.639  1.00  0.00     0.013 C 
HETATM   15  C18 UNL     1       1.022  50.719  -5.692  1.00  0.00     0.043 C 
HETATM   16  C19 UNL     1       1.590  48.571  -8.965  1.00  0.00     0.016 C 
HETATM   17  C20 UNL     1       1.890  49.388 -10.288  1.00  0.00     0.034 C 
HETATM   18  C21 UNL     1       2.319  48.549 -11.538  1.00  0.00     0.087 C 
HETATM   19  C22 UNL     1       3.346  47.446 -11.177  1.00  0.00     0.049 C 
HETATM   20  C23 UNL     1       1.076  47.824 -12.233  1.00  0.00     0.181 C 
HETATM   21  C24 UNL     1      -0.011  48.568 -13.095  1.00  0.00     0.158 C 
HETATM   22  O7  UNL     1      -1.154  47.617 -13.188  1.00  0.00    -0.373 OA
HETATM   23  C25 UNL     1      -2.132  47.991 -12.154  1.00  0.00     0.185 C 
HETATM   24  C26 UNL     1      -1.515  49.194 -11.442  1.00  0.00     0.028 C 
HETATM   25  C27 UNL     1      -2.547  50.006 -10.687  1.00  0.00     0.053 C 
HETATM   26  C28 UNL     1      -3.679  50.527 -11.565  1.00  0.00     0.309 C 
HETATM   27  N1  UNL     1      -3.814  49.792 -12.846  1.00  0.00     0.128 N 
HETATM   28  C29 UNL     1      -3.547  48.359 -12.732  1.00  0.00     0.384 C 
HETATM   29  C30 UNL     1      -3.487  52.057 -11.757  1.00  0.00     0.233 C 
HETATM   30  O9  UNL     1      -3.254  52.608 -12.829  1.00  0.00    -0.277 OA
HETATM   31  N2  UNL     1      -3.657  52.731 -10.533  1.00  0.00    -0.243 NA
HETATM   32  C31 UNL     1      -4.094  54.093 -10.521  1.00  0.00     0.120 A 
HETATM   33  C32 UNL     1      -2.754  53.706  -9.972  1.00  0.00     0.090 A 
HETATM   34  C33 UNL     1      -1.524  54.250 -10.633  1.00  0.00     0.115 C 
HETATM   35  C34 UNL     1      -0.392  53.997  -9.713  1.00  0.00    -0.104 C 
HETATM   36  C35 UNL     1       0.611  53.792  -9.071  1.00  0.00    -0.090 C 
HETATM   37  C36 UNL     1       1.951  53.481  -8.413  1.00  0.00     0.062 C 
HETATM   38  C37 UNL     1       2.980  53.215  -9.623  1.00  0.00     0.012 C 
HETATM   39  C38 UNL     1       4.436  52.917  -9.195  1.00  0.00     0.007 C 
HETATM   40  C39 UNL     1       5.010  51.637  -9.770  1.00  0.00     0.001 C 
HETATM   41  C40 UNL     1       4.090  50.471  -9.415  1.00  0.00     0.013 C 
HETATM   42  C41 UNL     1       2.584  50.714  -9.750  1.00  0.00     0.002 C 
HETATM   43  C42 UNL     1       2.491  52.033 -10.542  1.00  0.00     0.020 C 
HETATM   44  C43 UNL     1      -0.758  49.797 -12.622  1.00  0.00     0.020 C 
HETATM   45  C44 UNL     1      -0.011  51.093 -12.516  1.00  0.00     0.013 C 
HETATM   46  H42 UNL     1      -4.743  49.950 -13.227  1.00  0.00     0.320 HD
ENDROOT
BRANCH   1  47
HETATM   47  O2  UNL     1       0.859  57.466  -4.963  1.00  0.00    -0.386 OA
BRANCH  47  48
HETATM   48  C4  UNL     1      -0.256  57.463  -4.081  1.00  0.00     0.170 C 
BRANCH  48  49
HETATM   49  C3  UNL     1      -0.002  58.258  -2.800  1.00  0.00     0.052 C 
BRANCH  49  50
HETATM   50  C2  UNL     1      -1.013  59.382  -2.597  1.00  0.00     0.169 C 
BRANCH  50  51
HETATM   51  O1  UNL     1      -1.489  59.350  -1.252  1.00  0.00    -0.396 OA
HETATM   52  C1  UNL     1      -2.317  60.468  -0.957  1.00  0.00     0.201 C 
ENDBRANCH  50  51
ENDBRANCH  49  50
ENDBRANCH  48  49
ENDBRANCH  47  48
ENDBRANCH   1  47
BRANCH  12  53
HETATM   53  O4  UNL     1       0.259  50.992  -8.996  1.00  0.00    -0.384 OA
HETATM   54  H21 UNL     1      -0.303  51.395  -8.315  1.00  0.00     0.211 HD
ENDBRANCH  12  53
BRANCH  18  55
HETATM   55  O5  UNL     1       2.947  49.407 -12.492  1.00  0.00    -0.387 OA
HETATM   56  H33 UNL     1       3.110  48.852 -13.279  1.00  0.00     0.210 HD
ENDBRANCH  18  55
BRANCH  20  57
HETATM   57  O6  UNL     1       1.615  46.834 -13.156  1.00  0.00    -0.390 OA
HETATM   58  H35 UNL     1       0.832  46.385 -13.538  1.00  0.00     0.210 HD
ENDBRANCH  20  57
BRANCH  28  59
HETATM   59  O8  UNL     1      -4.549  47.805 -11.895  1.00  0.00    -0.366 OA
HETATM   60  H44 UNL     1      -5.114  47.258 -12.465  1.00  0.00     0.212 HD
ENDBRANCH  28  59
TORSDOF 9
ENDMDL
MODEL 8
REMARK minimizedAffinity -6.78753901
REMARK CNNscore 0.180778533
REMARK CNNaffinity 6.66073084
REMARK  9 active torsions:
REMARK  status: ('A' for Active; 'I' for Inactive)
REMARK    1  A    between atoms: O1_2  and  C2_3 
REMARK    2  A    between atoms: C2_3  and  C3_4 
REMARK    3  A    between atoms: C3_4  and  C4_5 
REMARK    4  A    between atoms: C4_5  and  O2_6 
REMARK    5  A    between atoms: O2_6  and  C5_7 
REMARK    6  A    between atoms: C15_18  and  O4_19 
REMARK    7  A    between atoms: C21_25  and  O5_27 
REMARK    8  A    between atoms: C23_28  and  O6_29 
REMARK    9  A    between atoms: C29_37  and  O8_38 
ROOT
HETATM    1  C5  UNL     1      -3.144  48.175 -23.025  1.00  0.00     0.122 C 
HETATM    2  C6  UNL     1      -2.262  47.397 -22.031  1.00  0.00     0.033 C 
HETATM    3  C7  UNL     1      -3.067  46.603 -21.003  1.00  0.00     0.014 C 
HETATM    4  C8  UNL     1      -4.029  47.504 -20.144  1.00  0.00    -0.010 C 
HETATM    5  C9  UNL     1      -3.135  48.145 -19.044  1.00  0.00     0.018 C 
HETATM    6  C10 UNL     1      -4.510  48.735 -20.989  1.00  0.00     0.073 C 
HETATM    7  C11 UNL     1      -4.561  48.438 -22.490  1.00  0.00     0.045 C 
HETATM    8  C12 UNL     1      -5.762  49.446 -20.495  1.00  0.00     0.161 C 
HETATM    9  O3  UNL     1      -6.054  50.564 -20.930  1.00  0.00    -0.292 OA
HETATM   10  C13 UNL     1      -6.664  48.806 -19.497  1.00  0.00    -0.005 C 
HETATM   11  C14 UNL     1      -6.433  47.539 -19.097  1.00  0.00    -0.013 C 
HETATM   12  C15 UNL     1      -7.534  46.842 -18.345  1.00  0.00     0.095 C 
HETATM   13  C16 UNL     1      -8.521  47.725 -17.587  1.00  0.00     0.026 C 
HETATM   14  C17 UNL     1      -9.082  48.793 -18.509  1.00  0.00     0.013 C 
HETATM   15  C18 UNL     1      -7.915  49.601 -19.124  1.00  0.00     0.043 C 
HETATM   16  C19 UNL     1      -9.483  46.689 -16.954  1.00  0.00     0.016 C 
HETATM   17  C20 UNL     1      -8.717  45.303 -16.994  1.00  0.00     0.034 C 
HETATM   18  C21 UNL     1      -9.205  44.212 -15.984  1.00  0.00     0.087 C 
HETATM   19  C22 UNL     1      -9.471  44.797 -14.574  1.00  0.00     0.049 C 
HETATM   20  C23 UNL     1     -10.558  43.509 -16.464  1.00  0.00     0.181 C 
HETATM   21  C24 UNL     1     -10.644  42.470 -17.642  1.00  0.00     0.158 C 
HETATM   22  O7  UNL     1     -12.089  42.400 -17.998  1.00  0.00    -0.373 OA
HETATM   23  C25 UNL     1     -12.309  43.289 -19.150  1.00  0.00     0.185 C 
HETATM   24  C26 UNL     1     -10.939  43.894 -19.451  1.00  0.00     0.028 C 
HETATM   25  C27 UNL     1     -10.853  44.448 -20.858  1.00  0.00     0.053 C 
HETATM   26  C28 UNL     1     -11.145  43.416 -21.942  1.00  0.00     0.309 C 
HETATM   27  N1  UNL     1     -11.884  42.232 -21.441  1.00  0.00     0.128 N 
HETATM   28  C29 UNL     1     -12.876  42.550 -20.415  1.00  0.00     0.384 C 
HETATM   29  C30 UNL     1      -9.808  43.048 -22.643  1.00  0.00     0.233 C 
HETATM   30  O9  UNL     1      -9.283  41.939 -22.620  1.00  0.00    -0.277 OA
HETATM   31  N2  UNL     1      -9.301  44.157 -23.347  1.00  0.00    -0.243 NA
HETATM   32  C31 UNL     1      -8.459  43.959 -24.485  1.00  0.00     0.120 A 
HETATM   33  C32 UNL     1      -7.953  44.666 -23.265  1.00  0.00     0.090 A 
HETATM   34  C33 UNL     1      -6.824  44.050 -22.495  1.00  0.00     0.115 C 
HETATM   35  C34 UNL     1      -6.314  45.089 -21.573  1.00  0.00    -0.104 C 
HETATM   36  C35 UNL     1      -5.855  45.836 -20.741  1.00  0.00    -0.090 C 
HETATM   37  C36 UNL     1      -5.282  46.642 -19.580  1.00  0.00     0.062 C 
HETATM   38  C37 UNL     1      -4.954  45.569 -18.425  1.00  0.00     0.012 C 
HETATM   39  C38 UNL     1      -4.314  46.155 -17.144  1.00  0.00     0.007 C 
HETATM   40  C39 UNL     1      -5.038  45.799 -15.861  1.00  0.00     0.001 C 
HETATM   41  C40 UNL     1      -6.502  46.218 -15.977  1.00  0.00     0.013 C 
HETATM   42  C41 UNL     1      -7.210  45.727 -17.280  1.00  0.00     0.002 C 
HETATM   43  C42 UNL     1      -6.243  44.768 -18.003  1.00  0.00     0.020 C 
HETATM   44  C43 UNL     1     -10.068  42.716 -19.021  1.00  0.00     0.020 C 
HETATM   45  C44 UNL     1      -8.578  42.721 -19.184  1.00  0.00     0.013 C 
HETATM   46  H42 UNL     1     -12.323  41.755 -22.223  1.00  0.00     0.320 HD
ENDROOT
BRANCH   1  47
HETATM   47  O2  UNL     1      -2.531  49.450 -23.257  1.00  0.00    -0.386 OA
BRANCH  47  48
HETATM   48  C4  UNL     1      -2.691  49.953 -24.577  1.00  0.00     0.170 C 
BRANCH  48  49
HETATM   49  C3  UNL     1      -2.836  48.846 -25.622  1.00  0.00     0.052 C 
BRANCH  49  50
HETATM   50  C2  UNL     1      -3.153  49.388 -27.012  1.00  0.00     0.169 C 
BRANCH  50  51
HETATM   51  O1  UNL     1      -3.439  48.298 -27.888  1.00  0.00    -0.396 OA
HETATM   52  C1  UNL     1      -4.839  48.102 -28.047  1.00  0.00     0.201 C 
ENDBRANCH  50  51
ENDBRANCH  49  50
ENDBRANCH  48  49
ENDBRANCH  47  48
ENDBRANCH   1  47
BRANCH  12  53
HETATM   53  O4  UNL     1      -8.316  46.236 -19.417  1.00  0.00    -0.384 OA
HETATM   54  H21 UNL     1      -8.287  46.808 -20.200  1.00  0.00     0.211 HD
ENDBRANCH  12  53
BRANCH  18  55
HETATM   55  O5  UNL     1      -8.193  43.214 -15.838  1.00  0.00    -0.387 OA
HETATM   56  H33 UNL     1      -8.586  42.521 -15.272  1.00  0.00     0.210 HD
ENDBRANCH  18  55
BRANCH  20  57
HETATM   57  O6  UNL     1     -11.088  42.770 -15.325  1.00  0.00    -0.390 OA
HETATM   58  H35 UNL     1     -11.931  42.381 -15.641  1.00  0.00     0.210 HD
ENDBRANCH  20  57
BRANCH  28  59
HETATM   59  O8  UNL     1     -13.870  43.360 -21.021  1.00  0.00    -0.366 OA
HETATM   60  H44 UNL     1     -14.673  42.817 -21.077  1.00  0.00     0.212 HD
ENDBRANCH  28  59
TORSDOF 9
ENDMDL
MODEL 9
REMARK minimizedAffinity -6.7727704
REMARK CNNscore 0.175836042
REMARK CNNaffinity 6.58265066
REMARK  9 active torsions:
REMARK  status: ('A' for Active; 'I' for Inactive)
REMARK    1  A    between atoms: O1_2  and  C2_3 
REMARK    2  A    between atoms: C2_3  and  C3_4 
REMARK    3  A    between atoms: C3_4  and  C4_5 
REMARK    4  A    between atoms: C4_5  and  O2_6 
REMARK    5  A    between atoms: O2_6  and  C5_7 
REMARK    6  A    between atoms: C15_18  and  O4_19 
REMARK    7  A    between atoms: C21_25  and  O5_27 
REMARK    8  A    between atoms: C23_28  and  O6_29 
REMARK    9  A    between atoms: C29_37  and  O8_38 
ROOT
HETATM    1  C5  UNL     1       2.209  57.935  -6.656  1.00  0.00     0.122 C 
HETATM    2  C6  UNL     1       3.481  58.033  -7.517  1.00  0.00     0.033 C 
HETATM    3  C7  UNL     1       3.776  56.757  -8.306  1.00  0.00     0.014 C 
HETATM    4  C8  UNL     1       3.948  55.491  -7.388  1.00  0.00    -0.010 C 
HETATM    5  C9  UNL     1       5.402  55.564  -6.838  1.00  0.00     0.018 C 
HETATM    6  C10 UNL     1       3.063  55.635  -6.102  1.00  0.00     0.073 C 
HETATM    7  C11 UNL     1       1.811  56.484  -6.338  1.00  0.00     0.045 C 
HETATM    8  C12 UNL     1       2.757  54.350  -5.343  1.00  0.00     0.161 C 
HETATM    9  O3  UNL     1       2.306  54.399  -4.196  1.00  0.00    -0.292 OA
HETATM   10  C13 UNL     1       2.980  53.018  -5.972  1.00  0.00    -0.005 C 
HETATM   11  C14 UNL     1       3.358  52.939  -7.264  1.00  0.00    -0.013 C 
HETATM   12  C15 UNL     1       3.262  51.592  -7.929  1.00  0.00     0.095 C 
HETATM   13  C16 UNL     1       3.338  50.366  -7.024  1.00  0.00     0.026 C 
HETATM   14  C17 UNL     1       2.331  50.489  -5.892  1.00  0.00     0.013 C 
HETATM   15  C18 UNL     1       2.585  51.809  -5.126  1.00  0.00     0.043 C 
HETATM   16  C19 UNL     1       3.207  49.196  -8.030  1.00  0.00     0.016 C 
HETATM   17  C20 UNL     1       3.544  49.806  -9.452  1.00  0.00     0.034 C 
HETATM   18  C21 UNL     1       3.994  48.790 -10.554  1.00  0.00     0.087 C 
HETATM   19  C22 UNL     1       5.003  47.746 -10.009  1.00  0.00     0.049 C 
HETATM   20  C23 UNL     1       2.761  47.977 -11.164  1.00  0.00     0.181 C 
HETATM   21  C24 UNL     1       1.701  48.591 -12.151  1.00  0.00     0.158 C 
HETATM   22  O7  UNL     1       0.551  47.643 -12.130  1.00  0.00    -0.373 OA
HETATM   23  C25 UNL     1      -0.447  48.172 -11.187  1.00  0.00     0.185 C 
HETATM   24  C26 UNL     1       0.165  49.463 -10.646  1.00  0.00     0.028 C 
HETATM   25  C27 UNL     1      -0.876  50.384 -10.044  1.00  0.00     0.053 C 
HETATM   26  C28 UNL     1      -1.984  50.776 -11.016  1.00  0.00     0.309 C 
HETATM   27  N1  UNL     1      -2.096  49.860 -12.177  1.00  0.00     0.128 N 
HETATM   28  C29 UNL     1      -1.845  48.458 -11.846  1.00  0.00     0.384 C 
HETATM   29  C30 UNL     1      -1.772  52.260 -11.428  1.00  0.00     0.233 C 
HETATM   30  O9  UNL     1      -1.511  52.644 -12.564  1.00  0.00    -0.277 OA
HETATM   31  N2  UNL     1      -1.965  53.109 -10.322  1.00  0.00    -0.243 NA
HETATM   32  C31 UNL     1      -2.389  54.460 -10.521  1.00  0.00     0.120 A 
HETATM   33  C32 UNL     1      -1.066  54.151  -9.890  1.00  0.00     0.090 A 
HETATM   34  C33 UNL     1       0.184  54.584 -10.594  1.00  0.00     0.115 C 
HETATM   35  C34 UNL     1       1.292  54.463  -9.620  1.00  0.00    -0.104 C 
HETATM   36  C35 UNL     1       2.279  54.350  -8.931  1.00  0.00    -0.090 C 
HETATM   37  C36 UNL     1       3.601  54.132  -8.203  1.00  0.00     0.062 C 
HETATM   38  C37 UNL     1       4.654  53.683  -9.335  1.00  0.00     0.012 C 
HETATM   39  C38 UNL     1       6.098  53.444  -8.833  1.00  0.00     0.007 C 
HETATM   40  C39 UNL     1       6.672  52.090  -9.199  1.00  0.00     0.001 C 
HETATM   41  C40 UNL     1       5.734  50.994  -8.697  1.00  0.00     0.013 C 
HETATM   42  C41 UNL     1       4.239  51.194  -9.100  1.00  0.00     0.002 C 
HETATM   43  C42 UNL     1       4.175  52.382 -10.081  1.00  0.00     0.020 C 
HETATM   44  C43 UNL     1       0.954  49.881 -11.884  1.00  0.00     0.020 C 
HETATM   45  C44 UNL     1       1.710  51.173 -11.953  1.00  0.00     0.013 C 
HETATM   46  H42 UNL     1      -3.014  49.966 -12.599  1.00  0.00     0.320 HD
ENDROOT
BRANCH   1  47
HETATM   47  O2  UNL     1       2.468  58.591  -5.408  1.00  0.00    -0.386 OA
BRANCH  47  48
HETATM   48  C4  UNL     1       3.839  58.873  -5.160  1.00  0.00     0.170 C 
BRANCH  48  49
HETATM   49  C3  UNL     1       4.348  58.251  -3.859  1.00  0.00     0.052 C 
BRANCH  49  50
HETATM   50  C2  UNL     1       5.864  58.078  -3.844  1.00  0.00     0.169 C 
BRANCH  50  51
HETATM   51  O1  UNL     1       6.407  58.590  -5.060  1.00  0.00    -0.396 OA
HETATM   52  C1  UNL     1       7.751  59.027  -4.896  1.00  0.00     0.201 C 
ENDBRANCH  50  51
ENDBRANCH  49  50
ENDBRANCH  48  49
ENDBRANCH  47  48
ENDBRANCH   1  47
BRANCH  12  53
HETATM   53  O4  UNL     1       1.900  51.594  -8.451  1.00  0.00    -0.384 OA
HETATM   54  H21 UNL     1       1.326  52.096  -7.851  1.00  0.00     0.211 HD
ENDBRANCH  12  53
BRANCH  18  55
HETATM   55  O5  UNL     1       4.651  49.493 -11.609  1.00  0.00    -0.387 OA
HETATM   56  H33 UNL     1       4.827  48.827 -12.301  1.00  0.00     0.210 HD
ENDBRANCH  18  55
BRANCH  20  57
HETATM   57  O6  UNL     1       3.311  46.857 -11.917  1.00  0.00    -0.390 OA
HETATM   58  H35 UNL     1       2.532  46.362 -12.247  1.00  0.00     0.210 HD
ENDBRANCH  20  57
BRANCH  28  59
HETATM   59  O8  UNL     1      -2.871  48.040 -10.960  1.00  0.00    -0.366 OA
HETATM   60  H44 UNL     1      -3.428  47.418 -11.457  1.00  0.00     0.212 HD
ENDBRANCH  28  59
TORSDOF 9
ENDMDL
