MODEL 1
REMARK minimizedAffinity -7.47902203
REMARK CNNscore 0.62078923
REMARK CNNaffinity 7.23149347
REMARK  16 active torsions:
REMARK  status: ('A' for Active; 'I' for Inactive)
REMARK    1  A    between atoms: C2_2  and  C3_3 
REMARK    2  A    between atoms: C3_3  and  C4_4 
REMARK    3  A    between atoms: C4_4  and  C5_5 
REMARK    4  A    between atoms: C5_5  and  C6_6 
REMARK    5  A    between atoms: C6_6  and  C7_7 
REMARK    6  A    between atoms: C7_7  and  C8_8 
REMARK    7  A    between atoms: C7_7  and  C30_36 
REMARK    8  A    between atoms: C9_9  and  C11_11 
REMARK    9  A    between atoms: C11_11  and  O1_12 
REMARK   10  A    between atoms: C11_11  and  C12_13 
REMARK   11  A    between atoms: C12_13  and  C14_15 
REMARK   12  A    between atoms: C14_15  and  O3_17 
REMARK   13  A    between atoms: O3_17  and  C15_18 
REMARK   14  A    between atoms: C24_27  and  C26_29 
REMARK   15  A    between atoms: C26_29  and  O4_30 
REMARK   16  A    between atoms: C30_36  and  O7_37 
ROOT
HETATM    1  C14 UNL     1       0.376  52.022 -17.881  1.00  0.00     0.266 C 
HETATM    2  O2  UNL     1       0.622  53.078 -18.450  1.00  0.00    -0.265 OA
ENDROOT
BRANCH   1   3
HETATM    3  C12 UNL     1      -0.850  51.183 -18.187  1.00  0.00     0.114 C 
HETATM    4  C13 UNL     1      -0.513  49.722 -17.898  1.00  0.00     0.023 C 
BRANCH   3   5
HETATM    5  C11 UNL     1      -1.367  51.432 -19.619  1.00  0.00     0.159 C 
BRANCH   5   6
HETATM    6  C9  UNL     1      -0.486  50.885 -20.735  1.00  0.00    -0.058 C 
HETATM    7  C8  UNL     1       0.215  51.573 -21.666  1.00  0.00    -0.015 C 
HETATM    8  C10 UNL     1      -0.481  49.366 -20.831  1.00  0.00     0.046 C 
BRANCH   7   9
HETATM    9  C7  UNL     1       0.452  53.043 -21.997  1.00  0.00     0.032 C 
BRANCH   9  10
HETATM   10  C6  UNL     1       0.510  53.244 -23.540  1.00  0.00     0.010 C 
BRANCH  10  11
HETATM   11  C5  UNL     1       0.132  52.027 -24.394  1.00  0.00     0.001 C 
BRANCH  11  12
HETATM   12  C4  UNL     1       1.123  51.750 -25.532  1.00  0.00     0.000 C 
BRANCH  12  13
HETATM   13  C3  UNL     1       0.547  50.860 -26.638  1.00  0.00    -0.000 C 
BRANCH  13  14
HETATM   14  C2  UNL     1      -0.425  51.601 -27.561  1.00  0.00    -0.005 C 
HETATM   15  C1  UNL     1       0.186  52.822 -28.232  1.00  0.00     0.005 C 
ENDBRANCH  13  14
ENDBRANCH  12  13
ENDBRANCH  11  12
ENDBRANCH  10  11
ENDBRANCH   9  10
BRANCH   9  16
HETATM   16  C30 UNL     1       1.579  53.817 -21.291  1.00  0.00     0.172 C 
BRANCH  16  17
HETATM   17  O7  UNL     1       2.019  54.962 -22.006  1.00  0.00    -0.400 OA
HETATM   18  H48 UNL     1       1.803  54.832 -22.944  1.00  0.00     0.209 HD
ENDBRANCH  16  17
ENDBRANCH   9  16
ENDBRANCH   7   9
ENDBRANCH   5   6
BRANCH   5  19
HETATM   19  O1  UNL     1      -2.638  50.790 -19.760  1.00  0.00    -0.390 OA
HETATM   20  H20 UNL     1      -2.901  50.884 -20.693  1.00  0.00     0.210 HD
ENDBRANCH   5  19
ENDBRANCH   3   5
ENDBRANCH   1   3
BRANCH   1  21
HETATM   21  O3  UNL     1       1.103  51.511 -16.853  1.00  0.00    -0.312 OA
BRANCH  21  22
HETATM   22  C15 UNL     1       1.362  52.393 -15.744  1.00  0.00     0.170 C 
HETATM   23  C16 UNL     1       2.856  52.715 -15.731  1.00  0.00     0.036 C 
HETATM   24  C17 UNL     1       3.708  51.506 -15.350  1.00  0.00     0.007 C 
HETATM   25  C18 UNL     1       3.295  50.938 -13.979  1.00  0.00    -0.007 C 
HETATM   26  C19 UNL     1       4.255  49.806 -13.596  1.00  0.00     0.011 C 
HETATM   27  C20 UNL     1       1.773  50.546 -13.930  1.00  0.00     0.000 C 
HETATM   28  C21 UNL     1       1.485  49.282 -14.773  1.00  0.00     0.019 C 
HETATM   29  C22 UNL     1       1.367  50.245 -12.444  1.00  0.00     0.055 C 
HETATM   30  C29 UNL     1       0.948  51.725 -14.456  1.00  0.00     0.129 A 
HETATM   31  C23 UNL     1      -0.120  50.133 -12.143  1.00  0.00    -0.005 C 
HETATM   32  C24 UNL     1      -0.628  49.537 -11.034  1.00  0.00    -0.051 C 
HETATM   33  C27 UNL     1      -1.040  50.736 -13.172  1.00  0.00     0.187 C 
HETATM   34  C25 UNL     1      -2.106  49.490 -10.710  1.00  0.00     0.046 C 
HETATM   35  O5  UNL     1      -2.158  50.299 -13.412  1.00  0.00    -0.290 OA
HETATM   36  C28 UNL     1      -0.491  51.824 -14.011  1.00  0.00     0.235 A 
HETATM   37  O6  UNL     1       0.537  52.653 -13.435  1.00  0.00    -0.357 OA
BRANCH  32  38
HETATM   38  C26 UNL     1       0.219  48.875  -9.975  1.00  0.00     0.198 C 
BRANCH  38  39
HETATM   39  O4  UNL     1       0.667  47.625 -10.477  1.00  0.00    -0.397 OA
HETATM   40  H44 UNL     1       1.253  47.245  -9.802  1.00  0.00     0.209 HD
ENDBRANCH  38  39
ENDBRANCH  32  38
ENDBRANCH  21  22
ENDBRANCH   1  21
TORSDOF 16
ENDMDL
MODEL 2
REMARK minimizedAffinity -8.15444374
REMARK CNNscore 0.453402221
REMARK CNNaffinity 7.25167465
REMARK  16 active torsions:
REMARK  status: ('A' for Active; 'I' for Inactive)
REMARK    1  A    between atoms: C2_2  and  C3_3 
REMARK    2  A    between atoms: C3_3  and  C4_4 
REMARK    3  A    between atoms: C4_4  and  C5_5 
REMARK    4  A    between atoms: C5_5  and  C6_6 
REMARK    5  A    between atoms: C6_6  and  C7_7 
REMARK    6  A    between atoms: C7_7  and  C8_8 
REMARK    7  A    between atoms: C7_7  and  C30_36 
REMARK    8  A    between atoms: C9_9  and  C11_11 
REMARK    9  A    between atoms: C11_11  and  O1_12 
REMARK   10  A    between atoms: C11_11  and  C12_13 
REMARK   11  A    between atoms: C12_13  and  C14_15 
REMARK   12  A    between atoms: C14_15  and  O3_17 
REMARK   13  A    between atoms: O3_17  and  C15_18 
REMARK   14  A    between atoms: C24_27  and  C26_29 
REMARK   15  A    between atoms: C26_29  and  O4_30 
REMARK   16  A    between atoms: C30_36  and  O7_37 
ROOT
HETATM    1  C14 UNL     1      -5.537  48.832 -21.348  1.00  0.00     0.266 C 
HETATM    2  O2  UNL     1      -5.998  47.702 -21.250  1.00  0.00    -0.265 OA
ENDROOT
BRANCH   1   3
HETATM    3  C12 UNL     1      -6.087  49.869 -22.310  1.00  0.00     0.114 C 
HETATM    4  C13 UNL     1      -7.587  49.632 -22.461  1.00  0.00     0.023 C 
BRANCH   3   5
HETATM    5  C11 UNL     1      -5.318  49.867 -23.648  1.00  0.00     0.159 C 
BRANCH   5   6
HETATM    6  C9  UNL     1      -5.588  48.673 -24.554  1.00  0.00    -0.058 C 
HETATM    7  C8  UNL     1      -4.914  48.291 -25.663  1.00  0.00    -0.015 C 
HETATM    8  C10 UNL     1      -6.828  47.877 -24.175  1.00  0.00     0.046 C 
BRANCH   7   9
HETATM    9  C7  UNL     1      -3.699  48.792 -26.437  1.00  0.00     0.032 C 
BRANCH   9  10
HETATM   10  C6  UNL     1      -3.053  50.003 -25.700  1.00  0.00     0.010 C 
BRANCH  10  11
HETATM   11  C5  UNL     1      -2.703  51.216 -26.572  1.00  0.00     0.001 C 
BRANCH  11  12
HETATM   12  C4  UNL     1      -1.337  51.829 -26.241  1.00  0.00     0.000 C 
BRANCH  12  13
HETATM   13  C3  UNL     1      -0.173  50.847 -26.405  1.00  0.00    -0.000 C 
BRANCH  13  14
HETATM   14  C2  UNL     1       1.034  51.458 -27.123  1.00  0.00    -0.005 C 
HETATM   15  C1  UNL     1       2.344  51.274 -26.373  1.00  0.00     0.005 C 
ENDBRANCH  13  14
ENDBRANCH  12  13
ENDBRANCH  11  12
ENDBRANCH  10  11
ENDBRANCH   9  10
BRANCH   9  16
HETATM   16  C30 UNL     1      -3.807  49.054 -27.950  1.00  0.00     0.172 C 
BRANCH  16  17
HETATM   17  O7  UNL     1      -4.427  47.998 -28.669  1.00  0.00    -0.400 OA
HETATM   18  H48 UNL     1      -4.324  47.182 -28.152  1.00  0.00     0.209 HD
ENDBRANCH  16  17
ENDBRANCH   9  16
ENDBRANCH   7   9
ENDBRANCH   5   6
BRANCH   5  19
HETATM   19  O1  UNL     1      -5.699  51.029 -24.391  1.00  0.00    -0.390 OA
HETATM   20  H20 UNL     1      -5.273  50.961 -25.263  1.00  0.00     0.210 HD
ENDBRANCH   5  19
ENDBRANCH   3   5
ENDBRANCH   1   3
BRANCH   1  21
HETATM   21  O3  UNL     1      -4.434  49.277 -20.690  1.00  0.00    -0.312 OA
BRANCH  21  22
HETATM   22  C15 UNL     1      -3.197  48.596 -20.972  1.00  0.00     0.170 C 
HETATM   23  C16 UNL     1      -2.903  47.645 -19.811  1.00  0.00     0.036 C 
HETATM   24  C17 UNL     1      -2.544  48.389 -18.527  1.00  0.00     0.007 C 
HETATM   25  C18 UNL     1      -1.338  49.326 -18.740  1.00  0.00    -0.007 C 
HETATM   26  C19 UNL     1      -0.950  49.956 -17.397  1.00  0.00     0.011 C 
HETATM   27  C20 UNL     1      -1.586  50.361 -19.897  1.00  0.00     0.000 C 
HETATM   28  C21 UNL     1      -2.615  51.440 -19.485  1.00  0.00     0.019 C 
HETATM   29  C22 UNL     1      -0.234  51.083 -20.239  1.00  0.00     0.055 C 
HETATM   30  C29 UNL     1      -2.087  49.604 -21.131  1.00  0.00     0.129 A 
HETATM   31  C23 UNL     1      -0.194  51.904 -21.519  1.00  0.00    -0.005 C 
HETATM   32  C24 UNL     1       0.736  52.860 -21.779  1.00  0.00    -0.051 C 
HETATM   33  C27 UNL     1      -1.274  51.600 -22.522  1.00  0.00     0.187 C 
HETATM   34  C25 UNL     1       0.809  53.624 -23.084  1.00  0.00     0.046 C 
HETATM   35  O5  UNL     1      -1.743  52.439 -23.280  1.00  0.00    -0.290 OA
HETATM   36  C28 UNL     1      -1.871  50.246 -22.480  1.00  0.00     0.235 A 
HETATM   37  O6  UNL     1      -1.037  49.167 -22.015  1.00  0.00    -0.357 OA
BRANCH  32  38
HETATM   38  C26 UNL     1       1.826  53.254 -20.814  1.00  0.00     0.198 C 
BRANCH  38  39
HETATM   39  O4  UNL     1       1.380  54.376 -20.068  1.00  0.00    -0.397 OA
HETATM   40  H44 UNL     1       2.074  54.576 -19.418  1.00  0.00     0.209 HD
ENDBRANCH  38  39
ENDBRANCH  32  38
ENDBRANCH  21  22
ENDBRANCH   1  21
TORSDOF 16
ENDMDL
MODEL 3
REMARK minimizedAffinity -7.73332644
REMARK CNNscore 0.406287372
REMARK CNNaffinity 6.27532959
REMARK  16 active torsions:
REMARK  status: ('A' for Active; 'I' for Inactive)
REMARK    1  A    between atoms: C2_2  and  C3_3 
REMARK    2  A    between atoms: C3_3  and  C4_4 
REMARK    3  A    between atoms: C4_4  and  C5_5 
REMARK    4  A    between atoms: C5_5  and  C6_6 
REMARK    5  A    between atoms: C6_6  and  C7_7 
REMARK    6  A    between atoms: C7_7  and  C8_8 
REMARK    7  A    between atoms: C7_7  and  C30_36 
REMARK    8  A    between atoms: C9_9  and  C11_11 
REMARK    9  A    between atoms: C11_11  and  O1_12 
REMARK   10  A    between atoms: C11_11  and  C12_13 
REMARK   11  A    between atoms: C12_13  and  C14_15 
REMARK   12  A    between atoms: C14_15  and  O3_17 
REMARK   13  A    between atoms: O3_17  and  C15_18 
REMARK   14  A    between atoms: C24_27  and  C26_29 
REMARK   15  A    between atoms: C26_29  and  O4_30 
REMARK   16  A    between atoms: C30_36  and  O7_37 
ROOT
HETATM    1  C14 UNL     1       0.206  51.749 -18.122  1.00  0.00     0.266 C 
HETATM    2  O2  UNL     1       0.261  52.946 -18.372  1.00  0.00    -0.265 OA
ENDROOT
BRANCH   1   3
HETATM    3  C12 UNL     1       1.060  51.085 -17.060  1.00  0.00     0.114 C 
HETATM    4  C13 UNL     1       0.318  49.850 -16.554  1.00  0.00     0.023 C 
BRANCH   3   5
HETATM    5  C11 UNL     1       1.453  52.076 -15.945  1.00  0.00     0.159 C 
BRANCH   5   6
HETATM    6  C9  UNL     1       2.888  51.961 -15.444  1.00  0.00    -0.058 C 
HETATM    7  C8  UNL     1       3.333  51.424 -14.286  1.00  0.00    -0.015 C 
HETATM    8  C10 UNL     1       3.914  52.615 -16.358  1.00  0.00     0.046 C 
BRANCH   7   9
HETATM    9  C7  UNL     1       2.700  50.740 -13.078  1.00  0.00     0.032 C 
BRANCH   9  10
HETATM   10  C6  UNL     1       1.882  51.770 -12.244  1.00  0.00     0.010 C 
BRANCH  10  11
HETATM   11  C5  UNL     1       2.693  52.677 -11.309  1.00  0.00     0.001 C 
BRANCH  11  12
HETATM   12  C4  UNL     1       1.831  53.412 -10.275  1.00  0.00     0.000 C 
BRANCH  12  13
HETATM   13  C3  UNL     1       1.652  54.902 -10.580  1.00  0.00    -0.000 C 
BRANCH  13  14
HETATM   14  C2  UNL     1       2.823  55.761 -10.095  1.00  0.00    -0.005 C 
HETATM   15  C1  UNL     1       3.667  56.331 -11.225  1.00  0.00     0.005 C 
ENDBRANCH  13  14
ENDBRANCH  12  13
ENDBRANCH  11  12
ENDBRANCH  10  11
ENDBRANCH   9  10
BRANCH   9  16
HETATM   16  C30 UNL     1       3.556  49.840 -12.169  1.00  0.00     0.172 C 
BRANCH  16  17
HETATM   17  O7  UNL     1       4.927  49.799 -12.535  1.00  0.00    -0.400 OA
HETATM   18  H48 UNL     1       4.994  50.031 -13.476  1.00  0.00     0.209 HD
ENDBRANCH  16  17
ENDBRANCH   9  16
ENDBRANCH   7   9
ENDBRANCH   5   6
BRANCH   5  19
HETATM   19  O1  UNL     1       1.310  53.407 -16.451  1.00  0.00    -0.390 OA
HETATM   20  H20 UNL     1       1.647  54.009 -15.765  1.00  0.00     0.210 HD
ENDBRANCH   5  19
ENDBRANCH   3   5
ENDBRANCH   1   3
BRANCH   1  21
HETATM   21  O3  UNL     1      -0.547  50.850 -18.811  1.00  0.00    -0.312 OA
BRANCH  21  22
HETATM   22  C15 UNL     1      -1.864  51.278 -19.204  1.00  0.00     0.170 C 
HETATM   23  C16 UNL     1      -2.874  50.652 -18.242  1.00  0.00     0.036 C 
HETATM   24  C17 UNL     1      -2.990  49.140 -18.424  1.00  0.00     0.007 C 
HETATM   25  C18 UNL     1      -3.368  48.776 -19.872  1.00  0.00    -0.007 C 
HETATM   26  C19 UNL     1      -3.584  47.261 -19.968  1.00  0.00     0.011 C 
HETATM   27  C20 UNL     1      -2.348  49.356 -20.918  1.00  0.00     0.000 C 
HETATM   28  C21 UNL     1      -0.994  48.610 -20.866  1.00  0.00     0.019 C 
HETATM   29  C22 UNL     1      -2.941  49.188 -22.363  1.00  0.00     0.055 C 
HETATM   30  C29 UNL     1      -2.137  50.844 -20.623  1.00  0.00     0.129 A 
HETATM   31  C23 UNL     1      -2.247  49.942 -23.486  1.00  0.00    -0.005 C 
HETATM   32  C24 UNL     1      -2.386  49.641 -24.803  1.00  0.00    -0.051 C 
HETATM   33  C27 UNL     1      -1.362  51.083 -23.056  1.00  0.00     0.187 C 
HETATM   34  C25 UNL     1      -1.746  50.440 -25.918  1.00  0.00     0.046 C 
HETATM   35  O5  UNL     1      -0.357  51.421 -23.667  1.00  0.00    -0.290 OA
HETATM   36  C28 UNL     1      -1.672  51.723 -21.758  1.00  0.00     0.235 A 
HETATM   37  O6  UNL     1      -3.045  51.714 -21.325  1.00  0.00    -0.357 OA
BRANCH  32  38
HETATM   38  C26 UNL     1      -3.220  48.493 -25.317  1.00  0.00     0.198 C 
BRANCH  38  39
HETATM   39  O4  UNL     1      -3.085  48.437 -26.729  1.00  0.00    -0.397 OA
HETATM   40  H44 UNL     1      -3.584  47.660 -27.029  1.00  0.00     0.209 HD
ENDBRANCH  38  39
ENDBRANCH  32  38
ENDBRANCH  21  22
ENDBRANCH   1  21
TORSDOF 16
ENDMDL
MODEL 4
REMARK minimizedAffinity -8.68420506
REMARK CNNscore 0.342429757
REMARK CNNaffinity 7.07090759
REMARK  16 active torsions:
REMARK  status: ('A' for Active; 'I' for Inactive)
REMARK    1  A    between atoms: C2_2  and  C3_3 
REMARK    2  A    between atoms: C3_3  and  C4_4 
REMARK    3  A    between atoms: C4_4  and  C5_5 
REMARK    4  A    between atoms: C5_5  and  C6_6 
REMARK    5  A    between atoms: C6_6  and  C7_7 
REMARK    6  A    between atoms: C7_7  and  C8_8 
REMARK    7  A    between atoms: C7_7  and  C30_36 
REMARK    8  A    between atoms: C9_9  and  C11_11 
REMARK    9  A    between atoms: C11_11  and  O1_12 
REMARK   10  A    between atoms: C11_11  and  C12_13 
REMARK   11  A    between atoms: C12_13  and  C14_15 
REMARK   12  A    between atoms: C14_15  and  O3_17 
REMARK   13  A    between atoms: O3_17  and  C15_18 
REMARK   14  A    between atoms: C24_27  and  C26_29 
REMARK   15  A    between atoms: C26_29  and  O4_30 
REMARK   16  A    between atoms: C30_36  and  O7_37 
ROOT
HETATM    1  C14 UNL     1      -4.370  49.293 -22.233  1.00  0.00     0.266 C 
HETATM    2  O2  UNL     1      -5.560  49.278 -21.947  1.00  0.00    -0.265 OA
ENDROOT
BRANCH   1   3
HETATM    3  C12 UNL     1      -3.830  48.791 -23.559  1.00  0.00     0.114 C 
HETATM    4  C13 UNL     1      -2.386  48.341 -23.347  1.00  0.00     0.023 C 
BRANCH   3   5
HETATM    5  C11 UNL     1      -3.998  49.841 -24.676  1.00  0.00     0.159 C 
BRANCH   5   6
HETATM    6  C9  UNL     1      -3.930  49.299 -26.098  1.00  0.00    -0.058 C 
HETATM    7  C8  UNL     1      -3.216  49.773 -27.145  1.00  0.00    -0.015 C 
HETATM    8  C10 UNL     1      -4.857  48.119 -26.355  1.00  0.00     0.046 C 
BRANCH   7   9
HETATM    9  C7  UNL     1      -2.240  50.922 -27.377  1.00  0.00     0.032 C 
BRANCH   9  10
HETATM   10  C6  UNL     1      -0.865  50.602 -26.720  1.00  0.00     0.010 C 
BRANCH  10  11
HETATM   11  C5  UNL     1       0.360  51.269 -27.360  1.00  0.00     0.001 C 
BRANCH  11  12
HETATM   12  C4  UNL     1       1.582  51.312 -26.433  1.00  0.00     0.000 C 
BRANCH  12  13
HETATM   13  C3  UNL     1       1.378  52.192 -25.196  1.00  0.00    -0.000 C 
BRANCH  13  14
HETATM   14  C2  UNL     1       0.162  53.117 -25.309  1.00  0.00    -0.005 C 
HETATM   15  C1  UNL     1       0.453  54.554 -24.903  1.00  0.00     0.005 C 
ENDBRANCH  13  14
ENDBRANCH  12  13
ENDBRANCH  11  12
ENDBRANCH  10  11
ENDBRANCH   9  10
BRANCH   9  16
HETATM   16  C30 UNL     1      -2.674  52.369 -27.085  1.00  0.00     0.172 C 
BRANCH  16  17
HETATM   17  O7  UNL     1      -2.155  53.318 -28.005  1.00  0.00    -0.400 OA
HETATM   18  H48 UNL     1      -1.350  52.944 -28.400  1.00  0.00     0.209 HD
ENDBRANCH  16  17
ENDBRANCH   9  16
ENDBRANCH   7   9
ENDBRANCH   5   6
BRANCH   5  19
HETATM   19  O1  UNL     1      -5.289  50.446 -24.538  1.00  0.00    -0.390 OA
HETATM   20  H20 UNL     1      -5.407  51.037 -25.303  1.00  0.00     0.210 HD
ENDBRANCH   5  19
ENDBRANCH   3   5
ENDBRANCH   1   3
BRANCH   1  21
HETATM   21  O3  UNL     1      -3.376  49.669 -21.385  1.00  0.00    -0.312 OA
BRANCH  21  22
HETATM   22  C15 UNL     1      -3.461  51.000 -20.841  1.00  0.00     0.170 C 
HETATM   23  C16 UNL     1      -3.171  51.992 -21.968  1.00  0.00     0.036 C 
HETATM   24  C17 UNL     1      -1.713  51.950 -22.419  1.00  0.00     0.007 C 
HETATM   25  C18 UNL     1      -0.754  52.217 -21.243  1.00  0.00    -0.007 C 
HETATM   26  C19 UNL     1       0.684  52.279 -21.772  1.00  0.00     0.011 C 
HETATM   27  C20 UNL     1      -0.968  51.205 -20.058  1.00  0.00     0.000 C 
HETATM   28  C21 UNL     1      -0.462  49.789 -20.421  1.00  0.00     0.019 C 
HETATM   29  C22 UNL     1      -0.166  51.704 -18.804  1.00  0.00     0.055 C 
HETATM   30  C29 UNL     1      -2.462  51.156 -19.722  1.00  0.00     0.129 A 
HETATM   31  C23 UNL     1      -0.471  51.030 -17.476  1.00  0.00    -0.005 C 
HETATM   32  C24 UNL     1       0.351  51.072 -16.395  1.00  0.00    -0.051 C 
HETATM   33  C27 UNL     1      -1.778  50.284 -17.409  1.00  0.00     0.187 C 
HETATM   34  C25 UNL     1       0.007  50.455 -15.056  1.00  0.00     0.046 C 
HETATM   35  O5  UNL     1      -1.948  49.286 -16.720  1.00  0.00    -0.290 OA
HETATM   36  C28 UNL     1      -2.851  50.721 -18.330  1.00  0.00     0.235 A 
HETATM   37  O6  UNL     1      -2.867  52.107 -18.720  1.00  0.00    -0.357 OA
BRANCH  32  38
HETATM   38  C26 UNL     1       1.692  51.762 -16.390  1.00  0.00     0.198 C 
BRANCH  38  39
HETATM   39  O4  UNL     1       1.492  53.129 -16.065  1.00  0.00    -0.397 OA
HETATM   40  H44 UNL     1       2.371  53.538 -16.013  1.00  0.00     0.209 HD
ENDBRANCH  38  39
ENDBRANCH  32  38
ENDBRANCH  21  22
ENDBRANCH   1  21
TORSDOF 16
ENDMDL
MODEL 5
REMARK minimizedAffinity -6.69354868
REMARK CNNscore 0.334441006
REMARK CNNaffinity 6.04293871
REMARK  16 active torsions:
REMARK  status: ('A' for Active; 'I' for Inactive)
REMARK    1  A    between atoms: C2_2  and  C3_3 
REMARK    2  A    between atoms: C3_3  and  C4_4 
REMARK    3  A    between atoms: C4_4  and  C5_5 
REMARK    4  A    between atoms: C5_5  and  C6_6 
REMARK    5  A    between atoms: C6_6  and  C7_7 
REMARK    6  A    between atoms: C7_7  and  C8_8 
REMARK    7  A    between atoms: C7_7  and  C30_36 
REMARK    8  A    between atoms: C9_9  and  C11_11 
REMARK    9  A    between atoms: C11_11  and  O1_12 
REMARK   10  A    between atoms: C11_11  and  C12_13 
REMARK   11  A    between atoms: C12_13  and  C14_15 
REMARK   12  A    between atoms: C14_15  and  O3_17 
REMARK   13  A    between atoms: O3_17  and  C15_18 
REMARK   14  A    between atoms: C24_27  and  C26_29 
REMARK   15  A    between atoms: C26_29  and  O4_30 
REMARK   16  A    between atoms: C30_36  and  O7_37 
ROOT
HETATM    1  C14 UNL     1       0.579  54.813  -8.584  1.00  0.00     0.266 C 
HETATM    2  O2  UNL     1      -0.203  55.555  -8.003  1.00  0.00    -0.265 OA
ENDROOT
BRANCH   1   3
HETATM    3  C12 UNL     1       0.130  53.638  -9.432  1.00  0.00     0.114 C 
HETATM    4  C13 UNL     1       1.164  52.524  -9.289  1.00  0.00     0.023 C 
BRANCH   3   5
HETATM    5  C11 UNL     1      -0.134  54.059 -10.892  1.00  0.00     0.159 C 
BRANCH   5   6
HETATM    6  C9  UNL     1      -0.609  52.945 -11.817  1.00  0.00    -0.058 C 
HETATM    7  C8  UNL     1      -1.729  52.193 -11.720  1.00  0.00    -0.015 C 
HETATM    8  C10 UNL     1       0.366  52.614 -12.937  1.00  0.00     0.046 C 
BRANCH   7   9
HETATM    9  C7  UNL     1      -2.921  52.115 -10.770  1.00  0.00     0.032 C 
BRANCH   9  10
HETATM   10  C6  UNL     1      -3.565  50.699 -10.829  1.00  0.00     0.010 C 
BRANCH  10  11
HETATM   11  C5  UNL     1      -3.980  50.090  -9.483  1.00  0.00     0.001 C 
BRANCH  11  12
HETATM   12  C4  UNL     1      -5.115  49.064  -9.603  1.00  0.00     0.000 C 
BRANCH  12  13
HETATM   13  C3  UNL     1      -6.187  49.460 -10.623  1.00  0.00    -0.000 C 
BRANCH  13  14
HETATM   14  C2  UNL     1      -7.577  49.627 -10.001  1.00  0.00    -0.005 C 
HETATM   15  C1  UNL     1      -8.713  49.272 -10.949  1.00  0.00     0.005 C 
ENDBRANCH  13  14
ENDBRANCH  12  13
ENDBRANCH  11  12
ENDBRANCH  10  11
ENDBRANCH   9  10
BRANCH   9  16
HETATM   16  C30 UNL     1      -3.994  53.217 -10.795  1.00  0.00     0.172 C 
BRANCH  16  17
HETATM   17  O7  UNL     1      -3.869  54.112 -11.890  1.00  0.00    -0.400 OA
HETATM   18  H48 UNL     1      -2.945  54.092 -12.190  1.00  0.00     0.209 HD
ENDBRANCH  16  17
ENDBRANCH   9  16
ENDBRANCH   7   9
ENDBRANCH   5   6
BRANCH   5  19
HETATM   19  O1  UNL     1      -1.165  55.052 -10.898  1.00  0.00    -0.390 OA
HETATM   20  H20 UNL     1      -1.377  55.236 -11.830  1.00  0.00     0.210 HD
ENDBRANCH   5  19
ENDBRANCH   3   5
ENDBRANCH   1   3
BRANCH   1  21
HETATM   21  O3  UNL     1       1.933  54.881  -8.478  1.00  0.00    -0.312 OA
BRANCH  21  22
HETATM   22  C15 UNL     1       2.570  56.023  -9.081  1.00  0.00     0.170 C 
HETATM   23  C16 UNL     1       3.198  55.575 -10.401  1.00  0.00     0.036 C 
HETATM   24  C17 UNL     1       4.392  54.647 -10.191  1.00  0.00     0.007 C 
HETATM   25  C18 UNL     1       5.470  55.310  -9.311  1.00  0.00    -0.007 C 
HETATM   26  C19 UNL     1       6.690  54.385  -9.231  1.00  0.00     0.011 C 
HETATM   27  C20 UNL     1       4.904  55.763  -7.916  1.00  0.00     0.000 C 
HETATM   28  C21 UNL     1       4.607  54.550  -7.002  1.00  0.00     0.019 C 
HETATM   29  C22 UNL     1       5.968  56.666  -7.197  1.00  0.00     0.055 C 
HETATM   30  C29 UNL     1       3.622  56.569  -8.147  1.00  0.00     0.129 A 
HETATM   31  C23 UNL     1       5.503  57.441  -5.974  1.00  0.00    -0.005 C 
HETATM   32  C24 UNL     1       6.342  57.965  -5.043  1.00  0.00    -0.051 C 
HETATM   33  C27 UNL     1       4.013  57.605  -5.834  1.00  0.00     0.187 C 
HETATM   34  C25 UNL     1       5.874  58.792  -3.865  1.00  0.00     0.046 C 
HETATM   35  O5  UNL     1       3.443  57.672  -4.753  1.00  0.00    -0.290 OA
HETATM   36  C28 UNL     1       3.210  57.549  -7.076  1.00  0.00     0.235 A 
HETATM   37  O6  UNL     1       3.841  57.985  -8.295  1.00  0.00    -0.357 OA
BRANCH  32  38
HETATM   38  C26 UNL     1       7.842  57.813  -5.086  1.00  0.00     0.198 C 
BRANCH  38  39
HETATM   39  O4  UNL     1       8.185  56.579  -4.473  1.00  0.00    -0.397 OA
HETATM   40  H44 UNL     1       9.147  56.478  -4.561  1.00  0.00     0.209 HD
ENDBRANCH  38  39
ENDBRANCH  32  38
ENDBRANCH  21  22
ENDBRANCH   1  21
TORSDOF 16
ENDMDL
MODEL 6
REMARK minimizedAffinity -7.75487852
REMARK CNNscore 0.3308146
REMARK CNNaffinity 6.81184053
REMARK  16 active torsions:
REMARK  status: ('A' for Active; 'I' for Inactive)
REMARK    1  A    between atoms: C2_2  and  C3_3 
REMARK    2  A    between atoms: C3_3  and  C4_4 
REMARK    3  A    between atoms: C4_4  and  C5_5 
REMARK    4  A    between atoms: C5_5  and  C6_6 
REMARK    5  A    between atoms: C6_6  and  C7_7 
REMARK    6  A    between atoms: C7_7  and  C8_8 
REMARK    7  A    between atoms: C7_7  and  C30_36 
REMARK    8  A    between atoms: C9_9  and  C11_11 
REMARK    9  A    between atoms: C11_11  and  O1_12 
REMARK   10  A    between atoms: C11_11  and  C12_13 
REMARK   11  A    between atoms: C12_13  and  C14_15 
REMARK   12  A    between atoms: C14_15  and  O3_17 
REMARK   13  A    between atoms: O3_17  and  C15_18 
REMARK   14  A    between atoms: C24_27  and  C26_29 
REMARK   15  A    between atoms: C26_29  and  O4_30 
REMARK   16  A    between atoms: C30_36  and  O7_37 
ROOT
HETATM    1  C14 UNL     1      -4.958  47.749 -19.412  1.00  0.00     0.266 C 
HETATM    2  O2  UNL     1      -5.486  47.395 -18.365  1.00  0.00    -0.265 OA
ENDROOT
BRANCH   1   3
HETATM    3  C12 UNL     1      -5.287  47.127 -20.756  1.00  0.00     0.114 C 
HETATM    4  C13 UNL     1      -4.422  45.881 -20.930  1.00  0.00     0.023 C 
BRANCH   3   5
HETATM    5  C11 UNL     1      -5.146  48.148 -21.904  1.00  0.00     0.159 C 
BRANCH   5   6
HETATM    6  C9  UNL     1      -5.881  47.791 -23.190  1.00  0.00    -0.058 C 
HETATM    7  C8  UNL     1      -5.670  48.267 -24.438  1.00  0.00    -0.015 C 
HETATM    8  C10 UNL     1      -7.044  46.830 -22.990  1.00  0.00     0.046 C 
BRANCH   7   9
HETATM    9  C7  UNL     1      -4.704  49.253 -25.089  1.00  0.00     0.032 C 
BRANCH   9  10
HETATM   10  C6  UNL     1      -3.281  48.627 -25.185  1.00  0.00     0.010 C 
BRANCH  10  11
HETATM   11  C5  UNL     1      -2.612  48.682 -26.565  1.00  0.00     0.001 C 
BRANCH  11  12
HETATM   12  C4  UNL     1      -2.106  50.081 -26.941  1.00  0.00     0.000 C 
BRANCH  12  13
HETATM   13  C3  UNL     1      -0.857  50.506 -26.163  1.00  0.00    -0.000 C 
BRANCH  13  14
HETATM   14  C2  UNL     1       0.182  51.218 -27.033  1.00  0.00    -0.005 C 
HETATM   15  C1  UNL     1       1.566  51.271 -26.405  1.00  0.00     0.005 C 
ENDBRANCH  13  14
ENDBRANCH  12  13
ENDBRANCH  11  12
ENDBRANCH  10  11
ENDBRANCH   9  10
BRANCH   9  16
HETATM   16  C30 UNL     1      -4.641  50.707 -24.591  1.00  0.00     0.172 C 
BRANCH  16  17
HETATM   17  O7  UNL     1      -5.869  51.182 -24.058  1.00  0.00    -0.400 OA
HETATM   18  H48 UNL     1      -6.587  50.652 -24.441  1.00  0.00     0.209 HD
ENDBRANCH  16  17
ENDBRANCH   9  16
ENDBRANCH   7   9
ENDBRANCH   5   6
BRANCH   5  19
HETATM   19  O1  UNL     1      -5.688  49.399 -21.467  1.00  0.00    -0.390 OA
HETATM   20  H20 UNL     1      -5.670  49.999 -22.233  1.00  0.00     0.210 HD
ENDBRANCH   5  19
ENDBRANCH   3   5
ENDBRANCH   1   3
BRANCH   1  21
HETATM   21  O3  UNL     1      -3.956  48.663 -19.501  1.00  0.00    -0.312 OA
BRANCH  21  22
HETATM   22  C15 UNL     1      -2.615  48.145 -19.588  1.00  0.00     0.170 C 
HETATM   23  C16 UNL     1      -2.211  47.636 -18.204  1.00  0.00     0.036 C 
HETATM   24  C17 UNL     1      -2.024  48.771 -17.200  1.00  0.00     0.007 C 
HETATM   25  C18 UNL     1      -0.980  49.792 -17.695  1.00  0.00    -0.007 C 
HETATM   26  C19 UNL     1      -0.747  50.841 -16.601  1.00  0.00     0.011 C 
HETATM   27  C20 UNL     1      -1.352  50.388 -19.101  1.00  0.00     0.000 C 
HETATM   28  C21 UNL     1      -2.557  51.354 -19.009  1.00  0.00     0.019 C 
HETATM   29  C22 UNL     1      -0.124  51.193 -19.659  1.00  0.00     0.055 C 
HETATM   30  C29 UNL     1      -1.679  49.233 -20.052  1.00  0.00     0.129 A 
HETATM   31  C23 UNL     1      -0.173  51.601 -21.123  1.00  0.00    -0.005 C 
HETATM   32  C24 UNL     1       0.597  52.579 -21.666  1.00  0.00    -0.051 C 
HETATM   33  C27 UNL     1      -1.153  50.842 -21.978  1.00  0.00     0.187 C 
HETATM   34  C25 UNL     1       0.590  52.932 -23.138  1.00  0.00     0.046 C 
HETATM   35  O5  UNL     1      -1.726  51.335 -22.942  1.00  0.00    -0.290 OA
HETATM   36  C28 UNL     1      -1.523  49.480 -21.532  1.00  0.00     0.235 A 
HETATM   37  O6  UNL     1      -0.541  48.738 -20.784  1.00  0.00    -0.357 OA
BRANCH  32  38
HETATM   38  C26 UNL     1       1.574  53.413 -20.874  1.00  0.00     0.198 C 
BRANCH  38  39
HETATM   39  O4  UNL     1       1.652  54.699 -21.470  1.00  0.00    -0.397 OA
HETATM   40  H44 UNL     1       2.243  55.232 -20.912  1.00  0.00     0.209 HD
ENDBRANCH  38  39
ENDBRANCH  32  38
ENDBRANCH  21  22
ENDBRANCH   1  21
TORSDOF 16
ENDMDL
MODEL 7
REMARK minimizedAffinity -7.76995564
REMARK CNNscore 0.279738545
REMARK CNNaffinity 6.79327583
REMARK  16 active torsions:
REMARK  status: ('A' for Active; 'I' for Inactive)
REMARK    1  A    between atoms: C2_2  and  C3_3 
REMARK    2  A    between atoms: C3_3  and  C4_4 
REMARK    3  A    between atoms: C4_4  and  C5_5 
REMARK    4  A    between atoms: C5_5  and  C6_6 
REMARK    5  A    between atoms: C6_6  and  C7_7 
REMARK    6  A    between atoms: C7_7  and  C8_8 
REMARK    7  A    between atoms: C7_7  and  C30_36 
REMARK    8  A    between atoms: C9_9  and  C11_11 
REMARK    9  A    between atoms: C11_11  and  O1_12 
REMARK   10  A    between atoms: C11_11  and  C12_13 
REMARK   11  A    between atoms: C12_13  and  C14_15 
REMARK   12  A    between atoms: C14_15  and  O3_17 
REMARK   13  A    between atoms: O3_17  and  C15_18 
REMARK   14  A    between atoms: C24_27  and  C26_29 
REMARK   15  A    between atoms: C26_29  and  O4_30 
REMARK   16  A    between atoms: C30_36  and  O7_37 
ROOT
HETATM    1  C14 UNL     1      -4.821  48.679 -22.388  1.00  0.00     0.266 C 
HETATM    2  O2  UNL     1      -5.540  47.756 -22.749  1.00  0.00    -0.265 OA
ENDROOT
BRANCH   1   3
HETATM    3  C12 UNL     1      -4.400  49.809 -23.308  1.00  0.00     0.114 C 
HETATM    4  C13 UNL     1      -4.363  51.100 -22.492  1.00  0.00     0.023 C 
BRANCH   3   5
HETATM    5  C11 UNL     1      -5.298  49.888 -24.560  1.00  0.00     0.159 C 
BRANCH   5   6
HETATM    6  C9  UNL     1      -5.066  48.798 -25.599  1.00  0.00    -0.058 C 
HETATM    7  C8  UNL     1      -4.075  48.708 -26.515  1.00  0.00    -0.015 C 
HETATM    8  C10 UNL     1      -6.152  47.733 -25.631  1.00  0.00     0.046 C 
BRANCH   7   9
HETATM    9  C7  UNL     1      -2.850  49.536 -26.893  1.00  0.00     0.032 C 
BRANCH   9  10
HETATM   10  C6  UNL     1      -2.095  49.995 -25.611  1.00  0.00     0.010 C 
BRANCH  10  11
HETATM   11  C5  UNL     1      -0.612  50.348 -25.791  1.00  0.00     0.001 C 
BRANCH  11  12
HETATM   12  C4  UNL     1      -0.183  51.593 -25.005  1.00  0.00     0.000 C 
BRANCH  12  13
HETATM   13  C3  UNL     1       1.108  52.229 -25.529  1.00  0.00    -0.000 C 
BRANCH  13  14
HETATM   14  C2  UNL     1       2.037  51.226 -26.219  1.00  0.00    -0.005 C 
HETATM   15  C1  UNL     1       2.742  51.793 -27.443  1.00  0.00     0.005 C 
ENDBRANCH  13  14
ENDBRANCH  12  13
ENDBRANCH  11  12
ENDBRANCH  10  11
ENDBRANCH   9  10
BRANCH   9  16
HETATM   16  C30 UNL     1      -2.985  50.689 -27.903  1.00  0.00     0.172 C 
BRANCH  16  17
HETATM   17  O7  UNL     1      -3.712  50.341 -29.072  1.00  0.00    -0.400 OA
HETATM   18  H48 UNL     1      -3.659  49.377 -29.183  1.00  0.00     0.209 HD
ENDBRANCH  16  17
ENDBRANCH   9  16
ENDBRANCH   7   9
ENDBRANCH   5   6
BRANCH   5  19
HETATM   19  O1  UNL     1      -6.663  49.764 -24.146  1.00  0.00    -0.390 OA
HETATM   20  H20 UNL     1      -7.202  49.726 -24.956  1.00  0.00     0.210 HD
ENDBRANCH   5  19
ENDBRANCH   3   5
ENDBRANCH   1   3
BRANCH   1  21
HETATM   21  O3  UNL     1      -4.235  48.769 -21.164  1.00  0.00    -0.312 OA
BRANCH  21  22
HETATM   22  C15 UNL     1      -2.957  48.122 -21.011  1.00  0.00     0.170 C 
HETATM   23  C16 UNL     1      -3.147  46.903 -20.110  1.00  0.00     0.036 C 
HETATM   24  C17 UNL     1      -3.455  47.289 -18.665  1.00  0.00     0.007 C 
HETATM   25  C18 UNL     1      -2.354  48.194 -18.079  1.00  0.00    -0.007 C 
HETATM   26  C19 UNL     1      -2.655  48.454 -16.598  1.00  0.00     0.011 C 
HETATM   27  C20 UNL     1      -2.131  49.493 -18.936  1.00  0.00     0.000 C 
HETATM   28  C21 UNL     1      -3.310  50.482 -18.787  1.00  0.00     0.019 C 
HETATM   29  C22 UNL     1      -0.825  50.214 -18.446  1.00  0.00     0.055 C 
HETATM   30  C29 UNL     1      -1.970  49.087 -20.405  1.00  0.00     0.129 A 
HETATM   31  C23 UNL     1      -0.275  51.323 -19.330  1.00  0.00    -0.005 C 
HETATM   32  C24 UNL     1       0.601  52.270 -18.905  1.00  0.00    -0.051 C 
HETATM   33  C27 UNL     1      -0.766  51.326 -20.753  1.00  0.00     0.187 C 
HETATM   34  C25 UNL     1       1.194  53.329 -19.809  1.00  0.00     0.046 C 
HETATM   35  O5  UNL     1      -0.907  52.347 -21.414  1.00  0.00    -0.290 OA
HETATM   36  C28 UNL     1      -1.220  50.032 -21.312  1.00  0.00     0.235 A 
HETATM   37  O6  UNL     1      -0.607  48.835 -20.795  1.00  0.00    -0.357 OA
BRANCH  32  38
HETATM   38  C26 UNL     1       1.111  52.364 -17.488  1.00  0.00     0.198 C 
BRANCH  38  39
HETATM   39  O4  UNL     1       2.213  53.258 -17.467  1.00  0.00    -0.397 OA
HETATM   40  H44 UNL     1       2.489  53.344 -16.539  1.00  0.00     0.209 HD
ENDBRANCH  38  39
ENDBRANCH  32  38
ENDBRANCH  21  22
ENDBRANCH   1  21
TORSDOF 16
ENDMDL
MODEL 8
REMARK minimizedAffinity -7.11038923
REMARK CNNscore 0.27363345
REMARK CNNaffinity 6.01261854
REMARK  16 active torsions:
REMARK  status: ('A' for Active; 'I' for Inactive)
REMARK    1  A    between atoms: C2_2  and  C3_3 
REMARK    2  A    between atoms: C3_3  and  C4_4 
REMARK    3  A    between atoms: C4_4  and  C5_5 
REMARK    4  A    between atoms: C5_5  and  C6_6 
REMARK    5  A    between atoms: C6_6  and  C7_7 
REMARK    6  A    between atoms: C7_7  and  C8_8 
REMARK    7  A    between atoms: C7_7  and  C30_36 
REMARK    8  A    between atoms: C9_9  and  C11_11 
REMARK    9  A    between atoms: C11_11  and  O1_12 
REMARK   10  A    between atoms: C11_11  and  C12_13 
REMARK   11  A    between atoms: C12_13  and  C14_15 
REMARK   12  A    between atoms: C14_15  and  O3_17 
REMARK   13  A    between atoms: O3_17  and  C15_18 
REMARK   14  A    between atoms: C24_27  and  C26_29 
REMARK   15  A    between atoms: C26_29  and  O4_30 
REMARK   16  A    between atoms: C30_36  and  O7_37 
ROOT
HETATM    1  C14 UNL     1      -5.005  49.629 -23.534  1.00  0.00     0.266 C 
HETATM    2  O2  UNL     1      -4.982  50.820 -23.820  1.00  0.00    -0.265 OA
ENDROOT
BRANCH   1   3
HETATM    3  C12 UNL     1      -5.242  48.536 -24.559  1.00  0.00     0.114 C 
HETATM    4  C13 UNL     1      -4.028  48.477 -25.483  1.00  0.00     0.023 C 
BRANCH   3   5
HETATM    5  C11 UNL     1      -6.580  48.733 -25.301  1.00  0.00     0.159 C 
BRANCH   5   6
HETATM    6  C9  UNL     1      -7.261  47.453 -25.770  1.00  0.00    -0.058 C 
HETATM    7  C8  UNL     1      -7.550  47.070 -27.034  1.00  0.00    -0.015 C 
HETATM    8  C10 UNL     1      -7.731  46.553 -24.636  1.00  0.00     0.046 C 
BRANCH   7   9
HETATM    9  C7  UNL     1      -7.343  47.647 -28.431  1.00  0.00     0.032 C 
BRANCH   9  10
HETATM   10  C6  UNL     1      -8.396  47.062 -29.417  1.00  0.00     0.010 C 
BRANCH  10  11
HETATM   11  C5  UNL     1      -9.847  47.511 -29.200  1.00  0.00     0.001 C 
BRANCH  11  12
HETATM   12  C4  UNL     1     -10.672  47.552 -30.493  1.00  0.00     0.000 C 
BRANCH  12  13
HETATM   13  C3  UNL     1      -9.884  47.112 -31.731  1.00  0.00    -0.000 C 
BRANCH  13  14
HETATM   14  C2  UNL     1     -10.351  45.767 -32.294  1.00  0.00    -0.005 C 
HETATM   15  C1  UNL     1     -11.146  45.892 -33.586  1.00  0.00     0.005 C 
ENDBRANCH  13  14
ENDBRANCH  12  13
ENDBRANCH  11  12
ENDBRANCH  10  11
ENDBRANCH   9  10
BRANCH   9  16
HETATM   16  C30 UNL     1      -5.937  47.656 -29.057  1.00  0.00     0.172 C 
BRANCH  16  17
HETATM   17  O7  UNL     1      -5.191  48.830 -28.769  1.00  0.00    -0.400 OA
HETATM   18  H48 UNL     1      -5.820  49.541 -28.561  1.00  0.00     0.209 HD
ENDBRANCH  16  17
ENDBRANCH   9  16
ENDBRANCH   7   9
ENDBRANCH   5   6
BRANCH   5  19
HETATM   19  O1  UNL     1      -7.501  49.375 -24.412  1.00  0.00    -0.390 OA
HETATM   20  H20 UNL     1      -8.360  49.407 -24.869  1.00  0.00     0.210 HD
ENDBRANCH   5  19
ENDBRANCH   3   5
ENDBRANCH   1   3
BRANCH   1  21
HETATM   21  O3  UNL     1      -4.916  49.136 -22.270  1.00  0.00    -0.312 OA
BRANCH  21  22
HETATM   22  C15 UNL     1      -3.706  48.430 -21.937  1.00  0.00     0.170 C 
HETATM   23  C16 UNL     1      -4.003  47.513 -20.751  1.00  0.00     0.036 C 
HETATM   24  C17 UNL     1      -4.254  48.292 -19.462  1.00  0.00     0.007 C 
HETATM   25  C18 UNL     1      -3.061  49.205 -19.117  1.00  0.00    -0.007 C 
HETATM   26  C19 UNL     1      -3.316  49.872 -17.760  1.00  0.00     0.011 C 
HETATM   27  C20 UNL     1      -2.722  50.206 -20.281  1.00  0.00     0.000 C 
HETATM   28  C21 UNL     1      -3.797  51.311 -20.412  1.00  0.00     0.019 C 
HETATM   29  C22 UNL     1      -1.346  50.899 -19.979  1.00  0.00     0.055 C 
HETATM   30  C29 UNL     1      -2.621  49.418 -21.590  1.00  0.00     0.129 A 
HETATM   31  C23 UNL     1      -0.701  51.679 -21.115  1.00  0.00    -0.005 C 
HETATM   32  C24 UNL     1       0.270  52.613 -20.940  1.00  0.00    -0.051 C 
HETATM   33  C27 UNL     1      -1.208  51.358 -22.496  1.00  0.00     0.187 C 
HETATM   34  C25 UNL     1       0.953  53.335 -22.081  1.00  0.00     0.046 C 
HETATM   35  O5  UNL     1      -1.255  52.179 -23.402  1.00  0.00    -0.290 OA
HETATM   36  C28 UNL     1      -1.793  50.014 -22.703  1.00  0.00     0.235 A 
HETATM   37  O6  UNL     1      -1.294  48.939 -21.883  1.00  0.00    -0.357 OA
BRANCH  32  38
HETATM   38  C26 UNL     1       0.805  53.023 -19.590  1.00  0.00     0.198 C 
BRANCH  38  39
HETATM   39  O4  UNL     1       1.590  54.194 -19.756  1.00  0.00    -0.397 OA
HETATM   40  H44 UNL     1       1.877  54.468 -18.869  1.00  0.00     0.209 HD
ENDBRANCH  38  39
ENDBRANCH  32  38
ENDBRANCH  21  22
ENDBRANCH   1  21
TORSDOF 16
ENDMDL
MODEL 9
REMARK minimizedAffinity -8.56177616
REMARK CNNscore 0.271640241
REMARK CNNaffinity 6.52894068
REMARK  16 active torsions:
REMARK  status: ('A' for Active; 'I' for Inactive)
REMARK    1  A    between atoms: C2_2  and  C3_3 
REMARK    2  A    between atoms: C3_3  and  C4_4 
REMARK    3  A    between atoms: C4_4  and  C5_5 
REMARK    4  A    between atoms: C5_5  and  C6_6 
REMARK    5  A    between atoms: C6_6  and  C7_7 
REMARK    6  A    between atoms: C7_7  and  C8_8 
REMARK    7  A    between atoms: C7_7  and  C30_36 
REMARK    8  A    between atoms: C9_9  and  C11_11 
REMARK    9  A    between atoms: C11_11  and  O1_12 
REMARK   10  A    between atoms: C11_11  and  C12_13 
REMARK   11  A    between atoms: C12_13  and  C14_15 
REMARK   12  A    between atoms: C14_15  and  O3_17 
REMARK   13  A    between atoms: O3_17  and  C15_18 
REMARK   14  A    between atoms: C24_27  and  C26_29 
REMARK   15  A    between atoms: C26_29  and  O4_30 
REMARK   16  A    between atoms: C30_36  and  O7_37 
ROOT
HETATM    1  C14 UNL     1      -3.383  48.892 -22.306  1.00  0.00     0.266 C 
HETATM    2  O2  UNL     1      -2.610  48.432 -23.136  1.00  0.00    -0.265 OA
ENDROOT
BRANCH   1   3
HETATM    3  C12 UNL     1      -4.826  49.238 -22.620  1.00  0.00     0.114 C 
HETATM    4  C13 UNL     1      -5.685  48.009 -22.329  1.00  0.00     0.023 C 
BRANCH   3   5
HETATM    5  C11 UNL     1      -4.981  49.780 -24.057  1.00  0.00     0.159 C 
BRANCH   5   6
HETATM    6  C9  UNL     1      -5.057  48.721 -25.149  1.00  0.00    -0.058 C 
HETATM    7  C8  UNL     1      -4.252  48.564 -26.225  1.00  0.00    -0.015 C 
HETATM    8  C10 UNL     1      -6.251  47.786 -25.021  1.00  0.00     0.046 C 
BRANCH   7   9
HETATM    9  C7  UNL     1      -3.020  49.268 -26.786  1.00  0.00     0.032 C 
BRANCH   9  10
HETATM   10  C6  UNL     1      -2.065  49.685 -25.629  1.00  0.00     0.010 C 
BRANCH  10  11
HETATM   11  C5  UNL     1      -1.219  50.942 -25.873  1.00  0.00     0.001 C 
BRANCH  11  12
HETATM   12  C4  UNL     1       0.028  50.680 -26.727  1.00  0.00     0.000 C 
BRANCH  12  13
HETATM   13  C3  UNL     1       0.794  51.955 -27.093  1.00  0.00    -0.000 C 
BRANCH  13  14
HETATM   14  C2  UNL     1       0.175  52.711 -28.272  1.00  0.00    -0.005 C 
HETATM   15  C1  UNL     1      -0.270  54.123 -27.921  1.00  0.00     0.005 C 
ENDBRANCH  13  14
ENDBRANCH  12  13
ENDBRANCH  11  12
ENDBRANCH  10  11
ENDBRANCH   9  10
BRANCH   9  16
HETATM   16  C30 UNL     1      -3.186  50.405 -27.809  1.00  0.00     0.172 C 
BRANCH  16  17
HETATM   17  O7  UNL     1      -3.835  50.005 -29.007  1.00  0.00    -0.400 OA
HETATM   18  H48 UNL     1      -3.714  49.046 -29.108  1.00  0.00     0.209 HD
ENDBRANCH  16  17
ENDBRANCH   9  16
ENDBRANCH   7   9
ENDBRANCH   5   6
BRANCH   5  19
HETATM   19  O1  UNL     1      -6.203  50.522 -24.131  1.00  0.00    -0.390 OA
HETATM   20  H20 UNL     1      -6.323  50.777 -25.063  1.00  0.00     0.210 HD
ENDBRANCH   5  19
ENDBRANCH   3   5
ENDBRANCH   1   3
BRANCH   1  21
HETATM   21  O3  UNL     1      -3.037  49.239 -21.038  1.00  0.00    -0.312 OA
BRANCH  21  22
HETATM   22  C15 UNL     1      -3.252  50.613 -20.663  1.00  0.00     0.170 C 
HETATM   23  C16 UNL     1      -3.025  51.483 -21.899  1.00  0.00     0.036 C 
HETATM   24  C17 UNL     1      -1.558  51.519 -22.324  1.00  0.00     0.007 C 
HETATM   25  C18 UNL     1      -0.654  52.012 -21.177  1.00  0.00    -0.007 C 
HETATM   26  C19 UNL     1       0.784  52.140 -21.692  1.00  0.00     0.011 C 
HETATM   27  C20 UNL     1      -0.806  51.136 -19.880  1.00  0.00     0.000 C 
HETATM   28  C21 UNL     1      -0.168  49.739 -20.060  1.00  0.00     0.019 C 
HETATM   29  C22 UNL     1      -0.080  51.854 -18.687  1.00  0.00     0.055 C 
HETATM   30  C29 UNL     1      -2.297  50.993 -19.559  1.00  0.00     0.129 A 
HETATM   31  C23 UNL     1      -0.356  51.321 -17.289  1.00  0.00    -0.005 C 
HETATM   32  C24 UNL     1       0.433  51.567 -16.212  1.00  0.00    -0.051 C 
HETATM   33  C27 UNL     1      -1.593  50.473 -17.148  1.00  0.00     0.187 C 
HETATM   34  C25 UNL     1       0.114  51.089 -14.812  1.00  0.00     0.046 C 
HETATM   35  O5  UNL     1      -1.690  49.555 -16.344  1.00  0.00    -0.290 OA
HETATM   36  C28 UNL     1      -2.678  50.696 -18.129  1.00  0.00     0.235 A 
HETATM   37  O6  UNL     1      -2.808  52.018 -18.686  1.00  0.00    -0.357 OA
BRANCH  32  38
HETATM   38  C26 UNL     1       1.708  52.372 -16.275  1.00  0.00     0.198 C 
BRANCH  38  39
HETATM   39  O4  UNL     1       2.403  52.207 -15.048  1.00  0.00    -0.397 OA
HETATM   40  H44 UNL     1       3.243  52.687 -15.133  1.00  0.00     0.209 HD
ENDBRANCH  38  39
ENDBRANCH  32  38
ENDBRANCH  21  22
ENDBRANCH   1  21
TORSDOF 16
ENDMDL
