MODEL 1
REMARK minimizedAffinity -8.46535873
REMARK CNNscore 0.753411293
REMARK CNNaffinity 6.27491617
REMARK  4 active torsions:
REMARK  status: ('A' for Active; 'I' for Inactive)
REMARK    1  A    between atoms: C4_4  and  O1_5 
REMARK    2  A    between atoms: C5_6  and  O2_7 
REMARK    3  A    between atoms: C8_11  and  C9_12 
REMARK    4  A    between atoms: C19_23  and  C20_24 
ROOT
HETATM    1  C1  UNL     1      -3.304  49.968  -9.144  1.00  0.00     0.040 C 
HETATM    2  C2  UNL     1      -4.305  50.570 -10.126  1.00  0.00     0.123 C 
HETATM    3  C3  UNL     1      -4.241  49.940 -11.517  1.00  0.00     0.069 C 
HETATM    4  C4  UNL     1      -2.986  50.325 -12.295  1.00  0.00     0.188 C 
HETATM    5  C5  UNL     1      -2.541  51.791 -12.045  1.00  0.00     0.240 C 
HETATM    6  O3  UNL     1      -1.335  51.769 -11.243  1.00  0.00    -0.341 OA
HETATM    7  C6  UNL     1      -0.917  53.099 -10.898  1.00  0.00     0.156 C 
HETATM    8  C7  UNL     1       0.296  53.000  -9.977  1.00  0.00     0.056 C 
HETATM    9  C8  UNL     1       0.855  54.377  -9.510  1.00  0.00     0.043 C 
HETATM   10  C10 UNL     1      -0.270  55.350  -9.158  1.00  0.00    -0.065 C 
HETATM   11  C11 UNL     1      -0.078  56.331  -8.260  1.00  0.00    -0.022 C 
HETATM   12  C12 UNL     1       1.257  56.610  -7.651  1.00  0.00     0.035 C 
HETATM   13  C13 UNL     1       2.121  55.371  -7.381  1.00  0.00     0.030 C 
HETATM   14  C14 UNL     1       1.823  54.126  -8.286  1.00  0.00     0.012 C 
HETATM   15  C15 UNL     1       3.015  53.200  -8.669  1.00  0.00     0.007 C 
HETATM   16  C16 UNL     1       4.266  53.343  -7.813  1.00  0.00     0.016 C 
HETATM   17  C17 UNL     1       4.730  54.804  -7.846  1.00  0.00     0.023 C 
HETATM   18  C18 UNL     1       5.358  55.169  -9.192  1.00  0.00     0.022 C 
HETATM   19  C19 UNL     1       5.425  55.402  -6.554  1.00  0.00     0.098 C 
HETATM   20  C24 UNL     1       5.513  56.925  -6.690  1.00  0.00     0.047 C 
HETATM   21  C25 UNL     1       4.094  57.172  -7.220  1.00  0.00     0.042 C 
HETATM   22  C26 UNL     1       3.601  55.718  -7.232  1.00  0.00     0.077 C 
HETATM   23  O7  UNL     1       4.104  55.195  -5.890  1.00  0.00    -0.362 OA
HETATM   24  C27 UNL     1      -1.572  55.292  -9.927  1.00  0.00     0.069 C 
HETATM   25  C28 UNL     1      -2.046  53.871 -10.205  1.00  0.00     0.158 C 
HETATM   26  O8  UNL     1      -3.206  53.919 -11.056  1.00  0.00    -0.347 OA
HETATM   27  C29 UNL     1      -3.678  52.582 -11.326  1.00  0.00     0.325 C 
HETATM   28  O9  UNL     1      -4.150  51.990 -10.119  1.00  0.00    -0.351 OA
ENDROOT
BRANCH  19  29
HETATM   29  C20 UNL     1       6.557  54.713  -5.951  1.00  0.00    -0.015 A 
HETATM   30  C21 UNL     1       6.626  53.409  -5.706  1.00  0.00     0.090 A 
HETATM   31  C22 UNL     1       7.935  53.180  -5.098  1.00  0.00     0.283 A 
HETATM   32  O5  UNL     1       8.343  52.095  -4.728  1.00  0.00    -0.260 OA
HETATM   33  O6  UNL     1       8.609  54.359  -5.017  1.00  0.00    -0.314 OA
HETATM   34  C23 UNL     1       7.793  55.407  -5.546  1.00  0.00     0.216 A 
ENDBRANCH  19  29
BRANCH   9  35
HETATM   35  C9  UNL     1       1.649  55.010 -10.668  1.00  0.00     0.245 C 
HETATM   36  O4  UNL     1       2.428  55.953 -10.552  1.00  0.00    -0.306 OA
ENDBRANCH   9  35
BRANCH   5  37
HETATM   37  O2  UNL     1      -2.218  52.378 -13.311  1.00  0.00    -0.360 OA
HETATM   38  H9  UNL     1      -2.442  53.323 -13.249  1.00  0.00     0.213 HD
ENDBRANCH   5  37
BRANCH   4  39
HETATM   39  O1  UNL     1      -1.938  49.387 -11.995  1.00  0.00    -0.390 OA
HETATM   40  H8  UNL     1      -1.187  49.924 -11.670  1.00  0.00     0.210 HD
ENDBRANCH   4  39
TORSDOF 4
ENDMDL
MODEL 2
REMARK minimizedAffinity -11.393816
REMARK CNNscore 0.646079063
REMARK CNNaffinity 7.47524643
REMARK  4 active torsions:
REMARK  status: ('A' for Active; 'I' for Inactive)
REMARK    1  A    between atoms: C4_4  and  O1_5 
REMARK    2  A    between atoms: C5_6  and  O2_7 
REMARK    3  A    between atoms: C8_11  and  C9_12 
REMARK    4  A    between atoms: C19_23  and  C20_24 
ROOT
HETATM    1  C1  UNL     1       1.925  51.809 -26.621  1.00  0.00     0.040 C 
HETATM    2  C2  UNL     1       0.904  51.615 -27.739  1.00  0.00     0.123 C 
HETATM    3  C3  UNL     1       0.320  52.927 -28.260  1.00  0.00     0.069 C 
HETATM    4  C4  UNL     1      -0.633  53.596 -27.273  1.00  0.00     0.188 C 
HETATM    5  C5  UNL     1      -1.497  52.580 -26.480  1.00  0.00     0.240 C 
HETATM    6  O3  UNL     1      -1.024  52.553 -25.111  1.00  0.00    -0.341 OA
HETATM    7  C6  UNL     1      -1.725  51.564 -24.340  1.00  0.00     0.156 C 
HETATM    8  C7  UNL     1      -1.113  51.521 -22.941  1.00  0.00     0.056 C 
HETATM    9  C8  UNL     1      -1.771  50.478 -21.990  1.00  0.00     0.043 C 
HETATM   10  C10 UNL     1      -2.066  49.165 -22.715  1.00  0.00    -0.065 C 
HETATM   11  C11 UNL     1      -2.105  48.000 -22.045  1.00  0.00    -0.022 C 
HETATM   12  C12 UNL     1      -1.990  47.928 -20.557  1.00  0.00     0.035 C 
HETATM   13  C13 UNL     1      -1.036  48.952 -19.928  1.00  0.00     0.030 C 
HETATM   14  C14 UNL     1      -0.812  50.266 -20.752  1.00  0.00     0.012 C 
HETATM   15  C15 UNL     1      -0.578  51.590 -19.966  1.00  0.00     0.007 C 
HETATM   16  C16 UNL     1      -0.184  51.431 -18.504  1.00  0.00     0.016 C 
HETATM   17  C17 UNL     1      -1.251  50.598 -17.785  1.00  0.00     0.023 C 
HETATM   18  C18 UNL     1      -2.539  51.395 -17.565  1.00  0.00     0.022 C 
HETATM   19  C19 UNL     1      -0.794  49.649 -16.603  1.00  0.00     0.098 C 
HETATM   20  C24 UNL     1      -1.940  48.696 -16.251  1.00  0.00     0.047 C 
HETATM   21  C25 UNL     1      -2.349  48.320 -17.682  1.00  0.00     0.042 C 
HETATM   22  C26 UNL     1      -1.315  49.165 -18.441  1.00  0.00     0.077 C 
HETATM   23  O7  UNL     1      -0.038  48.900 -17.650  1.00  0.00    -0.362 OA
HETATM   24  C27 UNL     1      -2.451  49.192 -24.178  1.00  0.00     0.069 C 
HETATM   25  C28 UNL     1      -1.635  50.183 -24.998  1.00  0.00     0.158 C 
HETATM   26  O8  UNL     1      -2.167  50.239 -26.335  1.00  0.00    -0.347 OA
HETATM   27  C29 UNL     1      -1.401  51.167 -27.134  1.00  0.00     0.325 C 
HETATM   28  O9  UNL     1      -0.076  50.672 -27.301  1.00  0.00    -0.351 OA
ENDROOT
BRANCH  19  29
HETATM   29  C20 UNL     1      -0.002  50.183 -15.503  1.00  0.00    -0.015 A 
HETATM   30  C21 UNL     1       1.145  50.842 -15.628  1.00  0.00     0.090 A 
HETATM   31  C22 UNL     1       1.569  51.175 -14.270  1.00  0.00     0.283 A 
HETATM   32  O5  UNL     1       2.592  51.773 -13.994  1.00  0.00    -0.260 OA
HETATM   33  O6  UNL     1       0.646  50.716 -13.381  1.00  0.00    -0.314 OA
HETATM   34  C23 UNL     1      -0.406  50.059 -14.091  1.00  0.00     0.216 A 
ENDBRANCH  19  29
BRANCH   9  35
HETATM   35  C9  UNL     1      -3.122  51.033 -21.501  1.00  0.00     0.245 C 
HETATM   36  O4  UNL     1      -3.865  51.754 -22.163  1.00  0.00    -0.306 OA
ENDBRANCH   9  35
BRANCH   5  37
HETATM   37  O2  UNL     1      -2.848  53.059 -26.470  1.00  0.00    -0.360 OA
HETATM   38  H9  UNL     1      -3.425  52.275 -26.462  1.00  0.00     0.213 HD
ENDBRANCH   5  37
BRANCH   4  39
HETATM   39  O1  UNL     1       0.118  54.459 -26.402  1.00  0.00    -0.390 OA
HETATM   40  H8  UNL     1      -0.090  54.162 -25.492  1.00  0.00     0.210 HD
ENDBRANCH   4  39
TORSDOF 4
ENDMDL
MODEL 3
REMARK minimizedAffinity -10.2373219
REMARK CNNscore 0.628575742
REMARK CNNaffinity 6.81297302
REMARK  4 active torsions:
REMARK  status: ('A' for Active; 'I' for Inactive)
REMARK    1  A    between atoms: C4_4  and  O1_5 
REMARK    2  A    between atoms: C5_6  and  O2_7 
REMARK    3  A    between atoms: C8_11  and  C9_12 
REMARK    4  A    between atoms: C19_23  and  C20_24 
ROOT
HETATM    1  C1  UNL     1      -7.026  47.558 -27.541  1.00  0.00     0.040 C 
HETATM    2  C2  UNL     1      -8.157  46.598 -27.185  1.00  0.00     0.123 C 
HETATM    3  C3  UNL     1      -9.532  47.262 -27.166  1.00  0.00     0.069 C 
HETATM    4  C4  UNL     1      -9.730  48.203 -25.981  1.00  0.00     0.188 C 
HETATM    5  C5  UNL     1      -9.056  47.691 -24.680  1.00  0.00     0.240 C 
HETATM    6  O3  UNL     1      -7.904  48.526 -24.407  1.00  0.00    -0.341 OA
HETATM    7  C6  UNL     1      -7.179  48.051 -23.262  1.00  0.00     0.156 C 
HETATM    8  C7  UNL     1      -5.930  48.912 -23.090  1.00  0.00     0.056 C 
HETATM    9  C8  UNL     1      -5.035  48.502 -21.883  1.00  0.00     0.043 C 
HETATM   10  C10 UNL     1      -4.915  46.983 -21.763  1.00  0.00    -0.065 C 
HETATM   11  C11 UNL     1      -3.831  46.419 -21.202  1.00  0.00    -0.022 C 
HETATM   12  C12 UNL     1      -2.752  47.225 -20.558  1.00  0.00     0.035 C 
HETATM   13  C13 UNL     1      -2.447  48.566 -21.237  1.00  0.00     0.030 C 
HETATM   14  C14 UNL     1      -3.625  49.194 -22.057  1.00  0.00     0.012 C 
HETATM   15  C15 UNL     1      -3.741  50.747 -22.096  1.00  0.00     0.007 C 
HETATM   16  C16 UNL     1      -2.492  51.515 -21.687  1.00  0.00     0.016 C 
HETATM   17  C17 UNL     1      -2.071  51.074 -20.281  1.00  0.00     0.023 C 
HETATM   18  C18 UNL     1      -3.012  51.627 -19.208  1.00  0.00     0.022 C 
HETATM   19  C19 UNL     1      -0.527  51.057 -19.929  1.00  0.00     0.098 C 
HETATM   20  C24 UNL     1      -0.319  50.298 -18.615  1.00  0.00     0.047 C 
HETATM   21  C25 UNL     1      -1.253  49.115 -18.905  1.00  0.00     0.042 C 
HETATM   22  C26 UNL     1      -1.724  49.536 -20.304  1.00  0.00     0.077 C 
HETATM   23  O7  UNL     1      -0.422  49.984 -20.962  1.00  0.00    -0.362 OA
HETATM   24  C27 UNL     1      -6.086  46.110 -22.158  1.00  0.00     0.069 C 
HETATM   25  C28 UNL     1      -6.787  46.579 -23.426  1.00  0.00     0.158 C 
HETATM   26  O8  UNL     1      -7.963  45.775 -23.639  1.00  0.00    -0.347 OA
HETATM   27  C29 UNL     1      -8.639  46.197 -24.843  1.00  0.00     0.325 C 
HETATM   28  O9  UNL     1      -7.816  45.923 -25.973  1.00  0.00    -0.351 OA
ENDROOT
BRANCH  19  29
HETATM   29  C20 UNL     1       0.286  52.244 -20.156  1.00  0.00    -0.015 A 
HETATM   30  C21 UNL     1       0.554  52.780 -21.341  1.00  0.00     0.090 A 
HETATM   31  C22 UNL     1       1.400  53.942 -21.078  1.00  0.00     0.283 A 
HETATM   32  O5  UNL     1       1.853  54.675 -21.938  1.00  0.00    -0.260 OA
HETATM   33  O6  UNL     1       1.591  54.068 -19.737  1.00  0.00    -0.314 OA
HETATM   34  C23 UNL     1       0.906  53.011 -19.061  1.00  0.00     0.216 A 
ENDBRANCH  19  29
BRANCH   9  35
HETATM   35  C9  UNL     1      -5.693  49.003 -20.583  1.00  0.00     0.245 C 
HETATM   36  O4  UNL     1      -6.367  50.026 -20.487  1.00  0.00    -0.306 OA
ENDBRANCH   9  35
BRANCH   5  37
HETATM   37  O2  UNL     1      -9.986  47.859 -23.603  1.00  0.00    -0.360 OA
HETATM   38  H9  UNL     1      -9.822  47.136 -22.973  1.00  0.00     0.213 HD
ENDBRANCH   5  37
BRANCH   4  39
HETATM   39  O1  UNL     1      -9.274  49.519 -26.341  1.00  0.00    -0.390 OA
HETATM   40  H8  UNL     1      -8.608  49.762 -25.667  1.00  0.00     0.210 HD
ENDBRANCH   4  39
TORSDOF 4
ENDMDL
MODEL 4
REMARK minimizedAffinity -7.62392044
REMARK CNNscore 0.611063719
REMARK CNNaffinity 6.37481117
REMARK  4 active torsions:
REMARK  status: ('A' for Active; 'I' for Inactive)
REMARK    1  A    between atoms: C4_4  and  O1_5 
REMARK    2  A    between atoms: C5_6  and  O2_7 
REMARK    3  A    between atoms: C8_11  and  C9_12 
REMARK    4  A    between atoms: C19_23  and  C20_24 
ROOT
HETATM    1  C1  UNL     1      -4.516  47.384  -7.702  1.00  0.00     0.040 C 
HETATM    2  C2  UNL     1      -5.838  47.525  -8.452  1.00  0.00     0.123 C 
HETATM    3  C3  UNL     1      -6.061  46.433  -9.496  1.00  0.00     0.069 C 
HETATM    4  C4  UNL     1      -5.157  46.574 -10.717  1.00  0.00     0.188 C 
HETATM    5  C5  UNL     1      -4.913  48.051 -11.125  1.00  0.00     0.240 C 
HETATM    6  O3  UNL     1      -3.545  48.393 -10.795  1.00  0.00    -0.341 OA
HETATM    7  C6  UNL     1      -3.277  49.778 -11.065  1.00  0.00     0.156 C 
HETATM    8  C7  UNL     1      -1.855  50.093 -10.605  1.00  0.00     0.056 C 
HETATM    9  C8  UNL     1      -1.427  51.574 -10.828  1.00  0.00     0.043 C 
HETATM   10  C10 UNL     1      -2.556  52.543 -10.478  1.00  0.00    -0.065 C 
HETATM   11  C11 UNL     1      -2.288  53.796 -10.069  1.00  0.00    -0.022 C 
HETATM   12  C12 UNL     1      -0.902  54.353 -10.051  1.00  0.00     0.035 C 
HETATM   13  C13 UNL     1       0.198  53.351  -9.678  1.00  0.00     0.030 C 
HETATM   14  C14 UNL     1      -0.128  51.846  -9.971  1.00  0.00     0.012 C 
HETATM   15  C15 UNL     1       1.047  50.912 -10.386  1.00  0.00     0.007 C 
HETATM   16  C16 UNL     1       2.445  51.430 -10.078  1.00  0.00     0.016 C 
HETATM   17  C17 UNL     1       2.629  52.800 -10.741  1.00  0.00     0.023 C 
HETATM   18  C18 UNL     1       2.785  52.679 -12.258  1.00  0.00     0.022 C 
HETATM   19  C19 UNL     1       3.547  53.869 -10.017  1.00  0.00     0.098 C 
HETATM   20  C24 UNL     1       3.337  55.238 -10.672  1.00  0.00     0.047 C 
HETATM   21  C25 UNL     1       1.805  55.192 -10.768  1.00  0.00     0.042 C 
HETATM   22  C26 UNL     1       1.580  53.811 -10.137  1.00  0.00     0.077 C 
HETATM   23  O7  UNL     1       2.519  53.847  -8.935  1.00  0.00    -0.362 OA
HETATM   24  C27 UNL     1      -3.992  52.134 -10.721  1.00  0.00     0.069 C 
HETATM   25  C28 UNL     1      -4.279  50.687 -10.344  1.00  0.00     0.158 C 
HETATM   26  O8  UNL     1      -5.622  50.353 -10.742  1.00  0.00    -0.347 OA
HETATM   27  C29 UNL     1      -5.919  48.986 -10.386  1.00  0.00     0.325 C 
HETATM   28  O9  UNL     1      -5.928  48.855  -8.967  1.00  0.00    -0.351 OA
ENDROOT
BRANCH  19  29
HETATM   29  C20 UNL     1       4.902  53.515  -9.617  1.00  0.00    -0.015 A 
HETATM   30  C21 UNL     1       5.320  52.293  -9.306  1.00  0.00     0.090 A 
HETATM   31  C22 UNL     1       6.736  52.425  -8.968  1.00  0.00     0.283 A 
HETATM   32  O5  UNL     1       7.450  51.503  -8.620  1.00  0.00    -0.260 OA
HETATM   33  O6  UNL     1       7.117  53.723  -9.109  1.00  0.00    -0.314 OA
HETATM   34  C23 UNL     1       5.993  54.502  -9.526  1.00  0.00     0.216 A 
ENDBRANCH  19  29
BRANCH   9  35
HETATM   35  C9  UNL     1      -1.108  51.780 -12.321  1.00  0.00     0.245 C 
HETATM   36  O4  UNL     1      -0.534  52.762 -12.787  1.00  0.00    -0.306 OA
ENDBRANCH   9  35
BRANCH   5  37
HETATM   37  O2  UNL     1      -5.060  48.148 -12.548  1.00  0.00    -0.360 OA
HETATM   38  H9  UNL     1      -5.414  49.036 -12.734  1.00  0.00     0.213 HD
ENDBRANCH   5  37
BRANCH   4  39
HETATM   39  O1  UNL     1      -3.925  45.872 -10.477  1.00  0.00    -0.390 OA
HETATM   40  H8  UNL     1      -3.214  46.532 -10.609  1.00  0.00     0.210 HD
ENDBRANCH   4  39
TORSDOF 4
ENDMDL
MODEL 5
REMARK minimizedAffinity -7.49043941
REMARK CNNscore 0.580455899
REMARK CNNaffinity 6.65222549
REMARK  4 active torsions:
REMARK  status: ('A' for Active; 'I' for Inactive)
REMARK    1  A    between atoms: C4_4  and  O1_5 
REMARK    2  A    between atoms: C5_6  and  O2_7 
REMARK    3  A    between atoms: C8_11  and  C9_12 
REMARK    4  A    between atoms: C19_23  and  C20_24 
ROOT
HETATM    1  C1  UNL     1       0.734  49.058 -15.074  1.00  0.00     0.040 C 
HETATM    2  C2  UNL     1      -0.609  48.462 -15.484  1.00  0.00     0.123 C 
HETATM    3  C3  UNL     1      -1.205  49.113 -16.731  1.00  0.00     0.069 C 
HETATM    4  C4  UNL     1      -1.717  50.529 -16.483  1.00  0.00     0.188 C 
HETATM    5  C5  UNL     1      -2.365  50.706 -15.084  1.00  0.00     0.240 C 
HETATM    6  O3  UNL     1      -1.476  51.507 -14.269  1.00  0.00    -0.341 OA
HETATM    7  C6  UNL     1      -1.975  51.635 -12.929  1.00  0.00     0.156 C 
HETATM    8  C7  UNL     1      -0.946  52.404 -12.102  1.00  0.00     0.056 C 
HETATM    9  C8  UNL     1      -1.352  52.610 -10.613  1.00  0.00     0.043 C 
HETATM   10  C10 UNL     1      -1.990  51.351 -10.025  1.00  0.00    -0.065 C 
HETATM   11  C11 UNL     1      -1.916  51.091  -8.708  1.00  0.00    -0.022 C 
HETATM   12  C12 UNL     1      -1.329  52.057  -7.732  1.00  0.00     0.035 C 
HETATM   13  C13 UNL     1      -0.130  52.861  -8.254  1.00  0.00     0.030 C 
HETATM   14  C14 UNL     1      -0.066  53.051  -9.808  1.00  0.00     0.012 C 
HETATM   15  C15 UNL     1       0.535  54.379 -10.357  1.00  0.00     0.007 C 
HETATM   16  C16 UNL     1       1.369  55.186  -9.371  1.00  0.00     0.016 C 
HETATM   17  C17 UNL     1       0.522  55.489  -8.130  1.00  0.00     0.023 C 
HETATM   18  C18 UNL     1      -0.542  56.550  -8.415  1.00  0.00     0.022 C 
HETATM   19  C19 UNL     1       1.250  55.574  -6.726  1.00  0.00     0.098 C 
HETATM   20  C24 UNL     1       0.197  55.567  -5.613  1.00  0.00     0.047 C 
HETATM   21  C25 UNL     1      -0.689  54.444  -6.170  1.00  0.00     0.042 C 
HETATM   22  C26 UNL     1       0.113  54.131  -7.440  1.00  0.00     0.077 C 
HETATM   23  O7  UNL     1       1.548  54.125  -6.922  1.00  0.00    -0.362 OA
HETATM   24  C27 UNL     1      -2.827  50.456 -10.912  1.00  0.00     0.069 C 
HETATM   25  C28 UNL     1      -2.235  50.261 -12.302  1.00  0.00     0.158 C 
HETATM   26  O8  UNL     1      -3.167  49.518 -13.111  1.00  0.00    -0.347 OA
HETATM   27  C29 UNL     1      -2.621  49.313 -14.432  1.00  0.00     0.325 C 
HETATM   28  O9  UNL     1      -1.476  48.470 -14.348  1.00  0.00    -0.351 OA
ENDROOT
BRANCH  19  29
HETATM   29  C20 UNL     1       2.404  56.446  -6.554  1.00  0.00    -0.015 A 
HETATM   30  C21 UNL     1       3.655  56.144  -6.883  1.00  0.00     0.090 A 
HETATM   31  C22 UNL     1       4.460  57.310  -6.528  1.00  0.00     0.283 A 
HETATM   32  O5  UNL     1       5.665  57.388  -6.679  1.00  0.00    -0.260 OA
HETATM   33  O6  UNL     1       3.653  58.278  -6.015  1.00  0.00    -0.314 OA
HETATM   34  C23 UNL     1       2.304  57.805  -5.993  1.00  0.00     0.216 A 
ENDBRANCH  19  29
BRANCH   9  35
HETATM   35  C9  UNL     1      -2.411  53.726 -10.536  1.00  0.00     0.245 C 
HETATM   36  O4  UNL     1      -3.599  53.550 -10.275  1.00  0.00    -0.306 OA
ENDBRANCH   9  35
BRANCH   5  37
HETATM   37  O2  UNL     1      -3.587  51.436 -15.251  1.00  0.00    -0.360 OA
HETATM   38  H9  UNL     1      -4.201  51.118 -14.566  1.00  0.00     0.213 HD
ENDBRANCH   5  37
BRANCH   4  39
HETATM   39  O1  UNL     1      -0.645  51.464 -16.701  1.00  0.00    -0.390 OA
HETATM   40  H8  UNL     1      -0.571  51.979 -15.872  1.00  0.00     0.210 HD
ENDBRANCH   4  39
TORSDOF 4
ENDMDL
MODEL 6
REMARK minimizedAffinity -9.95648575
REMARK CNNscore 0.561723709
REMARK CNNaffinity 6.76300383
REMARK  4 active torsions:
REMARK  status: ('A' for Active; 'I' for Inactive)
REMARK    1  A    between atoms: C4_4  and  O1_5 
REMARK    2  A    between atoms: C5_6  and  O2_7 
REMARK    3  A    between atoms: C8_11  and  C9_12 
REMARK    4  A    between atoms: C19_23  and  C20_24 
ROOT
HETATM    1  C1  UNL     1      -7.319  46.362 -28.666  1.00  0.00     0.040 C 
HETATM    2  C2  UNL     1      -8.621  45.662 -28.288  1.00  0.00     0.123 C 
HETATM    3  C3  UNL     1      -9.868  46.464 -28.657  1.00  0.00     0.069 C 
HETATM    4  C4  UNL     1     -10.074  47.694 -27.778  1.00  0.00     0.188 C 
HETATM    5  C5  UNL     1      -9.667  47.458 -26.299  1.00  0.00     0.240 C 
HETATM    6  O3  UNL     1      -8.447  48.196 -26.041  1.00  0.00    -0.341 OA
HETATM    7  C6  UNL     1      -7.964  47.950 -24.711  1.00  0.00     0.156 C 
HETATM    8  C7  UNL     1      -6.631  48.676 -24.540  1.00  0.00     0.056 C 
HETATM    9  C8  UNL     1      -5.979  48.488 -23.138  1.00  0.00     0.043 C 
HETATM   10  C10 UNL     1      -6.111  47.047 -22.646  1.00  0.00    -0.065 C 
HETATM   11  C11 UNL     1      -5.211  46.524 -21.794  1.00  0.00    -0.022 C 
HETATM   12  C12 UNL     1      -4.116  47.337 -21.186  1.00  0.00     0.035 C 
HETATM   13  C13 UNL     1      -3.521  48.415 -22.102  1.00  0.00     0.030 C 
HETATM   14  C14 UNL     1      -4.469  48.944 -23.232  1.00  0.00     0.012 C 
HETATM   15  C15 UNL     1      -4.338  50.437 -23.655  1.00  0.00     0.007 C 
HETATM   16  C16 UNL     1      -3.051  51.134 -23.235  1.00  0.00     0.016 C 
HETATM   17  C17 UNL     1      -2.894  51.023 -21.714  1.00  0.00     0.023 C 
HETATM   18  C18 UNL     1      -3.874  51.938 -20.976  1.00  0.00     0.022 C 
HETATM   19  C19 UNL     1      -1.433  50.918 -21.115  1.00  0.00     0.098 C 
HETATM   20  C24 UNL     1      -1.521  50.503 -19.643  1.00  0.00     0.047 C 
HETATM   21  C25 UNL     1      -2.579  49.401 -19.799  1.00  0.00     0.042 C 
HETATM   22  C26 UNL     1      -2.788  49.501 -21.317  1.00  0.00     0.077 C 
HETATM   23  O7  UNL     1      -1.357  49.612 -21.833  1.00  0.00    -0.362 OA
HETATM   24  C27 UNL     1      -7.339  46.243 -23.014  1.00  0.00     0.069 C 
HETATM   25  C28 UNL     1      -7.784  46.449 -24.456  1.00  0.00     0.158 C 
HETATM   26  O8  UNL     1      -9.031  45.760 -24.667  1.00  0.00    -0.347 OA
HETATM   27  C29 UNL     1      -9.467  45.935 -26.032  1.00  0.00     0.325 C 
HETATM   28  O9  UNL     1      -8.553  45.287 -26.912  1.00  0.00    -0.351 OA
ENDROOT
BRANCH  19  29
HETATM   29  C20 UNL     1      -0.423  51.904 -21.476  1.00  0.00    -0.015 A 
HETATM   30  C21 UNL     1       0.130  52.781 -20.646  1.00  0.00     0.090 A 
HETATM   31  C22 UNL     1       1.073  53.558 -21.447  1.00  0.00     0.283 A 
HETATM   32  O5  UNL     1       1.758  54.467 -21.018  1.00  0.00    -0.260 OA
HETATM   33  O6  UNL     1       1.061  53.101 -22.729  1.00  0.00    -0.314 OA
HETATM   34  C23 UNL     1       0.120  52.031 -22.840  1.00  0.00     0.216 A 
ENDBRANCH  19  29
BRANCH   9  35
HETATM   35  C9  UNL     1      -6.719  49.378 -22.122  1.00  0.00     0.245 C 
HETATM   36  O4  UNL     1      -7.421  50.344 -22.415  1.00  0.00    -0.306 OA
ENDBRANCH   9  35
BRANCH   5  37
HETATM   37  O2  UNL     1     -10.696  48.003 -25.463  1.00  0.00    -0.360 OA
HETATM   38  H9  UNL     1     -10.730  47.452 -24.662  1.00  0.00     0.213 HD
ENDBRANCH   5  37
BRANCH   4  39
HETATM   39  O1  UNL     1      -9.378  48.811 -28.356  1.00  0.00    -0.390 OA
HETATM   40  H8  UNL     1      -8.778  49.140 -27.656  1.00  0.00     0.210 HD
ENDBRANCH   4  39
TORSDOF 4
ENDMDL
MODEL 7
REMARK minimizedAffinity -7.18277502
REMARK CNNscore 0.514006078
REMARK CNNaffinity 6.54236746
REMARK  4 active torsions:
REMARK  status: ('A' for Active; 'I' for Inactive)
REMARK    1  A    between atoms: C4_4  and  O1_5 
REMARK    2  A    between atoms: C5_6  and  O2_7 
REMARK    3  A    between atoms: C8_11  and  C9_12 
REMARK    4  A    between atoms: C19_23  and  C20_24 
ROOT
HETATM    1  C1  UNL     1       0.105  55.817  -8.611  1.00  0.00     0.040 C 
HETATM    2  C2  UNL     1      -0.131  55.118  -7.275  1.00  0.00     0.123 C 
HETATM    3  C3  UNL     1       1.161  54.751  -6.546  1.00  0.00     0.069 C 
HETATM    4  C4  UNL     1       1.919  53.603  -7.207  1.00  0.00     0.188 C 
HETATM    5  C5  UNL     1       0.981  52.516  -7.798  1.00  0.00     0.240 C 
HETATM    6  O3  UNL     1       1.030  52.611  -9.242  1.00  0.00    -0.341 OA
HETATM    7  C6  UNL     1       0.114  51.689  -9.854  1.00  0.00     0.156 C 
HETATM    8  C7  UNL     1       0.144  51.910 -11.364  1.00  0.00     0.056 C 
HETATM    9  C8  UNL     1      -0.816  50.979 -12.163  1.00  0.00     0.043 C 
HETATM   10  C10 UNL     1      -2.164  50.826 -11.459  1.00  0.00    -0.065 C 
HETATM   11  C11 UNL     1      -3.282  50.561 -12.158  1.00  0.00    -0.022 C 
HETATM   12  C12 UNL     1      -3.261  50.277 -13.624  1.00  0.00     0.035 C 
HETATM   13  C13 UNL     1      -2.226  51.077 -14.427  1.00  0.00     0.030 C 
HETATM   14  C14 UNL     1      -0.975  51.568 -13.620  1.00  0.00     0.012 C 
HETATM   15  C15 UNL     1       0.390  51.646 -14.367  1.00  0.00     0.007 C 
HETATM   16  C16 UNL     1       0.315  51.635 -15.887  1.00  0.00     0.016 C 
HETATM   17  C17 UNL     1      -0.439  50.380 -16.342  1.00  0.00     0.023 C 
HETATM   18  C18 UNL     1       0.407  49.117 -16.169  1.00  0.00     0.022 C 
HETATM   19  C19 UNL     1      -1.322  50.468 -17.654  1.00  0.00     0.098 C 
HETATM   20  C24 UNL     1      -2.217  49.228 -17.741  1.00  0.00     0.047 C 
HETATM   21  C25 UNL     1      -2.673  49.194 -16.275  1.00  0.00     0.042 C 
HETATM   22  C26 UNL     1      -1.908  50.427 -15.772  1.00  0.00     0.077 C 
HETATM   23  O7  UNL     1      -2.158  51.438 -16.886  1.00  0.00    -0.362 OA
HETATM   24  C27 UNL     1      -2.221  50.841  -9.947  1.00  0.00     0.069 C 
HETATM   25  C28 UNL     1      -1.309  51.887  -9.319  1.00  0.00     0.158 C 
HETATM   26  O8  UNL     1      -1.325  51.729  -7.888  1.00  0.00    -0.347 OA
HETATM   27  C29 UNL     1      -0.473  52.717  -7.271  1.00  0.00     0.325 C 
HETATM   28  O9  UNL     1      -1.015  54.016  -7.489  1.00  0.00    -0.351 OA
ENDROOT
BRANCH  19  29
HETATM   29  C20 UNL     1      -0.741  50.966 -18.892  1.00  0.00    -0.015 A 
HETATM   30  C21 UNL     1      -0.478  52.240 -19.164  1.00  0.00     0.090 A 
HETATM   31  C22 UNL     1       0.089  52.258 -20.510  1.00  0.00     0.283 A 
HETATM   32  O5  UNL     1       0.440  53.264 -21.098  1.00  0.00    -0.260 OA
HETATM   33  O6  UNL     1       0.160  50.986 -20.989  1.00  0.00    -0.314 OA
HETATM   34  C23 UNL     1      -0.356  50.083 -20.008  1.00  0.00     0.216 A 
ENDBRANCH  19  29
BRANCH   9  35
HETATM   35  C9  UNL     1      -0.192  49.573 -12.245  1.00  0.00     0.245 C 
HETATM   36  O4  UNL     1      -0.698  48.552 -11.784  1.00  0.00    -0.306 OA
ENDBRANCH   9  35
BRANCH   5  37
HETATM   37  O2  UNL     1       1.499  51.233  -7.423  1.00  0.00    -0.360 OA
HETATM   38  H9  UNL     1       0.734  50.640  -7.321  1.00  0.00     0.213 HD
ENDBRANCH   5  37
BRANCH   4  39
HETATM   39  O1  UNL     1       2.815  54.136  -8.197  1.00  0.00    -0.390 OA
HETATM   40  H8  UNL     1       2.584  53.684  -9.034  1.00  0.00     0.210 HD
ENDBRANCH   4  39
TORSDOF 4
ENDMDL
MODEL 8
REMARK minimizedAffinity -7.39230633
REMARK CNNscore 0.507911801
REMARK CNNaffinity 6.32069778
REMARK  4 active torsions:
REMARK  status: ('A' for Active; 'I' for Inactive)
REMARK    1  A    between atoms: C4_4  and  O1_5 
REMARK    2  A    between atoms: C5_6  and  O2_7 
REMARK    3  A    between atoms: C8_11  and  C9_12 
REMARK    4  A    between atoms: C19_23  and  C20_24 
ROOT
HETATM    1  C1  UNL     1      -1.035  48.363 -12.732  1.00  0.00     0.040 C 
HETATM    2  C2  UNL     1      -2.522  48.555 -13.016  1.00  0.00     0.123 C 
HETATM    3  C3  UNL     1      -2.809  49.026 -14.441  1.00  0.00     0.069 C 
HETATM    4  C4  UNL     1      -2.400  50.474 -14.691  1.00  0.00     0.188 C 
HETATM    5  C5  UNL     1      -2.644  51.395 -13.465  1.00  0.00     0.240 C 
HETATM    6  O3  UNL     1      -1.360  51.739 -12.892  1.00  0.00    -0.341 OA
HETATM    7  C6  UNL     1      -1.517  52.520 -11.697  1.00  0.00     0.156 C 
HETATM    8  C7  UNL     1      -0.136  52.763 -11.094  1.00  0.00     0.056 C 
HETATM    9  C8  UNL     1      -0.153  53.594  -9.777  1.00  0.00     0.043 C 
HETATM   10  C10 UNL     1      -1.302  53.171  -8.861  1.00  0.00    -0.065 C 
HETATM   11  C11 UNL     1      -1.212  53.320  -7.528  1.00  0.00    -0.022 C 
HETATM   12  C12 UNL     1      -0.060  54.011  -6.875  1.00  0.00     0.035 C 
HETATM   13  C13 UNL     1       1.301  53.785  -7.547  1.00  0.00     0.030 C 
HETATM   14  C14 UNL     1       1.253  53.432  -9.074  1.00  0.00     0.012 C 
HETATM   15  C15 UNL     1       2.416  53.941  -9.977  1.00  0.00     0.007 C 
HETATM   16  C16 UNL     1       3.681  54.372  -9.247  1.00  0.00     0.016 C 
HETATM   17  C17 UNL     1       3.324  55.456  -8.224  1.00  0.00     0.023 C 
HETATM   18  C18 UNL     1       3.011  56.792  -8.900  1.00  0.00     0.022 C 
HETATM   19  C19 UNL     1       4.153  55.520  -6.877  1.00  0.00     0.098 C 
HETATM   20  C24 UNL     1       3.437  56.447  -5.889  1.00  0.00     0.047 C 
HETATM   21  C25 UNL     1       2.009  55.932  -6.116  1.00  0.00     0.042 C 
HETATM   22  C26 UNL     1       2.320  54.857  -7.166  1.00  0.00     0.077 C 
HETATM   23  O7  UNL     1       3.558  54.183  -6.582  1.00  0.00    -0.362 OA
HETATM   24  C27 UNL     1      -2.606  52.704  -9.470  1.00  0.00     0.069 C 
HETATM   25  C28 UNL     1      -2.417  51.804 -10.683  1.00  0.00     0.158 C 
HETATM   26  O8  UNL     1      -3.703  51.530 -11.272  1.00  0.00    -0.347 OA
HETATM   27  C29 UNL     1      -3.548  50.670 -12.421  1.00  0.00     0.325 C 
HETATM   28  O9  UNL     1      -3.074  49.394 -12.000  1.00  0.00    -0.351 OA
ENDROOT
BRANCH  19  29
HETATM   29  C20 UNL     1       5.608  55.576  -6.918  1.00  0.00    -0.015 A 
HETATM   30  C21 UNL     1       6.401  55.816  -5.879  1.00  0.00     0.090 A 
HETATM   31  C22 UNL     1       7.767  55.779  -6.395  1.00  0.00     0.283 A 
HETATM   32  O5  UNL     1       8.764  55.968  -5.723  1.00  0.00    -0.260 OA
HETATM   33  O6  UNL     1       7.740  55.498  -7.727  1.00  0.00    -0.314 OA
HETATM   34  C23 UNL     1       6.383  55.352  -8.151  1.00  0.00     0.216 A 
ENDBRANCH  19  29
BRANCH   9  35
HETATM   35  C9  UNL     1      -0.382  55.076 -10.127  1.00  0.00     0.245 C 
HETATM   36  O4  UNL     1      -1.474  55.641 -10.111  1.00  0.00    -0.306 OA
ENDBRANCH   9  35
BRANCH   5  37
HETATM   37  O2  UNL     1      -3.256  52.604 -13.934  1.00  0.00    -0.360 OA
HETATM   38  H9  UNL     1      -3.844  52.916 -13.224  1.00  0.00     0.213 HD
ENDBRANCH   5  37
BRANCH   4  39
HETATM   39  O1  UNL     1      -1.029  50.510 -15.125  1.00  0.00    -0.390 OA
HETATM   40  H8  UNL     1      -0.569  51.107 -14.500  1.00  0.00     0.210 HD
ENDBRANCH   4  39
TORSDOF 4
ENDMDL
MODEL 9
REMARK minimizedAffinity -7.02662039
REMARK CNNscore 0.47138679
REMARK CNNaffinity 5.91217089
REMARK  4 active torsions:
REMARK  status: ('A' for Active; 'I' for Inactive)
REMARK    1  A    between atoms: C4_4  and  O1_5 
REMARK    2  A    between atoms: C5_6  and  O2_7 
REMARK    3  A    between atoms: C8_11  and  C9_12 
REMARK    4  A    between atoms: C19_23  and  C20_24 
ROOT
HETATM    1  C1  UNL     1      -1.214  54.703  -0.620  1.00  0.00     0.040 C 
HETATM    2  C2  UNL     1      -1.482  56.099  -0.065  1.00  0.00     0.123 C 
HETATM    3  C3  UNL     1      -2.945  56.524  -0.175  1.00  0.00     0.069 C 
HETATM    4  C4  UNL     1      -3.377  56.826  -1.608  1.00  0.00     0.188 C 
HETATM    5  C5  UNL     1      -2.265  57.511  -2.446  1.00  0.00     0.240 C 
HETATM    6  O3  UNL     1      -1.770  56.553  -3.413  1.00  0.00    -0.341 OA
HETATM    7  C6  UNL     1      -0.674  57.095  -4.166  1.00  0.00     0.156 C 
HETATM    8  C7  UNL     1      -0.140  56.005  -5.093  1.00  0.00     0.056 C 
HETATM    9  C8  UNL     1       1.068  56.451  -5.969  1.00  0.00     0.043 C 
HETATM   10  C10 UNL     1       2.056  57.302  -5.173  1.00  0.00    -0.065 C 
HETATM   11  C11 UNL     1       3.360  57.337  -5.502  1.00  0.00    -0.022 C 
HETATM   12  C12 UNL     1       3.895  56.660  -6.721  1.00  0.00     0.035 C 
HETATM   13  C13 UNL     1       3.222  55.328  -7.076  1.00  0.00     0.030 C 
HETATM   14  C14 UNL     1       1.750  55.155  -6.564  1.00  0.00     0.012 C 
HETATM   15  C15 UNL     1       0.763  54.332  -7.444  1.00  0.00     0.007 C 
HETATM   16  C16 UNL     1       1.404  53.436  -8.496  1.00  0.00     0.016 C 
HETATM   17  C17 UNL     1       2.298  54.290  -9.403  1.00  0.00     0.023 C 
HETATM   18  C18 UNL     1       1.474  55.165 -10.350  1.00  0.00     0.022 C 
HETATM   19  C19 UNL     1       3.606  53.631 -10.004  1.00  0.00     0.098 C 
HETATM   20  C24 UNL     1       4.493  54.728 -10.600  1.00  0.00     0.047 C 
HETATM   21  C25 UNL     1       4.366  55.746  -9.458  1.00  0.00     0.042 C 
HETATM   22  C26 UNL     1       3.445  54.936  -8.535  1.00  0.00     0.077 C 
HETATM   23  O7  UNL     1       4.074  53.548  -8.588  1.00  0.00    -0.362 OA
HETATM   24  C27 UNL     1       1.542  58.219  -4.085  1.00  0.00     0.069 C 
HETATM   25  C28 UNL     1       0.441  57.593  -3.239  1.00  0.00     0.158 C 
HETATM   26  O8  UNL     1      -0.078  58.584  -2.332  1.00  0.00    -0.347 OA
HETATM   27  C29 UNL     1      -1.119  58.009  -1.514  1.00  0.00     0.325 C 
HETATM   28  O9  UNL     1      -0.560  57.011  -0.664  1.00  0.00    -0.351 OA
ENDROOT
BRANCH  19  29
HETATM   29  C20 UNL     1       3.522  52.368 -10.724  1.00  0.00    -0.015 A 
HETATM   30  C21 UNL     1       4.189  51.261 -10.420  1.00  0.00     0.090 A 
HETATM   31  C22 UNL     1       3.793  50.264 -11.412  1.00  0.00     0.283 A 
HETATM   32  O5  UNL     1       4.217  49.124 -11.453  1.00  0.00    -0.260 OA
HETATM   33  O6  UNL     1       2.885  50.811 -12.265  1.00  0.00    -0.314 OA
HETATM   34  C23 UNL     1       2.650  52.171 -11.896  1.00  0.00     0.216 A 
ENDBRANCH  19  29
BRANCH   9  35
HETATM   35  C9  UNL     1       0.548  57.330  -7.122  1.00  0.00     0.245 C 
HETATM   36  O4  UNL     1      -0.632  57.428  -7.454  1.00  0.00    -0.306 OA
ENDBRANCH   9  35
BRANCH   5  37
HETATM   37  O2  UNL     1      -2.860  58.597  -3.168  1.00  0.00    -0.360 OA
HETATM   38  H9  UNL     1      -2.178  59.287  -3.252  1.00  0.00     0.213 HD
ENDBRANCH   5  37
BRANCH   4  39
HETATM   39  O1  UNL     1      -3.847  55.615  -2.225  1.00  0.00    -0.390 OA
HETATM   40  H8  UNL     1      -3.310  55.505  -3.036  1.00  0.00     0.210 HD
ENDBRANCH   4  39
TORSDOF 4
ENDMDL
