MODEL 1
REMARK minimizedAffinity -6.95523071
REMARK CNNscore 0.432166338
REMARK CNNaffinity 6.39980459
REMARK  9 active torsions:
REMARK  status: ('A' for Active; 'I' for Inactive)
REMARK    1  A    between atoms: C12_14  and  C13_15 
REMARK    2  A    between atoms: C13_15  and  C15_17 
REMARK    3  A    between atoms: C15_17  and  C16_18 
REMARK    4  A    between atoms: C16_18  and  C17_19 
REMARK    5  A    between atoms: C18_20  and  C20_22 
REMARK    6  A    between atoms: C26_29  and  C27_30 
REMARK    7  A    between atoms: C27_30  and  C28_31 
REMARK    8  A    between atoms: C28_31  and  C29_32 
REMARK    9  A    between atoms: C29_32  and  O5_34 
ROOT
HETATM    1  C1  UNL     1     -10.798  44.598 -20.269  1.00  0.00     0.025 C 
HETATM    2  C2  UNL     1     -10.002  45.288 -21.097  1.00  0.00     0.015 C 
HETATM    3  C3  UNL     1      -9.273  44.597 -22.183  1.00  0.00     0.289 C 
HETATM    4  O1  UNL     1      -9.079  43.399 -22.281  1.00  0.00    -0.260 OA
HETATM    5  O2  UNL     1      -8.850  45.544 -23.059  1.00  0.00    -0.311 OA
HETATM    6  C4  UNL     1      -9.404  46.817 -22.700  1.00  0.00     0.142 C 
HETATM    7  C5  UNL     1      -8.433  47.922 -23.075  1.00  0.00     0.039 C 
HETATM    8  C6  UNL     1      -7.100  47.767 -22.327  1.00  0.00     0.006 C 
HETATM    9  C7  UNL     1      -7.332  47.880 -20.803  1.00  0.00    -0.027 A 
HETATM   10  C8  UNL     1      -6.608  49.035 -20.101  1.00  0.00     0.011 C 
HETATM   11  C9  UNL     1      -5.161  49.324 -20.546  1.00  0.00     0.011 C 
HETATM   12  C10 UNL     1      -4.754  48.681 -21.879  1.00  0.00    -0.032 C 
HETATM   13  C11 UNL     1      -4.243  47.237 -21.587  1.00  0.00     0.016 C 
HETATM   14  C12 UNL     1      -3.668  49.437 -22.716  1.00  0.00    -0.002 C 
HETATM   15  C21 UNL     1      -3.953  48.939 -24.164  1.00  0.00     0.006 C 
HETATM   16  C22 UNL     1      -5.356  48.309 -24.176  1.00  0.00     0.011 C 
HETATM   17  C23 UNL     1      -5.994  48.736 -22.841  1.00  0.00    -0.032 C 
HETATM   18  C24 UNL     1      -6.570  50.170 -23.075  1.00  0.00     0.016 C 
HETATM   19  C25 UNL     1      -7.436  46.598 -19.997  1.00  0.00     0.022 A 
HETATM   20  C26 UNL     1      -8.708  47.372 -20.255  1.00  0.00    -0.021 A 
HETATM   21  C30 UNL     1      -9.758  46.758 -21.216  1.00  0.00     0.063 C 
ENDROOT
BRANCH  14  22
HETATM   22  C13 UNL     1      -2.160  49.318 -22.336  1.00  0.00    -0.014 C 
HETATM   23  C14 UNL     1      -1.875  48.050 -21.522  1.00  0.00     0.010 C 
BRANCH  22  24
HETATM   24  C15 UNL     1      -1.703  50.575 -21.542  1.00  0.00     0.008 C 
BRANCH  24  25
HETATM   25  C16 UNL     1      -0.210  50.586 -21.193  1.00  0.00     0.028 C 
BRANCH  25  26
HETATM   26  C17 UNL     1       0.344  51.983 -21.241  1.00  0.00    -0.017 C 
HETATM   27  C18 UNL     1       0.473  52.844 -20.213  1.00  0.00    -0.028 C 
HETATM   28  C19 UNL     1       0.049  52.625 -18.796  1.00  0.00     0.051 C 
BRANCH  27  29
HETATM   29  C20 UNL     1       1.079  54.182 -20.495  1.00  0.00     0.265 C 
HETATM   30  O3  UNL     1       1.877  54.398 -21.399  1.00  0.00    -0.302 OA
ENDBRANCH  27  29
ENDBRANCH  25  26
ENDBRANCH  24  25
ENDBRANCH  22  24
ENDBRANCH  14  22
BRANCH  20  31
HETATM   31  C27 UNL     1      -9.324  48.169 -19.096  1.00  0.00     0.021 C 
BRANCH  31  32
HETATM   32  C28 UNL     1     -10.759  47.784 -18.755  1.00  0.00     0.111 C 
BRANCH  32  33
HETATM   33  C29 UNL     1     -10.965  47.668 -17.268  1.00  0.00     0.139 C 
HETATM   34  O4  UNL     1     -10.140  47.834 -16.388  1.00  0.00    -0.650 OA
BRANCH  33  35
HETATM   35  O5  UNL     1     -12.238  47.343 -16.966  1.00  0.00    -0.776 OA
HETATM   36  H41 UNL     1     -12.245  47.292 -15.987  1.00  0.00     0.167 HD
ENDBRANCH  33  35
ENDBRANCH  32  33
ENDBRANCH  31  32
ENDBRANCH  20  31
TORSDOF 9
ENDMDL
MODEL 2
REMARK minimizedAffinity -6.88885975
REMARK CNNscore 0.35070309
REMARK CNNaffinity 6.24229574
REMARK  9 active torsions:
REMARK  status: ('A' for Active; 'I' for Inactive)
REMARK    1  A    between atoms: C12_14  and  C13_15 
REMARK    2  A    between atoms: C13_15  and  C15_17 
REMARK    3  A    between atoms: C15_17  and  C16_18 
REMARK    4  A    between atoms: C16_18  and  C17_19 
REMARK    5  A    between atoms: C18_20  and  C20_22 
REMARK    6  A    between atoms: C26_29  and  C27_30 
REMARK    7  A    between atoms: C27_30  and  C28_31 
REMARK    8  A    between atoms: C28_31  and  C29_32 
REMARK    9  A    between atoms: C29_32  and  O5_34 
ROOT
HETATM    1  C1  UNL     1      -5.434  48.236 -29.852  1.00  0.00     0.025 C 
HETATM    2  C2  UNL     1      -5.938  47.177 -30.499  1.00  0.00     0.015 C 
HETATM    3  C3  UNL     1      -5.124  46.454 -31.501  1.00  0.00     0.289 C 
HETATM    4  O1  UNL     1      -4.107  46.854 -32.036  1.00  0.00    -0.260 OA
HETATM    5  O2  UNL     1      -5.719  45.254 -31.723  1.00  0.00    -0.311 OA
HETATM    6  C4  UNL     1      -6.799  45.071 -30.796  1.00  0.00     0.142 C 
HETATM    7  C5  UNL     1      -7.897  44.248 -31.446  1.00  0.00     0.039 C 
HETATM    8  C6  UNL     1      -8.463  44.957 -32.684  1.00  0.00     0.006 C 
HETATM    9  C7  UNL     1      -9.102  46.305 -32.277  1.00  0.00    -0.027 A 
HETATM   10  C8  UNL     1     -10.601  46.448 -32.567  1.00  0.00     0.011 C 
HETATM   11  C9  UNL     1     -11.108  45.886 -33.910  1.00  0.00     0.011 C 
HETATM   12  C10 UNL     1     -10.139  44.927 -34.616  1.00  0.00    -0.032 C 
HETATM   13  C11 UNL     1      -9.161  45.775 -35.484  1.00  0.00     0.016 C 
HETATM   14  C12 UNL     1     -10.786  43.824 -35.521  1.00  0.00    -0.002 C 
HETATM   15  C21 UNL     1      -9.688  42.719 -35.538  1.00  0.00     0.006 C 
HETATM   16  C22 UNL     1      -8.716  43.005 -34.380  1.00  0.00     0.011 C 
HETATM   17  C23 UNL     1      -9.429  44.061 -33.515  1.00  0.00    -0.032 C 
HETATM   18  C24 UNL     1     -10.403  43.271 -32.582  1.00  0.00     0.016 C 
HETATM   19  C25 UNL     1      -8.285  47.570 -32.461  1.00  0.00     0.022 A 
HETATM   20  C26 UNL     1      -8.468  47.050 -31.054  1.00  0.00    -0.021 A 
HETATM   21  C30 UNL     1      -7.237  46.456 -30.325  1.00  0.00     0.063 C 
ENDROOT
BRANCH  14  22
HETATM   22  C13 UNL     1     -11.289  44.179 -36.954  1.00  0.00    -0.014 C 
HETATM   23  C14 UNL     1     -10.174  44.043 -37.999  1.00  0.00     0.010 C 
BRANCH  22  24
HETATM   24  C15 UNL     1     -11.869  45.621 -36.980  1.00  0.00     0.008 C 
BRANCH  24  25
HETATM   25  C16 UNL     1     -11.610  46.376 -38.289  1.00  0.00     0.028 C 
BRANCH  25  26
HETATM   26  C17 UNL     1     -12.427  47.637 -38.355  1.00  0.00    -0.017 C 
HETATM   27  C18 UNL     1     -13.196  48.057 -39.378  1.00  0.00    -0.028 C 
HETATM   28  C19 UNL     1     -13.376  47.388 -40.704  1.00  0.00     0.051 C 
BRANCH  27  29
HETATM   29  C20 UNL     1     -13.943  49.341 -39.209  1.00  0.00     0.265 C 
HETATM   30  O3  UNL     1     -13.408  50.431 -39.046  1.00  0.00    -0.302 OA
ENDBRANCH  27  29
ENDBRANCH  25  26
ENDBRANCH  24  25
ENDBRANCH  22  24
ENDBRANCH  14  22
BRANCH  20  31
HETATM   31  C27 UNL     1      -9.438  47.792 -30.122  1.00  0.00     0.021 C 
BRANCH  31  32
HETATM   32  C28 UNL     1      -9.482  47.255 -28.696  1.00  0.00     0.111 C 
BRANCH  32  33
HETATM   33  C29 UNL     1      -9.077  48.303 -27.695  1.00  0.00     0.139 C 
HETATM   34  O4  UNL     1      -8.971  48.176 -26.487  1.00  0.00    -0.650 OA
BRANCH  33  35
HETATM   35  O5  UNL     1      -8.818  49.485 -28.288  1.00  0.00    -0.776 OA
HETATM   36  H41 UNL     1      -8.575  50.077 -27.545  1.00  0.00     0.167 HD
ENDBRANCH  33  35
ENDBRANCH  32  33
ENDBRANCH  31  32
ENDBRANCH  20  31
TORSDOF 9
ENDMDL
MODEL 3
REMARK minimizedAffinity -7.04955435
REMARK CNNscore 0.344439
REMARK CNNaffinity 6.18266535
REMARK  9 active torsions:
REMARK  status: ('A' for Active; 'I' for Inactive)
REMARK    1  A    between atoms: C12_14  and  C13_15 
REMARK    2  A    between atoms: C13_15  and  C15_17 
REMARK    3  A    between atoms: C15_17  and  C16_18 
REMARK    4  A    between atoms: C16_18  and  C17_19 
REMARK    5  A    between atoms: C18_20  and  C20_22 
REMARK    6  A    between atoms: C26_29  and  C27_30 
REMARK    7  A    between atoms: C27_30  and  C28_31 
REMARK    8  A    between atoms: C28_31  and  C29_32 
REMARK    9  A    between atoms: C29_32  and  O5_34 
ROOT
HETATM    1  C1  UNL     1      -5.812  47.723 -33.865  1.00  0.00     0.025 C 
HETATM    2  C2  UNL     1      -6.778  46.995 -33.289  1.00  0.00     0.015 C 
HETATM    3  C3  UNL     1      -8.067  46.778 -33.983  1.00  0.00     0.289 C 
HETATM    4  O1  UNL     1      -8.495  47.405 -34.934  1.00  0.00    -0.260 OA
HETATM    5  O2  UNL     1      -8.695  45.745 -33.366  1.00  0.00    -0.311 OA
HETATM    6  C4  UNL     1      -7.816  45.153 -32.398  1.00  0.00     0.142 C 
HETATM    7  C5  UNL     1      -8.627  44.614 -31.233  1.00  0.00     0.039 C 
HETATM    8  C6  UNL     1      -9.403  45.738 -30.530  1.00  0.00     0.006 C 
HETATM    9  C7  UNL     1      -8.418  46.775 -29.943  1.00  0.00    -0.027 A 
HETATM   10  C8  UNL     1      -8.466  46.955 -28.421  1.00  0.00     0.011 C 
HETATM   11  C9  UNL     1      -9.861  46.962 -27.764  1.00  0.00     0.011 C 
HETATM   12  C10 UNL     1     -10.993  46.416 -28.646  1.00  0.00    -0.032 C 
HETATM   13  C11 UNL     1     -11.537  47.586 -29.520  1.00  0.00     0.016 C 
HETATM   14  C12 UNL     1     -12.197  45.747 -27.900  1.00  0.00    -0.002 C 
HETATM   15  C21 UNL     1     -12.776  44.794 -28.988  1.00  0.00     0.006 C 
HETATM   16  C22 UNL     1     -11.711  44.631 -30.084  1.00  0.00     0.011 C 
HETATM   17  C23 UNL     1     -10.421  45.212 -29.476  1.00  0.00    -0.032 C 
HETATM   18  C24 UNL     1      -9.795  44.069 -28.613  1.00  0.00     0.016 C 
HETATM   19  C25 UNL     1      -8.154  48.042 -30.735  1.00  0.00     0.022 A 
HETATM   20  C26 UNL     1      -7.071  46.989 -30.712  1.00  0.00    -0.021 A 
HETATM   21  C30 UNL     1      -6.780  46.207 -32.018  1.00  0.00     0.063 C 
ENDROOT
BRANCH  14  22
HETATM   22  C13 UNL     1     -13.300  46.628 -27.238  1.00  0.00    -0.014 C 
HETATM   23  C14 UNL     1     -13.028  46.854 -25.745  1.00  0.00     0.010 C 
BRANCH  22  24
HETATM   24  C15 UNL     1     -14.698  45.976 -27.431  1.00  0.00     0.008 C 
BRANCH  24  25
HETATM   25  C16 UNL     1     -15.148  45.101 -26.254  1.00  0.00     0.028 C 
BRANCH  25  26
HETATM   26  C17 UNL     1     -16.594  45.347 -25.921  1.00  0.00    -0.017 C 
HETATM   27  C18 UNL     1     -17.096  46.325 -25.144  1.00  0.00    -0.028 C 
HETATM   28  C19 UNL     1     -16.326  47.365 -24.394  1.00  0.00     0.051 C 
BRANCH  27  29
HETATM   29  C20 UNL     1     -18.580  46.389 -24.974  1.00  0.00     0.265 C 
HETATM   30  O3  UNL     1     -19.208  47.426 -24.796  1.00  0.00    -0.302 OA
ENDBRANCH  27  29
ENDBRANCH  25  26
ENDBRANCH  24  25
ENDBRANCH  22  24
ENDBRANCH  14  22
BRANCH  20  31
HETATM   31  C27 UNL     1      -5.822  47.246 -29.855  1.00  0.00     0.021 C 
BRANCH  31  32
HETATM   32  C28 UNL     1      -6.108  47.848 -28.484  1.00  0.00     0.111 C 
BRANCH  32  33
HETATM   33  C29 UNL     1      -4.839  48.140 -27.730  1.00  0.00     0.139 C 
HETATM   34  O4  UNL     1      -4.718  48.374 -26.540  1.00  0.00    -0.650 OA
BRANCH  33  35
HETATM   35  O5  UNL     1      -3.761  48.114 -28.539  1.00  0.00    -0.776 OA
HETATM   36  H41 UNL     1      -3.010  48.321 -27.943  1.00  0.00     0.167 HD
ENDBRANCH  33  35
ENDBRANCH  32  33
ENDBRANCH  31  32
ENDBRANCH  20  31
TORSDOF 9
ENDMDL
MODEL 4
REMARK minimizedAffinity -6.82618856
REMARK CNNscore 0.30849421
REMARK CNNaffinity 6.21477079
REMARK  9 active torsions:
REMARK  status: ('A' for Active; 'I' for Inactive)
REMARK    1  A    between atoms: C12_14  and  C13_15 
REMARK    2  A    between atoms: C13_15  and  C15_17 
REMARK    3  A    between atoms: C15_17  and  C16_18 
REMARK    4  A    between atoms: C16_18  and  C17_19 
REMARK    5  A    between atoms: C18_20  and  C20_22 
REMARK    6  A    between atoms: C26_29  and  C27_30 
REMARK    7  A    between atoms: C27_30  and  C28_31 
REMARK    8  A    between atoms: C28_31  and  C29_32 
REMARK    9  A    between atoms: C29_32  and  O5_34 
ROOT
HETATM    1  C1  UNL     1      -0.989  50.601 -10.766  1.00  0.00     0.025 C 
HETATM    2  C2  UNL     1       0.253  51.103 -10.751  1.00  0.00     0.015 C 
HETATM    3  C3  UNL     1       1.395  50.265 -10.323  1.00  0.00     0.289 C 
HETATM    4  O1  UNL     1       1.336  49.216  -9.709  1.00  0.00    -0.260 OA
HETATM    5  O2  UNL     1       2.532  50.879 -10.739  1.00  0.00    -0.311 OA
HETATM    6  C4  UNL     1       2.200  52.002 -11.569  1.00  0.00     0.142 C 
HETATM    7  C5  UNL     1       3.244  53.091 -11.398  1.00  0.00     0.039 C 
HETATM    8  C6  UNL     1       3.297  53.586  -9.945  1.00  0.00     0.006 C 
HETATM    9  C7  UNL     1       1.938  54.208  -9.548  1.00  0.00    -0.027 A 
HETATM   10  C8  UNL     1       1.972  55.690  -9.153  1.00  0.00     0.011 C 
HETATM   11  C9  UNL     1       3.160  56.153  -8.286  1.00  0.00     0.011 C 
HETATM   12  C10 UNL     1       4.346  55.179  -8.241  1.00  0.00    -0.032 C 
HETATM   13  C11 UNL     1       4.083  54.144  -7.105  1.00  0.00     0.016 C 
HETATM   14  C12 UNL     1       5.761  55.812  -8.023  1.00  0.00    -0.002 C 
HETATM   15  C21 UNL     1       6.707  54.742  -8.646  1.00  0.00     0.006 C 
HETATM   16  C22 UNL     1       5.851  53.814  -9.524  1.00  0.00     0.011 C 
HETATM   17  C23 UNL     1       4.498  54.537  -9.666  1.00  0.00    -0.032 C 
HETATM   18  C24 UNL     1       4.678  55.569 -10.826  1.00  0.00     0.016 C 
HETATM   19  C25 UNL     1       0.959  53.354  -8.765  1.00  0.00     0.022 A 
HETATM   20  C26 UNL     1       0.659  53.610 -10.223  1.00  0.00    -0.021 A 
HETATM   21  C30 UNL     1       0.776  52.425 -11.215  1.00  0.00     0.063 C 
ENDROOT
BRANCH  14  22
HETATM   22  C13 UNL     1       6.218  56.245  -6.596  1.00  0.00    -0.014 C 
HETATM   23  C14 UNL     1       5.933  57.729  -6.332  1.00  0.00     0.010 C 
BRANCH  22  24
HETATM   24  C15 UNL     1       7.733  55.952  -6.403  1.00  0.00     0.008 C 
BRANCH  24  25
HETATM   25  C16 UNL     1       8.303  56.454  -5.071  1.00  0.00     0.028 C 
BRANCH  25  26
HETATM   26  C17 UNL     1       9.793  56.631  -5.154  1.00  0.00    -0.017 C 
HETATM   27  C18 UNL     1      10.702  56.345  -4.203  1.00  0.00    -0.028 C 
HETATM   28  C19 UNL     1      10.432  55.828  -2.825  1.00  0.00     0.051 C 
BRANCH  27  29
HETATM   29  C20 UNL     1      12.144  56.582  -4.520  1.00  0.00     0.265 C 
HETATM   30  O3  UNL     1      12.672  57.687  -4.537  1.00  0.00    -0.302 OA
ENDBRANCH  27  29
ENDBRANCH  25  26
ENDBRANCH  24  25
ENDBRANCH  22  24
ENDBRANCH  14  22
BRANCH  20  31
HETATM   31  C27 UNL     1      -0.462  54.599 -10.574  1.00  0.00     0.021 C 
BRANCH  31  32
HETATM   32  C28 UNL     1      -1.730  54.440  -9.742  1.00  0.00     0.111 C 
BRANCH  32  33
HETATM   33  C29 UNL     1      -2.895  53.996 -10.584  1.00  0.00     0.139 C 
HETATM   34  O4  UNL     1      -4.076  53.998 -10.282  1.00  0.00    -0.650 OA
BRANCH  33  35
HETATM   35  O5  UNL     1      -2.497  53.567 -11.799  1.00  0.00    -0.776 OA
HETATM   36  H41 UNL     1      -3.330  53.303 -12.244  1.00  0.00     0.167 HD
ENDBRANCH  33  35
ENDBRANCH  32  33
ENDBRANCH  31  32
ENDBRANCH  20  31
TORSDOF 9
ENDMDL
MODEL 5
REMARK minimizedAffinity -8.53435993
REMARK CNNscore 0.30374676
REMARK CNNaffinity 6.64099169
REMARK  9 active torsions:
REMARK  status: ('A' for Active; 'I' for Inactive)
REMARK    1  A    between atoms: C12_14  and  C13_15 
REMARK    2  A    between atoms: C13_15  and  C15_17 
REMARK    3  A    between atoms: C15_17  and  C16_18 
REMARK    4  A    between atoms: C16_18  and  C17_19 
REMARK    5  A    between atoms: C18_20  and  C20_22 
REMARK    6  A    between atoms: C26_29  and  C27_30 
REMARK    7  A    between atoms: C27_30  and  C28_31 
REMARK    8  A    between atoms: C28_31  and  C29_32 
REMARK    9  A    between atoms: C29_32  and  O5_34 
ROOT
HETATM    1  C1  UNL     1      -7.081  48.375 -24.378  1.00  0.00     0.025 C 
HETATM    2  C2  UNL     1      -6.190  48.299 -23.381  1.00  0.00     0.015 C 
HETATM    3  C3  UNL     1      -6.625  48.449 -21.974  1.00  0.00     0.289 C 
HETATM    4  O1  UNL     1      -7.683  48.907 -21.586  1.00  0.00    -0.260 OA
HETATM    5  O2  UNL     1      -5.625  47.981 -21.184  1.00  0.00    -0.311 OA
HETATM    6  C4  UNL     1      -4.611  47.373 -21.997  1.00  0.00     0.142 C 
HETATM    7  C5  UNL     1      -3.252  47.561 -21.346  1.00  0.00     0.039 C 
HETATM    8  C6  UNL     1      -2.905  49.050 -21.207  1.00  0.00     0.006 C 
HETATM    9  C7  UNL     1      -2.821  49.707 -22.604  1.00  0.00    -0.027 A 
HETATM   10  C8  UNL     1      -1.460  50.304 -22.981  1.00  0.00     0.011 C 
HETATM   11  C9  UNL     1      -0.702  51.066 -21.876  1.00  0.00     0.011 C 
HETATM   12  C10 UNL     1      -1.215  50.815 -20.450  1.00  0.00    -0.032 C 
HETATM   13  C11 UNL     1      -2.378  51.813 -20.168  1.00  0.00     0.016 C 
HETATM   14  C12 UNL     1      -0.160  50.934 -19.299  1.00  0.00    -0.002 C 
HETATM   15  C21 UNL     1      -0.782  50.045 -18.181  1.00  0.00     0.006 C 
HETATM   16  C22 UNL     1      -1.861  49.162 -18.830  1.00  0.00     0.011 C 
HETATM   17  C23 UNL     1      -1.632  49.304 -20.346  1.00  0.00    -0.032 C 
HETATM   18  C24 UNL     1      -0.498  48.292 -20.710  1.00  0.00     0.016 C 
HETATM   19  C25 UNL     1      -4.027  50.480 -23.106  1.00  0.00     0.022 A 
HETATM   20  C26 UNL     1      -3.755  49.126 -23.719  1.00  0.00    -0.021 A 
HETATM   21  C30 UNL     1      -4.732  47.967 -23.398  1.00  0.00     0.063 C 
ENDROOT
BRANCH  14  22
HETATM   22  C13 UNL     1       0.268  52.337 -18.768  1.00  0.00    -0.014 C 
HETATM   23  C14 UNL     1       0.664  53.282 -19.910  1.00  0.00     0.010 C 
BRANCH  22  24
HETATM   24  C15 UNL     1       1.446  52.196 -17.762  1.00  0.00     0.008 C 
BRANCH  24  25
HETATM   25  C16 UNL     1       1.041  52.384 -16.295  1.00  0.00     0.028 C 
BRANCH  25  26
HETATM   26  C17 UNL     1       1.903  51.552 -15.387  1.00  0.00    -0.017 C 
HETATM   27  C18 UNL     1       3.233  51.661 -15.200  1.00  0.00    -0.028 C 
HETATM   28  C19 UNL     1       4.165  52.605 -15.890  1.00  0.00     0.051 C 
BRANCH  27  29
HETATM   29  C20 UNL     1       3.878  50.734 -14.220  1.00  0.00     0.265 C 
HETATM   30  O3  UNL     1       3.383  49.679 -13.843  1.00  0.00    -0.302 OA
ENDBRANCH  27  29
ENDBRANCH  25  26
ENDBRANCH  24  25
ENDBRANCH  22  24
ENDBRANCH  14  22
BRANCH  20  31
HETATM   31  C27 UNL     1      -3.178  49.071 -25.141  1.00  0.00     0.021 C 
BRANCH  31  32
HETATM   32  C28 UNL     1      -4.096  48.425 -26.172  1.00  0.00     0.111 C 
BRANCH  32  33
HETATM   33  C29 UNL     1      -3.855  48.974 -27.553  1.00  0.00     0.139 C 
HETATM   34  O4  UNL     1      -3.474  50.092 -27.853  1.00  0.00    -0.650 OA
BRANCH  33  35
HETATM   35  O5  UNL     1      -4.110  48.055 -28.506  1.00  0.00    -0.776 OA
HETATM   36  H41 UNL     1      -3.925  48.525 -29.346  1.00  0.00     0.167 HD
ENDBRANCH  33  35
ENDBRANCH  32  33
ENDBRANCH  31  32
ENDBRANCH  20  31
TORSDOF 9
ENDMDL
MODEL 6
REMARK minimizedAffinity -7.10701799
REMARK CNNscore 0.267627001
REMARK CNNaffinity 5.92853785
REMARK  9 active torsions:
REMARK  status: ('A' for Active; 'I' for Inactive)
REMARK    1  A    between atoms: C12_14  and  C13_15 
REMARK    2  A    between atoms: C13_15  and  C15_17 
REMARK    3  A    between atoms: C15_17  and  C16_18 
REMARK    4  A    between atoms: C16_18  and  C17_19 
REMARK    5  A    between atoms: C18_20  and  C20_22 
REMARK    6  A    between atoms: C26_29  and  C27_30 
REMARK    7  A    between atoms: C27_30  and  C28_31 
REMARK    8  A    between atoms: C28_31  and  C29_32 
REMARK    9  A    between atoms: C29_32  and  O5_34 
ROOT
HETATM    1  C1  UNL     1       0.620  52.691 -18.340  1.00  0.00     0.025 C 
HETATM    2  C2  UNL     1       0.131  51.892 -19.296  1.00  0.00     0.015 C 
HETATM    3  C3  UNL     1       0.184  52.305 -20.716  1.00  0.00     0.289 C 
HETATM    4  O1  UNL     1       0.384  53.428 -21.140  1.00  0.00    -0.260 OA
HETATM    5  O2  UNL     1      -0.033  51.198 -21.473  1.00  0.00    -0.311 OA
HETATM    6  C4  UNL     1      -0.064  50.036 -20.632  1.00  0.00     0.142 C 
HETATM    7  C5  UNL     1      -1.018  49.008 -21.215  1.00  0.00     0.039 C 
HETATM    8  C6  UNL     1      -2.448  49.562 -21.296  1.00  0.00     0.006 C 
HETATM    9  C7  UNL     1      -2.968  49.895 -19.879  1.00  0.00    -0.027 A 
HETATM   10  C8  UNL     1      -4.210  49.119 -19.423  1.00  0.00     0.011 C 
HETATM   11  C9  UNL     1      -5.319  48.901 -20.471  1.00  0.00     0.011 C 
HETATM   12  C10 UNL     1      -4.893  49.150 -21.925  1.00  0.00    -0.032 C 
HETATM   13  C11 UNL     1      -5.074  50.667 -22.232  1.00  0.00     0.016 C 
HETATM   14  C12 UNL     1      -5.643  48.323 -23.023  1.00  0.00    -0.002 C 
HETATM   15  C21 UNL     1      -4.614  48.308 -24.192  1.00  0.00     0.006 C 
HETATM   16  C22 UNL     1      -3.246  48.712 -23.618  1.00  0.00     0.011 C 
HETATM   17  C23 UNL     1      -3.418  48.637 -22.090  1.00  0.00    -0.032 C 
HETATM   18  C24 UNL     1      -3.206  47.138 -21.703  1.00  0.00     0.016 C 
HETATM   19  C25 UNL     1      -2.900  51.337 -19.411  1.00  0.00     0.022 A 
HETATM   20  C26 UNL     1      -1.908  50.360 -18.825  1.00  0.00    -0.021 A 
HETATM   21  C30 UNL     1      -0.417  50.503 -19.221  1.00  0.00     0.063 C 
ENDROOT
BRANCH  14  22
HETATM   22  C13 UNL     1      -7.067  48.752 -23.494  1.00  0.00    -0.014 C 
HETATM   23  C14 UNL     1      -8.165  48.154 -22.605  1.00  0.00     0.010 C 
BRANCH  22  24
HETATM   24  C15 UNL     1      -7.293  48.332 -24.974  1.00  0.00     0.008 C 
BRANCH  24  25
HETATM   25  C16 UNL     1      -8.361  47.247 -25.160  1.00  0.00     0.028 C 
BRANCH  25  26
HETATM   26  C17 UNL     1      -9.475  47.733 -26.046  1.00  0.00    -0.017 C 
HETATM   27  C18 UNL     1     -10.798  47.563 -25.859  1.00  0.00    -0.028 C 
HETATM   28  C19 UNL     1     -11.462  46.810 -24.751  1.00  0.00     0.051 C 
BRANCH  27  29
HETATM   29  C20 UNL     1     -11.727  48.160 -26.867  1.00  0.00     0.265 C 
HETATM   30  O3  UNL     1     -12.918  47.883 -26.953  1.00  0.00    -0.302 OA
ENDBRANCH  27  29
ENDBRANCH  25  26
ENDBRANCH  24  25
ENDBRANCH  22  24
ENDBRANCH  14  22
BRANCH  20  31
HETATM   31  C27 UNL     1      -2.119  49.885 -17.379  1.00  0.00     0.021 C 
BRANCH  31  32
HETATM   32  C28 UNL     1      -2.869  50.872 -16.492  1.00  0.00     0.111 C 
BRANCH  32  33
HETATM   33  C29 UNL     1      -2.510  50.699 -15.041  1.00  0.00     0.139 C 
HETATM   34  O4  UNL     1      -1.737  49.890 -14.557  1.00  0.00    -0.650 OA
BRANCH  33  35
HETATM   35  O5  UNL     1      -3.159  51.584 -14.258  1.00  0.00    -0.776 OA
HETATM   36  H41 UNL     1      -2.852  51.370 -13.351  1.00  0.00     0.167 HD
ENDBRANCH  33  35
ENDBRANCH  32  33
ENDBRANCH  31  32
ENDBRANCH  20  31
TORSDOF 9
ENDMDL
MODEL 7
REMARK minimizedAffinity -6.82568789
REMARK CNNscore 0.211567789
REMARK CNNaffinity 5.85892153
REMARK  9 active torsions:
REMARK  status: ('A' for Active; 'I' for Inactive)
REMARK    1  A    between atoms: C12_14  and  C13_15 
REMARK    2  A    between atoms: C13_15  and  C15_17 
REMARK    3  A    between atoms: C15_17  and  C16_18 
REMARK    4  A    between atoms: C16_18  and  C17_19 
REMARK    5  A    between atoms: C18_20  and  C20_22 
REMARK    6  A    between atoms: C26_29  and  C27_30 
REMARK    7  A    between atoms: C27_30  and  C28_31 
REMARK    8  A    between atoms: C28_31  and  C29_32 
REMARK    9  A    between atoms: C29_32  and  O5_34 
ROOT
HETATM    1  C1  UNL     1      -3.484  51.319  -9.764  1.00  0.00     0.025 C 
HETATM    2  C2  UNL     1      -2.548  52.257  -9.960  1.00  0.00     0.015 C 
HETATM    3  C3  UNL     1      -2.066  52.560 -11.325  1.00  0.00     0.289 C 
HETATM    4  O1  UNL     1      -2.215  51.873 -12.318  1.00  0.00    -0.260 OA
HETATM    5  O2  UNL     1      -1.419  53.753 -11.276  1.00  0.00    -0.311 OA
HETATM    6  C4  UNL     1      -1.589  54.342  -9.978  1.00  0.00     0.142 C 
HETATM    7  C5  UNL     1      -0.358  55.156  -9.622  1.00  0.00     0.039 C 
HETATM    8  C6  UNL     1       0.897  54.273  -9.570  1.00  0.00     0.006 C 
HETATM    9  C7  UNL     1       0.743  53.198  -8.470  1.00  0.00    -0.027 A 
HETATM   10  C8  UNL     1       1.776  53.248  -7.338  1.00  0.00     0.011 C 
HETATM   11  C9  UNL     1       3.235  53.542  -7.738  1.00  0.00     0.011 C 
HETATM   12  C10 UNL     1       3.415  54.116  -9.151  1.00  0.00    -0.032 C 
HETATM   13  C11 UNL     1       3.512  52.926 -10.152  1.00  0.00     0.016 C 
HETATM   14  C12 UNL     1       4.647  55.057  -9.369  1.00  0.00    -0.002 C 
HETATM   15  C21 UNL     1       4.200  55.918 -10.588  1.00  0.00     0.006 C 
HETATM   16  C22 UNL     1       2.677  55.762 -10.738  1.00  0.00     0.011 C 
HETATM   17  C23 UNL     1       2.215  55.090  -9.432  1.00  0.00    -0.032 C 
HETATM   18  C24 UNL     1       2.055  56.240  -8.386  1.00  0.00     0.016 C 
HETATM   19  C25 UNL     1       0.307  51.804  -8.885  1.00  0.00     0.022 A 
HETATM   20  C26 UNL     1      -0.706  52.678  -8.183  1.00  0.00    -0.021 A 
HETATM   21  C30 UNL     1      -1.908  53.211  -9.003  1.00  0.00     0.063 C 
ENDROOT
BRANCH  14  22
HETATM   22  C13 UNL     1       6.072  54.453  -9.564  1.00  0.00    -0.014 C 
HETATM   23  C14 UNL     1       6.087  52.938  -9.325  1.00  0.00     0.010 C 
BRANCH  22  24
HETATM   24  C15 UNL     1       7.087  55.151  -8.616  1.00  0.00     0.008 C 
BRANCH  24  25
HETATM   25  C16 UNL     1       6.770  54.981  -7.125  1.00  0.00     0.028 C 
BRANCH  25  26
HETATM   26  C17 UNL     1       7.117  56.224  -6.354  1.00  0.00    -0.017 C 
HETATM   27  C18 UNL     1       6.310  57.267  -6.083  1.00  0.00    -0.028 C 
HETATM   28  C19 UNL     1       4.894  57.450  -6.528  1.00  0.00     0.051 C 
BRANCH  27  29
HETATM   29  C20 UNL     1       6.871  58.391  -5.271  1.00  0.00     0.265 C 
HETATM   30  O3  UNL     1       8.016  58.422  -4.838  1.00  0.00    -0.302 OA
ENDBRANCH  27  29
ENDBRANCH  25  26
ENDBRANCH  24  25
ENDBRANCH  22  24
ENDBRANCH  14  22
BRANCH  20  31
HETATM   31  C27 UNL     1      -1.048  52.366  -6.719  1.00  0.00     0.021 C 
BRANCH  31  32
HETATM   32  C28 UNL     1      -1.563  53.559  -5.921  1.00  0.00     0.111 C 
BRANCH  32  33
HETATM   33  C29 UNL     1      -1.262  53.417  -4.453  1.00  0.00     0.139 C 
HETATM   34  O4  UNL     1      -0.692  54.215  -3.730  1.00  0.00    -0.650 OA
BRANCH  33  35
HETATM   35  O5  UNL     1      -1.713  52.245  -3.963  1.00  0.00    -0.776 OA
HETATM   36  H41 UNL     1      -1.457  52.267  -3.017  1.00  0.00     0.167 HD
ENDBRANCH  33  35
ENDBRANCH  32  33
ENDBRANCH  31  32
ENDBRANCH  20  31
TORSDOF 9
ENDMDL
MODEL 8
REMARK minimizedAffinity -7.26215649
REMARK CNNscore 0.173547745
REMARK CNNaffinity 5.98284912
REMARK  9 active torsions:
REMARK  status: ('A' for Active; 'I' for Inactive)
REMARK    1  A    between atoms: C12_14  and  C13_15 
REMARK    2  A    between atoms: C13_15  and  C15_17 
REMARK    3  A    between atoms: C15_17  and  C16_18 
REMARK    4  A    between atoms: C16_18  and  C17_19 
REMARK    5  A    between atoms: C18_20  and  C20_22 
REMARK    6  A    between atoms: C26_29  and  C27_30 
REMARK    7  A    between atoms: C27_30  and  C28_31 
REMARK    8  A    between atoms: C28_31  and  C29_32 
REMARK    9  A    between atoms: C29_32  and  O5_34 
ROOT
HETATM    1  C1  UNL     1      -1.445  51.182 -27.423  1.00  0.00     0.025 C 
HETATM    2  C2  UNL     1      -1.903  51.296 -26.170  1.00  0.00     0.015 C 
HETATM    3  C3  UNL     1      -1.025  51.808 -25.095  1.00  0.00     0.289 C 
HETATM    4  O1  UNL     1       0.188  51.903 -25.132  1.00  0.00    -0.260 OA
HETATM    5  O2  UNL     1      -1.817  52.154 -24.048  1.00  0.00    -0.311 OA
HETATM    6  C4  UNL     1      -3.196  52.055 -24.432  1.00  0.00     0.142 C 
HETATM    7  C5  UNL     1      -4.034  51.659 -23.230  1.00  0.00     0.039 C 
HETATM    8  C6  UNL     1      -3.605  50.291 -22.681  1.00  0.00     0.006 C 
HETATM    9  C7  UNL     1      -3.824  49.199 -23.752  1.00  0.00    -0.027 A 
HETATM   10  C8  UNL     1      -4.808  48.083 -23.378  1.00  0.00     0.011 C 
HETATM   11  C9  UNL     1      -4.741  47.550 -21.933  1.00  0.00     0.011 C 
HETATM   12  C10 UNL     1      -3.973  48.445 -20.949  1.00  0.00    -0.032 C 
HETATM   13  C11 UNL     1      -2.463  48.067 -21.025  1.00  0.00     0.016 C 
HETATM   14  C12 UNL     1      -4.429  48.387 -19.453  1.00  0.00    -0.002 C 
HETATM   15  C21 UNL     1      -3.957  49.768 -18.905  1.00  0.00     0.006 C 
HETATM   16  C22 UNL     1      -3.665  50.676 -20.112  1.00  0.00     0.011 C 
HETATM   17  C23 UNL     1      -4.276  49.941 -21.319  1.00  0.00    -0.032 C 
HETATM   18  C24 UNL     1      -5.794  50.311 -21.330  1.00  0.00     0.016 C 
HETATM   19  C25 UNL     1      -2.630  48.756 -24.579  1.00  0.00     0.022 A 
HETATM   20  C26 UNL     1      -3.665  49.630 -25.249  1.00  0.00    -0.021 A 
HETATM   21  C30 UNL     1      -3.274  51.085 -25.609  1.00  0.00     0.063 C 
ENDROOT
BRANCH  14  22
HETATM   22  C13 UNL     1      -3.982  47.205 -18.539  1.00  0.00    -0.014 C 
HETATM   23  C14 UNL     1      -4.234  45.846 -19.203  1.00  0.00     0.010 C 
BRANCH  22  24
HETATM   24  C15 UNL     1      -4.718  47.273 -17.171  1.00  0.00     0.008 C 
BRANCH  24  25
HETATM   25  C16 UNL     1      -6.024  46.469 -17.122  1.00  0.00     0.028 C 
BRANCH  25  26
HETATM   26  C17 UNL     1      -7.199  47.326 -17.503  1.00  0.00    -0.017 C 
HETATM   27  C18 UNL     1      -8.420  47.333 -16.934  1.00  0.00    -0.028 C 
HETATM   28  C19 UNL     1      -8.901  46.455 -15.822  1.00  0.00     0.051 C 
BRANCH  27  29
HETATM   29  C20 UNL     1      -9.433  48.295 -17.467  1.00  0.00     0.265 C 
HETATM   30  O3  UNL     1      -9.167  49.232 -18.210  1.00  0.00    -0.302 OA
ENDBRANCH  27  29
ENDBRANCH  25  26
ENDBRANCH  24  25
ENDBRANCH  22  24
ENDBRANCH  14  22
BRANCH  20  31
HETATM   31  C27 UNL     1      -4.624  48.982 -26.258  1.00  0.00     0.021 C 
BRANCH  31  32
HETATM   32  C28 UNL     1      -3.939  48.335 -27.457  1.00  0.00     0.111 C 
BRANCH  32  33
HETATM   33  C29 UNL     1      -4.859  48.255 -28.646  1.00  0.00     0.139 C 
HETATM   34  O4  UNL     1      -4.565  47.983 -29.797  1.00  0.00    -0.650 OA
BRANCH  33  35
HETATM   35  O5  UNL     1      -6.135  48.525 -28.307  1.00  0.00    -0.776 OA
HETATM   36  H41 UNL     1      -6.628  48.449 -29.152  1.00  0.00     0.167 HD
ENDBRANCH  33  35
ENDBRANCH  32  33
ENDBRANCH  31  32
ENDBRANCH  20  31
TORSDOF 9
ENDMDL
MODEL 9
REMARK minimizedAffinity -7.22827864
REMARK CNNscore 0.160892427
REMARK CNNaffinity 6.11738825
REMARK  9 active torsions:
REMARK  status: ('A' for Active; 'I' for Inactive)
REMARK    1  A    between atoms: C12_14  and  C13_15 
REMARK    2  A    between atoms: C13_15  and  C15_17 
REMARK    3  A    between atoms: C15_17  and  C16_18 
REMARK    4  A    between atoms: C16_18  and  C17_19 
REMARK    5  A    between atoms: C18_20  and  C20_22 
REMARK    6  A    between atoms: C26_29  and  C27_30 
REMARK    7  A    between atoms: C27_30  and  C28_31 
REMARK    8  A    between atoms: C28_31  and  C29_32 
REMARK    9  A    between atoms: C29_32  and  O5_34 
ROOT
HETATM    1  C1  UNL     1       0.221  51.797 -28.064  1.00  0.00     0.025 C 
HETATM    2  C2  UNL     1      -0.246  51.943 -26.817  1.00  0.00     0.015 C 
HETATM    3  C3  UNL     1       0.686  52.165 -25.689  1.00  0.00     0.289 C 
HETATM    4  O1  UNL     1       1.887  51.970 -25.690  1.00  0.00    -0.260 OA
HETATM    5  O2  UNL     1      -0.043  52.628 -24.641  1.00  0.00    -0.311 OA
HETATM    6  C4  UNL     1      -1.390  52.884 -25.064  1.00  0.00     0.142 C 
HETATM    7  C5  UNL     1      -2.345  52.629 -23.912  1.00  0.00     0.039 C 
HETATM    8  C6  UNL     1      -2.274  51.168 -23.446  1.00  0.00     0.006 C 
HETATM    9  C7  UNL     1      -2.702  50.225 -24.593  1.00  0.00    -0.027 A 
HETATM   10  C8  UNL     1      -3.937  49.356 -24.319  1.00  0.00     0.011 C 
HETATM   11  C9  UNL     1      -4.055  48.738 -22.911  1.00  0.00     0.011 C 
HETATM   12  C10 UNL     1      -3.137  49.364 -21.851  1.00  0.00    -0.032 C 
HETATM   13  C11 UNL     1      -1.757  48.641 -21.916  1.00  0.00     0.016 C 
HETATM   14  C12 UNL     1      -3.653  49.328 -20.373  1.00  0.00    -0.002 C 
HETATM   15  C21 UNL     1      -2.889  50.520 -19.723  1.00  0.00     0.006 C 
HETATM   16  C22 UNL     1      -2.343  51.403 -20.859  1.00  0.00     0.011 C 
HETATM   17  C23 UNL     1      -3.062  50.908 -22.128  1.00  0.00    -0.032 C 
HETATM   18  C24 UNL     1      -4.448  51.630 -22.150  1.00  0.00     0.016 C 
HETATM   19  C25 UNL     1      -1.616  49.560 -25.418  1.00  0.00     0.022 A 
HETATM   20  C26 UNL     1      -2.387  50.694 -26.053  1.00  0.00    -0.021 A 
HETATM   21  C30 UNL     1      -1.648  52.033 -26.305  1.00  0.00     0.063 C 
ENDROOT
BRANCH  14  22
HETATM   22  C13 UNL     1      -3.535  48.021 -19.531  1.00  0.00    -0.014 C 
HETATM   23  C14 UNL     1      -4.548  46.961 -19.979  1.00  0.00     0.010 C 
BRANCH  22  24
HETATM   24  C15 UNL     1      -3.727  48.335 -18.020  1.00  0.00     0.008 C 
BRANCH  24  25
HETATM   25  C16 UNL     1      -2.644  47.737 -17.114  1.00  0.00     0.028 C 
BRANCH  25  26
HETATM   26  C17 UNL     1      -2.886  46.272 -16.878  1.00  0.00    -0.017 C 
HETATM   27  C18 UNL     1      -3.683  45.718 -15.945  1.00  0.00    -0.028 C 
HETATM   28  C19 UNL     1      -4.475  46.433 -14.896  1.00  0.00     0.051 C 
BRANCH  27  29
HETATM   29  C20 UNL     1      -3.789  44.226 -15.913  1.00  0.00     0.265 C 
HETATM   30  O3  UNL     1      -2.852  43.476 -15.670  1.00  0.00    -0.302 OA
ENDBRANCH  27  29
ENDBRANCH  25  26
ENDBRANCH  24  25
ENDBRANCH  22  24
ENDBRANCH  14  22
BRANCH  20  31
HETATM   31  C27 UNL     1      -3.432  50.355 -27.127  1.00  0.00     0.021 C 
BRANCH  31  32
HETATM   32  C28 UNL     1      -3.376  48.917 -27.631  1.00  0.00     0.111 C 
BRANCH  32  33
HETATM   33  C29 UNL     1      -4.663  48.513 -28.299  1.00  0.00     0.139 C 
HETATM   34  O4  UNL     1      -5.558  47.828 -27.837  1.00  0.00    -0.650 OA
BRANCH  33  35
HETATM   35  O5  UNL     1      -4.754  49.012 -29.548  1.00  0.00    -0.776 OA
HETATM   36  H41 UNL     1      -5.617  48.681 -29.875  1.00  0.00     0.167 HD
ENDBRANCH  33  35
ENDBRANCH  32  33
ENDBRANCH  31  32
ENDBRANCH  20  31
TORSDOF 9
ENDMDL
