MODEL 1
REMARK minimizedAffinity -7.02968836
REMARK CNNscore 0.632836938
REMARK CNNaffinity 5.81557512
REMARK  13 active torsions:
REMARK  status: ('A' for Active; 'I' for Inactive)
REMARK    1  A    between atoms: C2_2  and  C3_3 
REMARK    2  A    between atoms: C3_3  and  C5_5 
REMARK    3  A    between atoms: C5_5  and  N1_6 
REMARK    4  A    between atoms: C5_5  and  C31_39 
REMARK       I    between atoms: N1_6  and  C6_7 
REMARK    5  A    between atoms: C6_7  and  C7_9 
REMARK    6  A    between atoms: C7_9  and  C8_10 
REMARK    7  A    between atoms: C8_10  and  C9_11 
REMARK    8  A    between atoms: C9_11  and  O3_13 
REMARK    9  A    between atoms: O3_13  and  C10_14 
REMARK   10  A    between atoms: C10_14  and  C11_15 
REMARK   11  A    between atoms: C11_15  and  C12_17 
REMARK   12  A    between atoms: C12_17  and  O5_18 
REMARK   13  A    between atoms: C31_39  and  O9_41 
ROOT
HETATM    1  C12 UNL     1       1.408  11.425  17.900  1.00  0.00     0.128 C 
HETATM    2  C13 UNL     1       0.112  11.804  18.655  1.00  0.00     0.047 C 
HETATM    3  C14 UNL     1       0.559  12.435  19.988  1.00  0.00     0.009 C 
HETATM    4  C15 UNL     1       2.076  12.549  19.878  1.00  0.00     0.002 C 
HETATM    5  C16 UNL     1       2.883  12.695  21.175  1.00  0.00     0.003 C 
HETATM    6  C17 UNL     1       2.450  13.942  21.958  1.00  0.00     0.010 C 
HETATM    7  C18 UNL     1       3.272  14.119  23.229  1.00  0.00     0.035 C 
HETATM    8  C19 UNL     1       4.758  14.127  22.940  1.00  0.00    -0.067 C 
HETATM    9  C20 UNL     1       5.511  15.144  23.391  1.00  0.00     0.053 C 
HETATM   10  C21 UNL     1       6.984  15.150  23.233  1.00  0.00     0.149 C 
HETATM   11  O6  UNL     1       7.625  16.145  23.555  1.00  0.00    -0.293 OA
HETATM   12  C22 UNL     1       7.631  13.883  22.748  1.00  0.00     0.084 C 
HETATM   13  C23 UNL     1       6.768  13.255  21.661  1.00  0.00     0.022 C 
HETATM   14  C24 UNL     1       5.305  12.950  22.107  1.00  0.00    -0.009 C 
HETATM   15  C25 UNL     1       5.297  11.686  22.996  1.00  0.00     0.021 C 
HETATM   16  C26 UNL     1       4.400  12.790  20.830  1.00  0.00     0.072 C 
HETATM   17  C27 UNL     1       4.801  11.664  19.852  1.00  0.00     0.133 C 
HETATM   18  O7  UNL     1       5.801  10.962  20.004  1.00  0.00    -0.297 OA
HETATM   19  C28 UNL     1       3.937  11.496  18.608  1.00  0.00     0.091 C 
HETATM   20  C29 UNL     1       2.475  11.312  19.028  1.00  0.00     0.005 C 
HETATM   21  C30 UNL     1       2.342   9.980  19.804  1.00  0.00     0.019 C 
ENDROOT
BRANCH   1  22
HETATM   22  C11 UNL     1       1.296  10.251  16.899  1.00  0.00     0.185 C 
HETATM   23  O4  UNL     1       1.554   9.103  17.298  1.00  0.00    -0.292 OA
BRANCH  22  24
HETATM   24  C10 UNL     1       0.912  10.531  15.445  1.00  0.00     0.260 C 
BRANCH  24  25
HETATM   25  O3  UNL     1      -0.376  11.132  15.313  1.00  0.00    -0.314 OA
BRANCH  25  26
HETATM   26  C9  UNL     1      -1.361  10.309  14.855  1.00  0.00     0.259 C 
HETATM   27  O2  UNL     1      -2.559  10.503  14.994  1.00  0.00    -0.265 OA
BRANCH  26  28
HETATM   28  C8  UNL     1      -0.737   9.161  14.114  1.00  0.00     0.120 C 
BRANCH  28  29
HETATM   29  C7  UNL     1      -1.191   9.096  12.659  1.00  0.00     0.112 C 
BRANCH  29  30
HETATM   30  C6  UNL     1      -0.378   8.061  11.912  1.00  0.00     0.218 C 
HETATM   31  N1  UNL     1       0.764   8.569  11.329  1.00  0.00    -0.346 N 
HETATM   32  H11 UNL     1       0.771   9.572  11.166  1.00  0.00     0.163 HD
HETATM   33  O1  UNL     1      -0.696   6.876  11.849  1.00  0.00    -0.274 OA
BRANCH  31  34
HETATM   34  C5  UNL     1       1.509   7.760  10.350  1.00  0.00     0.186 C 
BRANCH  34  35
HETATM   35  C3  UNL     1       0.738   7.660   9.012  1.00  0.00     0.014 C 
HETATM   36  C4  UNL     1      -0.317   8.769   8.915  1.00  0.00     0.012 C 
BRANCH  35  37
HETATM   37  C2  UNL     1       1.666   7.654   7.774  1.00  0.00     0.002 C 
HETATM   38  C1  UNL     1       2.955   8.439   7.983  1.00  0.00     0.005 C 
ENDBRANCH  35  37
ENDBRANCH  34  35
BRANCH  34  39
HETATM   39  C31 UNL     1       1.839   6.380  10.949  1.00  0.00     0.163 C 
HETATM   40  O8  UNL     1       1.602   5.293  10.447  1.00  0.00    -0.648 OA
BRANCH  39  41
HETATM   41  O9  UNL     1       2.386   6.437  12.187  1.00  0.00    -0.775 OA
HETATM   42  H43 UNL     1       2.546   5.493  12.407  1.00  0.00     0.167 HD
ENDBRANCH  39  41
ENDBRANCH  34  39
ENDBRANCH  31  34
ENDBRANCH  29  30
ENDBRANCH  28  29
ENDBRANCH  26  28
ENDBRANCH  25  26
ENDBRANCH  24  25
ENDBRANCH  22  24
ENDBRANCH   1  22
BRANCH   1  43
HETATM   43  O5  UNL     1       1.735  12.575  17.084  1.00  0.00    -0.381 OA
HETATM   44  H18 UNL     1       2.216  12.236  16.301  1.00  0.00     0.211 HD
ENDBRANCH   1  43
TORSDOF 13
ENDMDL
MODEL 2
REMARK minimizedAffinity -9.61903954
REMARK CNNscore 0.546290398
REMARK CNNaffinity 7.35742998
REMARK  13 active torsions:
REMARK  status: ('A' for Active; 'I' for Inactive)
REMARK    1  A    between atoms: C2_2  and  C3_3 
REMARK    2  A    between atoms: C3_3  and  C5_5 
REMARK    3  A    between atoms: C5_5  and  N1_6 
REMARK    4  A    between atoms: C5_5  and  C31_39 
REMARK       I    between atoms: N1_6  and  C6_7 
REMARK    5  A    between atoms: C6_7  and  C7_9 
REMARK    6  A    between atoms: C7_9  and  C8_10 
REMARK    7  A    between atoms: C8_10  and  C9_11 
REMARK    8  A    between atoms: C9_11  and  O3_13 
REMARK    9  A    between atoms: O3_13  and  C10_14 
REMARK   10  A    between atoms: C10_14  and  C11_15 
REMARK   11  A    between atoms: C11_15  and  C12_17 
REMARK   12  A    between atoms: C12_17  and  O5_18 
REMARK   13  A    between atoms: C31_39  and  O9_41 
ROOT
HETATM    1  C12 UNL     1      -1.226   6.346  13.033  1.00  0.00     0.128 C 
HETATM    2  C13 UNL     1      -1.103   4.934  12.410  1.00  0.00     0.047 C 
HETATM    3  C14 UNL     1      -2.523   4.336  12.412  1.00  0.00     0.009 C 
HETATM    4  C15 UNL     1      -3.426   5.475  12.873  1.00  0.00     0.002 C 
HETATM    5  C16 UNL     1      -4.810   5.116  13.431  1.00  0.00     0.003 C 
HETATM    6  C17 UNL     1      -5.642   4.349  12.393  1.00  0.00     0.010 C 
HETATM    7  C18 UNL     1      -7.033   4.020  12.923  1.00  0.00     0.035 C 
HETATM    8  C19 UNL     1      -7.753   5.258  13.413  1.00  0.00    -0.067 C 
HETATM    9  C20 UNL     1      -8.983   5.534  12.946  1.00  0.00     0.053 C 
HETATM   10  C21 UNL     1      -9.777   6.668  13.471  1.00  0.00     0.149 C 
HETATM   11  O6  UNL     1     -10.846   6.957  12.942  1.00  0.00    -0.293 OA
HETATM   12  C22 UNL     1      -9.255   7.368  14.695  1.00  0.00     0.084 C 
HETATM   13  C23 UNL     1      -7.741   7.502  14.597  1.00  0.00     0.022 C 
HETATM   14  C24 UNL     1      -6.993   6.145  14.420  1.00  0.00    -0.009 C 
HETATM   15  C25 UNL     1      -6.949   5.407  15.777  1.00  0.00     0.021 C 
HETATM   16  C26 UNL     1      -5.555   6.421  13.842  1.00  0.00     0.072 C 
HETATM   17  C27 UNL     1      -4.638   7.315  14.705  1.00  0.00     0.133 C 
HETATM   18  O7  UNL     1      -5.005   7.846  15.753  1.00  0.00    -0.297 OA
HETATM   19  C28 UNL     1      -3.244   7.596  14.160  1.00  0.00     0.091 C 
HETATM   20  C29 UNL     1      -2.536   6.267  13.870  1.00  0.00     0.005 C 
HETATM   21  C30 UNL     1      -2.314   5.519  15.205  1.00  0.00     0.019 C 
ENDROOT
BRANCH   1  22
HETATM   22  C11 UNL     1       0.039   6.897  13.731  1.00  0.00     0.185 C 
HETATM   23  O4  UNL     1      -0.102   7.621  14.730  1.00  0.00    -0.292 OA
BRANCH  22  24
HETATM   24  C10 UNL     1       1.420   6.573  13.158  1.00  0.00     0.260 C 
BRANCH  24  25
HETATM   25  O3  UNL     1       2.444   7.442  13.644  1.00  0.00    -0.314 OA
BRANCH  25  26
HETATM   26  C9  UNL     1       2.722   8.516  12.855  1.00  0.00     0.259 C 
HETATM   27  O2  UNL     1       1.887   9.213  12.298  1.00  0.00    -0.265 OA
BRANCH  26  28
HETATM   28  C8  UNL     1       4.208   8.730  12.821  1.00  0.00     0.120 C 
BRANCH  28  29
HETATM   29  C7  UNL     1       4.970   7.449  12.497  1.00  0.00     0.112 C 
BRANCH  29  30
HETATM   30  C6  UNL     1       4.909   7.177  11.009  1.00  0.00     0.218 C 
HETATM   31  N1  UNL     1       3.665   7.397  10.456  1.00  0.00    -0.346 N 
HETATM   32  H11 UNL     1       2.883   7.380  11.103  1.00  0.00     0.163 HD
HETATM   33  O1  UNL     1       5.883   6.813  10.354  1.00  0.00    -0.274 OA
BRANCH  31  34
HETATM   34  C5  UNL     1       3.375   6.921   9.092  1.00  0.00     0.186 C 
BRANCH  34  35
HETATM   35  C3  UNL     1       2.207   7.720   8.465  1.00  0.00     0.014 C 
HETATM   36  C4  UNL     1       1.937   7.244   7.032  1.00  0.00     0.012 C 
BRANCH  35  37
HETATM   37  C2  UNL     1       0.920   7.688   9.323  1.00  0.00     0.002 C 
HETATM   38  C1  UNL     1      -0.179   8.603   8.795  1.00  0.00     0.005 C 
ENDBRANCH  35  37
ENDBRANCH  34  35
BRANCH  34  39
HETATM   39  C31 UNL     1       3.116   5.403   9.107  1.00  0.00     0.163 C 
HETATM   40  O8  UNL     1       3.539   4.585   8.306  1.00  0.00    -0.648 OA
BRANCH  39  41
HETATM   41  O9  UNL     1       2.275   5.001  10.089  1.00  0.00    -0.775 OA
HETATM   42  H43 UNL     1       2.234   4.027   9.967  1.00  0.00     0.167 HD
ENDBRANCH  39  41
ENDBRANCH  34  39
ENDBRANCH  31  34
ENDBRANCH  29  30
ENDBRANCH  28  29
ENDBRANCH  26  28
ENDBRANCH  25  26
ENDBRANCH  24  25
ENDBRANCH  22  24
ENDBRANCH   1  22
BRANCH   1  43
HETATM   43  O5  UNL     1      -1.455   7.244  11.921  1.00  0.00    -0.381 OA
HETATM   44  H18 UNL     1      -1.086   8.113  12.181  1.00  0.00     0.211 HD
ENDBRANCH   1  43
TORSDOF 13
ENDMDL
MODEL 3
REMARK minimizedAffinity -7.91512108
REMARK CNNscore 0.543962002
REMARK CNNaffinity 7.32893038
REMARK  13 active torsions:
REMARK  status: ('A' for Active; 'I' for Inactive)
REMARK    1  A    between atoms: C2_2  and  C3_3 
REMARK    2  A    between atoms: C3_3  and  C5_5 
REMARK    3  A    between atoms: C5_5  and  N1_6 
REMARK    4  A    between atoms: C5_5  and  C31_39 
REMARK       I    between atoms: N1_6  and  C6_7 
REMARK    5  A    between atoms: C6_7  and  C7_9 
REMARK    6  A    between atoms: C7_9  and  C8_10 
REMARK    7  A    between atoms: C8_10  and  C9_11 
REMARK    8  A    between atoms: C9_11  and  O3_13 
REMARK    9  A    between atoms: O3_13  and  C10_14 
REMARK   10  A    between atoms: C10_14  and  C11_15 
REMARK   11  A    between atoms: C11_15  and  C12_17 
REMARK   12  A    between atoms: C12_17  and  O5_18 
REMARK   13  A    between atoms: C31_39  and  O9_41 
ROOT
HETATM    1  C12 UNL     1     -12.314   8.688  13.611  1.00  0.00     0.128 C 
HETATM    2  C13 UNL     1     -12.508   9.176  15.066  1.00  0.00     0.047 C 
HETATM    3  C14 UNL     1     -11.261   8.716  15.846  1.00  0.00     0.009 C 
HETATM    4  C15 UNL     1     -10.329   8.137  14.786  1.00  0.00     0.002 C 
HETATM    5  C16 UNL     1      -9.222   7.180  15.247  1.00  0.00     0.003 C 
HETATM    6  C17 UNL     1      -8.290   7.861  16.260  1.00  0.00     0.010 C 
HETATM    7  C18 UNL     1      -7.163   6.932  16.695  1.00  0.00     0.035 C 
HETATM    8  C19 UNL     1      -6.396   6.385  15.510  1.00  0.00    -0.067 C 
HETATM    9  C20 UNL     1      -5.059   6.514  15.474  1.00  0.00     0.053 C 
HETATM   10  C21 UNL     1      -4.249   5.903  14.394  1.00  0.00     0.149 C 
HETATM   11  O6  UNL     1      -3.046   6.137  14.332  1.00  0.00    -0.293 OA
HETATM   12  C22 UNL     1      -4.946   4.952  13.462  1.00  0.00     0.084 C 
HETATM   13  C23 UNL     1      -6.337   5.483  13.139  1.00  0.00     0.022 C 
HETATM   14  C24 UNL     1      -7.232   5.726  14.393  1.00  0.00    -0.009 C 
HETATM   15  C25 UNL     1      -7.753   4.370  14.918  1.00  0.00     0.021 C 
HETATM   16  C26 UNL     1      -8.399   6.709  14.010  1.00  0.00     0.072 C 
HETATM   17  C27 UNL     1      -9.345   6.232  12.885  1.00  0.00     0.133 C 
HETATM   18  O7  UNL     1      -9.180   5.181  12.265  1.00  0.00    -0.297 OA
HETATM   19  C28 UNL     1     -10.480   7.171  12.499  1.00  0.00     0.091 C 
HETATM   20  C29 UNL     1     -11.301   7.514  13.746  1.00  0.00     0.005 C 
HETATM   21  C30 UNL     1     -11.989   6.227  14.259  1.00  0.00     0.019 C 
ENDROOT
BRANCH   1  22
HETATM   22  C11 UNL     1     -13.605   8.432  12.799  1.00  0.00     0.185 C 
HETATM   23  O4  UNL     1     -14.049   9.347  12.086  1.00  0.00    -0.292 OA
BRANCH  22  24
HETATM   24  C10 UNL     1     -14.320   7.086  12.920  1.00  0.00     0.260 C 
BRANCH  24  25
HETATM   25  O3  UNL     1     -15.160   7.001  14.072  1.00  0.00    -0.314 OA
BRANCH  25  26
HETATM   26  C9  UNL     1     -16.119   6.035  14.026  1.00  0.00     0.259 C 
HETATM   27  O2  UNL     1     -16.828   5.795  13.059  1.00  0.00    -0.265 OA
BRANCH  26  28
HETATM   28  C8  UNL     1     -16.127   5.287  15.328  1.00  0.00     0.120 C 
BRANCH  28  29
HETATM   29  C7  UNL     1     -16.791   3.920  15.207  1.00  0.00     0.112 C 
BRANCH  29  30
HETATM   30  C6  UNL     1     -15.790   2.905  14.698  1.00  0.00     0.218 C 
HETATM   31  N1  UNL     1     -16.370   1.806  14.099  1.00  0.00    -0.346 N 
HETATM   32  H11 UNL     1     -17.338   1.624  14.349  1.00  0.00     0.163 HD
HETATM   33  O1  UNL     1     -14.575   3.057  14.793  1.00  0.00    -0.274 OA
BRANCH  31  34
HETATM   34  C5  UNL     1     -15.554   0.617  13.802  1.00  0.00     0.186 C 
BRANCH  34  35
HETATM   35  C3  UNL     1     -15.777   0.142  12.347  1.00  0.00     0.014 C 
HETATM   36  C4  UNL     1     -15.367  -1.328  12.191  1.00  0.00     0.012 C 
BRANCH  35  37
HETATM   37  C2  UNL     1     -17.220   0.383  11.843  1.00  0.00     0.002 C 
HETATM   38  C1  UNL     1     -17.934  -0.896  11.425  1.00  0.00     0.005 C 
ENDBRANCH  35  37
ENDBRANCH  34  35
BRANCH  34  39
HETATM   39  C31 UNL     1     -15.836  -0.489  14.838  1.00  0.00     0.163 C 
HETATM   40  O8  UNL     1     -16.930  -0.924  15.158  1.00  0.00    -0.648 OA
BRANCH  39  41
HETATM   41  O9  UNL     1     -14.728  -0.938  15.474  1.00  0.00    -0.775 OA
HETATM   42  H43 UNL     1     -15.078  -1.634  16.072  1.00  0.00     0.167 HD
ENDBRANCH  39  41
ENDBRANCH  34  39
ENDBRANCH  31  34
ENDBRANCH  29  30
ENDBRANCH  28  29
ENDBRANCH  26  28
ENDBRANCH  25  26
ENDBRANCH  24  25
ENDBRANCH  22  24
ENDBRANCH   1  22
BRANCH   1  43
HETATM   43  O5  UNL     1     -11.653   9.775  12.920  1.00  0.00    -0.381 OA
HETATM   44  H18 UNL     1     -11.924   9.717  11.980  1.00  0.00     0.211 HD
ENDBRANCH   1  43
TORSDOF 13
ENDMDL
MODEL 4
REMARK minimizedAffinity -9.16104794
REMARK CNNscore 0.448621422
REMARK CNNaffinity 6.80537748
REMARK  13 active torsions:
REMARK  status: ('A' for Active; 'I' for Inactive)
REMARK    1  A    between atoms: C2_2  and  C3_3 
REMARK    2  A    between atoms: C3_3  and  C5_5 
REMARK    3  A    between atoms: C5_5  and  N1_6 
REMARK    4  A    between atoms: C5_5  and  C31_39 
REMARK       I    between atoms: N1_6  and  C6_7 
REMARK    5  A    between atoms: C6_7  and  C7_9 
REMARK    6  A    between atoms: C7_9  and  C8_10 
REMARK    7  A    between atoms: C8_10  and  C9_11 
REMARK    8  A    between atoms: C9_11  and  O3_13 
REMARK    9  A    between atoms: O3_13  and  C10_14 
REMARK   10  A    between atoms: C10_14  and  C11_15 
REMARK   11  A    between atoms: C11_15  and  C12_17 
REMARK   12  A    between atoms: C12_17  and  O5_18 
REMARK   13  A    between atoms: C31_39  and  O9_41 
ROOT
HETATM    1  C12 UNL     1      -1.238   7.252  12.976  1.00  0.00     0.128 C 
HETATM    2  C13 UNL     1      -0.998   5.810  12.469  1.00  0.00     0.047 C 
HETATM    3  C14 UNL     1      -2.350   5.080  12.590  1.00  0.00     0.009 C 
HETATM    4  C15 UNL     1      -3.344   6.163  12.998  1.00  0.00     0.002 C 
HETATM    5  C16 UNL     1      -4.661   5.722  13.650  1.00  0.00     0.003 C 
HETATM    6  C17 UNL     1      -5.453   4.790  12.722  1.00  0.00     0.010 C 
HETATM    7  C18 UNL     1      -6.781   4.377  13.345  1.00  0.00     0.035 C 
HETATM    8  C19 UNL     1      -7.602   5.577  13.764  1.00  0.00    -0.067 C 
HETATM    9  C20 UNL     1      -8.871   5.691  13.336  1.00  0.00     0.053 C 
HETATM   10  C21 UNL     1      -9.753   6.786  13.802  1.00  0.00     0.149 C 
HETATM   11  O6  UNL     1     -10.866   6.922  13.304  1.00  0.00    -0.293 OA
HETATM   12  C22 UNL     1      -9.256   7.638  14.936  1.00  0.00     0.084 C 
HETATM   13  C23 UNL     1      -7.767   7.908  14.754  1.00  0.00     0.022 C 
HETATM   14  C24 UNL     1      -6.895   6.620  14.655  1.00  0.00    -0.009 C 
HETATM   15  C25 UNL     1      -6.723   6.012  16.065  1.00  0.00     0.021 C 
HETATM   16  C26 UNL     1      -5.516   6.981  13.986  1.00  0.00     0.072 C 
HETATM   17  C27 UNL     1      -4.660   8.032  14.726  1.00  0.00     0.133 C 
HETATM   18  O7  UNL     1      -5.036   8.615  15.742  1.00  0.00    -0.297 OA
HETATM   19  C28 UNL     1      -3.323   8.396  14.092  1.00  0.00     0.091 C 
HETATM   20  C29 UNL     1      -2.499   7.122  13.880  1.00  0.00     0.005 C 
HETATM   21  C30 UNL     1      -2.148   6.519  15.260  1.00  0.00     0.019 C 
ENDROOT
BRANCH   1  22
HETATM   22  C11 UNL     1      -0.007   7.982  13.563  1.00  0.00     0.185 C 
HETATM   23  O4  UNL     1       0.113   9.202  13.360  1.00  0.00    -0.292 OA
BRANCH  22  24
HETATM   24  C10 UNL     1       1.044   7.188  14.339  1.00  0.00     0.260 C 
BRANCH  24  25
HETATM   25  O3  UNL     1       1.161   7.598  15.702  1.00  0.00    -0.314 OA
BRANCH  25  26
HETATM   26  C9  UNL     1       2.373   8.107  16.058  1.00  0.00     0.259 C 
HETATM   27  O2  UNL     1       2.577   8.818  17.031  1.00  0.00    -0.265 OA
BRANCH  26  28
HETATM   28  C8  UNL     1       3.415   7.615  15.095  1.00  0.00     0.120 C 
BRANCH  28  29
HETATM   29  C7  UNL     1       4.322   8.737  14.601  1.00  0.00     0.112 C 
BRANCH  29  30
HETATM   30  C6  UNL     1       4.422   8.690  13.091  1.00  0.00     0.218 C 
HETATM   31  N1  UNL     1       4.474   7.410  12.578  1.00  0.00    -0.346 N 
HETATM   32  H11 UNL     1       4.773   6.686  13.224  1.00  0.00     0.163 HD
HETATM   33  O1  UNL     1       4.435   9.697  12.389  1.00  0.00    -0.274 OA
BRANCH  31  34
HETATM   34  C5  UNL     1       4.844   7.200  11.168  1.00  0.00     0.186 C 
BRANCH  34  35
HETATM   35  C3  UNL     1       3.726   6.445  10.410  1.00  0.00     0.014 C 
HETATM   36  C4  UNL     1       2.577   6.088  11.360  1.00  0.00     0.012 C 
BRANCH  35  37
HETATM   37  C2  UNL     1       3.213   7.208   9.165  1.00  0.00     0.002 C 
HETATM   38  C1  UNL     1       2.636   6.294   8.093  1.00  0.00     0.005 C 
ENDBRANCH  35  37
ENDBRANCH  34  35
BRANCH  34  39
HETATM   39  C31 UNL     1       6.207   6.488  11.081  1.00  0.00     0.163 C 
HETATM   40  O8  UNL     1       7.307   7.008  11.172  1.00  0.00    -0.648 OA
BRANCH  39  41
HETATM   41  O9  UNL     1       6.116   5.165  10.807  1.00  0.00    -0.775 OA
HETATM   42  H43 UNL     1       7.053   4.870  10.803  1.00  0.00     0.167 HD
ENDBRANCH  39  41
ENDBRANCH  34  39
ENDBRANCH  31  34
ENDBRANCH  29  30
ENDBRANCH  28  29
ENDBRANCH  26  28
ENDBRANCH  25  26
ENDBRANCH  24  25
ENDBRANCH  22  24
ENDBRANCH   1  22
BRANCH   1  43
HETATM   43  O5  UNL     1      -1.600   8.022  11.805  1.00  0.00    -0.381 OA
HETATM   44  H18 UNL     1      -1.310   8.943  11.974  1.00  0.00     0.211 HD
ENDBRANCH   1  43
TORSDOF 13
ENDMDL
MODEL 5
REMARK minimizedAffinity -9.41160583
REMARK CNNscore 0.394353062
REMARK CNNaffinity 6.91634989
REMARK  13 active torsions:
REMARK  status: ('A' for Active; 'I' for Inactive)
REMARK    1  A    between atoms: C2_2  and  C3_3 
REMARK    2  A    between atoms: C3_3  and  C5_5 
REMARK    3  A    between atoms: C5_5  and  N1_6 
REMARK    4  A    between atoms: C5_5  and  C31_39 
REMARK       I    between atoms: N1_6  and  C6_7 
REMARK    5  A    between atoms: C6_7  and  C7_9 
REMARK    6  A    between atoms: C7_9  and  C8_10 
REMARK    7  A    between atoms: C8_10  and  C9_11 
REMARK    8  A    between atoms: C9_11  and  O3_13 
REMARK    9  A    between atoms: O3_13  and  C10_14 
REMARK   10  A    between atoms: C10_14  and  C11_15 
REMARK   11  A    between atoms: C11_15  and  C12_17 
REMARK   12  A    between atoms: C12_17  and  O5_18 
REMARK   13  A    between atoms: C31_39  and  O9_41 
ROOT
HETATM    1  C12 UNL     1      -2.420   7.229  13.486  1.00  0.00     0.128 C 
HETATM    2  C13 UNL     1      -2.350   5.868  12.753  1.00  0.00     0.047 C 
HETATM    3  C14 UNL     1      -3.794   5.332  12.700  1.00  0.00     0.009 C 
HETATM    4  C15 UNL     1      -4.653   6.469  13.246  1.00  0.00     0.002 C 
HETATM    5  C16 UNL     1      -6.055   6.124  13.766  1.00  0.00     0.003 C 
HETATM    6  C17 UNL     1      -6.909   5.478  12.666  1.00  0.00     0.010 C 
HETATM    7  C18 UNL     1      -8.317   5.168  13.161  1.00  0.00     0.035 C 
HETATM    8  C19 UNL     1      -8.990   6.392  13.744  1.00  0.00    -0.067 C 
HETATM    9  C20 UNL     1     -10.202   6.756  13.294  1.00  0.00     0.053 C 
HETATM   10  C21 UNL     1     -10.953   7.877  13.904  1.00  0.00     0.149 C 
HETATM   11  O6  UNL     1     -12.005   8.252  13.394  1.00  0.00    -0.293 OA
HETATM   12  C22 UNL     1     -10.413   8.456  15.182  1.00  0.00     0.084 C 
HETATM   13  C23 UNL     1      -8.893   8.533  15.103  1.00  0.00     0.022 C 
HETATM   14  C24 UNL     1      -8.201   7.164  14.823  1.00  0.00    -0.009 C 
HETATM   15  C25 UNL     1      -8.200   6.319  16.116  1.00  0.00     0.021 C 
HETATM   16  C26 UNL     1      -6.749   7.424  14.276  1.00  0.00     0.072 C 
HETATM   17  C27 UNL     1      -5.802   8.207  15.212  1.00  0.00     0.133 C 
HETATM   18  O7  UNL     1      -6.156   8.668  16.297  1.00  0.00    -0.297 OA
HETATM   19  C28 UNL     1      -4.393   8.470  14.698  1.00  0.00     0.091 C 
HETATM   20  C29 UNL     1      -3.739   7.141  14.307  1.00  0.00     0.005 C 
HETATM   21  C30 UNL     1      -3.559   6.280  15.579  1.00  0.00     0.019 C 
ENDROOT
BRANCH   1  22
HETATM   22  C11 UNL     1      -1.139   7.670  14.232  1.00  0.00     0.185 C 
HETATM   23  O4  UNL     1      -1.145   8.756  14.833  1.00  0.00    -0.292 OA
BRANCH  22  24
HETATM   24  C10 UNL     1       0.107   6.785  14.181  1.00  0.00     0.260 C 
BRANCH  24  25
HETATM   25  O3  UNL     1       1.171   7.268  15.002  1.00  0.00    -0.314 OA
BRANCH  25  26
HETATM   26  C9  UNL     1       2.126   7.993  14.355  1.00  0.00     0.259 C 
HETATM   27  O2  UNL     1       2.867   8.808  14.884  1.00  0.00    -0.265 OA
BRANCH  26  28
HETATM   28  C8  UNL     1       2.150   7.592  12.908  1.00  0.00     0.120 C 
BRANCH  28  29
HETATM   29  C7  UNL     1       1.822   6.116  12.710  1.00  0.00     0.112 C 
BRANCH  29  30
HETATM   30  C6  UNL     1       1.998   5.740  11.254  1.00  0.00     0.218 C 
HETATM   31  N1  UNL     1       3.311   5.767  10.830  1.00  0.00    -0.346 N 
HETATM   32  H11 UNL     1       3.946   6.330  11.388  1.00  0.00     0.163 HD
HETATM   33  O1  UNL     1       1.062   5.423  10.526  1.00  0.00    -0.274 OA
BRANCH  31  34
HETATM   34  C5  UNL     1       3.617   5.695   9.392  1.00  0.00     0.186 C 
BRANCH  34  35
HETATM   35  C3  UNL     1       2.593   6.509   8.566  1.00  0.00     0.014 C 
HETATM   36  C4  UNL     1       2.871   8.012   8.693  1.00  0.00     0.012 C 
BRANCH  35  37
HETATM   37  C2  UNL     1       2.521   6.071   7.084  1.00  0.00     0.002 C 
HETATM   38  C1  UNL     1       1.744   7.042   6.205  1.00  0.00     0.005 C 
ENDBRANCH  35  37
ENDBRANCH  34  35
BRANCH  34  39
HETATM   39  C31 UNL     1       3.706   4.223   8.945  1.00  0.00     0.163 C 
HETATM   40  O8  UNL     1       4.146   3.810   7.884  1.00  0.00    -0.648 OA
BRANCH  39  41
HETATM   41  O9  UNL     1       3.165   3.350   9.827  1.00  0.00    -0.775 OA
HETATM   42  H43 UNL     1       3.318   2.477   9.403  1.00  0.00     0.167 HD
ENDBRANCH  39  41
ENDBRANCH  34  39
ENDBRANCH  31  34
ENDBRANCH  29  30
ENDBRANCH  28  29
ENDBRANCH  26  28
ENDBRANCH  25  26
ENDBRANCH  24  25
ENDBRANCH  22  24
ENDBRANCH   1  22
BRANCH   1  43
HETATM   43  O5  UNL     1      -2.602   8.222  12.448  1.00  0.00    -0.381 OA
HETATM   44  H18 UNL     1      -2.199   9.051  12.778  1.00  0.00     0.211 HD
ENDBRANCH   1  43
TORSDOF 13
ENDMDL
MODEL 6
REMARK minimizedAffinity -8.43998814
REMARK CNNscore 0.380013674
REMARK CNNaffinity 6.92572021
REMARK  13 active torsions:
REMARK  status: ('A' for Active; 'I' for Inactive)
REMARK    1  A    between atoms: C2_2  and  C3_3 
REMARK    2  A    between atoms: C3_3  and  C5_5 
REMARK    3  A    between atoms: C5_5  and  N1_6 
REMARK    4  A    between atoms: C5_5  and  C31_39 
REMARK       I    between atoms: N1_6  and  C6_7 
REMARK    5  A    between atoms: C6_7  and  C7_9 
REMARK    6  A    between atoms: C7_9  and  C8_10 
REMARK    7  A    between atoms: C8_10  and  C9_11 
REMARK    8  A    between atoms: C9_11  and  O3_13 
REMARK    9  A    between atoms: O3_13  and  C10_14 
REMARK   10  A    between atoms: C10_14  and  C11_15 
REMARK   11  A    between atoms: C11_15  and  C12_17 
REMARK   12  A    between atoms: C12_17  and  O5_18 
REMARK   13  A    between atoms: C31_39  and  O9_41 
ROOT
HETATM    1  C12 UNL     1      -1.246   9.593  14.078  1.00  0.00     0.128 C 
HETATM    2  C13 UNL     1      -0.424   8.402  13.529  1.00  0.00     0.047 C 
HETATM    3  C14 UNL     1      -1.419   7.239  13.345  1.00  0.00     0.009 C 
HETATM    4  C15 UNL     1      -2.788   7.848  13.631  1.00  0.00     0.002 C 
HETATM    5  C16 UNL     1      -3.936   6.897  13.994  1.00  0.00     0.003 C 
HETATM    6  C17 UNL     1      -4.185   5.877  12.873  1.00  0.00     0.010 C 
HETATM    7  C18 UNL     1      -5.349   4.953  13.206  1.00  0.00     0.035 C 
HETATM    8  C19 UNL     1      -6.604   5.728  13.543  1.00  0.00    -0.067 C 
HETATM    9  C20 UNL     1      -7.747   5.450  12.893  1.00  0.00     0.053 C 
HETATM   10  C21 UNL     1      -9.027   6.100  13.259  1.00  0.00     0.149 C 
HETATM   11  O6  UNL     1     -10.024   5.906  12.571  1.00  0.00    -0.293 OA
HETATM   12  C22 UNL     1      -9.051   6.917  14.520  1.00  0.00     0.084 C 
HETATM   13  C23 UNL     1      -7.754   7.708  14.639  1.00  0.00     0.022 C 
HETATM   14  C24 UNL     1      -6.468   6.826  14.619  1.00  0.00    -0.009 C 
HETATM   15  C25 UNL     1      -6.301   6.137  15.992  1.00  0.00     0.021 C 
HETATM   16  C26 UNL     1      -5.232   7.726  14.247  1.00  0.00     0.072 C 
HETATM   17  C27 UNL     1      -4.939   8.903  15.203  1.00  0.00     0.133 C 
HETATM   18  O7  UNL     1      -5.650   9.183  16.168  1.00  0.00    -0.297 OA
HETATM   19  C28 UNL     1      -3.747   9.788  14.857  1.00  0.00     0.091 C 
HETATM   20  C29 UNL     1      -2.494   8.917  14.718  1.00  0.00     0.005 C 
HETATM   21  C30 UNL     1      -2.161   8.299  16.096  1.00  0.00     0.019 C 
ENDROOT
BRANCH   1  22
HETATM   22  C11 UNL     1      -0.469  10.621  14.933  1.00  0.00     0.185 C 
HETATM   23  O4  UNL     1      -0.812  11.814  14.884  1.00  0.00    -0.292 OA
BRANCH  22  24
HETATM   24  C10 UNL     1       0.717  10.158  15.781  1.00  0.00     0.260 C 
BRANCH  24  25
HETATM   25  O3  UNL     1       1.282   8.928  15.327  1.00  0.00    -0.314 OA
BRANCH  25  26
HETATM   26  C9  UNL     1       2.436   8.552  15.944  1.00  0.00     0.259 C 
HETATM   27  O2  UNL     1       2.690   8.729  17.127  1.00  0.00    -0.265 OA
BRANCH  26  28
HETATM   28  C8  UNL     1       3.318   7.848  14.953  1.00  0.00     0.120 C 
BRANCH  28  29
HETATM   29  C7  UNL     1       2.515   7.063  13.921  1.00  0.00     0.112 C 
BRANCH  29  30
HETATM   30  C6  UNL     1       3.122   7.250  12.547  1.00  0.00     0.218 C 
HETATM   31  N1  UNL     1       2.323   6.791  11.520  1.00  0.00    -0.346 N 
HETATM   32  H11 UNL     1       1.619   6.107  11.779  1.00  0.00     0.163 HD
HETATM   33  O1  UNL     1       4.216   7.780  12.364  1.00  0.00    -0.274 OA
BRANCH  31  34
HETATM   34  C5  UNL     1       2.880   6.652  10.164  1.00  0.00     0.186 C 
BRANCH  34  35
HETATM   35  C3  UNL     1       1.812   6.976   9.092  1.00  0.00     0.014 C 
HETATM   36  C4  UNL     1       0.675   7.807   9.698  1.00  0.00     0.012 C 
BRANCH  35  37
HETATM   37  C2  UNL     1       2.401   7.659   7.834  1.00  0.00     0.002 C 
HETATM   38  C1  UNL     1       1.730   7.219   6.540  1.00  0.00     0.005 C 
ENDBRANCH  35  37
ENDBRANCH  34  35
BRANCH  34  39
HETATM   39  C31 UNL     1       3.493   5.250   9.987  1.00  0.00     0.163 C 
HETATM   40  O8  UNL     1       4.608   4.992   9.564  1.00  0.00    -0.648 OA
BRANCH  39  41
HETATM   41  O9  UNL     1       2.642   4.239  10.282  1.00  0.00    -0.775 OA
HETATM   42  H43 UNL     1       3.187   3.435  10.134  1.00  0.00     0.167 HD
ENDBRANCH  39  41
ENDBRANCH  34  39
ENDBRANCH  31  34
ENDBRANCH  29  30
ENDBRANCH  28  29
ENDBRANCH  26  28
ENDBRANCH  25  26
ENDBRANCH  24  25
ENDBRANCH  22  24
ENDBRANCH   1  22
BRANCH   1  43
HETATM   43  O5  UNL     1      -1.683  10.335  12.915  1.00  0.00    -0.381 OA
HETATM   44  H18 UNL     1      -1.776  11.269  13.196  1.00  0.00     0.211 HD
ENDBRANCH   1  43
TORSDOF 13
ENDMDL
MODEL 7
REMARK minimizedAffinity -7.44608355
REMARK CNNscore 0.368953377
REMARK CNNaffinity 6.61770582
REMARK  13 active torsions:
REMARK  status: ('A' for Active; 'I' for Inactive)
REMARK    1  A    between atoms: C2_2  and  C3_3 
REMARK    2  A    between atoms: C3_3  and  C5_5 
REMARK    3  A    between atoms: C5_5  and  N1_6 
REMARK    4  A    between atoms: C5_5  and  C31_39 
REMARK       I    between atoms: N1_6  and  C6_7 
REMARK    5  A    between atoms: C6_7  and  C7_9 
REMARK    6  A    between atoms: C7_9  and  C8_10 
REMARK    7  A    between atoms: C8_10  and  C9_11 
REMARK    8  A    between atoms: C9_11  and  O3_13 
REMARK    9  A    between atoms: O3_13  and  C10_14 
REMARK   10  A    between atoms: C10_14  and  C11_15 
REMARK   11  A    between atoms: C11_15  and  C12_17 
REMARK   12  A    between atoms: C12_17  and  O5_18 
REMARK   13  A    between atoms: C31_39  and  O9_41 
ROOT
HETATM    1  C12 UNL     1     -12.106   8.706  13.745  1.00  0.00     0.128 C 
HETATM    2  C13 UNL     1     -12.209   9.219  15.201  1.00  0.00     0.047 C 
HETATM    3  C14 UNL     1     -10.937   8.731  15.922  1.00  0.00     0.009 C 
HETATM    4  C15 UNL     1     -10.081   8.109  14.823  1.00  0.00     0.002 C 
HETATM    5  C16 UNL     1      -8.980   7.125  15.241  1.00  0.00     0.003 C 
HETATM    6  C17 UNL     1      -7.976   7.790  16.194  1.00  0.00     0.010 C 
HETATM    7  C18 UNL     1      -6.856   6.833  16.584  1.00  0.00     0.035 C 
HETATM    8  C19 UNL     1      -6.169   6.247  15.369  1.00  0.00    -0.067 C 
HETATM    9  C20 UNL     1      -4.833   6.334  15.261  1.00  0.00     0.053 C 
HETATM   10  C21 UNL     1      -4.099   5.683  14.150  1.00  0.00     0.149 C 
HETATM   11  O6  UNL     1      -2.895   5.879  14.022  1.00  0.00    -0.293 OA
HETATM   12  C22 UNL     1      -4.872   4.742  13.270  1.00  0.00     0.084 C 
HETATM   13  C23 UNL     1      -6.262   5.312  13.011  1.00  0.00     0.022 C 
HETATM   14  C24 UNL     1      -7.082   5.599  14.306  1.00  0.00    -0.009 C 
HETATM   15  C25 UNL     1      -7.616   4.266  14.877  1.00  0.00     0.021 C 
HETATM   16  C26 UNL     1      -8.238   6.612  13.969  1.00  0.00     0.072 C 
HETATM   17  C27 UNL     1      -9.255   6.149  12.903  1.00  0.00     0.133 C 
HETATM   18  O7  UNL     1      -9.154   5.086  12.291  1.00  0.00    -0.297 OA
HETATM   19  C28 UNL     1     -10.380   7.118  12.562  1.00  0.00     0.091 C 
HETATM   20  C29 UNL     1     -11.124   7.503  13.845  1.00  0.00     0.005 C 
HETATM   21  C30 UNL     1     -11.822   6.245  14.413  1.00  0.00     0.019 C 
ENDROOT
BRANCH   1  22
HETATM   22  C11 UNL     1     -13.446   8.479  13.005  1.00  0.00     0.185 C 
HETATM   23  O4  UNL     1     -13.754   9.253  12.084  1.00  0.00    -0.292 OA
BRANCH  22  24
HETATM   24  C10 UNL     1     -14.370   7.343  13.446  1.00  0.00     0.260 C 
BRANCH  24  25
HETATM   25  O3  UNL     1     -15.719   7.520  13.014  1.00  0.00    -0.314 OA
BRANCH  25  26
HETATM   26  C9  UNL     1     -16.666   7.381  13.984  1.00  0.00     0.259 C 
HETATM   27  O2  UNL     1     -16.645   7.940  15.071  1.00  0.00    -0.265 OA
BRANCH  26  28
HETATM   28  C8  UNL     1     -17.753   6.475  13.483  1.00  0.00     0.120 C 
BRANCH  28  29
HETATM   29  C7  UNL     1     -17.233   5.439  12.491  1.00  0.00     0.112 C 
BRANCH  29  30
HETATM   30  C6  UNL     1     -17.555   4.045  12.986  1.00  0.00     0.218 C 
HETATM   31  N1  UNL     1     -16.799   3.654  14.071  1.00  0.00    -0.346 N 
HETATM   32  H11 UNL     1     -15.925   4.153  14.206  1.00  0.00     0.163 HD
HETATM   33  O1  UNL     1     -18.423   3.339  12.480  1.00  0.00    -0.274 OA
BRANCH  31  34
HETATM   34  C5  UNL     1     -16.800   2.243  14.494  1.00  0.00     0.186 C 
BRANCH  34  35
HETATM   35  C3  UNL     1     -17.391   2.091  15.916  1.00  0.00     0.014 C 
HETATM   36  C4  UNL     1     -17.287   3.414  16.686  1.00  0.00     0.012 C 
BRANCH  35  37
HETATM   37  C2  UNL     1     -18.839   1.548  15.917  1.00  0.00     0.002 C 
HETATM   38  C1  UNL     1     -19.310   1.090  17.292  1.00  0.00     0.005 C 
ENDBRANCH  35  37
ENDBRANCH  34  35
BRANCH  34  39
HETATM   39  C31 UNL     1     -15.380   1.656  14.374  1.00  0.00     0.163 C 
HETATM   40  O8  UNL     1     -14.367   2.093  14.895  1.00  0.00    -0.648 OA
BRANCH  39  41
HETATM   41  O9  UNL     1     -15.297   0.590  13.543  1.00  0.00    -0.775 OA
HETATM   42  H43 UNL     1     -14.349   0.337  13.595  1.00  0.00     0.167 HD
ENDBRANCH  39  41
ENDBRANCH  34  39
ENDBRANCH  31  34
ENDBRANCH  29  30
ENDBRANCH  28  29
ENDBRANCH  26  28
ENDBRANCH  25  26
ENDBRANCH  24  25
ENDBRANCH  22  24
ENDBRANCH   1  22
BRANCH   1  43
HETATM   43  O5  UNL     1     -11.450   9.763  13.005  1.00  0.00    -0.381 OA
HETATM   44  H18 UNL     1     -11.772   9.700  12.082  1.00  0.00     0.211 HD
ENDBRANCH   1  43
TORSDOF 13
ENDMDL
MODEL 8
REMARK minimizedAffinity -7.33114767
REMARK CNNscore 0.351495147
REMARK CNNaffinity 6.35651588
REMARK  13 active torsions:
REMARK  status: ('A' for Active; 'I' for Inactive)
REMARK    1  A    between atoms: C2_2  and  C3_3 
REMARK    2  A    between atoms: C3_3  and  C5_5 
REMARK    3  A    between atoms: C5_5  and  N1_6 
REMARK    4  A    between atoms: C5_5  and  C31_39 
REMARK       I    between atoms: N1_6  and  C6_7 
REMARK    5  A    between atoms: C6_7  and  C7_9 
REMARK    6  A    between atoms: C7_9  and  C8_10 
REMARK    7  A    between atoms: C8_10  and  C9_11 
REMARK    8  A    between atoms: C9_11  and  O3_13 
REMARK    9  A    between atoms: O3_13  and  C10_14 
REMARK   10  A    between atoms: C10_14  and  C11_15 
REMARK   11  A    between atoms: C11_15  and  C12_17 
REMARK   12  A    between atoms: C12_17  and  O5_18 
REMARK   13  A    between atoms: C31_39  and  O9_41 
ROOT
HETATM    1  C12 UNL     1      -2.441  11.014  18.100  1.00  0.00     0.128 C 
HETATM    2  C13 UNL     1      -3.711  11.815  17.724  1.00  0.00     0.047 C 
HETATM    3  C14 UNL     1      -4.311  11.117  16.488  1.00  0.00     0.009 C 
HETATM    4  C15 UNL     1      -3.470   9.857  16.304  1.00  0.00     0.002 C 
HETATM    5  C16 UNL     1      -3.481   9.180  14.927  1.00  0.00     0.003 C 
HETATM    6  C17 UNL     1      -4.905   8.765  14.527  1.00  0.00     0.010 C 
HETATM    7  C18 UNL     1      -4.922   8.056  13.178  1.00  0.00     0.035 C 
HETATM    8  C19 UNL     1      -3.969   6.881  13.149  1.00  0.00    -0.067 C 
HETATM    9  C20 UNL     1      -4.422   5.673  12.773  1.00  0.00     0.053 C 
HETATM   10  C21 UNL     1      -3.511   4.514  12.621  1.00  0.00     0.149 C 
HETATM   11  O6  UNL     1      -3.977   3.403  12.387  1.00  0.00    -0.293 OA
HETATM   12  C22 UNL     1      -2.034   4.783  12.688  1.00  0.00     0.084 C 
HETATM   13  C23 UNL     1      -1.754   5.813  13.776  1.00  0.00     0.022 C 
HETATM   14  C24 UNL     1      -2.516   7.160  13.588  1.00  0.00    -0.009 C 
HETATM   15  C25 UNL     1      -1.827   7.985  12.478  1.00  0.00     0.021 C 
HETATM   16  C26 UNL     1      -2.558   7.924  14.963  1.00  0.00     0.072 C 
HETATM   17  C27 UNL     1      -1.189   8.281  15.582  1.00  0.00     0.133 C 
HETATM   18  O7  UNL     1      -0.115   7.943  15.084  1.00  0.00    -0.297 OA
HETATM   19  C28 UNL     1      -1.210   9.019  16.914  1.00  0.00     0.091 C 
HETATM   20  C29 UNL     1      -2.055  10.289  16.777  1.00  0.00     0.005 C 
HETATM   21  C30 UNL     1      -1.356  11.249  15.787  1.00  0.00     0.019 C 
ENDROOT
BRANCH   1  22
HETATM   22  C11 UNL     1      -1.332  11.801  18.837  1.00  0.00     0.185 C 
HETATM   23  O4  UNL     1      -1.413  13.039  18.883  1.00  0.00    -0.292 OA
BRANCH  22  24
HETATM   24  C10 UNL     1      -0.151  11.047  19.451  1.00  0.00     0.260 C 
BRANCH  24  25
HETATM   25  O3  UNL     1       1.115  11.516  18.987  1.00  0.00    -0.314 OA
BRANCH  25  26
HETATM   26  C9  UNL     1       2.151  10.645  19.136  1.00  0.00     0.259 C 
HETATM   27  O2  UNL     1       2.262   9.578  18.550  1.00  0.00    -0.265 OA
BRANCH  26  28
HETATM   28  C8  UNL     1       3.150  11.229  20.094  1.00  0.00     0.120 C 
BRANCH  28  29
HETATM   29  C7  UNL     1       3.385  10.332  21.304  1.00  0.00     0.112 C 
BRANCH  29  30
HETATM   30  C6  UNL     1       4.579  10.831  22.090  1.00  0.00     0.218 C 
HETATM   31  N1  UNL     1       5.296  11.816  21.444  1.00  0.00    -0.346 N 
HETATM   32  H11 UNL     1       5.176  11.863  20.437  1.00  0.00     0.163 HD
HETATM   33  O1  UNL     1       4.869  10.409  23.207  1.00  0.00    -0.274 OA
BRANCH  31  34
HETATM   34  C5  UNL     1       6.624  12.206  21.947  1.00  0.00     0.186 C 
BRANCH  34  35
HETATM   35  C3  UNL     1       6.504  13.312  23.022  1.00  0.00     0.014 C 
HETATM   36  C4  UNL     1       7.878  13.925  23.319  1.00  0.00     0.012 C 
BRANCH  35  37
HETATM   37  C2  UNL     1       5.466  14.401  22.661  1.00  0.00     0.002 C 
HETATM   38  C1  UNL     1       6.069  15.795  22.548  1.00  0.00     0.005 C 
ENDBRANCH  35  37
ENDBRANCH  34  35
BRANCH  34  39
HETATM   39  C31 UNL     1       7.534  12.613  20.773  1.00  0.00     0.163 C 
HETATM   40  O8  UNL     1       7.282  13.438  19.910  1.00  0.00    -0.648 OA
BRANCH  39  41
HETATM   41  O9  UNL     1       8.687  11.906  20.704  1.00  0.00    -0.775 OA
HETATM   42  H43 UNL     1       9.144  12.296  19.927  1.00  0.00     0.167 HD
ENDBRANCH  39  41
ENDBRANCH  34  39
ENDBRANCH  31  34
ENDBRANCH  29  30
ENDBRANCH  28  29
ENDBRANCH  26  28
ENDBRANCH  25  26
ENDBRANCH  24  25
ENDBRANCH  22  24
ENDBRANCH   1  22
BRANCH   1  43
HETATM   43  O5  UNL     1      -2.878  10.014  19.050  1.00  0.00    -0.381 OA
HETATM   44  H18 UNL     1      -2.112   9.824  19.630  1.00  0.00     0.211 HD
ENDBRANCH   1  43
TORSDOF 13
ENDMDL
MODEL 9
REMARK minimizedAffinity -8.20510578
REMARK CNNscore 0.34906882
REMARK CNNaffinity 6.999228
REMARK  13 active torsions:
REMARK  status: ('A' for Active; 'I' for Inactive)
REMARK    1  A    between atoms: C2_2  and  C3_3 
REMARK    2  A    between atoms: C3_3  and  C5_5 
REMARK    3  A    between atoms: C5_5  and  N1_6 
REMARK    4  A    between atoms: C5_5  and  C31_39 
REMARK       I    between atoms: N1_6  and  C6_7 
REMARK    5  A    between atoms: C6_7  and  C7_9 
REMARK    6  A    between atoms: C7_9  and  C8_10 
REMARK    7  A    between atoms: C8_10  and  C9_11 
REMARK    8  A    between atoms: C9_11  and  O3_13 
REMARK    9  A    between atoms: O3_13  and  C10_14 
REMARK   10  A    between atoms: C10_14  and  C11_15 
REMARK   11  A    between atoms: C11_15  and  C12_17 
REMARK   12  A    between atoms: C12_17  and  O5_18 
REMARK   13  A    between atoms: C31_39  and  O9_41 
ROOT
HETATM    1  C12 UNL     1      -6.374   6.708  14.239  1.00  0.00     0.128 C 
HETATM    2  C13 UNL     1      -6.398   8.178  14.719  1.00  0.00     0.047 C 
HETATM    3  C14 UNL     1      -5.030   8.778  14.340  1.00  0.00     0.009 C 
HETATM    4  C15 UNL     1      -4.343   7.694  13.515  1.00  0.00     0.002 C 
HETATM    5  C16 UNL     1      -2.817   7.758  13.371  1.00  0.00     0.003 C 
HETATM    6  C17 UNL     1      -2.378   9.081  12.727  1.00  0.00     0.010 C 
HETATM    7  C18 UNL     1      -0.866   9.138  12.542  1.00  0.00     0.035 C 
HETATM    8  C19 UNL     1      -0.348   7.943  11.772  1.00  0.00    -0.067 C 
HETATM    9  C20 UNL     1       0.420   8.139  10.687  1.00  0.00     0.053 C 
HETATM   10  C21 UNL     1       1.043   7.008   9.962  1.00  0.00     0.149 C 
HETATM   11  O6  UNL     1       1.643   7.218   8.912  1.00  0.00    -0.293 OA
HETATM   12  C22 UNL     1       0.970   5.651  10.604  1.00  0.00     0.084 C 
HETATM   13  C23 UNL     1      -0.402   5.462  11.239  1.00  0.00     0.022 C 
HETATM   14  C24 UNL     1      -0.771   6.552  12.291  1.00  0.00    -0.009 C 
HETATM   15  C25 UNL     1      -0.005   6.274  13.604  1.00  0.00     0.021 C 
HETATM   16  C26 UNL     1      -2.331   6.561  12.498  1.00  0.00     0.072 C 
HETATM   17  C27 UNL     1      -2.955   5.241  13.001  1.00  0.00     0.133 C 
HETATM   18  O7  UNL     1      -2.305   4.210  13.175  1.00  0.00    -0.297 OA
HETATM   19  C28 UNL     1      -4.465   5.229  13.205  1.00  0.00     0.091 C 
HETATM   20  C29 UNL     1      -4.857   6.372  14.148  1.00  0.00     0.005 C 
HETATM   21  C30 UNL     1      -4.252   6.097  15.544  1.00  0.00     0.019 C 
ENDROOT
BRANCH   1  22
HETATM   22  C11 UNL     1      -7.282   5.723  15.013  1.00  0.00     0.185 C 
HETATM   23  O4  UNL     1      -7.257   4.521  14.699  1.00  0.00    -0.292 OA
BRANCH  22  24
HETATM   24  C10 UNL     1      -8.209   6.250  16.108  1.00  0.00     0.260 C 
BRANCH  24  25
HETATM   25  O3  UNL     1      -9.486   6.656  15.614  1.00  0.00    -0.314 OA
BRANCH  25  26
HETATM   26  C9  UNL     1      -9.817   7.956  15.848  1.00  0.00     0.259 C 
HETATM   27  O2  UNL     1      -9.759   8.510  16.936  1.00  0.00    -0.265 OA
BRANCH  26  28
HETATM   28  C8  UNL     1     -10.216   8.603  14.553  1.00  0.00     0.120 C 
BRANCH  28  29
HETATM   29  C7  UNL     1     -11.034   7.669  13.667  1.00  0.00     0.112 C 
BRANCH  29  30
HETATM   30  C6  UNL     1     -12.051   8.467  12.880  1.00  0.00     0.218 C 
HETATM   31  N1  UNL     1     -13.319   8.439  13.423  1.00  0.00    -0.346 N 
HETATM   32  H11 UNL     1     -13.516   7.664  14.049  1.00  0.00     0.163 HD
HETATM   33  O1  UNL     1     -11.769   9.096  11.863  1.00  0.00    -0.274 OA
BRANCH  31  34
HETATM   34  C5  UNL     1     -14.464   8.932  12.639  1.00  0.00     0.186 C 
BRANCH  34  35
HETATM   35  C3  UNL     1     -15.269   9.985  13.437  1.00  0.00     0.014 C 
HETATM   36  C4  UNL     1     -15.707  11.135  12.522  1.00  0.00     0.012 C 
BRANCH  35  37
HETATM   37  C2  UNL     1     -16.471   9.380  14.200  1.00  0.00     0.002 C 
HETATM   38  C1  UNL     1     -17.461  10.428  14.693  1.00  0.00     0.005 C 
ENDBRANCH  35  37
ENDBRANCH  34  35
BRANCH  34  39
HETATM   39  C31 UNL     1     -15.332   7.748  12.173  1.00  0.00     0.163 C 
HETATM   40  O8  UNL     1     -15.405   6.648  12.697  1.00  0.00    -0.648 OA
BRANCH  39  41
HETATM   41  O9  UNL     1     -16.010   7.985  11.024  1.00  0.00    -0.775 OA
HETATM   42  H43 UNL     1     -16.513   7.153  10.884  1.00  0.00     0.167 HD
ENDBRANCH  39  41
ENDBRANCH  34  39
ENDBRANCH  31  34
ENDBRANCH  29  30
ENDBRANCH  28  29
ENDBRANCH  26  28
ENDBRANCH  25  26
ENDBRANCH  24  25
ENDBRANCH  22  24
ENDBRANCH   1  22
BRANCH   1  43
HETATM   43  O5  UNL     1      -6.913   6.728  12.895  1.00  0.00    -0.381 OA
HETATM   44  H18 UNL     1      -7.335   5.856  12.749  1.00  0.00     0.211 HD
ENDBRANCH   1  43
TORSDOF 13
ENDMDL
