MODEL 1
REMARK minimizedAffinity -8.36033726
REMARK CNNscore 0.860113025
REMARK CNNaffinity 6.54649115
REMARK  10 active torsions:
REMARK  status: ('A' for Active; 'I' for Inactive)
REMARK    1  A    between atoms: C2_2  and  C3_3 
REMARK    2  A    between atoms: C2_2  and  C4_6 
REMARK    3  A    between atoms: C3_3  and  O2_5 
REMARK    4  A    between atoms: C4_6  and  C5_8 
REMARK    5  A    between atoms: C5_8  and  O4_9 
REMARK    6  A    between atoms: C5_8  and  C6_10 
REMARK    7  A    between atoms: C6_10  and  C7_11 
REMARK    8  A    between atoms: C7_11  and  C9_13 
REMARK    9  A    between atoms: C11_15  and  O5_16 
REMARK   10  A    between atoms: C30_37  and  O8_38 
ROOT
HETATM    1  C9  UNL     1      -3.113  49.419 -22.415  1.00  0.00     0.001 C 
HETATM    2  C10 UNL     1      -3.686  47.974 -22.299  1.00  0.00     0.038 C 
HETATM    3  C11 UNL     1      -3.608  47.561 -20.818  1.00  0.00     0.132 C 
HETATM    4  C12 UNL     1      -3.368  48.886 -20.052  1.00  0.00     0.017 C 
HETATM    5  C13 UNL     1      -4.737  49.618 -19.860  1.00  0.00     0.023 C 
HETATM    6  C14 UNL     1      -2.706  48.825 -18.670  1.00  0.00    -0.029 C 
HETATM    7  C15 UNL     1      -1.979  49.873 -18.207  1.00  0.00     0.002 C 
HETATM    8  C16 UNL     1      -1.987  51.134 -19.047  1.00  0.00     0.157 C 
HETATM    9  O6  UNL     1      -1.859  52.234 -18.508  1.00  0.00    -0.293 OA
HETATM   10  C17 UNL     1      -2.190  51.048 -20.561  1.00  0.00     0.094 C 
HETATM   11  C18 UNL     1      -2.373  49.606 -21.050  1.00  0.00    -0.019 C 
HETATM   12  C19 UNL     1      -0.966  48.931 -21.134  1.00  0.00     0.017 C 
HETATM   13  C20 UNL     1      -1.182  49.869 -16.882  1.00  0.00    -0.008 C 
HETATM   14  C21 UNL     1       0.237  50.435 -17.162  1.00  0.00     0.021 C 
HETATM   15  C22 UNL     1      -1.905  50.781 -15.852  1.00  0.00     0.022 C 
HETATM   16  C23 UNL     1      -1.733  50.396 -14.385  1.00  0.00     0.080 C 
HETATM   17  C24 UNL     1      -0.475  49.604 -14.148  1.00  0.00     0.135 C 
HETATM   18  O7  UNL     1       0.357  49.970 -13.318  1.00  0.00    -0.297 OA
HETATM   19  C25 UNL     1      -0.338  48.285 -14.913  1.00  0.00     0.018 C 
HETATM   20  C26 UNL     1       1.162  47.940 -15.082  1.00  0.00     0.023 C 
HETATM   21  C27 UNL     1      -0.928  47.192 -13.996  1.00  0.00     0.023 C 
HETATM   22  C28 UNL     1      -1.030  48.393 -16.329  1.00  0.00     0.016 C 
HETATM   23  C29 UNL     1      -2.396  47.686 -16.414  1.00  0.00     0.043 C 
HETATM   24  C30 UNL     1      -2.866  47.563 -17.863  1.00  0.00     0.149 C 
ENDROOT
BRANCH   1  25
HETATM   25  C7  UNL     1      -2.361  49.639 -23.768  1.00  0.00    -0.011 C 
HETATM   26  C8  UNL     1      -1.540  50.927 -23.763  1.00  0.00     0.010 C 
BRANCH  25  27
HETATM   27  C6  UNL     1      -3.385  49.645 -24.945  1.00  0.00     0.044 C 
BRANCH  27  28
HETATM   28  C5  UNL     1      -2.964  50.327 -26.263  1.00  0.00     0.188 C 
BRANCH  28  29
HETATM   29  C4  UNL     1      -3.547  49.666 -27.534  1.00  0.00     0.169 C 
HETATM   30  O3  UNL     1      -3.432  50.195 -28.648  1.00  0.00    -0.294 OA
BRANCH  29  31
HETATM   31  C2  UNL     1      -4.294  48.347 -27.409  1.00  0.00     0.152 C 
HETATM   32  C1  UNL     1      -5.118  48.310 -26.120  1.00  0.00     0.029 C 
BRANCH  31  33
HETATM   33  C3  UNL     1      -5.137  47.965 -28.593  1.00  0.00     0.150 C 
HETATM   34  O1  UNL     1      -6.326  47.678 -28.568  1.00  0.00    -0.649 OA
BRANCH  33  35
HETATM   35  O2  UNL     1      -4.463  47.857 -29.753  1.00  0.00    -0.776 OA
HETATM   36  H5  UNL     1      -5.136  47.503 -30.376  1.00  0.00     0.167 HD
ENDBRANCH  33  35
ENDBRANCH  31  33
ENDBRANCH  29  31
ENDBRANCH  28  29
BRANCH  28  37
HETATM   37  O4  UNL     1      -3.198  51.720 -26.168  1.00  0.00    -0.388 OA
HETATM   38  H7  UNL     1      -2.330  52.165 -26.176  1.00  0.00     0.210 HD
ENDBRANCH  28  37
ENDBRANCH  27  28
ENDBRANCH  25  27
ENDBRANCH   1  25
BRANCH   3  39
HETATM   39  O5  UNL     1      -4.798  46.880 -20.456  1.00  0.00    -0.394 OA
HETATM   40  H18 UNL     1      -4.769  46.765 -19.479  1.00  0.00     0.210 HD
ENDBRANCH   3  39
BRANCH  24  41
HETATM   41  O8  UNL     1      -4.233  47.169 -17.850  1.00  0.00    -0.391 OA
HETATM   42  H44 UNL     1      -4.727  47.856 -17.366  1.00  0.00     0.210 HD
ENDBRANCH  24  41
TORSDOF 10
ENDMDL
MODEL 2
REMARK minimizedAffinity -7.94979668
REMARK CNNscore 0.680107117
REMARK CNNaffinity 6.73140335
REMARK  10 active torsions:
REMARK  status: ('A' for Active; 'I' for Inactive)
REMARK    1  A    between atoms: C2_2  and  C3_3 
REMARK    2  A    between atoms: C2_2  and  C4_6 
REMARK    3  A    between atoms: C3_3  and  O2_5 
REMARK    4  A    between atoms: C4_6  and  C5_8 
REMARK    5  A    between atoms: C5_8  and  O4_9 
REMARK    6  A    between atoms: C5_8  and  C6_10 
REMARK    7  A    between atoms: C6_10  and  C7_11 
REMARK    8  A    between atoms: C7_11  and  C9_13 
REMARK    9  A    between atoms: C11_15  and  O5_16 
REMARK   10  A    between atoms: C30_37  and  O8_38 
ROOT
HETATM    1  C9  UNL     1      -3.782  47.104 -19.717  1.00  0.00     0.001 C 
HETATM    2  C10 UNL     1      -2.741  47.788 -18.780  1.00  0.00     0.038 C 
HETATM    3  C11 UNL     1      -2.154  48.993 -19.539  1.00  0.00     0.132 C 
HETATM    4  C12 UNL     1      -3.125  49.223 -20.724  1.00  0.00     0.017 C 
HETATM    5  C13 UNL     1      -4.360  50.040 -20.217  1.00  0.00     0.023 C 
HETATM    6  C14 UNL     1      -2.603  49.945 -21.971  1.00  0.00    -0.029 C 
HETATM    7  C15 UNL     1      -3.151  49.702 -23.189  1.00  0.00     0.002 C 
HETATM    8  C16 UNL     1      -4.378  48.814 -23.220  1.00  0.00     0.157 C 
HETATM    9  O6  UNL     1      -5.229  48.970 -24.097  1.00  0.00    -0.293 OA
HETATM   10  C17 UNL     1      -4.582  47.746 -22.144  1.00  0.00     0.094 C 
HETATM   11  C18 UNL     1      -3.446  47.723 -21.113  1.00  0.00    -0.019 C 
HETATM   12  C19 UNL     1      -2.232  46.960 -21.734  1.00  0.00     0.017 C 
HETATM   13  C20 UNL     1      -2.626  50.290 -24.519  1.00  0.00    -0.008 C 
HETATM   14  C21 UNL     1      -2.532  49.141 -25.559  1.00  0.00     0.021 C 
HETATM   15  C22 UNL     1      -3.627  51.365 -25.029  1.00  0.00     0.022 C 
HETATM   16  C23 UNL     1      -3.025  52.497 -25.855  1.00  0.00     0.080 C 
HETATM   17  C24 UNL     1      -1.733  52.096 -26.516  1.00  0.00     0.135 C 
HETATM   18  O7  UNL     1      -1.583  52.205 -27.733  1.00  0.00    -0.297 OA
HETATM   19  C25 UNL     1      -0.599  51.646 -25.591  1.00  0.00     0.018 C 
HETATM   20  C26 UNL     1       0.353  50.702 -26.365  1.00  0.00     0.023 C 
HETATM   21  C27 UNL     1       0.223  52.913 -25.270  1.00  0.00     0.023 C 
HETATM   22  C28 UNL     1      -1.180  50.906 -24.323  1.00  0.00     0.016 C 
HETATM   23  C29 UNL     1      -1.171  51.759 -23.040  1.00  0.00     0.043 C 
HETATM   24  C30 UNL     1      -1.454  50.905 -21.805  1.00  0.00     0.149 C 
ENDROOT
BRANCH   1  25
HETATM   25  C7  UNL     1      -3.812  45.553 -19.517  1.00  0.00    -0.011 C 
HETATM   26  C8  UNL     1      -5.188  44.965 -19.822  1.00  0.00     0.010 C 
BRANCH  25  27
HETATM   27  C6  UNL     1      -3.376  45.202 -18.062  1.00  0.00     0.044 C 
BRANCH  27  28
HETATM   28  C5  UNL     1      -4.261  44.227 -17.259  1.00  0.00     0.188 C 
BRANCH  28  29
HETATM   29  C4  UNL     1      -3.640  42.825 -17.056  1.00  0.00     0.169 C 
HETATM   30  O3  UNL     1      -4.344  41.836 -16.808  1.00  0.00    -0.294 OA
BRANCH  29  31
HETATM   31  C2  UNL     1      -2.131  42.662 -17.144  1.00  0.00     0.152 C 
HETATM   32  C1  UNL     1      -1.498  42.700 -15.751  1.00  0.00     0.029 C 
BRANCH  31  33
HETATM   33  C3  UNL     1      -1.652  41.464 -17.915  1.00  0.00     0.150 C 
HETATM   34  O1  UNL     1      -0.612  40.850 -17.720  1.00  0.00    -0.649 OA
BRANCH  33  35
HETATM   35  O2  UNL     1      -2.425  41.123 -18.963  1.00  0.00    -0.776 OA
HETATM   36  H5  UNL     1      -1.913  40.407 -19.401  1.00  0.00     0.167 HD
ENDBRANCH  33  35
ENDBRANCH  31  33
ENDBRANCH  29  31
ENDBRANCH  28  29
BRANCH  28  37
HETATM   37  O4  UNL     1      -4.690  44.856 -16.066  1.00  0.00    -0.388 OA
HETATM   38  H7  UNL     1      -5.655  44.983 -16.130  1.00  0.00     0.210 HD
ENDBRANCH  28  37
ENDBRANCH  27  28
ENDBRANCH  25  27
ENDBRANCH   1  25
BRANCH   3  39
HETATM   39  O5  UNL     1      -2.034  50.094 -18.654  1.00  0.00    -0.394 OA
HETATM   40  H18 UNL     1      -1.797  50.873 -19.206  1.00  0.00     0.210 HD
ENDBRANCH   3  39
BRANCH  24  41
HETATM   41  O8  UNL     1      -1.712  51.781 -20.714  1.00  0.00    -0.391 OA
HETATM   42  H44 UNL     1      -2.479  52.329 -20.958  1.00  0.00     0.210 HD
ENDBRANCH  24  41
TORSDOF 10
ENDMDL
MODEL 3
REMARK minimizedAffinity -7.76315165
REMARK CNNscore 0.580566823
REMARK CNNaffinity 6.23507309
REMARK  10 active torsions:
REMARK  status: ('A' for Active; 'I' for Inactive)
REMARK    1  A    between atoms: C2_2  and  C3_3 
REMARK    2  A    between atoms: C2_2  and  C4_6 
REMARK    3  A    between atoms: C3_3  and  O2_5 
REMARK    4  A    between atoms: C4_6  and  C5_8 
REMARK    5  A    between atoms: C5_8  and  O4_9 
REMARK    6  A    between atoms: C5_8  and  C6_10 
REMARK    7  A    between atoms: C6_10  and  C7_11 
REMARK    8  A    between atoms: C7_11  and  C9_13 
REMARK    9  A    between atoms: C11_15  and  O5_16 
REMARK   10  A    between atoms: C30_37  and  O8_38 
ROOT
HETATM    1  C9  UNL     1       3.983  55.014  -9.347  1.00  0.00     0.001 C 
HETATM    2  C10 UNL     1       5.477  55.109  -9.783  1.00  0.00     0.038 C 
HETATM    3  C11 UNL     1       6.266  55.717  -8.609  1.00  0.00     0.132 C 
HETATM    4  C12 UNL     1       5.313  55.601  -7.393  1.00  0.00     0.017 C 
HETATM    5  C13 UNL     1       5.405  54.152  -6.810  1.00  0.00     0.023 C 
HETATM    6  C14 UNL     1       5.508  56.562  -6.213  1.00  0.00    -0.029 C 
HETATM    7  C15 UNL     1       4.459  56.907  -5.425  1.00  0.00     0.002 C 
HETATM    8  C16 UNL     1       3.149  56.188  -5.677  1.00  0.00     0.157 C 
HETATM    9  O6  UNL     1       2.360  56.003  -4.749  1.00  0.00    -0.293 OA
HETATM   10  C17 UNL     1       2.819  55.657  -7.073  1.00  0.00     0.094 C 
HETATM   11  C18 UNL     1       3.933  55.941  -8.089  1.00  0.00    -0.019 C 
HETATM   12  C19 UNL     1       3.810  57.428  -8.553  1.00  0.00     0.017 C 
HETATM   13  C20 UNL     1       4.525  57.949  -4.284  1.00  0.00    -0.008 C 
HETATM   14  C21 UNL     1       3.311  58.906  -4.424  1.00  0.00     0.021 C 
HETATM   15  C22 UNL     1       4.446  57.213  -2.918  1.00  0.00     0.022 C 
HETATM   16  C23 UNL     1       5.161  57.890  -1.753  1.00  0.00     0.080 C 
HETATM   17  C24 UNL     1       5.309  59.374  -1.961  1.00  0.00     0.135 C 
HETATM   18  O7  UNL     1       4.893  60.175  -1.123  1.00  0.00    -0.297 OA
HETATM   19  C25 UNL     1       6.083  59.821  -3.203  1.00  0.00     0.018 C 
HETATM   20  C26 UNL     1       5.617  61.238  -3.618  1.00  0.00     0.023 C 
HETATM   21  C27 UNL     1       7.556  59.965  -2.764  1.00  0.00     0.023 C 
HETATM   22  C28 UNL     1       5.852  58.808  -4.393  1.00  0.00     0.016 C 
HETATM   23  C29 UNL     1       7.040  57.859  -4.647  1.00  0.00     0.043 C 
HETATM   24  C30 UNL     1       6.885  57.124  -5.978  1.00  0.00     0.149 C 
ENDROOT
BRANCH   1  25
HETATM   25  C7  UNL     1       3.012  55.246 -10.551  1.00  0.00    -0.011 C 
HETATM   26  C8  UNL     1       3.302  56.560 -11.273  1.00  0.00     0.010 C 
BRANCH  25  27
HETATM   27  C6  UNL     1       1.535  55.209 -10.051  1.00  0.00     0.044 C 
BRANCH  27  28
HETATM   28  C5  UNL     1       0.608  54.116 -10.622  1.00  0.00     0.188 C 
BRANCH  28  29
HETATM   29  C4  UNL     1      -0.899  54.457 -10.541  1.00  0.00     0.169 C 
HETATM   30  O3  UNL     1      -1.291  55.625 -10.410  1.00  0.00    -0.294 OA
BRANCH  29  31
HETATM   31  C2  UNL     1      -1.919  53.331 -10.603  1.00  0.00     0.152 C 
HETATM   32  C1  UNL     1      -3.330  53.860 -10.340  1.00  0.00     0.029 C 
BRANCH  31  33
HETATM   33  C3  UNL     1      -1.887  52.496 -11.853  1.00  0.00     0.150 C 
HETATM   34  O1  UNL     1      -1.133  51.558 -12.074  1.00  0.00    -0.649 OA
BRANCH  33  35
HETATM   35  O2  UNL     1      -2.722  52.906 -12.826  1.00  0.00    -0.776 OA
HETATM   36  H5  UNL     1      -2.492  52.324 -13.585  1.00  0.00     0.167 HD
ENDBRANCH  33  35
ENDBRANCH  31  33
ENDBRANCH  29  31
ENDBRANCH  28  29
BRANCH  28  37
HETATM   37  O4  UNL     1       1.056  53.748 -11.913  1.00  0.00    -0.388 OA
HETATM   38  H7  UNL     1       1.376  52.828 -11.863  1.00  0.00     0.210 HD
ENDBRANCH  28  37
ENDBRANCH  27  28
ENDBRANCH  25  27
ENDBRANCH   1  25
BRANCH   3  39
HETATM   39  O5  UNL     1       7.496  55.028  -8.459  1.00  0.00    -0.394 OA
HETATM   40  H18 UNL     1       7.896  55.347  -7.619  1.00  0.00     0.210 HD
ENDBRANCH   3  39
BRANCH  24  41
HETATM   41  O8  UNL     1       7.847  56.076  -6.016  1.00  0.00    -0.391 OA
HETATM   42  H44 UNL     1       7.668  55.492  -5.257  1.00  0.00     0.210 HD
ENDBRANCH  24  41
TORSDOF 10
ENDMDL
MODEL 4
REMARK minimizedAffinity -8.64881039
REMARK CNNscore 0.552276313
REMARK CNNaffinity 6.77989149
REMARK  10 active torsions:
REMARK  status: ('A' for Active; 'I' for Inactive)
REMARK    1  A    between atoms: C2_2  and  C3_3 
REMARK    2  A    between atoms: C2_2  and  C4_6 
REMARK    3  A    between atoms: C3_3  and  O2_5 
REMARK    4  A    between atoms: C4_6  and  C5_8 
REMARK    5  A    between atoms: C5_8  and  O4_9 
REMARK    6  A    between atoms: C5_8  and  C6_10 
REMARK    7  A    between atoms: C6_10  and  C7_11 
REMARK    8  A    between atoms: C7_11  and  C9_13 
REMARK    9  A    between atoms: C11_15  and  O5_16 
REMARK   10  A    between atoms: C30_37  and  O8_38 
ROOT
HETATM    1  C9  UNL     1      -1.263  49.785 -17.838  1.00  0.00     0.001 C 
HETATM    2  C10 UNL     1       0.041  50.617 -17.647  1.00  0.00     0.038 C 
HETATM    3  C11 UNL     1       0.282  51.408 -18.946  1.00  0.00     0.132 C 
HETATM    4  C12 UNL     1      -1.066  51.334 -19.707  1.00  0.00     0.017 C 
HETATM    5  C13 UNL     1      -2.036  52.418 -19.130  1.00  0.00     0.023 C 
HETATM    6  C14 UNL     1      -1.060  51.516 -21.230  1.00  0.00    -0.029 C 
HETATM    7  C15 UNL     1      -2.019  50.938 -21.997  1.00  0.00     0.002 C 
HETATM    8  C16 UNL     1      -3.154  50.249 -21.267  1.00  0.00     0.157 C 
HETATM    9  O6  UNL     1      -4.273  50.197 -21.778  1.00  0.00    -0.293 OA
HETATM   10  C17 UNL     1      -2.923  49.648 -19.879  1.00  0.00     0.094 C 
HETATM   11  C18 UNL     1      -1.484  49.843 -19.385  1.00  0.00    -0.019 C 
HETATM   12  C19 UNL     1      -0.578  48.771 -20.072  1.00  0.00     0.017 C 
HETATM   13  C20 UNL     1      -2.040  50.967 -23.542  1.00  0.00    -0.008 C 
HETATM   14  C21 UNL     1      -2.322  49.529 -24.055  1.00  0.00     0.021 C 
HETATM   15  C22 UNL     1      -3.176  51.915 -24.018  1.00  0.00     0.022 C 
HETATM   16  C23 UNL     1      -2.946  52.613 -25.354  1.00  0.00     0.080 C 
HETATM   17  C24 UNL     1      -1.988  51.856 -26.235  1.00  0.00     0.135 C 
HETATM   18  O7  UNL     1      -2.306  51.523 -27.377  1.00  0.00    -0.297 OA
HETATM   19  C25 UNL     1      -0.583  51.617 -25.677  1.00  0.00     0.018 C 
HETATM   20  C26 UNL     1       0.026  50.356 -26.338  1.00  0.00     0.023 C 
HETATM   21  C27 UNL     1       0.277  52.808 -26.151  1.00  0.00     0.023 C 
HETATM   22  C28 UNL     1      -0.636  51.432 -24.109  1.00  0.00     0.016 C 
HETATM   23  C29 UNL     1      -0.163  52.666 -23.317  1.00  0.00     0.043 C 
HETATM   24  C30 UNL     1       0.051  52.327 -21.842  1.00  0.00     0.149 C 
ENDROOT
BRANCH   1  25
HETATM   25  C7  UNL     1      -1.191  48.412 -17.091  1.00  0.00    -0.011 C 
HETATM   26  C8  UNL     1      -2.533  47.684 -17.104  1.00  0.00     0.010 C 
BRANCH  25  27
HETATM   27  C6  UNL     1      -0.701  48.635 -15.628  1.00  0.00     0.044 C 
BRANCH  27  28
HETATM   28  C5  UNL     1       0.792  48.390 -15.322  1.00  0.00     0.188 C 
BRANCH  28  29
HETATM   29  C4  UNL     1       1.354  49.255 -14.169  1.00  0.00     0.169 C 
HETATM   30  O3  UNL     1       0.808  49.283 -13.057  1.00  0.00    -0.294 OA
BRANCH  29  31
HETATM   31  C2  UNL     1       2.592  50.103 -14.413  1.00  0.00     0.152 C 
HETATM   32  C1  UNL     1       2.241  51.593 -14.400  1.00  0.00     0.029 C 
BRANCH  31  33
HETATM   33  C3  UNL     1       3.759  49.822 -13.508  1.00  0.00     0.150 C 
HETATM   34  O1  UNL     1       4.895  49.542 -13.864  1.00  0.00    -0.649 OA
BRANCH  33  35
HETATM   35  O2  UNL     1       3.462  49.801 -12.195  1.00  0.00    -0.776 OA
HETATM   36  H5  UNL     1       4.299  49.503 -11.776  1.00  0.00     0.167 HD
ENDBRANCH  33  35
ENDBRANCH  31  33
ENDBRANCH  29  31
ENDBRANCH  28  29
BRANCH  28  37
HETATM   37  O4  UNL     1       1.019  47.001 -15.176  1.00  0.00    -0.388 OA
HETATM   38  H7  UNL     1       1.580  46.714 -15.921  1.00  0.00     0.210 HD
ENDBRANCH  28  37
ENDBRANCH  27  28
ENDBRANCH  25  27
ENDBRANCH   1  25
BRANCH   3  39
HETATM   39  O5  UNL     1       0.704  52.723 -18.626  1.00  0.00    -0.394 OA
HETATM   40  H18 UNL     1       0.705  53.230 -19.469  1.00  0.00     0.210 HD
ENDBRANCH   3  39
BRANCH  24  41
HETATM   41  O8  UNL     1       0.206  53.549 -21.128  1.00  0.00    -0.391 OA
HETATM   42  H44 UNL     1      -0.607  54.069 -21.266  1.00  0.00     0.210 HD
ENDBRANCH  24  41
TORSDOF 10
ENDMDL
MODEL 5
REMARK minimizedAffinity -8.02806759
REMARK CNNscore 0.51707685
REMARK CNNaffinity 6.37436867
REMARK  10 active torsions:
REMARK  status: ('A' for Active; 'I' for Inactive)
REMARK    1  A    between atoms: C2_2  and  C3_3 
REMARK    2  A    between atoms: C2_2  and  C4_6 
REMARK    3  A    between atoms: C3_3  and  O2_5 
REMARK    4  A    between atoms: C4_6  and  C5_8 
REMARK    5  A    between atoms: C5_8  and  O4_9 
REMARK    6  A    between atoms: C5_8  and  C6_10 
REMARK    7  A    between atoms: C6_10  and  C7_11 
REMARK    8  A    between atoms: C7_11  and  C9_13 
REMARK    9  A    between atoms: C11_15  and  O5_16 
REMARK   10  A    between atoms: C30_37  and  O8_38 
ROOT
HETATM    1  C9  UNL     1      -1.108  50.578 -14.000  1.00  0.00     0.001 C 
HETATM    2  C10 UNL     1      -1.841  49.389 -13.308  1.00  0.00     0.038 C 
HETATM    3  C11 UNL     1      -2.261  48.397 -14.408  1.00  0.00     0.132 C 
HETATM    4  C12 UNL     1      -1.437  48.818 -15.651  1.00  0.00     0.017 C 
HETATM    5  C13 UNL     1      -0.000  48.210 -15.538  1.00  0.00     0.023 C 
HETATM    6  C14 UNL     1      -1.964  48.443 -17.041  1.00  0.00    -0.029 C 
HETATM    7  C15 UNL     1      -1.655  49.201 -18.123  1.00  0.00     0.002 C 
HETATM    8  C16 UNL     1      -0.659  50.323 -17.909  1.00  0.00     0.157 C 
HETATM    9  O6  UNL     1       0.075  50.679 -18.832  1.00  0.00    -0.293 OA
HETATM   10  C17 UNL     1      -0.536  50.991 -16.539  1.00  0.00     0.094 C 
HETATM   11  C18 UNL     1      -1.497  50.392 -15.503  1.00  0.00    -0.019 C 
HETATM   12  C19 UNL     1      -2.918  50.994 -15.743  1.00  0.00     0.017 C 
HETATM   13  C20 UNL     1      -2.224  48.975 -19.543  1.00  0.00    -0.008 C 
HETATM   14  C21 UNL     1      -2.701  50.343 -20.103  1.00  0.00     0.021 C 
HETATM   15  C22 UNL     1      -1.100  48.410 -20.457  1.00  0.00     0.022 C 
HETATM   16  C23 UNL     1      -1.559  47.503 -21.594  1.00  0.00     0.080 C 
HETATM   17  C24 UNL     1      -2.986  47.769 -21.995  1.00  0.00     0.135 C 
HETATM   18  O7  UNL     1      -3.277  48.035 -23.161  1.00  0.00    -0.297 OA
HETATM   19  C25 UNL     1      -4.049  47.595 -20.908  1.00  0.00     0.018 C 
HETATM   20  C26 UNL     1      -5.277  48.477 -21.242  1.00  0.00     0.023 C 
HETATM   21  C27 UNL     1      -4.532  46.132 -21.009  1.00  0.00     0.023 C 
HETATM   22  C28 UNL     1      -3.466  47.994 -19.495  1.00  0.00     0.016 C 
HETATM   23  C29 UNL     1      -3.116  46.791 -18.599  1.00  0.00     0.043 C 
HETATM   24  C30 UNL     1      -2.851  47.231 -17.160  1.00  0.00     0.149 C 
ENDROOT
BRANCH   1  25
HETATM   25  C7  UNL     1      -1.378  51.933 -13.266  1.00  0.00    -0.011 C 
HETATM   26  C8  UNL     1      -0.082  52.604 -12.814  1.00  0.00     0.010 C 
BRANCH  25  27
HETATM   27  C6  UNL     1      -2.325  51.694 -12.051  1.00  0.00     0.044 C 
BRANCH  27  28
HETATM   28  C5  UNL     1      -3.485  52.688 -11.836  1.00  0.00     0.188 C 
BRANCH  28  29
HETATM   29  C4  UNL     1      -3.291  53.638 -10.631  1.00  0.00     0.169 C 
HETATM   30  O3  UNL     1      -4.246  54.247 -10.128  1.00  0.00    -0.294 OA
BRANCH  29  31
HETATM   31  C2  UNL     1      -1.895  53.844 -10.064  1.00  0.00     0.152 C 
HETATM   32  C1  UNL     1      -1.476  55.311 -10.170  1.00  0.00     0.029 C 
BRANCH  31  33
HETATM   33  C3  UNL     1      -1.679  53.326  -8.670  1.00  0.00     0.150 C 
HETATM   34  O1  UNL     1      -1.054  53.889  -7.781  1.00  0.00    -0.649 OA
BRANCH  33  35
HETATM   35  O2  UNL     1      -2.159  52.088  -8.447  1.00  0.00    -0.776 OA
HETATM   36  H5  UNL     1      -1.839  51.879  -7.541  1.00  0.00     0.167 HD
ENDBRANCH  33  35
ENDBRANCH  31  33
ENDBRANCH  29  31
ENDBRANCH  28  29
BRANCH  28  37
HETATM   37  O4  UNL     1      -3.776  53.342 -13.057  1.00  0.00    -0.388 OA
HETATM   38  H7  UNL     1      -4.663  53.053 -13.342  1.00  0.00     0.210 HD
ENDBRANCH  28  37
ENDBRANCH  27  28
ENDBRANCH  25  27
ENDBRANCH   1  25
BRANCH   3  39
HETATM   39  O5  UNL     1      -2.022  47.072 -13.965  1.00  0.00    -0.394 OA
HETATM   40  H18 UNL     1      -2.164  46.487 -14.742  1.00  0.00     0.210 HD
ENDBRANCH   3  39
BRANCH  24  41
HETATM   41  O8  UNL     1      -2.265  46.135 -16.466  1.00  0.00    -0.391 OA
HETATM   42  H44 UNL     1      -1.441  45.905 -16.932  1.00  0.00     0.210 HD
ENDBRANCH  24  41
TORSDOF 10
ENDMDL
MODEL 6
REMARK minimizedAffinity -8.20372963
REMARK CNNscore 0.502549767
REMARK CNNaffinity 5.98682928
REMARK  10 active torsions:
REMARK  status: ('A' for Active; 'I' for Inactive)
REMARK    1  A    between atoms: C2_2  and  C3_3 
REMARK    2  A    between atoms: C2_2  and  C4_6 
REMARK    3  A    between atoms: C3_3  and  O2_5 
REMARK    4  A    between atoms: C4_6  and  C5_8 
REMARK    5  A    between atoms: C5_8  and  O4_9 
REMARK    6  A    between atoms: C5_8  and  C6_10 
REMARK    7  A    between atoms: C6_10  and  C7_11 
REMARK    8  A    between atoms: C7_11  and  C9_13 
REMARK    9  A    between atoms: C11_15  and  O5_16 
REMARK   10  A    between atoms: C30_37  and  O8_38 
ROOT
HETATM    1  C9  UNL     1      -1.009  49.398 -17.292  1.00  0.00     0.001 C 
HETATM    2  C10 UNL     1       0.005  50.499 -17.728  1.00  0.00     0.038 C 
HETATM    3  C11 UNL     1       0.398  51.294 -16.469  1.00  0.00     0.132 C 
HETATM    4  C12 UNL     1      -0.073  50.413 -15.285  1.00  0.00     0.017 C 
HETATM    5  C13 UNL     1       0.998  49.304 -15.019  1.00  0.00     0.023 C 
HETATM    6  C14 UNL     1      -0.353  51.085 -13.935  1.00  0.00    -0.029 C 
HETATM    7  C15 UNL     1      -1.251  50.549 -13.071  1.00  0.00     0.002 C 
HETATM    8  C16 UNL     1      -1.834  49.201 -13.441  1.00  0.00     0.157 C 
HETATM    9  O6  UNL     1      -2.180  48.416 -12.556  1.00  0.00    -0.293 OA
HETATM   10  C17 UNL     1      -1.960  48.794 -14.910  1.00  0.00     0.094 C 
HETATM   11  C18 UNL     1      -1.442  49.875 -15.867  1.00  0.00    -0.019 C 
HETATM   12  C19 UNL     1      -2.542  50.976 -16.009  1.00  0.00     0.017 C 
HETATM   13  C20 UNL     1      -1.686  51.206 -11.741  1.00  0.00    -0.008 C 
HETATM   14  C21 UNL     1      -3.236  51.156 -11.653  1.00  0.00     0.021 C 
HETATM   15  C22 UNL     1      -1.078  50.404 -10.556  1.00  0.00     0.022 C 
HETATM   16  C23 UNL     1      -0.785  51.204  -9.291  1.00  0.00     0.080 C 
HETATM   17  C24 UNL     1      -1.639  52.441  -9.188  1.00  0.00     0.135 C 
HETATM   18  O7  UNL     1      -2.335  52.648  -8.193  1.00  0.00    -0.297 OA
HETATM   19  C25 UNL     1      -1.517  53.457 -10.325  1.00  0.00     0.018 C 
HETATM   20  C26 UNL     1      -2.827  54.276 -10.427  1.00  0.00     0.023 C 
HETATM   21  C27 UNL     1      -0.420  54.455  -9.896  1.00  0.00     0.023 C 
HETATM   22  C28 UNL     1      -1.233  52.723 -11.695  1.00  0.00     0.016 C 
HETATM   23  C29 UNL     1       0.231  52.820 -12.165  1.00  0.00     0.043 C 
HETATM   24  C30 UNL     1       0.377  52.364 -13.617  1.00  0.00     0.149 C 
ENDROOT
BRANCH   1  25
HETATM   25  C7  UNL     1      -2.075  49.118 -18.401  1.00  0.00    -0.011 C 
HETATM   26  C8  UNL     1      -2.355  47.625 -18.560  1.00  0.00     0.010 C 
BRANCH  25  27
HETATM   27  C6  UNL     1      -1.604  49.736 -19.753  1.00  0.00     0.044 C 
BRANCH  27  28
HETATM   28  C5  UNL     1      -2.088  51.159 -20.103  1.00  0.00     0.188 C 
BRANCH  28  29
HETATM   29  C4  UNL     1      -1.195  51.899 -21.126  1.00  0.00     0.169 C 
HETATM   30  O3  UNL     1      -1.619  52.210 -22.248  1.00  0.00    -0.294 OA
BRANCH  29  31
HETATM   31  C2  UNL     1       0.241  52.234 -20.753  1.00  0.00     0.152 C 
HETATM   32  C1  UNL     1       1.194  51.894 -21.900  1.00  0.00     0.029 C 
BRANCH  31  33
HETATM   33  C3  UNL     1       0.473  53.637 -20.265  1.00  0.00     0.150 C 
HETATM   34  O1  UNL     1       1.074  54.518 -20.863  1.00  0.00    -0.649 OA
BRANCH  33  35
HETATM   35  O2  UNL     1       0.037  53.877 -19.014  1.00  0.00    -0.776 OA
HETATM   36  H5  UNL     1       0.362  54.786 -18.829  1.00  0.00     0.167 HD
ENDBRANCH  33  35
ENDBRANCH  31  33
ENDBRANCH  29  31
ENDBRANCH  28  29
BRANCH  28  37
HETATM   37  O4  UNL     1      -3.460  51.116 -20.446  1.00  0.00    -0.388 OA
HETATM   38  H7  UNL     1      -3.952  51.597 -19.755  1.00  0.00     0.210 HD
ENDBRANCH  28  37
ENDBRANCH  27  28
ENDBRANCH  25  27
ENDBRANCH   1  25
BRANCH   3  39
HETATM   39  O5  UNL     1       1.791  51.553 -16.491  1.00  0.00    -0.394 OA
HETATM   40  H18 UNL     1       2.021  51.928 -15.611  1.00  0.00     0.210 HD
ENDBRANCH   3  39
BRANCH  24  41
HETATM   41  O8  UNL     1       1.765  52.208 -13.891  1.00  0.00    -0.391 OA
HETATM   42  H44 UNL     1       2.111  51.544 -13.266  1.00  0.00     0.210 HD
ENDBRANCH  24  41
TORSDOF 10
ENDMDL
MODEL 7
REMARK minimizedAffinity -8.67371273
REMARK CNNscore 0.468137622
REMARK CNNaffinity 5.77790022
REMARK  10 active torsions:
REMARK  status: ('A' for Active; 'I' for Inactive)
REMARK    1  A    between atoms: C2_2  and  C3_3 
REMARK    2  A    between atoms: C2_2  and  C4_6 
REMARK    3  A    between atoms: C3_3  and  O2_5 
REMARK    4  A    between atoms: C4_6  and  C5_8 
REMARK    5  A    between atoms: C5_8  and  O4_9 
REMARK    6  A    between atoms: C5_8  and  C6_10 
REMARK    7  A    between atoms: C6_10  and  C7_11 
REMARK    8  A    between atoms: C7_11  and  C9_13 
REMARK    9  A    between atoms: C11_15  and  O5_16 
REMARK   10  A    between atoms: C30_37  and  O8_38 
ROOT
HETATM    1  C9  UNL     1       6.872  66.398 -35.893  1.00  0.00     0.001 C 
HETATM    2  C10 UNL     1       7.722  66.204 -37.186  1.00  0.00     0.038 C 
HETATM    3  C11 UNL     1       6.928  66.809 -38.359  1.00  0.00     0.132 C 
HETATM    4  C12 UNL     1       5.837  67.680 -37.687  1.00  0.00     0.017 C 
HETATM    5  C13 UNL     1       6.459  69.059 -37.290  1.00  0.00     0.023 C 
HETATM    6  C14 UNL     1       4.556  67.986 -38.473  1.00  0.00    -0.029 C 
HETATM    7  C15 UNL     1       3.389  68.226 -37.823  1.00  0.00     0.002 C 
HETATM    8  C16 UNL     1       3.456  68.321 -36.313  1.00  0.00     0.157 C 
HETATM    9  O6  UNL     1       2.659  69.039 -35.705  1.00  0.00    -0.293 OA
HETATM   10  C17 UNL     1       4.533  67.559 -35.540  1.00  0.00     0.094 C 
HETATM   11  C18 UNL     1       5.459  66.753 -36.461  1.00  0.00    -0.019 C 
HETATM   12  C19 UNL     1       4.726  65.436 -36.869  1.00  0.00     0.017 C 
HETATM   13  C20 UNL     1       2.025  68.433 -38.520  1.00  0.00    -0.008 C 
HETATM   14  C21 UNL     1       0.967  67.556 -37.797  1.00  0.00     0.021 C 
HETATM   15  C22 UNL     1       1.618  69.929 -38.405  1.00  0.00     0.022 C 
HETATM   16  C23 UNL     1       0.755  70.474 -39.539  1.00  0.00     0.080 C 
HETATM   17  C24 UNL     1      -0.022  69.388 -40.236  1.00  0.00     0.135 C 
HETATM   18  O7  UNL     1      -1.246  69.457 -40.346  1.00  0.00    -0.297 OA
HETATM   19  C25 UNL     1       0.793  68.262 -40.876  1.00  0.00     0.018 C 
HETATM   20  C26 UNL     1      -0.073  66.981 -40.959  1.00  0.00     0.023 C 
HETATM   21  C27 UNL     1       1.055  68.697 -42.335  1.00  0.00     0.023 C 
HETATM   22  C28 UNL     1       2.099  67.977 -40.035  1.00  0.00     0.016 C 
HETATM   23  C29 UNL     1       3.386  68.546 -40.664  1.00  0.00     0.043 C 
HETATM   24  C30 UNL     1       4.631  67.987 -39.977  1.00  0.00     0.149 C 
ENDROOT
BRANCH   1  25
HETATM   25  C7  UNL     1       7.057  65.209 -34.894  1.00  0.00    -0.011 C 
HETATM   26  C8  UNL     1       7.003  65.673 -33.440  1.00  0.00     0.010 C 
BRANCH  25  27
HETATM   27  C6  UNL     1       8.403  64.478 -35.188  1.00  0.00     0.044 C 
BRANCH  27  28
HETATM   28  C5  UNL     1       8.365  62.948 -35.383  1.00  0.00     0.188 C 
BRANCH  28  29
HETATM   29  C4  UNL     1       8.978  62.144 -34.213  1.00  0.00     0.169 C 
HETATM   30  O3  UNL     1       8.314  61.306 -33.587  1.00  0.00    -0.294 OA
BRANCH  29  31
HETATM   31  C2  UNL     1      10.422  62.401 -33.812  1.00  0.00     0.152 C 
HETATM   32  C1  UNL     1      11.182  63.104 -34.939  1.00  0.00     0.029 C 
BRANCH  31  33
HETATM   33  C3  UNL     1      10.614  63.123 -32.508  1.00  0.00     0.150 C 
HETATM   34  O1  UNL     1      10.117  64.196 -32.198  1.00  0.00    -0.649 OA
BRANCH  33  35
HETATM   35  O2  UNL     1      11.489  62.541 -31.665  1.00  0.00    -0.776 OA
HETATM   36  H5  UNL     1      11.566  63.192 -30.932  1.00  0.00     0.167 HD
ENDBRANCH  33  35
ENDBRANCH  31  33
ENDBRANCH  29  31
ENDBRANCH  28  29
BRANCH  28  37
HETATM   37  O4  UNL     1       7.053  62.553 -35.741  1.00  0.00    -0.388 OA
HETATM   38  H7  UNL     1       7.085  62.226 -36.660  1.00  0.00     0.210 HD
ENDBRANCH  28  37
ENDBRANCH  27  28
ENDBRANCH  25  27
ENDBRANCH   1  25
BRANCH   3  39
HETATM   39  O5  UNL     1       7.811  67.524 -39.206  1.00  0.00    -0.394 OA
HETATM   40  H18 UNL     1       7.249  68.010 -39.851  1.00  0.00     0.210 HD
ENDBRANCH   3  39
BRANCH  24  41
HETATM   41  O8  UNL     1       5.751  68.754 -40.404  1.00  0.00    -0.391 OA
HETATM   42  H44 UNL     1       5.582  69.679 -40.149  1.00  0.00     0.210 HD
ENDBRANCH  24  41
TORSDOF 10
ENDMDL
MODEL 8
REMARK minimizedAffinity -10.4942312
REMARK CNNscore 0.42118758
REMARK CNNaffinity 6.67186022
REMARK  10 active torsions:
REMARK  status: ('A' for Active; 'I' for Inactive)
REMARK    1  A    between atoms: C2_2  and  C3_3 
REMARK    2  A    between atoms: C2_2  and  C4_6 
REMARK    3  A    between atoms: C3_3  and  O2_5 
REMARK    4  A    between atoms: C4_6  and  C5_8 
REMARK    5  A    between atoms: C5_8  and  O4_9 
REMARK    6  A    between atoms: C5_8  and  C6_10 
REMARK    7  A    between atoms: C6_10  and  C7_11 
REMARK    8  A    between atoms: C7_11  and  C9_13 
REMARK    9  A    between atoms: C11_15  and  O5_16 
REMARK   10  A    between atoms: C30_37  and  O8_38 
ROOT
HETATM    1  C9  UNL     1      -4.280  49.448 -25.271  1.00  0.00     0.001 C 
HETATM    2  C10 UNL     1      -5.663  49.369 -24.557  1.00  0.00     0.038 C 
HETATM    3  C11 UNL     1      -5.474  49.886 -23.119  1.00  0.00     0.132 C 
HETATM    4  C12 UNL     1      -4.106  50.613 -23.139  1.00  0.00     0.017 C 
HETATM    5  C13 UNL     1      -4.304  52.053 -23.718  1.00  0.00     0.023 C 
HETATM    6  C14 UNL     1      -3.339  50.771 -21.821  1.00  0.00    -0.029 C 
HETATM    7  C15 UNL     1      -1.985  50.863 -21.818  1.00  0.00     0.002 C 
HETATM    8  C16 UNL     1      -1.303  50.952 -23.168  1.00  0.00     0.157 C 
HETATM    9  O6  UNL     1      -0.240  51.563 -23.282  1.00  0.00    -0.293 OA
HETATM   10  C17 UNL     1      -1.950  50.317 -24.400  1.00  0.00     0.094 C 
HETATM   11  C18 UNL     1      -3.287  49.637 -24.078  1.00  0.00    -0.019 C 
HETATM   12  C19 UNL     1      -2.991  48.245 -23.434  1.00  0.00     0.017 C 
HETATM   13  C20 UNL     1      -1.113  50.912 -20.542  1.00  0.00    -0.008 C 
HETATM   14  C21 UNL     1       0.060  49.908 -20.711  1.00  0.00     0.021 C 
HETATM   15  C22 UNL     1      -0.541  52.347 -20.372  1.00  0.00     0.022 C 
HETATM   16  C23 UNL     1      -0.278  52.795 -18.938  1.00  0.00     0.080 C 
HETATM   17  C24 UNL     1      -0.058  51.631 -18.009  1.00  0.00     0.135 C 
HETATM   18  O7  UNL     1       0.960  51.554 -17.321  1.00  0.00    -0.297 OA
HETATM   19  C25 UNL     1      -1.199  50.617 -17.895  1.00  0.00     0.018 C 
HETATM   20  C26 UNL     1      -0.626  49.242 -17.471  1.00  0.00     0.023 C 
HETATM   21  C27 UNL     1      -2.083  51.093 -16.723  1.00  0.00     0.023 C 
HETATM   22  C28 UNL     1      -1.959  50.483 -19.273  1.00  0.00     0.016 C 
HETATM   23  C29 UNL     1      -3.318  51.207 -19.312  1.00  0.00     0.043 C 
HETATM   24  C30 UNL     1      -4.130  50.794 -20.540  1.00  0.00     0.149 C 
ENDROOT
BRANCH   1  25
HETATM   25  C7  UNL     1      -4.088  48.281 -26.294  1.00  0.00    -0.011 C 
HETATM   26  C8  UNL     1      -2.825  48.460 -27.135  1.00  0.00     0.010 C 
BRANCH  25  27
HETATM   27  C6  UNL     1      -5.345  48.170 -27.210  1.00  0.00     0.044 C 
BRANCH  27  28
HETATM   28  C5  UNL     1      -5.129  48.187 -28.737  1.00  0.00     0.188 C 
BRANCH  28  29
HETATM   29  C4  UNL     1      -6.393  47.848 -29.561  1.00  0.00     0.169 C 
HETATM   30  O3  UNL     1      -7.529  47.982 -29.085  1.00  0.00    -0.294 OA
BRANCH  29  31
HETATM   31  C2  UNL     1      -6.237  47.323 -30.980  1.00  0.00     0.152 C 
HETATM   32  C1  UNL     1      -7.245  47.987 -31.919  1.00  0.00     0.029 C 
BRANCH  31  33
HETATM   33  C3  UNL     1      -4.848  47.397 -31.549  1.00  0.00     0.150 C 
HETATM   34  O1  UNL     1      -4.017  46.499 -31.542  1.00  0.00    -0.649 OA
BRANCH  33  35
HETATM   35  O2  UNL     1      -4.496  48.608 -32.022  1.00  0.00    -0.776 OA
HETATM   36  H5  UNL     1      -3.546  48.498 -32.247  1.00  0.00     0.167 HD
ENDBRANCH  33  35
ENDBRANCH  31  33
ENDBRANCH  29  31
ENDBRANCH  28  29
BRANCH  28  37
HETATM   37  O4  UNL     1      -4.495  49.397 -29.108  1.00  0.00    -0.388 OA
HETATM   38  H7  UNL     1      -3.601  49.175 -29.429  1.00  0.00     0.210 HD
ENDBRANCH  28  37
ENDBRANCH  27  28
ENDBRANCH  25  27
ENDBRANCH   1  25
BRANCH   3  39
HETATM   39  O5  UNL     1      -6.572  50.709 -22.765  1.00  0.00    -0.394 OA
HETATM   40  H18 UNL     1      -6.342  51.130 -21.906  1.00  0.00     0.210 HD
ENDBRANCH   3  39
BRANCH  24  41
HETATM   41  O8  UNL     1      -5.225  51.694 -20.665  1.00  0.00    -0.391 OA
HETATM   42  H44 UNL     1      -4.854  52.590 -20.762  1.00  0.00     0.210 HD
ENDBRANCH  24  41
TORSDOF 10
ENDMDL
MODEL 9
REMARK minimizedAffinity -7.74198961
REMARK CNNscore 0.419103891
REMARK CNNaffinity 6.21220446
REMARK  10 active torsions:
REMARK  status: ('A' for Active; 'I' for Inactive)
REMARK    1  A    between atoms: C2_2  and  C3_3 
REMARK    2  A    between atoms: C2_2  and  C4_6 
REMARK    3  A    between atoms: C3_3  and  O2_5 
REMARK    4  A    between atoms: C4_6  and  C5_8 
REMARK    5  A    between atoms: C5_8  and  O4_9 
REMARK    6  A    between atoms: C5_8  and  C6_10 
REMARK    7  A    between atoms: C6_10  and  C7_11 
REMARK    8  A    between atoms: C7_11  and  C9_13 
REMARK    9  A    between atoms: C11_15  and  O5_16 
REMARK   10  A    between atoms: C30_37  and  O8_38 
ROOT
HETATM    1  C9  UNL     1      -2.324  48.901 -18.093  1.00  0.00     0.001 C 
HETATM    2  C10 UNL     1      -0.961  49.524 -17.663  1.00  0.00     0.038 C 
HETATM    3  C11 UNL     1      -0.479  50.427 -18.813  1.00  0.00     0.132 C 
HETATM    4  C12 UNL     1      -1.728  50.625 -19.708  1.00  0.00     0.017 C 
HETATM    5  C13 UNL     1      -2.622  51.751 -19.090  1.00  0.00     0.023 C 
HETATM    6  C14 UNL     1      -1.523  50.987 -21.184  1.00  0.00    -0.029 C 
HETATM    7  C15 UNL     1      -2.449  50.639 -22.113  1.00  0.00     0.002 C 
HETATM    8  C16 UNL     1      -3.734  50.023 -21.600  1.00  0.00     0.157 C 
HETATM    9  O6  UNL     1      -4.785  50.183 -22.223  1.00  0.00    -0.293 OA
HETATM   10  C17 UNL     1      -3.740  49.234 -20.290  1.00  0.00     0.094 C 
HETATM   11  C18 UNL     1      -2.355  49.175 -19.633  1.00  0.00    -0.019 C 
HETATM   12  C19 UNL     1      -1.509  48.083 -20.363  1.00  0.00     0.017 C 
HETATM   13  C20 UNL     1      -2.286  50.857 -23.635  1.00  0.00    -0.008 C 
HETATM   14  C21 UNL     1      -2.675  49.541 -24.363  1.00  0.00     0.021 C 
HETATM   15  C22 UNL     1      -3.238  51.998 -24.090  1.00  0.00     0.022 C 
HETATM   16  C23 UNL     1      -2.773  52.816 -25.291  1.00  0.00     0.080 C 
HETATM   17  C24 UNL     1      -1.815  52.050 -26.165  1.00  0.00     0.135 C 
HETATM   18  O7  UNL     1      -2.036  51.902 -27.368  1.00  0.00    -0.297 OA
HETATM   19  C25 UNL     1      -0.524  51.560 -25.506  1.00  0.00     0.018 C 
HETATM   20  C26 UNL     1       0.004  50.319 -26.267  1.00  0.00     0.023 C 
HETATM   21  C27 UNL     1       0.522  52.675 -25.727  1.00  0.00     0.023 C 
HETATM   22  C28 UNL     1      -0.780  51.196 -23.991  1.00  0.00     0.016 C 
HETATM   23  C29 UNL     1      -0.259  52.251 -22.996  1.00  0.00     0.043 C 
HETATM   24  C30 UNL     1      -0.260  51.712 -21.566  1.00  0.00     0.149 C 
ENDROOT
BRANCH   1  25
HETATM   25  C7  UNL     1      -2.502  47.452 -17.534  1.00  0.00    -0.011 C 
HETATM   26  C8  UNL     1      -2.956  46.474 -18.617  1.00  0.00     0.010 C 
BRANCH  25  27
HETATM   27  C6  UNL     1      -3.515  47.465 -16.348  1.00  0.00     0.044 C 
BRANCH  27  28
HETATM   28  C5  UNL     1      -3.021  47.993 -14.985  1.00  0.00     0.188 C 
BRANCH  28  29
HETATM   29  C4  UNL     1      -1.639  47.446 -14.556  1.00  0.00     0.169 C 
HETATM   30  O3  UNL     1      -1.201  46.376 -15.001  1.00  0.00    -0.294 OA
BRANCH  29  31
HETATM   31  C2  UNL     1      -0.810  48.229 -13.550  1.00  0.00     0.152 C 
HETATM   32  C1  UNL     1      -0.147  47.289 -12.542  1.00  0.00     0.029 C 
BRANCH  31  33
HETATM   33  C3  UNL     1       0.198  49.176 -14.139  1.00  0.00     0.150 C 
HETATM   34  O1  UNL     1       1.383  48.941 -14.329  1.00  0.00    -0.649 OA
BRANCH  33  35
HETATM   35  O2  UNL     1      -0.270  50.415 -14.386  1.00  0.00    -0.776 OA
HETATM   36  H5  UNL     1       0.533  50.912 -14.658  1.00  0.00     0.167 HD
ENDBRANCH  33  35
ENDBRANCH  31  33
ENDBRANCH  29  31
ENDBRANCH  28  29
BRANCH  28  37
HETATM   37  O4  UNL     1      -3.125  49.404 -14.963  1.00  0.00    -0.388 OA
HETATM   38  H7  UNL     1      -3.808  49.639 -14.307  1.00  0.00     0.210 HD
ENDBRANCH  28  37
ENDBRANCH  27  28
ENDBRANCH  25  27
ENDBRANCH   1  25
BRANCH   3  39
HETATM   39  O5  UNL     1       0.057  51.625 -18.278  1.00  0.00    -0.394 OA
HETATM   40  H18 UNL     1       0.216  52.226 -19.041  1.00  0.00     0.210 HD
ENDBRANCH   3  39
BRANCH  24  41
HETATM   41  O8  UNL     1      -0.045  52.807 -20.683  1.00  0.00    -0.391 OA
HETATM   42  H44 UNL     1      -0.769  53.443 -20.830  1.00  0.00     0.210 HD
ENDBRANCH  24  41
TORSDOF 10
ENDMDL
