MODEL 1
REMARK minimizedAffinity -8.36054993
REMARK CNNscore 0.22884579
REMARK CNNaffinity 5.91223001
REMARK  12 active torsions:
REMARK  status: ('A' for Active; 'I' for Inactive)
REMARK    1  A    between atoms: C3_3  and  O1_4 
REMARK    2  A    between atoms: N1_14  and  O2_16 
REMARK    3  A    between atoms: O2_16  and  C13_17 
REMARK    4  A    between atoms: C13_17  and  C14_18 
REMARK       I    between atoms: C14_18  and  N2_20 
REMARK    5  A    between atoms: N2_20  and  C15_21 
REMARK    6  A    between atoms: C15_21  and  C16_22 
REMARK    7  A    between atoms: C15_21  and  C27_38 
REMARK       I    between atoms: C16_22  and  N3_24 
REMARK    8  A    between atoms: N3_24  and  C17_25 
REMARK    9  A    between atoms: C17_25  and  C18_26 
REMARK   10  A    between atoms: C17_25  and  C20_30 
REMARK   11  A    between atoms: C18_26  and  C19_27 
REMARK   12  A    between atoms: C19_27  and  O6_29 
ROOT
HETATM    1  C1  UNL     1       8.692  18.667  21.318  1.00  0.00     0.015 C 
HETATM    2  C2  UNL     1       8.414  17.525  21.566  1.00  0.00    -0.078 C 
HETATM    3  C3  UNL     1       8.090  16.121  21.870  1.00  0.00     0.128 C 
HETATM    4  C4  UNL     1       8.582  15.718  23.263  1.00  0.00     0.052 C 
HETATM    5  C5  UNL     1       7.849  14.405  23.506  1.00  0.00     0.010 C 
HETATM    6  C6  UNL     1       6.422  14.707  23.040  1.00  0.00     0.002 C 
HETATM    7  C7  UNL     1       5.515  13.484  22.761  1.00  0.00    -0.004 C 
HETATM    8  C8  UNL     1       6.177  12.269  22.087  1.00  0.00     0.010 C 
HETATM    9  C9  UNL     1       5.194  11.108  21.910  1.00  0.00     0.035 C 
HETATM   10  C10 UNL     1       3.880  11.502  21.271  1.00  0.00    -0.069 C 
HETATM   11  C11 UNL     1       3.350  10.733  20.301  1.00  0.00     0.030 C 
HETATM   12  C12 UNL     1       1.990  11.000  19.744  1.00  0.00     0.032 C 
HETATM   13  N1  UNL     1       1.438  10.383  18.744  1.00  0.00    -0.271 N 
ATOM     14  H1  UNL     1       0.503  10.591  18.393  1.00  0.00     0.194 HD
HETATM   15  C30 UNL     1       1.151  12.049  20.444  1.00  0.00     0.060 C 
HETATM   16  C31 UNL     1       2.024  13.205  20.907  1.00  0.00     0.020 C 
HETATM   17  C32 UNL     1       3.201  12.754  21.822  1.00  0.00    -0.016 C 
HETATM   18  C33 UNL     1       2.604  12.412  23.213  1.00  0.00     0.020 C 
HETATM   19  C34 UNL     1       4.254  13.922  21.973  1.00  0.00     0.002 C 
HETATM   20  C35 UNL     1       4.648  14.582  20.621  1.00  0.00     0.007 C 
HETATM   21  C36 UNL     1       6.042  15.213  20.560  1.00  0.00     0.014 C 
HETATM   22  C37 UNL     1       6.552  15.774  21.899  1.00  0.00     0.003 C 
HETATM   23  C38 UNL     1       5.692  17.009  22.285  1.00  0.00     0.020 C 
ENDROOT
BRANCH   3  24
HETATM   24  O1  UNL     1       8.780  15.294  20.929  1.00  0.00    -0.377 OA
HETATM   25  H2  UNL     1       9.693  15.621  20.874  1.00  0.00     0.211 HD
ENDBRANCH   3  24
BRANCH  13  26
HETATM   26  O2  UNL     1       2.279   9.395  18.204  1.00  0.00    -0.271 OA
BRANCH  26  27
HETATM   27  C13 UNL     1       2.423   9.638  16.814  1.00  0.00     0.303 C 
BRANCH  27  28
HETATM   28  C14 UNL     1       1.165   9.200  16.061  1.00  0.00     0.244 C 
HETATM   29  O3  UNL     1       0.486   9.986  15.408  1.00  0.00    -0.271 OA
HETATM   30  N2  UNL     1       0.871   7.851  16.199  1.00  0.00    -0.346 N 
HETATM   31  H16 UNL     1       1.612   7.283  16.587  1.00  0.00     0.163 HD
BRANCH  30  32
HETATM   32  C15 UNL     1      -0.059   7.117  15.326  1.00  0.00     0.180 C 
BRANCH  32  33
HETATM   33  C16 UNL     1       0.353   7.435  13.860  1.00  0.00     0.241 C 
HETATM   34  O4  UNL     1      -0.316   8.135  13.104  1.00  0.00    -0.271 OA
HETATM   35  N3  UNL     1       1.579   6.924  13.487  1.00  0.00    -0.354 N 
HETATM   36  H18 UNL     1       2.117   6.388  14.166  1.00  0.00     0.162 HD
BRANCH  35  37
HETATM   37  C17 UNL     1       2.202   7.213  12.205  1.00  0.00     0.098 C 
BRANCH  37  38
HETATM   38  C18 UNL     1       2.502   8.707  11.992  1.00  0.00     0.135 C 
BRANCH  38  39
HETATM   39  C19 UNL     1       3.930   9.138  12.173  1.00  0.00     0.141 C 
HETATM   40  O5  UNL     1       4.357  10.144  12.709  1.00  0.00    -0.650 OA
BRANCH  39  41
HETATM   41  O6  UNL     1       4.790   8.233  11.654  1.00  0.00    -0.776 OA
HETATM   42  H22 UNL     1       5.675   8.590  11.872  1.00  0.00     0.167 HD
ENDBRANCH  39  41
ENDBRANCH  38  39
ENDBRANCH  37  38
BRANCH  37  43
HETATM   43  C20 UNL     1       1.528   6.492  10.993  1.00  0.00     0.014 C 
HETATM   44  C21 UNL     1       2.075   5.123  10.587  1.00  0.00     0.033 C 
HETATM   45  C22 UNL     1       3.436   5.187   9.901  1.00  0.00     0.169 C 
HETATM   46  O7  UNL     1       3.783   6.509   9.481  1.00  0.00    -0.381 OA
HETATM   47  C23 UNL     1       2.733   7.226   8.810  1.00  0.00     0.054 C 
HETATM   48  C24 UNL     1       2.361   6.530   7.491  1.00  0.00     0.045 C 
HETATM   49  C25 UNL     1       3.314   8.605   8.467  1.00  0.00     0.045 C 
HETATM   50  C26 UNL     1       1.502   7.394   9.736  1.00  0.00     0.044 C 
ENDBRANCH  37  43
ENDBRANCH  35  37
ENDBRANCH  32  33
BRANCH  32  51
HETATM   51  C27 UNL     1      -1.570   7.298  15.613  1.00  0.00     0.009 C 
HETATM   52  C28 UNL     1      -1.864   8.601  16.363  1.00  0.00     0.012 C 
HETATM   53  C29 UNL     1      -2.386   7.292  14.313  1.00  0.00     0.012 C 
ENDBRANCH  32  51
ENDBRANCH  30  32
ENDBRANCH  27  28
ENDBRANCH  26  27
ENDBRANCH  13  26
TORSDOF 12
ENDMDL
MODEL 2
REMARK minimizedAffinity -8.52566147
REMARK CNNscore 0.187703416
REMARK CNNaffinity 6.60190439
REMARK  12 active torsions:
REMARK  status: ('A' for Active; 'I' for Inactive)
REMARK    1  A    between atoms: C3_3  and  O1_4 
REMARK    2  A    between atoms: N1_14  and  O2_16 
REMARK    3  A    between atoms: O2_16  and  C13_17 
REMARK    4  A    between atoms: C13_17  and  C14_18 
REMARK       I    between atoms: C14_18  and  N2_20 
REMARK    5  A    between atoms: N2_20  and  C15_21 
REMARK    6  A    between atoms: C15_21  and  C16_22 
REMARK    7  A    between atoms: C15_21  and  C27_38 
REMARK       I    between atoms: C16_22  and  N3_24 
REMARK    8  A    between atoms: N3_24  and  C17_25 
REMARK    9  A    between atoms: C17_25  and  C18_26 
REMARK   10  A    between atoms: C17_25  and  C20_30 
REMARK   11  A    between atoms: C18_26  and  C19_27 
REMARK   12  A    between atoms: C19_27  and  O6_29 
ROOT
HETATM    1  C1  UNL     1      -7.520   8.277  15.141  1.00  0.00     0.015 C 
HETATM    2  C2  UNL     1      -6.556   7.587  14.942  1.00  0.00    -0.078 C 
HETATM    3  C3  UNL     1      -5.381   6.731  14.707  1.00  0.00     0.128 C 
HETATM    4  C4  UNL     1      -5.760   5.446  13.965  1.00  0.00     0.052 C 
HETATM    5  C5  UNL     1      -4.406   4.910  13.520  1.00  0.00     0.010 C 
HETATM    6  C6  UNL     1      -3.693   6.155  12.986  1.00  0.00     0.002 C 
HETATM    7  C7  UNL     1      -2.155   6.056  12.834  1.00  0.00    -0.004 C 
HETATM    8  C8  UNL     1      -1.397   5.293  13.935  1.00  0.00     0.010 C 
HETATM    9  C9  UNL     1       0.106   5.219  13.648  1.00  0.00     0.035 C 
HETATM   10  C10 UNL     1       0.736   6.553  13.305  1.00  0.00    -0.069 C 
HETATM   11  C11 UNL     1       1.913   6.899  13.858  1.00  0.00     0.030 C 
HETATM   12  C12 UNL     1       2.642   8.134  13.441  1.00  0.00     0.032 C 
HETATM   13  N1  UNL     1       3.724   8.604  13.983  1.00  0.00    -0.271 N 
ATOM     14  H1  UNL     1       4.198   9.451  13.668  1.00  0.00     0.194 HD
HETATM   15  C30 UNL     1       2.104   8.879  12.236  1.00  0.00     0.060 C 
HETATM   16  C31 UNL     1       0.584   8.856  12.233  1.00  0.00     0.020 C 
HETATM   17  C32 UNL     1      -0.006   7.415  12.285  1.00  0.00    -0.016 C 
HETATM   18  C33 UNL     1       0.187   6.783  10.881  1.00  0.00     0.020 C 
HETATM   19  C34 UNL     1      -1.545   7.467  12.633  1.00  0.00     0.002 C 
HETATM   20  C35 UNL     1      -1.879   8.391  13.839  1.00  0.00     0.007 C 
HETATM   21  C36 UNL     1      -3.137   8.031  14.636  1.00  0.00     0.014 C 
HETATM   22  C37 UNL     1      -4.252   7.366  13.809  1.00  0.00     0.003 C 
HETATM   23  C38 UNL     1      -4.828   8.410  12.813  1.00  0.00     0.020 C 
ENDROOT
BRANCH   3  24
HETATM   24  O1  UNL     1      -4.859   6.339  15.980  1.00  0.00    -0.377 OA
HETATM   25  H2  UNL     1      -5.613   6.058  16.526  1.00  0.00     0.211 HD
ENDBRANCH   3  24
BRANCH  13  26
HETATM   26  O2  UNL     1       4.167   7.809  15.053  1.00  0.00    -0.271 OA
BRANCH  26  27
HETATM   27  C13 UNL     1       5.581   7.895  15.124  1.00  0.00     0.303 C 
BRANCH  27  28
HETATM   28  C14 UNL     1       6.013   9.326  15.458  1.00  0.00     0.244 C 
HETATM   29  O3  UNL     1       5.203  10.206  15.733  1.00  0.00    -0.271 OA
HETATM   30  N2  UNL     1       7.385   9.523  15.407  1.00  0.00    -0.346 N 
HETATM   31  H16 UNL     1       7.943   8.680  15.370  1.00  0.00     0.163 HD
BRANCH  30  32
HETATM   32  C15 UNL     1       8.074  10.679  16.001  1.00  0.00     0.180 C 
BRANCH  32  33
HETATM   33  C16 UNL     1       7.524  10.835  17.448  1.00  0.00     0.241 C 
HETATM   34  O4  UNL     1       7.303   9.887  18.197  1.00  0.00    -0.271 OA
HETATM   35  N3  UNL     1       7.368  12.143  17.863  1.00  0.00    -0.354 N 
HETATM   36  H18 UNL     1       7.608  12.896  17.219  1.00  0.00     0.162 HD
BRANCH  35  37
HETATM   37  C17 UNL     1       6.987  12.505  19.218  1.00  0.00     0.098 C 
BRANCH  37  38
HETATM   38  C18 UNL     1       8.181  12.897  20.106  1.00  0.00     0.135 C 
BRANCH  38  39
HETATM   39  C19 UNL     1       9.293  11.892  20.219  1.00  0.00     0.141 C 
HETATM   40  O5  UNL     1       9.953  11.387  19.330  1.00  0.00    -0.650 OA
BRANCH  39  41
HETATM   41  O6  UNL     1       9.535  11.566  21.508  1.00  0.00    -0.776 OA
HETATM   42  H22 UNL     1      10.299  10.956  21.462  1.00  0.00     0.167 HD
ENDBRANCH  39  41
ENDBRANCH  38  39
ENDBRANCH  37  38
BRANCH  37  43
HETATM   43  C20 UNL     1       5.965  11.523  19.876  1.00  0.00     0.014 C 
HETATM   44  C21 UNL     1       4.520  11.561  19.376  1.00  0.00     0.033 C 
HETATM   45  C22 UNL     1       3.750  12.798  19.825  1.00  0.00     0.169 C 
HETATM   46  O7  UNL     1       4.407  13.508  20.878  1.00  0.00    -0.381 OA
HETATM   47  C23 UNL     1       4.905  12.685  21.945  1.00  0.00     0.054 C 
HETATM   48  C24 UNL     1       3.745  11.985  22.672  1.00  0.00     0.045 C 
HETATM   49  C25 UNL     1       5.576  13.641  22.942  1.00  0.00     0.045 C 
HETATM   50  C26 UNL     1       5.947  11.667  21.416  1.00  0.00     0.044 C 
ENDBRANCH  37  43
ENDBRANCH  35  37
ENDBRANCH  32  33
BRANCH  32  51
HETATM   51  C27 UNL     1       8.070  11.989  15.177  1.00  0.00     0.009 C 
HETATM   52  C28 UNL     1       9.371  12.782  15.345  1.00  0.00     0.012 C 
HETATM   53  C29 UNL     1       7.867  11.704  13.682  1.00  0.00     0.012 C 
ENDBRANCH  32  51
ENDBRANCH  30  32
ENDBRANCH  27  28
ENDBRANCH  26  27
ENDBRANCH  13  26
TORSDOF 12
ENDMDL
MODEL 3
REMARK minimizedAffinity -7.44080496
REMARK CNNscore 0.173950493
REMARK CNNaffinity 4.8364296
REMARK  12 active torsions:
REMARK  status: ('A' for Active; 'I' for Inactive)
REMARK    1  A    between atoms: C3_3  and  O1_4 
REMARK    2  A    between atoms: N1_14  and  O2_16 
REMARK    3  A    between atoms: O2_16  and  C13_17 
REMARK    4  A    between atoms: C13_17  and  C14_18 
REMARK       I    between atoms: C14_18  and  N2_20 
REMARK    5  A    between atoms: N2_20  and  C15_21 
REMARK    6  A    between atoms: C15_21  and  C16_22 
REMARK    7  A    between atoms: C15_21  and  C27_38 
REMARK       I    between atoms: C16_22  and  N3_24 
REMARK    8  A    between atoms: N3_24  and  C17_25 
REMARK    9  A    between atoms: C17_25  and  C18_26 
REMARK   10  A    between atoms: C17_25  and  C20_30 
REMARK   11  A    between atoms: C18_26  and  C19_27 
REMARK   12  A    between atoms: C19_27  and  O6_29 
ROOT
HETATM    1  C1  UNL     1       3.019   5.811  10.654  1.00  0.00     0.015 C 
HETATM    2  C2  UNL     1       3.406   6.687  11.379  1.00  0.00    -0.078 C 
HETATM    3  C3  UNL     1       3.895   7.758  12.264  1.00  0.00     0.128 C 
HETATM    4  C4  UNL     1       4.505   8.913  11.465  1.00  0.00     0.052 C 
HETATM    5  C5  UNL     1       4.603  10.020  12.507  1.00  0.00     0.010 C 
HETATM    6  C6  UNL     1       3.250   9.953  13.221  1.00  0.00     0.002 C 
HETATM    7  C7  UNL     1       3.162  10.655  14.598  1.00  0.00    -0.004 C 
HETATM    8  C8  UNL     1       4.390  10.535  15.518  1.00  0.00     0.010 C 
HETATM    9  C9  UNL     1       4.203  11.311  16.825  1.00  0.00     0.035 C 
HETATM   10  C10 UNL     1       2.897  11.022  17.533  1.00  0.00    -0.069 C 
HETATM   11  C11 UNL     1       2.887  10.821  18.865  1.00  0.00     0.030 C 
HETATM   12  C12 UNL     1       1.611  10.677  19.627  1.00  0.00     0.032 C 
HETATM   13  N1  UNL     1       1.501  10.381  20.886  1.00  0.00    -0.271 N 
ATOM     14  H1  UNL     1       0.610  10.295  21.375  1.00  0.00     0.194 HD
HETATM   15  C30 UNL     1       0.325  10.961  18.879  1.00  0.00     0.060 C 
HETATM   16  C31 UNL     1       0.418  10.450  17.449  1.00  0.00     0.020 C 
HETATM   17  C32 UNL     1       1.636  11.031  16.671  1.00  0.00    -0.016 C 
HETATM   18  C33 UNL     1       1.300  12.503  16.314  1.00  0.00     0.020 C 
HETATM   19  C34 UNL     1       1.878  10.209  15.345  1.00  0.00     0.002 C 
HETATM   20  C35 UNL     1       1.870   8.668  15.557  1.00  0.00     0.007 C 
HETATM   21  C36 UNL     1       2.695   7.846  14.563  1.00  0.00     0.014 C 
HETATM   22  C37 UNL     1       2.795   8.454  13.153  1.00  0.00     0.003 C 
HETATM   23  C38 UNL     1       1.394   8.399  12.483  1.00  0.00     0.020 C 
ENDROOT
BRANCH   3  24
HETATM   24  O1  UNL     1       4.939   7.217  13.078  1.00  0.00    -0.377 OA
HETATM   25  H2  UNL     1       5.527   6.710  12.492  1.00  0.00     0.211 HD
ENDBRANCH   3  24
BRANCH  13  26
HETATM   26  O2  UNL     1       2.753  10.192  21.495  1.00  0.00    -0.271 OA
BRANCH  26  27
HETATM   27  C13 UNL     1       2.870  11.105  22.575  1.00  0.00     0.303 C 
BRANCH  27  28
HETATM   28  C14 UNL     1       4.342  11.317  22.939  1.00  0.00     0.244 C 
HETATM   29  O3  UNL     1       5.102  10.380  23.161  1.00  0.00    -0.271 OA
HETATM   30  N2  UNL     1       4.717  12.652  23.000  1.00  0.00    -0.346 N 
HETATM   31  H16 UNL     1       4.057  13.307  22.600  1.00  0.00     0.163 HD
BRANCH  30  32
HETATM   32  C15 UNL     1       6.113  13.117  22.990  1.00  0.00     0.180 C 
BRANCH  32  33
HETATM   33  C16 UNL     1       6.105  14.553  22.393  1.00  0.00     0.241 C 
HETATM   34  O4  UNL     1       5.261  14.951  21.593  1.00  0.00    -0.271 OA
HETATM   35  N3  UNL     1       7.089  15.384  22.888  1.00  0.00    -0.354 N 
HETATM   36  H18 UNL     1       7.738  15.019  23.584  1.00  0.00     0.162 HD
BRANCH  35  37
HETATM   37  C17 UNL     1       7.177  16.796  22.555  1.00  0.00     0.098 C 
BRANCH  37  38
HETATM   38  C18 UNL     1       8.546  17.209  21.988  1.00  0.00     0.135 C 
BRANCH  38  39
HETATM   39  C19 UNL     1       9.680  16.247  22.203  1.00  0.00     0.141 C 
HETATM   40  O5  UNL     1       9.764  15.082  21.858  1.00  0.00    -0.650 OA
BRANCH  39  41
HETATM   41  O6  UNL     1      10.704  16.830  22.865  1.00  0.00    -0.776 OA
HETATM   42  H22 UNL     1      11.393  16.135  22.902  1.00  0.00     0.167 HD
ENDBRANCH  39  41
ENDBRANCH  38  39
ENDBRANCH  37  38
BRANCH  37  43
HETATM   43  C20 UNL     1       6.601  17.746  23.654  1.00  0.00     0.014 C 
HETATM   44  C21 UNL     1       7.055  19.207  23.640  1.00  0.00     0.033 C 
HETATM   45  C22 UNL     1       8.495  19.404  24.104  1.00  0.00     0.169 C 
HETATM   46  O7  UNL     1       9.028  18.252  24.762  1.00  0.00    -0.381 OA
HETATM   47  C23 UNL     1       8.156  17.653  25.735  1.00  0.00     0.054 C 
HETATM   48  C24 UNL     1       7.895  18.626  26.896  1.00  0.00     0.045 C 
HETATM   49  C25 UNL     1       8.915  16.443  26.297  1.00  0.00     0.045 C 
HETATM   50  C26 UNL     1       6.835  17.181  25.075  1.00  0.00     0.044 C 
ENDBRANCH  37  43
ENDBRANCH  35  37
ENDBRANCH  32  33
BRANCH  32  51
HETATM   51  C27 UNL     1       7.155  12.169  22.349  1.00  0.00     0.009 C 
HETATM   52  C28 UNL     1       7.480  12.560  20.903  1.00  0.00     0.012 C 
HETATM   53  C29 UNL     1       8.463  12.157  23.153  1.00  0.00     0.012 C 
ENDBRANCH  32  51
ENDBRANCH  30  32
ENDBRANCH  27  28
ENDBRANCH  26  27
ENDBRANCH  13  26
TORSDOF 12
ENDMDL
MODEL 4
REMARK minimizedAffinity -7.67289305
REMARK CNNscore 0.169363007
REMARK CNNaffinity 6.20443916
REMARK  12 active torsions:
REMARK  status: ('A' for Active; 'I' for Inactive)
REMARK    1  A    between atoms: C3_3  and  O1_4 
REMARK    2  A    between atoms: N1_14  and  O2_16 
REMARK    3  A    between atoms: O2_16  and  C13_17 
REMARK    4  A    between atoms: C13_17  and  C14_18 
REMARK       I    between atoms: C14_18  and  N2_20 
REMARK    5  A    between atoms: N2_20  and  C15_21 
REMARK    6  A    between atoms: C15_21  and  C16_22 
REMARK    7  A    between atoms: C15_21  and  C27_38 
REMARK       I    between atoms: C16_22  and  N3_24 
REMARK    8  A    between atoms: N3_24  and  C17_25 
REMARK    9  A    between atoms: C17_25  and  C18_26 
REMARK   10  A    between atoms: C17_25  and  C20_30 
REMARK   11  A    between atoms: C18_26  and  C19_27 
REMARK   12  A    between atoms: C19_27  and  O6_29 
ROOT
HETATM    1  C1  UNL     1      -3.225   4.375  12.946  1.00  0.00     0.015 C 
HETATM    2  C2  UNL     1      -3.420   5.536  13.187  1.00  0.00    -0.078 C 
HETATM    3  C3  UNL     1      -3.663   6.960  13.469  1.00  0.00     0.128 C 
HETATM    4  C4  UNL     1      -5.145   7.318  13.323  1.00  0.00     0.052 C 
HETATM    5  C5  UNL     1      -5.221   8.686  13.989  1.00  0.00     0.010 C 
HETATM    6  C6  UNL     1      -4.397   8.503  15.266  1.00  0.00     0.002 C 
HETATM    7  C7  UNL     1      -3.922   9.797  15.972  1.00  0.00    -0.004 C 
HETATM    8  C8  UNL     1      -3.470  10.955  15.065  1.00  0.00     0.010 C 
HETATM    9  C9  UNL     1      -3.073  12.193  15.875  1.00  0.00     0.035 C 
HETATM   10  C10 UNL     1      -2.108  11.909  17.006  1.00  0.00    -0.069 C 
HETATM   11  C11 UNL     1      -1.052  12.721  17.205  1.00  0.00     0.030 C 
HETATM   12  C12 UNL     1      -0.158  12.568  18.391  1.00  0.00     0.032 C 
HETATM   13  N1  UNL     1       0.935  13.230  18.616  1.00  0.00    -0.271 N 
ATOM     14  H1  UNL     1       1.521  13.100  19.441  1.00  0.00     0.194 HD
HETATM   15  C30 UNL     1      -0.594  11.589  19.462  1.00  0.00     0.060 C 
HETATM   16  C31 UNL     1      -1.238  10.364  18.831  1.00  0.00     0.020 C 
HETATM   17  C32 UNL     1      -2.436  10.715  17.900  1.00  0.00    -0.016 C 
HETATM   18  C33 UNL     1      -3.634  11.102  18.807  1.00  0.00     0.020 C 
HETATM   19  C34 UNL     1      -2.826   9.465  17.017  1.00  0.00     0.002 C 
HETATM   20  C35 UNL     1      -1.606   8.778  16.339  1.00  0.00     0.007 C 
HETATM   21  C36 UNL     1      -1.891   8.036  15.030  1.00  0.00     0.014 C 
HETATM   22  C37 UNL     1      -3.303   7.431  14.930  1.00  0.00     0.003 C 
HETATM   23  C38 UNL     1      -3.426   6.269  15.954  1.00  0.00     0.020 C 
ENDROOT
BRANCH   3  24
HETATM   24  O1  UNL     1      -2.951   7.730  12.496  1.00  0.00    -0.377 OA
HETATM   25  H2  UNL     1      -3.125   7.330  11.628  1.00  0.00     0.211 HD
ENDBRANCH   3  24
BRANCH  13  26
HETATM   26  O2  UNL     1       1.217  14.147  17.589  1.00  0.00    -0.271 OA
BRANCH  26  27
HETATM   27  C13 UNL     1       2.549  13.935  17.150  1.00  0.00     0.303 C 
BRANCH  27  28
HETATM   28  C14 UNL     1       3.509  13.917  18.342  1.00  0.00     0.244 C 
HETATM   29  O3  UNL     1       4.184  14.893  18.654  1.00  0.00    -0.271 OA
HETATM   30  N2  UNL     1       3.544  12.703  19.015  1.00  0.00    -0.346 N 
HETATM   31  H16 UNL     1       2.799  12.059  18.785  1.00  0.00     0.163 HD
BRANCH  30  32
HETATM   32  C15 UNL     1       4.105  12.525  20.363  1.00  0.00     0.180 C 
BRANCH  32  33
HETATM   33  C16 UNL     1       5.563  12.017  20.181  1.00  0.00     0.241 C 
HETATM   34  O4  UNL     1       5.855  10.835  20.009  1.00  0.00    -0.271 OA
HETATM   35  N3  UNL     1       6.518  13.014  20.154  1.00  0.00    -0.354 N 
HETATM   36  H18 UNL     1       6.221  13.983  20.256  1.00  0.00     0.162 HD
BRANCH  35  37
HETATM   37  C17 UNL     1       7.921  12.762  19.868  1.00  0.00     0.098 C 
BRANCH  37  38
HETATM   38  C18 UNL     1       8.243  11.275  19.638  1.00  0.00     0.135 C 
BRANCH  38  39
HETATM   39  C19 UNL     1       8.400  10.835  18.210  1.00  0.00     0.141 C 
HETATM   40  O5  UNL     1       9.170  11.255  17.366  1.00  0.00    -0.650 OA
BRANCH  39  41
HETATM   41  O6  UNL     1       7.545   9.834  17.904  1.00  0.00    -0.776 OA
HETATM   42  H22 UNL     1       7.769   9.599  16.981  1.00  0.00     0.167 HD
ENDBRANCH  39  41
ENDBRANCH  38  39
ENDBRANCH  37  38
BRANCH  37  43
HETATM   43  C20 UNL     1       8.908  13.515  20.818  1.00  0.00     0.014 C 
HETATM   44  C21 UNL     1       9.605  12.700  21.909  1.00  0.00     0.033 C 
HETATM   45  C22 UNL     1       8.681  12.293  23.053  1.00  0.00     0.169 C 
HETATM   46  O7  UNL     1       7.446  13.015  23.051  1.00  0.00    -0.381 OA
HETATM   47  C23 UNL     1       7.573  14.432  22.851  1.00  0.00     0.054 C 
HETATM   48  C24 UNL     1       8.348  15.074  24.014  1.00  0.00     0.045 C 
HETATM   49  C25 UNL     1       6.145  14.994  22.870  1.00  0.00     0.045 C 
HETATM   50  C26 UNL     1       8.236  14.739  21.484  1.00  0.00     0.044 C 
ENDBRANCH  37  43
ENDBRANCH  35  37
ENDBRANCH  32  33
BRANCH  32  51
HETATM   51  C27 UNL     1       3.264  11.691  21.360  1.00  0.00     0.009 C 
HETATM   52  C28 UNL     1       2.735  10.398  20.731  1.00  0.00     0.012 C 
HETATM   53  C29 UNL     1       4.083  11.324  22.606  1.00  0.00     0.012 C 
ENDBRANCH  32  51
ENDBRANCH  30  32
ENDBRANCH  27  28
ENDBRANCH  26  27
ENDBRANCH  13  26
TORSDOF 12
ENDMDL
MODEL 5
REMARK minimizedAffinity -7.46812582
REMARK CNNscore 0.168943018
REMARK CNNaffinity 5.53476477
REMARK  12 active torsions:
REMARK  status: ('A' for Active; 'I' for Inactive)
REMARK    1  A    between atoms: C3_3  and  O1_4 
REMARK    2  A    between atoms: N1_14  and  O2_16 
REMARK    3  A    between atoms: O2_16  and  C13_17 
REMARK    4  A    between atoms: C13_17  and  C14_18 
REMARK       I    between atoms: C14_18  and  N2_20 
REMARK    5  A    between atoms: N2_20  and  C15_21 
REMARK    6  A    between atoms: C15_21  and  C16_22 
REMARK    7  A    between atoms: C15_21  and  C27_38 
REMARK       I    between atoms: C16_22  and  N3_24 
REMARK    8  A    between atoms: N3_24  and  C17_25 
REMARK    9  A    between atoms: C17_25  and  C18_26 
REMARK   10  A    between atoms: C17_25  and  C20_30 
REMARK   11  A    between atoms: C18_26  and  C19_27 
REMARK   12  A    between atoms: C19_27  and  O6_29 
ROOT
HETATM    1  C1  UNL     1      -2.369   5.047  13.015  1.00  0.00     0.015 C 
HETATM    2  C2  UNL     1      -1.356   5.583  12.654  1.00  0.00    -0.078 C 
HETATM    3  C3  UNL     1      -0.112   6.228  12.202  1.00  0.00     0.128 C 
HETATM    4  C4  UNL     1      -0.240   6.754  10.769  1.00  0.00     0.052 C 
HETATM    5  C5  UNL     1       0.974   7.667  10.643  1.00  0.00     0.010 C 
HETATM    6  C6  UNL     1       0.965   8.448  11.960  1.00  0.00     0.002 C 
HETATM    7  C7  UNL     1       2.283   9.164  12.345  1.00  0.00    -0.004 C 
HETATM    8  C8  UNL     1       3.593   8.416  12.039  1.00  0.00     0.010 C 
HETATM    9  C9  UNL     1       4.825   9.244  12.417  1.00  0.00     0.035 C 
HETATM   10  C10 UNL     1       4.779   9.818  13.817  1.00  0.00    -0.069 C 
HETATM   11  C11 UNL     1       5.869   9.752  14.605  1.00  0.00     0.030 C 
HETATM   12  C12 UNL     1       5.918  10.431  15.934  1.00  0.00     0.032 C 
HETATM   13  N1  UNL     1       6.877  10.341  16.804  1.00  0.00    -0.271 N 
ATOM     14  H1  UNL     1       6.877  10.823  17.703  1.00  0.00     0.194 HD
HETATM   15  C30 UNL     1       4.769  11.357  16.279  1.00  0.00     0.060 C 
HETATM   16  C31 UNL     1       3.456  10.789  15.763  1.00  0.00     0.020 C 
HETATM   17  C32 UNL     1       3.475  10.499  14.233  1.00  0.00    -0.016 C 
HETATM   18  C33 UNL     1       3.383  11.863  13.499  1.00  0.00     0.020 C 
HETATM   19  C34 UNL     1       2.241   9.600  13.832  1.00  0.00     0.002 C 
HETATM   20  C35 UNL     1       2.038   8.371  14.763  1.00  0.00     0.007 C 
HETATM   21  C36 UNL     1       1.350   7.155  14.135  1.00  0.00     0.014 C 
HETATM   22  C37 UNL     1       0.333   7.493  13.031  1.00  0.00     0.003 C 
HETATM   23  C38 UNL     1      -0.884   8.216  13.672  1.00  0.00     0.020 C 
ENDROOT
BRANCH   3  24
HETATM   24  O1  UNL     1       0.921   5.238  12.191  1.00  0.00    -0.377 OA
HETATM   25  H2  UNL     1       0.555   4.445  11.764  1.00  0.00     0.211 HD
ENDBRANCH   3  24
BRANCH  13  26
HETATM   26  O2  UNL     1       7.914   9.503  16.362  1.00  0.00    -0.271 OA
BRANCH  26  27
HETATM   27  C13 UNL     1       9.072  10.294  16.148  1.00  0.00     0.303 C 
BRANCH  27  28
HETATM   28  C14 UNL     1       9.863  10.445  17.450  1.00  0.00     0.244 C 
HETATM   29  O3  UNL     1       9.748   9.655  18.381  1.00  0.00    -0.271 OA
HETATM   30  N2  UNL     1      10.699  11.553  17.471  1.00  0.00    -0.346 N 
HETATM   31  H16 UNL     1      10.852  11.999  16.576  1.00  0.00     0.163 HD
BRANCH  30  32
HETATM   32  C15 UNL     1      11.796  11.738  18.434  1.00  0.00     0.180 C 
BRANCH  32  33
HETATM   33  C16 UNL     1      11.149  12.196  19.772  1.00  0.00     0.241 C 
HETATM   34  O4  UNL     1      11.680  12.045  20.870  1.00  0.00    -0.271 OA
HETATM   35  N3  UNL     1       9.947  12.858  19.630  1.00  0.00    -0.354 N 
HETATM   36  H18 UNL     1       9.569  12.998  18.693  1.00  0.00     0.162 HD
BRANCH  35  37
HETATM   37  C17 UNL     1       9.243  13.476  20.742  1.00  0.00     0.098 C 
BRANCH  37  38
HETATM   38  C18 UNL     1       8.321  12.505  21.499  1.00  0.00     0.135 C 
BRANCH  38  39
HETATM   39  C19 UNL     1       8.809  12.017  22.833  1.00  0.00     0.141 C 
HETATM   40  O5  UNL     1       8.640  10.928  23.352  1.00  0.00    -0.650 OA
BRANCH  39  41
HETATM   41  O6  UNL     1       9.528  12.965  23.474  1.00  0.00    -0.776 OA
HETATM   42  H22 UNL     1       9.831  12.524  24.294  1.00  0.00     0.167 HD
ENDBRANCH  39  41
ENDBRANCH  38  39
ENDBRANCH  37  38
BRANCH  37  43
HETATM   43  C20 UNL     1       8.610  14.864  20.403  1.00  0.00     0.014 C 
HETATM   44  C21 UNL     1       9.533  15.947  19.840  1.00  0.00     0.033 C 
HETATM   45  C22 UNL     1      10.485  16.538  20.874  1.00  0.00     0.169 C 
HETATM   46  O7  UNL     1      10.117  16.211  22.217  1.00  0.00    -0.381 OA
HETATM   47  C23 UNL     1       8.721  16.370  22.518  1.00  0.00     0.054 C 
HETATM   48  C24 UNL     1       8.308  17.846  22.396  1.00  0.00     0.045 C 
HETATM   49  C25 UNL     1       8.553  15.955  23.987  1.00  0.00     0.045 C 
HETATM   50  C26 UNL     1       7.854  15.457  21.615  1.00  0.00     0.044 C 
ENDBRANCH  37  43
ENDBRANCH  35  37
ENDBRANCH  32  33
BRANCH  32  51
HETATM   51  C27 UNL     1      12.985  12.616  17.973  1.00  0.00     0.009 C 
HETATM   52  C28 UNL     1      13.398  13.636  19.039  1.00  0.00     0.012 C 
HETATM   53  C29 UNL     1      14.208  11.756  17.624  1.00  0.00     0.012 C 
ENDBRANCH  32  51
ENDBRANCH  30  32
ENDBRANCH  27  28
ENDBRANCH  26  27
ENDBRANCH  13  26
TORSDOF 12
ENDMDL
MODEL 6
REMARK minimizedAffinity -8.38268089
REMARK CNNscore 0.163529977
REMARK CNNaffinity 5.79150581
REMARK  12 active torsions:
REMARK  status: ('A' for Active; 'I' for Inactive)
REMARK    1  A    between atoms: C3_3  and  O1_4 
REMARK    2  A    between atoms: N1_14  and  O2_16 
REMARK    3  A    between atoms: O2_16  and  C13_17 
REMARK    4  A    between atoms: C13_17  and  C14_18 
REMARK       I    between atoms: C14_18  and  N2_20 
REMARK    5  A    between atoms: N2_20  and  C15_21 
REMARK    6  A    between atoms: C15_21  and  C16_22 
REMARK    7  A    between atoms: C15_21  and  C27_38 
REMARK       I    between atoms: C16_22  and  N3_24 
REMARK    8  A    between atoms: N3_24  and  C17_25 
REMARK    9  A    between atoms: C17_25  and  C18_26 
REMARK   10  A    between atoms: C17_25  and  C20_30 
REMARK   11  A    between atoms: C18_26  and  C19_27 
REMARK   12  A    between atoms: C19_27  and  O6_29 
ROOT
HETATM    1  C1  UNL     1      10.820  14.151  19.871  1.00  0.00     0.015 C 
HETATM    2  C2  UNL     1       9.927  13.549  20.402  1.00  0.00    -0.078 C 
HETATM    3  C3  UNL     1       8.841  12.800  21.055  1.00  0.00     0.128 C 
HETATM    4  C4  UNL     1       9.160  12.511  22.525  1.00  0.00     0.052 C 
HETATM    5  C5  UNL     1       7.809  12.075  23.077  1.00  0.00     0.010 C 
HETATM    6  C6  UNL     1       6.839  13.103  22.487  1.00  0.00     0.002 C 
HETATM    7  C7  UNL     1       5.338  12.723  22.506  1.00  0.00    -0.004 C 
HETATM    8  C8  UNL     1       4.991  11.253  22.209  1.00  0.00     0.010 C 
HETATM    9  C9  UNL     1       3.485  10.991  22.307  1.00  0.00     0.035 C 
HETATM   10  C10 UNL     1       2.635  11.974  21.529  1.00  0.00    -0.069 C 
HETATM   11  C11 UNL     1       1.611  11.526  20.778  1.00  0.00     0.030 C 
HETATM   12  C12 UNL     1       0.658  12.463  20.112  1.00  0.00     0.032 C 
HETATM   13  N1  UNL     1      -0.291  12.134  19.291  1.00  0.00    -0.271 N 
ATOM     14  H1  UNL     1      -0.927  12.804  18.857  1.00  0.00     0.194 HD
HETATM   15  C30 UNL     1       0.770  13.931  20.472  1.00  0.00     0.060 C 
HETATM   16  C31 UNL     1       2.228  14.325  20.646  1.00  0.00     0.020 C 
HETATM   17  C32 UNL     1       2.976  13.453  21.698  1.00  0.00    -0.016 C 
HETATM   18  C33 UNL     1       2.498  13.906  23.102  1.00  0.00     0.020 C 
HETATM   19  C34 UNL     1       4.535  13.669  21.576  1.00  0.00     0.002 C 
HETATM   20  C35 UNL     1       5.063  13.588  20.116  1.00  0.00     0.007 C 
HETATM   21  C36 UNL     1       6.519  13.143  19.949  1.00  0.00     0.014 C 
HETATM   22  C37 UNL     1       7.448  13.537  21.110  1.00  0.00     0.003 C 
HETATM   23  C38 UNL     1       7.617  15.082  21.116  1.00  0.00     0.020 C 
ENDROOT
BRANCH   3  24
HETATM   24  O1  UNL     1       8.720  11.535  20.399  1.00  0.00    -0.377 OA
HETATM   25  H2  UNL     1       9.618  11.176  20.298  1.00  0.00     0.211 HD
ENDBRANCH   3  24
BRANCH  13  26
HETATM   26  O2  UNL     1      -0.340  10.747  19.070  1.00  0.00    -0.271 OA
BRANCH  26  27
HETATM   27  C13 UNL     1      -1.671  10.393  18.727  1.00  0.00     0.303 C 
BRANCH  27  28
HETATM   28  C14 UNL     1      -1.764  10.046  17.239  1.00  0.00     0.244 C 
HETATM   29  O3  UNL     1      -1.174  10.691  16.378  1.00  0.00    -0.271 OA
HETATM   30  N2  UNL     1      -2.578   8.954  16.969  1.00  0.00    -0.346 N 
HETATM   31  H16 UNL     1      -2.835   8.396  17.772  1.00  0.00     0.163 HD
BRANCH  30  32
HETATM   32  C15 UNL     1      -2.569   8.216  15.696  1.00  0.00     0.180 C 
BRANCH  32  33
HETATM   33  C16 UNL     1      -1.084   7.883  15.378  1.00  0.00     0.241 C 
HETATM   34  O4  UNL     1      -0.414   7.079  16.023  1.00  0.00    -0.271 OA
HETATM   35  N3  UNL     1      -0.583   8.513  14.256  1.00  0.00    -0.354 N 
HETATM   36  H18 UNL     1      -1.192   9.136  13.728  1.00  0.00     0.162 HD
BRANCH  35  37
HETATM   37  C17 UNL     1       0.739   8.241  13.717  1.00  0.00     0.098 C 
BRANCH  37  38
HETATM   38  C18 UNL     1       1.875   8.907  14.512  1.00  0.00     0.135 C 
BRANCH  38  39
HETATM   39  C19 UNL     1       2.829   7.987  15.220  1.00  0.00     0.141 C 
HETATM   40  O5  UNL     1       3.793   8.274  15.906  1.00  0.00    -0.650 OA
BRANCH  39  41
HETATM   41  O6  UNL     1       2.499   6.690  15.029  1.00  0.00    -0.776 OA
HETATM   42  H22 UNL     1       3.148   6.195  15.569  1.00  0.00     0.167 HD
ENDBRANCH  39  41
ENDBRANCH  38  39
ENDBRANCH  37  38
BRANCH  37  43
HETATM   43  C20 UNL     1       0.837   8.396  12.165  1.00  0.00     0.014 C 
HETATM   44  C21 UNL     1       0.241   7.283  11.301  1.00  0.00     0.033 C 
HETATM   45  C22 UNL     1       1.060   5.997  11.309  1.00  0.00     0.169 C 
HETATM   46  O7  UNL     1       2.373   6.179  11.846  1.00  0.00    -0.381 OA
HETATM   47  C23 UNL     1       3.071   7.337  11.360  1.00  0.00     0.054 C 
HETATM   48  C24 UNL     1       3.328   7.216   9.849  1.00  0.00     0.045 C 
HETATM   49  C25 UNL     1       4.431   7.343  12.071  1.00  0.00     0.045 C 
HETATM   50  C26 UNL     1       2.295   8.634  11.706  1.00  0.00     0.044 C 
ENDBRANCH  37  43
ENDBRANCH  35  37
ENDBRANCH  32  33
BRANCH  32  51
HETATM   51  C27 UNL     1      -3.342   8.856  14.517  1.00  0.00     0.009 C 
HETATM   52  C28 UNL     1      -4.017   7.805  13.630  1.00  0.00     0.012 C 
HETATM   53  C29 UNL     1      -4.417   9.829  15.020  1.00  0.00     0.012 C 
ENDBRANCH  32  51
ENDBRANCH  30  32
ENDBRANCH  27  28
ENDBRANCH  26  27
ENDBRANCH  13  26
TORSDOF 12
ENDMDL
MODEL 7
REMARK minimizedAffinity -8.18247795
REMARK CNNscore 0.161059782
REMARK CNNaffinity 6.32890272
REMARK  12 active torsions:
REMARK  status: ('A' for Active; 'I' for Inactive)
REMARK    1  A    between atoms: C3_3  and  O1_4 
REMARK    2  A    between atoms: N1_14  and  O2_16 
REMARK    3  A    between atoms: O2_16  and  C13_17 
REMARK    4  A    between atoms: C13_17  and  C14_18 
REMARK       I    between atoms: C14_18  and  N2_20 
REMARK    5  A    between atoms: N2_20  and  C15_21 
REMARK    6  A    between atoms: C15_21  and  C16_22 
REMARK    7  A    between atoms: C15_21  and  C27_38 
REMARK       I    between atoms: C16_22  and  N3_24 
REMARK    8  A    between atoms: N3_24  and  C17_25 
REMARK    9  A    between atoms: C17_25  and  C18_26 
REMARK   10  A    between atoms: C17_25  and  C20_30 
REMARK   11  A    between atoms: C18_26  and  C19_27 
REMARK   12  A    between atoms: C19_27  and  O6_29 
ROOT
HETATM    1  C1  UNL     1      -7.420   8.091  15.303  1.00  0.00     0.015 C 
HETATM    2  C2  UNL     1      -6.428   7.448  15.084  1.00  0.00    -0.078 C 
HETATM    3  C3  UNL     1      -5.219   6.650  14.824  1.00  0.00     0.128 C 
HETATM    4  C4  UNL     1      -5.538   5.397  14.002  1.00  0.00     0.052 C 
HETATM    5  C5  UNL     1      -4.157   4.936  13.554  1.00  0.00     0.010 C 
HETATM    6  C6  UNL     1      -3.480   6.234  13.106  1.00  0.00     0.002 C 
HETATM    7  C7  UNL     1      -1.937   6.199  12.979  1.00  0.00    -0.004 C 
HETATM    8  C8  UNL     1      -1.171   5.400  14.049  1.00  0.00     0.010 C 
HETATM    9  C9  UNL     1       0.338   5.397  13.788  1.00  0.00     0.035 C 
HETATM   10  C10 UNL     1       0.924   6.769  13.535  1.00  0.00    -0.069 C 
HETATM   11  C11 UNL     1       2.079   7.125  14.130  1.00  0.00     0.030 C 
HETATM   12  C12 UNL     1       2.769   8.407  13.799  1.00  0.00     0.032 C 
HETATM   13  N1  UNL     1       3.823   8.882  14.388  1.00  0.00    -0.271 N 
ATOM     14  H1  UNL     1       4.271   9.763  14.131  1.00  0.00     0.194 HD
HETATM   15  C30 UNL     1       2.226   9.201  12.629  1.00  0.00     0.060 C 
HETATM   16  C31 UNL     1       0.708   9.124  12.594  1.00  0.00     0.020 C 
HETATM   17  C32 UNL     1       0.170   7.663  12.552  1.00  0.00    -0.016 C 
HETATM   18  C33 UNL     1       0.411   7.120  11.118  1.00  0.00     0.020 C 
HETATM   19  C34 UNL     1      -1.376   7.640  12.872  1.00  0.00     0.002 C 
HETATM   20  C35 UNL     1      -1.765   8.479  14.121  1.00  0.00     0.007 C 
HETATM   21  C36 UNL     1      -3.022   8.030  14.871  1.00  0.00     0.014 C 
HETATM   22  C37 UNL     1      -4.097   7.375  13.986  1.00  0.00     0.003 C 
HETATM   23  C38 UNL     1      -4.694   8.453  13.040  1.00  0.00     0.020 C 
ENDROOT
BRANCH   3  24
HETATM   24  O1  UNL     1      -4.706   6.203  16.082  1.00  0.00    -0.377 OA
HETATM   25  H2  UNL     1      -5.458   5.864  16.596  1.00  0.00     0.211 HD
ENDBRANCH   3  24
BRANCH  13  26
HETATM   26  O2  UNL     1       4.276   8.042  15.420  1.00  0.00    -0.271 OA
BRANCH  26  27
HETATM   27  C13 UNL     1       5.608   7.651  15.130  1.00  0.00     0.303 C 
BRANCH  27  28
HETATM   28  C14 UNL     1       6.520   8.877  15.049  1.00  0.00     0.244 C 
HETATM   29  O3  UNL     1       6.723   9.473  13.995  1.00  0.00    -0.271 OA
HETATM   30  N2  UNL     1       7.090   9.233  16.263  1.00  0.00    -0.346 N 
HETATM   31  H16 UNL     1       6.685   8.792  17.078  1.00  0.00     0.163 HD
BRANCH  30  32
HETATM   32  C15 UNL     1       7.715  10.538  16.529  1.00  0.00     0.180 C 
BRANCH  32  33
HETATM   33  C16 UNL     1       9.195  10.258  16.917  1.00  0.00     0.241 C 
HETATM   34  O4  UNL     1       9.582   9.195  17.398  1.00  0.00    -0.271 OA
HETATM   35  N3  UNL     1      10.071  11.281  16.612  1.00  0.00    -0.354 N 
HETATM   36  H18 UNL     1       9.707  12.125  16.172  1.00  0.00     0.162 HD
BRANCH  35  37
HETATM   37  C17 UNL     1      11.510  11.169  16.778  1.00  0.00     0.098 C 
BRANCH  37  38
HETATM   38  C18 UNL     1      12.035  11.844  18.056  1.00  0.00     0.135 C 
BRANCH  38  39
HETATM   39  C19 UNL     1      11.307  11.524  19.332  1.00  0.00     0.141 C 
HETATM   40  O5  UNL     1      10.291  12.028  19.773  1.00  0.00    -0.650 OA
BRANCH  39  41
HETATM   41  O6  UNL     1      11.920  10.532  20.015  1.00  0.00    -0.776 OA
HETATM   42  H22 UNL     1      11.339  10.378  20.788  1.00  0.00     0.167 HD
ENDBRANCH  39  41
ENDBRANCH  38  39
ENDBRANCH  37  38
BRANCH  37  43
HETATM   43  C20 UNL     1      12.326  11.480  15.481  1.00  0.00     0.014 C 
HETATM   44  C21 UNL     1      13.786  11.027  15.435  1.00  0.00     0.033 C 
HETATM   45  C22 UNL     1      14.713  11.856  16.319  1.00  0.00     0.169 C 
HETATM   46  O7  UNL     1      14.113  13.078  16.757  1.00  0.00    -0.381 OA
HETATM   47  C23 UNL     1      13.431  13.820  15.733  1.00  0.00     0.054 C 
HETATM   48  C24 UNL     1      14.423  14.288  14.656  1.00  0.00     0.045 C 
HETATM   49  C25 UNL     1      12.860  15.068  16.421  1.00  0.00     0.045 C 
HETATM   50  C26 UNL     1      12.276  12.985  15.124  1.00  0.00     0.044 C 
ENDBRANCH  37  43
ENDBRANCH  35  37
ENDBRANCH  32  33
BRANCH  32  51
HETATM   51  C27 UNL     1       6.970  11.478  17.507  1.00  0.00     0.009 C 
HETATM   52  C28 UNL     1       7.111  11.025  18.964  1.00  0.00     0.012 C 
HETATM   53  C29 UNL     1       7.488  12.919  17.395  1.00  0.00     0.012 C 
ENDBRANCH  32  51
ENDBRANCH  30  32
ENDBRANCH  27  28
ENDBRANCH  26  27
ENDBRANCH  13  26
TORSDOF 12
ENDMDL
MODEL 8
REMARK minimizedAffinity -7.94454956
REMARK CNNscore 0.155891493
REMARK CNNaffinity 5.83852816
REMARK  12 active torsions:
REMARK  status: ('A' for Active; 'I' for Inactive)
REMARK    1  A    between atoms: C3_3  and  O1_4 
REMARK    2  A    between atoms: N1_14  and  O2_16 
REMARK    3  A    between atoms: O2_16  and  C13_17 
REMARK    4  A    between atoms: C13_17  and  C14_18 
REMARK       I    between atoms: C14_18  and  N2_20 
REMARK    5  A    between atoms: N2_20  and  C15_21 
REMARK    6  A    between atoms: C15_21  and  C16_22 
REMARK    7  A    between atoms: C15_21  and  C27_38 
REMARK       I    between atoms: C16_22  and  N3_24 
REMARK    8  A    between atoms: N3_24  and  C17_25 
REMARK    9  A    between atoms: C17_25  and  C18_26 
REMARK   10  A    between atoms: C17_25  and  C20_30 
REMARK   11  A    between atoms: C18_26  and  C19_27 
REMARK   12  A    between atoms: C19_27  and  O6_29 
ROOT
HETATM    1  C1  UNL     1      -7.129  18.630  13.496  1.00  0.00     0.015 C 
HETATM    2  C2  UNL     1      -6.095  18.108  13.813  1.00  0.00    -0.078 C 
HETATM    3  C3  UNL     1      -4.820  17.474  14.190  1.00  0.00     0.128 C 
HETATM    4  C4  UNL     1      -3.752  18.517  14.531  1.00  0.00     0.052 C 
HETATM    5  C5  UNL     1      -2.680  17.681  15.218  1.00  0.00     0.010 C 
HETATM    6  C6  UNL     1      -3.485  16.784  16.162  1.00  0.00     0.002 C 
HETATM    7  C7  UNL     1      -2.758  15.531  16.710  1.00  0.00    -0.004 C 
HETATM    8  C8  UNL     1      -1.833  14.784  15.733  1.00  0.00     0.010 C 
HETATM    9  C9  UNL     1      -1.133  13.597  16.403  1.00  0.00     0.035 C 
HETATM   10  C10 UNL     1      -2.067  12.678  17.162  1.00  0.00    -0.069 C 
HETATM   11  C11 UNL     1      -1.942  11.343  17.034  1.00  0.00     0.030 C 
HETATM   12  C12 UNL     1      -2.740  10.398  17.870  1.00  0.00     0.032 C 
HETATM   13  N1  UNL     1      -2.765   9.106  17.751  1.00  0.00    -0.271 N 
ATOM     14  H1  UNL     1      -3.322   8.490  18.345  1.00  0.00     0.194 HD
HETATM   15  C30 UNL     1      -3.552  10.994  19.002  1.00  0.00     0.060 C 
HETATM   16  C31 UNL     1      -4.150  12.327  18.581  1.00  0.00     0.020 C 
HETATM   17  C32 UNL     1      -3.082  13.348  18.086  1.00  0.00    -0.016 C 
HETATM   18  C33 UNL     1      -2.328  13.874  19.336  1.00  0.00     0.020 C 
HETATM   19  C34 UNL     1      -3.781  14.554  17.344  1.00  0.00     0.002 C 
HETATM   20  C35 UNL     1      -4.843  14.109  16.299  1.00  0.00     0.007 C 
HETATM   21  C36 UNL     1      -5.084  15.071  15.132  1.00  0.00     0.014 C 
HETATM   22  C37 UNL     1      -4.874  16.557  15.471  1.00  0.00     0.003 C 
HETATM   23  C38 UNL     1      -5.989  17.010  16.455  1.00  0.00     0.020 C 
ENDROOT
BRANCH   3  24
HETATM   24  O1  UNL     1      -4.340  16.741  13.060  1.00  0.00    -0.377 OA
HETATM   25  H2  UNL     1      -4.430  17.318  12.283  1.00  0.00     0.211 HD
ENDBRANCH   3  24
BRANCH  13  26
HETATM   26  O2  UNL     1      -1.937   8.655  16.710  1.00  0.00    -0.271 OA
BRANCH  26  27
HETATM   27  C13 UNL     1      -2.568   7.552  16.078  1.00  0.00     0.303 C 
BRANCH  27  28
HETATM   28  C14 UNL     1      -1.623   6.906  15.062  1.00  0.00     0.244 C 
HETATM   29  O3  UNL     1      -0.405   6.896  15.215  1.00  0.00    -0.271 OA
HETATM   30  N2  UNL     1      -2.272   6.352  13.968  1.00  0.00    -0.346 N 
HETATM   31  H16 UNL     1      -3.273   6.248  14.064  1.00  0.00     0.163 HD
BRANCH  30  32
HETATM   32  C15 UNL     1      -1.650   5.394  13.040  1.00  0.00     0.180 C 
BRANCH  32  33
HETATM   33  C16 UNL     1      -0.500   6.150  12.315  1.00  0.00     0.241 C 
HETATM   34  O4  UNL     1      -0.674   7.159  11.636  1.00  0.00    -0.271 OA
HETATM   35  N3  UNL     1       0.760   5.639  12.552  1.00  0.00    -0.354 N 
HETATM   36  H18 UNL     1       0.856   4.827  13.160  1.00  0.00     0.162 HD
BRANCH  35  37
HETATM   37  C17 UNL     1       1.977   6.274  12.072  1.00  0.00     0.098 C 
BRANCH  37  38
HETATM   38  C18 UNL     1       1.972   7.804  12.227  1.00  0.00     0.135 C 
BRANCH  38  39
HETATM   39  C19 UNL     1       2.522   8.351  13.514  1.00  0.00     0.141 C 
HETATM   40  O5  UNL     1       2.192   9.359  14.113  1.00  0.00    -0.650 OA
BRANCH  39  41
HETATM   41  O6  UNL     1       3.498   7.560  14.011  1.00  0.00    -0.776 OA
HETATM   42  H22 UNL     1       3.740   7.981  14.861  1.00  0.00     0.167 HD
ENDBRANCH  39  41
ENDBRANCH  38  39
ENDBRANCH  37  38
BRANCH  37  43
HETATM   43  C20 UNL     1       2.462   5.749  10.682  1.00  0.00     0.014 C 
HETATM   44  C21 UNL     1       3.884   6.106  10.246  1.00  0.00     0.033 C 
HETATM   45  C22 UNL     1       4.052   7.569   9.847  1.00  0.00     0.169 C 
HETATM   46  O7  UNL     1       2.803   8.236   9.646  1.00  0.00    -0.381 OA
HETATM   47  C23 UNL     1       1.844   7.503   8.866  1.00  0.00     0.054 C 
HETATM   48  C24 UNL     1       2.360   7.295   7.433  1.00  0.00     0.045 C 
HETATM   49  C25 UNL     1       0.592   8.388   8.792  1.00  0.00     0.045 C 
HETATM   50  C26 UNL     1       1.492   6.157   9.548  1.00  0.00     0.044 C 
ENDBRANCH  37  43
ENDBRANCH  35  37
ENDBRANCH  32  33
BRANCH  32  51
HETATM   51  C27 UNL     1      -2.603   4.629  12.089  1.00  0.00     0.009 C 
HETATM   52  C28 UNL     1      -2.006   3.299  11.618  1.00  0.00     0.012 C 
HETATM   53  C29 UNL     1      -3.951   4.343  12.767  1.00  0.00     0.012 C 
ENDBRANCH  32  51
ENDBRANCH  30  32
ENDBRANCH  27  28
ENDBRANCH  26  27
ENDBRANCH  13  26
TORSDOF 12
ENDMDL
MODEL 9
REMARK minimizedAffinity -8.04211044
REMARK CNNscore 0.148594975
REMARK CNNaffinity 6.90655088
REMARK  12 active torsions:
REMARK  status: ('A' for Active; 'I' for Inactive)
REMARK    1  A    between atoms: C3_3  and  O1_4 
REMARK    2  A    between atoms: N1_14  and  O2_16 
REMARK    3  A    between atoms: O2_16  and  C13_17 
REMARK    4  A    between atoms: C13_17  and  C14_18 
REMARK       I    between atoms: C14_18  and  N2_20 
REMARK    5  A    between atoms: N2_20  and  C15_21 
REMARK    6  A    between atoms: C15_21  and  C16_22 
REMARK    7  A    between atoms: C15_21  and  C27_38 
REMARK       I    between atoms: C16_22  and  N3_24 
REMARK    8  A    between atoms: N3_24  and  C17_25 
REMARK    9  A    between atoms: C17_25  and  C18_26 
REMARK   10  A    between atoms: C17_25  and  C20_30 
REMARK   11  A    between atoms: C18_26  and  C19_27 
REMARK   12  A    between atoms: C19_27  and  O6_29 
ROOT
HETATM    1  C1  UNL     1       6.287   9.055  15.996  1.00  0.00     0.015 C 
HETATM    2  C2  UNL     1       5.204   9.249  15.515  1.00  0.00    -0.078 C 
HETATM    3  C3  UNL     1       3.874   9.498  14.935  1.00  0.00     0.128 C 
HETATM    4  C4  UNL     1       3.836  10.820  14.161  1.00  0.00     0.052 C 
HETATM    5  C5  UNL     1       2.539  10.704  13.372  1.00  0.00     0.010 C 
HETATM    6  C6  UNL     1       2.583   9.272  12.829  1.00  0.00     0.002 C 
HETATM    7  C7  UNL     1       1.242   8.682  12.330  1.00  0.00    -0.004 C 
HETATM    8  C8  UNL     1      -0.016   9.031  13.147  1.00  0.00     0.010 C 
HETATM    9  C9  UNL     1      -1.283   8.434  12.527  1.00  0.00     0.035 C 
HETATM   10  C10 UNL     1      -1.175   6.960  12.198  1.00  0.00    -0.069 C 
HETATM   11  C11 UNL     1      -2.187   6.128  12.510  1.00  0.00     0.030 C 
HETATM   12  C12 UNL     1      -2.189   4.699  12.078  1.00  0.00     0.032 C 
HETATM   13  N1  UNL     1      -3.062   3.799  12.413  1.00  0.00    -0.271 N 
ATOM     14  H1  UNL     1      -3.033   2.830  12.094  1.00  0.00     0.194 HD
HETATM   15  C30 UNL     1      -1.105   4.269  11.110  1.00  0.00     0.060 C 
HETATM   16  C31 UNL     1       0.208   4.962  11.441  1.00  0.00     0.020 C 
HETATM   17  C32 UNL     1       0.091   6.515  11.468  1.00  0.00    -0.016 C 
HETATM   18  C33 UNL     1      -0.001   6.999   9.996  1.00  0.00     0.020 C 
HETATM   19  C34 UNL     1       1.365   7.147  12.152  1.00  0.00     0.002 C 
HETATM   20  C35 UNL     1       1.754   6.464  13.494  1.00  0.00     0.007 C 
HETATM   21  C36 UNL     1       2.496   7.342  14.507  1.00  0.00     0.014 C 
HETATM   22  C37 UNL     1       3.385   8.431  13.882  1.00  0.00     0.003 C 
HETATM   23  C38 UNL     1       4.579   7.751  13.157  1.00  0.00     0.020 C 
ENDROOT
BRANCH   3  24
HETATM   24  O1  UNL     1       2.938   9.618  16.009  1.00  0.00    -0.377 OA
HETATM   25  H2  UNL     1       3.338  10.202  16.676  1.00  0.00     0.211 HD
ENDBRANCH   3  24
BRANCH  13  26
HETATM   26  O2  UNL     1      -4.051   4.316  13.267  1.00  0.00    -0.271 OA
BRANCH  26  27
HETATM   27  C13 UNL     1      -5.282   4.345  12.562  1.00  0.00     0.303 C 
BRANCH  27  28
HETATM   28  C14 UNL     1      -6.456   4.442  13.541  1.00  0.00     0.244 C 
HETATM   29  O3  UNL     1      -6.831   3.484  14.209  1.00  0.00    -0.271 OA
HETATM   30  N2  UNL     1      -7.046   5.698  13.585  1.00  0.00    -0.346 N 
HETATM   31  H16 UNL     1      -6.518   6.441  13.145  1.00  0.00     0.163 HD
BRANCH  30  32
HETATM   32  C15 UNL     1      -7.944   6.148  14.659  1.00  0.00     0.180 C 
BRANCH  32  33
HETATM   33  C16 UNL     1      -9.216   6.721  13.972  1.00  0.00     0.241 C 
HETATM   34  O4  UNL     1      -9.495   6.529  12.790  1.00  0.00    -0.271 OA
HETATM   35  N3  UNL     1     -10.062   7.412  14.816  1.00  0.00    -0.354 N 
HETATM   36  H18 UNL     1      -9.808   7.506  15.799  1.00  0.00     0.162 HD
BRANCH  35  37
HETATM   37  C17 UNL     1     -11.360   7.917  14.401  1.00  0.00     0.098 C 
BRANCH  37  38
HETATM   38  C18 UNL     1     -12.269   6.839  13.785  1.00  0.00     0.135 C 
BRANCH  38  39
HETATM   39  C19 UNL     1     -13.386   6.328  14.650  1.00  0.00     0.141 C 
HETATM   40  O5  UNL     1     -13.856   5.206  14.699  1.00  0.00    -0.650 OA
BRANCH  39  41
HETATM   41  O6  UNL     1     -13.872   7.299  15.455  1.00  0.00    -0.776 OA
HETATM   42  H22 UNL     1     -14.548   6.845  15.998  1.00  0.00     0.167 HD
ENDBRANCH  39  41
ENDBRANCH  38  39
ENDBRANCH  37  38
BRANCH  37  43
HETATM   43  C20 UNL     1     -11.296   9.262  13.607  1.00  0.00     0.014 C 
HETATM   44  C21 UNL     1     -11.306  10.563  14.413  1.00  0.00     0.033 C 
HETATM   45  C22 UNL     1     -12.663  10.891  15.027  1.00  0.00     0.169 C 
HETATM   46  O7  UNL     1     -13.726  10.112  14.472  1.00  0.00    -0.381 OA
HETATM   47  C23 UNL     1     -13.719  10.011  13.038  1.00  0.00     0.054 C 
HETATM   48  C24 UNL     1     -13.934  11.394  12.400  1.00  0.00     0.045 C 
HETATM   49  C25 UNL     1     -14.920   9.131  12.668  1.00  0.00     0.045 C 
HETATM   50  C26 UNL     1     -12.411   9.347  12.538  1.00  0.00     0.044 C 
ENDBRANCH  37  43
ENDBRANCH  35  37
ENDBRANCH  32  33
BRANCH  32  51
HETATM   51  C27 UNL     1      -7.331   7.079  15.733  1.00  0.00     0.009 C 
HETATM   52  C28 UNL     1      -6.981   8.460  15.169  1.00  0.00     0.012 C 
HETATM   53  C29 UNL     1      -8.290   7.268  16.918  1.00  0.00     0.012 C 
ENDBRANCH  32  51
ENDBRANCH  30  32
ENDBRANCH  27  28
ENDBRANCH  26  27
ENDBRANCH  13  26
TORSDOF 12
ENDMDL
