MODEL 1
REMARK minimizedAffinity -7.3350172
REMARK CNNscore 0.614640236
REMARK CNNaffinity 7.33754158
REMARK  9 active torsions:
REMARK  status: ('A' for Active; 'I' for Inactive)
REMARK    1  A    between atoms: C2_2  and  C3_3 
REMARK    2  A    between atoms: C2_2  and  C9_11 
REMARK    3  A    between atoms: C3_3  and  C4_4 
REMARK    4  A    between atoms: C4_4  and  C5_5 
REMARK    5  A    between atoms: C5_5  and  O1_6 
REMARK    6  A    between atoms: C5_5  and  C6_7 
REMARK    7  A    between atoms: C6_7  and  O2_10 
REMARK    8  A    between atoms: C17_19  and  C18_20 
REMARK    9  A    between atoms: C18_20  and  O3_23 
ROOT
HETATM    1  C9  UNL     1      -9.152   6.798  13.833  1.00  0.00    -0.002 C 
HETATM    2  C10 UNL     1      -8.559   6.432  15.232  1.00  0.00     0.006 C 
HETATM    3  C11 UNL     1      -9.265   7.330  16.274  1.00  0.00     0.011 C 
HETATM    4  C12 UNL     1      -9.952   8.422  15.431  1.00  0.00    -0.032 C 
HETATM    5  C13 UNL     1      -8.818   9.443  15.071  1.00  0.00     0.016 C 
HETATM    6  C14 UNL     1     -11.163   9.127  16.109  1.00  0.00     0.003 C 
HETATM    7  C15 UNL     1     -10.857   9.774  17.468  1.00  0.00     0.009 C 
HETATM    8  C16 UNL     1     -11.929  10.732  17.983  1.00  0.00     0.042 C 
HETATM    9  C17 UNL     1     -13.366  10.601  17.407  1.00  0.00     0.095 C 
HETATM   10  O4  UNL     1     -14.027  11.877  17.684  1.00  0.00    -0.377 OA
HETATM   11  C21 UNL     1     -13.770  12.915  16.752  1.00  0.00     0.169 C 
HETATM   12  C22 UNL     1     -14.416  12.603  15.420  1.00  0.00     0.027 C 
HETATM   13  C23 UNL     1     -14.428  11.116  15.094  1.00  0.00     0.010 C 
HETATM   14  C24 UNL     1     -13.412  10.249  15.870  1.00  0.00     0.032 C 
HETATM   15  C25 UNL     1     -12.001  10.050  15.153  1.00  0.00    -0.033 C 
HETATM   16  C26 UNL     1     -11.313  11.400  14.855  1.00  0.00     0.016 C 
HETATM   17  C27 UNL     1     -12.235   9.351  13.759  1.00  0.00     0.011 C 
HETATM   18  C28 UNL     1     -11.062   8.533  13.171  1.00  0.00     0.011 C 
HETATM   19  C29 UNL     1     -10.463   7.560  14.202  1.00  0.00    -0.032 C 
HETATM   20  C30 UNL     1     -11.572   6.523  14.553  1.00  0.00     0.016 C 
ENDROOT
BRANCH   1  21
HETATM   21  C2  UNL     1      -9.084   5.621  12.810  1.00  0.00    -0.014 C 
HETATM   22  C1  UNL     1      -8.830   5.987  11.342  1.00  0.00     0.010 C 
BRANCH  21  23
HETATM   23  C3  UNL     1      -8.106   4.521  13.276  1.00  0.00     0.007 C 
BRANCH  23  24
HETATM   24  C4  UNL     1      -7.060   4.031  12.256  1.00  0.00     0.035 C 
BRANCH  24  25
HETATM   25  C5  UNL     1      -6.626   2.563  12.432  1.00  0.00     0.151 C 
BRANCH  25  26
HETATM   26  O1  UNL     1      -7.796   1.752  12.543  1.00  0.00    -0.393 OA
HETATM   27  H10 UNL     1      -7.531   0.882  12.887  1.00  0.00     0.210 HD
ENDBRANCH  25  26
BRANCH  25  28
HETATM   28  C6  UNL     1      -5.711   2.057  11.272  1.00  0.00     0.076 C 
HETATM   29  C7  UNL     1      -5.544   3.134  10.192  1.00  0.00     0.048 C 
HETATM   30  C8  UNL     1      -4.326   1.627  11.767  1.00  0.00     0.048 C 
BRANCH  28  31
HETATM   31  O2  UNL     1      -6.311   0.915  10.644  1.00  0.00    -0.388 OA
HETATM   32  H17 UNL     1      -7.156   1.193  10.252  1.00  0.00     0.210 HD
ENDBRANCH  28  31
ENDBRANCH  25  28
ENDBRANCH  24  25
ENDBRANCH  23  24
ENDBRANCH  21  23
ENDBRANCH   1  21
BRANCH   9  33
HETATM   33  C18 UNL     1     -14.241   9.594  18.294  1.00  0.00     0.082 C 
HETATM   34  C19 UNL     1     -15.745   9.875  18.328  1.00  0.00     0.049 C 
HETATM   35  C20 UNL     1     -13.736   9.466  19.742  1.00  0.00     0.049 C 
BRANCH  33  36
HETATM   36  O3  UNL     1     -14.095   8.271  17.729  1.00  0.00    -0.388 OA
HETATM   37  H37 UNL     1     -13.139   8.198  17.528  1.00  0.00     0.210 HD
ENDBRANCH  33  36
ENDBRANCH   9  33
TORSDOF 9
ENDMDL
MODEL 2
REMARK minimizedAffinity -7.52531052
REMARK CNNscore 0.570467353
REMARK CNNaffinity 6.66780424
REMARK  9 active torsions:
REMARK  status: ('A' for Active; 'I' for Inactive)
REMARK    1  A    between atoms: C2_2  and  C3_3 
REMARK    2  A    between atoms: C2_2  and  C9_11 
REMARK    3  A    between atoms: C3_3  and  C4_4 
REMARK    4  A    between atoms: C4_4  and  C5_5 
REMARK    5  A    between atoms: C5_5  and  O1_6 
REMARK    6  A    between atoms: C5_5  and  C6_7 
REMARK    7  A    between atoms: C6_7  and  O2_10 
REMARK    8  A    between atoms: C17_19  and  C18_20 
REMARK    9  A    between atoms: C18_20  and  O3_23 
ROOT
HETATM    1  C9  UNL     1      -1.959   8.150  14.307  1.00  0.00    -0.002 C 
HETATM    2  C10 UNL     1      -1.202   7.170  15.260  1.00  0.00     0.006 C 
HETATM    3  C11 UNL     1      -0.047   6.545  14.445  1.00  0.00     0.011 C 
HETATM    4  C12 UNL     1      -0.387   6.884  12.982  1.00  0.00    -0.032 C 
HETATM    5  C13 UNL     1      -1.476   5.840  12.556  1.00  0.00     0.016 C 
HETATM    6  C14 UNL     1       0.820   6.887  11.997  1.00  0.00     0.003 C 
HETATM    7  C15 UNL     1       1.618   5.576  11.952  1.00  0.00     0.009 C 
HETATM    8  C16 UNL     1       2.587   5.451  10.777  1.00  0.00     0.042 C 
HETATM    9  C17 UNL     1       3.046   6.753  10.064  1.00  0.00     0.095 C 
HETATM   10  O4  UNL     1       3.540   6.338   8.750  1.00  0.00    -0.377 OA
HETATM   11  C21 UNL     1       2.550   6.164   7.750  1.00  0.00     0.169 C 
HETATM   12  C22 UNL     1       1.948   7.496   7.362  1.00  0.00     0.027 C 
HETATM   13  C23 UNL     1       1.854   8.473   8.525  1.00  0.00     0.010 C 
HETATM   14  C24 UNL     1       1.915   7.847   9.936  1.00  0.00     0.032 C 
HETATM   15  C25 UNL     1       0.503   7.475  10.576  1.00  0.00    -0.033 C 
HETATM   16  C26 UNL     1      -0.295   6.502   9.680  1.00  0.00     0.016 C 
HETATM   17  C27 UNL     1      -0.364   8.787  10.690  1.00  0.00     0.011 C 
HETATM   18  C28 UNL     1      -1.465   8.817  11.775  1.00  0.00     0.011 C 
HETATM   19  C29 UNL     1      -0.936   8.362  13.147  1.00  0.00    -0.032 C 
HETATM   20  C30 UNL     1       0.131   9.404  13.596  1.00  0.00     0.016 C 
ENDROOT
BRANCH   1  21
HETATM   21  C2  UNL     1      -2.676   9.312  15.063  1.00  0.00    -0.014 C 
HETATM   22  C1  UNL     1      -4.154   9.554  14.731  1.00  0.00     0.010 C 
BRANCH  21  23
HETATM   23  C3  UNL     1      -2.468   9.208  16.590  1.00  0.00     0.007 C 
BRANCH  23  24
HETATM   24  C4  UNL     1      -1.434  10.157  17.225  1.00  0.00     0.035 C 
BRANCH  24  25
HETATM   25  C5  UNL     1      -1.852  11.640  17.252  1.00  0.00     0.151 C 
BRANCH  25  26
HETATM   26  O1  UNL     1      -1.978  12.104  15.908  1.00  0.00    -0.393 OA
HETATM   27  H10 UNL     1      -2.004  13.075  15.923  1.00  0.00     0.210 HD
ENDBRANCH  25  26
BRANCH  25  28
HETATM   28  C6  UNL     1      -3.175  11.884  18.046  1.00  0.00     0.076 C 
HETATM   29  C7  UNL     1      -3.519  10.676  18.930  1.00  0.00     0.048 C 
HETATM   30  C8  UNL     1      -3.109  13.140  18.921  1.00  0.00     0.048 C 
BRANCH  28  31
HETATM   31  O2  UNL     1      -4.265  12.062  17.130  1.00  0.00    -0.388 OA
HETATM   32  H17 UNL     1      -4.374  11.240  16.623  1.00  0.00     0.210 HD
ENDBRANCH  28  31
ENDBRANCH  25  28
ENDBRANCH  24  25
ENDBRANCH  23  24
ENDBRANCH  21  23
ENDBRANCH   1  21
BRANCH   9  33
HETATM   33  C18 UNL     1       4.381   7.326  10.737  1.00  0.00     0.082 C 
HETATM   34  C19 UNL     1       4.341   7.490  12.257  1.00  0.00     0.049 C 
HETATM   35  C20 UNL     1       4.853   8.653  10.115  1.00  0.00     0.049 C 
BRANCH  33  36
HETATM   36  O3  UNL     1       5.447   6.387  10.466  1.00  0.00    -0.388 OA
HETATM   37  H37 UNL     1       5.321   6.143   9.525  1.00  0.00     0.210 HD
ENDBRANCH  33  36
ENDBRANCH   9  33
TORSDOF 9
ENDMDL
MODEL 3
REMARK minimizedAffinity -8.24715233
REMARK CNNscore 0.470187098
REMARK CNNaffinity 7.0999012
REMARK  9 active torsions:
REMARK  status: ('A' for Active; 'I' for Inactive)
REMARK    1  A    between atoms: C2_2  and  C3_3 
REMARK    2  A    between atoms: C2_2  and  C9_11 
REMARK    3  A    between atoms: C3_3  and  C4_4 
REMARK    4  A    between atoms: C4_4  and  C5_5 
REMARK    5  A    between atoms: C5_5  and  O1_6 
REMARK    6  A    between atoms: C5_5  and  C6_7 
REMARK    7  A    between atoms: C6_7  and  O2_10 
REMARK    8  A    between atoms: C17_19  and  C18_20 
REMARK    9  A    between atoms: C18_20  and  O3_23 
ROOT
HETATM    1  C9  UNL     1       0.860   7.492  13.077  1.00  0.00    -0.002 C 
HETATM    2  C10 UNL     1       1.108   6.006  13.493  1.00  0.00     0.006 C 
HETATM    3  C11 UNL     1      -0.224   5.466  14.062  1.00  0.00     0.011 C 
HETATM    4  C12 UNL     1      -1.076   6.726  14.302  1.00  0.00    -0.032 C 
HETATM    5  C13 UNL     1      -0.552   7.331  15.650  1.00  0.00     0.016 C 
HETATM    6  C14 UNL     1      -2.616   6.498  14.336  1.00  0.00     0.003 C 
HETATM    7  C15 UNL     1      -3.092   5.465  15.368  1.00  0.00     0.009 C 
HETATM    8  C16 UNL     1      -4.596   5.467  15.637  1.00  0.00     0.042 C 
HETATM    9  C17 UNL     1      -5.530   6.094  14.565  1.00  0.00     0.095 C 
HETATM   10  O4  UNL     1      -6.786   6.395  15.255  1.00  0.00    -0.377 OA
HETATM   11  C21 UNL     1      -6.815   7.620  15.967  1.00  0.00     0.169 C 
HETATM   12  C22 UNL     1      -6.789   8.791  15.009  1.00  0.00     0.027 C 
HETATM   13  C23 UNL     1      -5.963   8.524  13.759  1.00  0.00     0.010 C 
HETATM   14  C24 UNL     1      -4.935   7.376  13.865  1.00  0.00     0.032 C 
HETATM   15  C25 UNL     1      -3.473   7.814  14.328  1.00  0.00    -0.033 C 
HETATM   16  C26 UNL     1      -3.495   8.533  15.695  1.00  0.00     0.016 C 
HETATM   17  C27 UNL     1      -2.900   8.852  13.288  1.00  0.00     0.011 C 
HETATM   18  C28 UNL     1      -1.363   8.959  13.166  1.00  0.00     0.011 C 
HETATM   19  C29 UNL     1      -0.698   7.579  13.019  1.00  0.00    -0.032 C 
HETATM   20  C30 UNL     1      -1.190   6.974  11.670  1.00  0.00     0.016 C 
ENDROOT
BRANCH   1  21
HETATM   21  C2  UNL     1       1.805   7.976  11.932  1.00  0.00    -0.014 C 
HETATM   22  C1  UNL     1       2.793   9.099  12.272  1.00  0.00     0.010 C 
BRANCH  21  23
HETATM   23  C3  UNL     1       2.533   6.791  11.261  1.00  0.00     0.007 C 
BRANCH  23  24
HETATM   24  C4  UNL     1       1.958   6.278   9.926  1.00  0.00     0.035 C 
BRANCH  24  25
HETATM   25  C5  UNL     1       2.799   6.631   8.684  1.00  0.00     0.151 C 
BRANCH  25  26
HETATM   26  O1  UNL     1       3.055   5.433   7.952  1.00  0.00    -0.393 OA
HETATM   27  H10 UNL     1       3.769   5.611   7.317  1.00  0.00     0.210 HD
ENDBRANCH  25  26
BRANCH  25  28
HETATM   28  C6  UNL     1       2.118   7.700   7.773  1.00  0.00     0.076 C 
HETATM   29  C7  UNL     1       1.837   7.134   6.374  1.00  0.00     0.048 C 
HETATM   30  C8  UNL     1       0.810   8.229   8.369  1.00  0.00     0.048 C 
BRANCH  28  31
HETATM   31  O2  UNL     1       2.994   8.825   7.607  1.00  0.00    -0.388 OA
HETATM   32  H17 UNL     1       3.798   8.520   7.153  1.00  0.00     0.210 HD
ENDBRANCH  28  31
ENDBRANCH  25  28
ENDBRANCH  24  25
ENDBRANCH  23  24
ENDBRANCH  21  23
ENDBRANCH   1  21
BRANCH   9  33
HETATM   33  C18 UNL     1      -6.007   4.984  13.513  1.00  0.00     0.082 C 
HETATM   34  C19 UNL     1      -6.768   3.795  14.100  1.00  0.00     0.049 C 
HETATM   35  C20 UNL     1      -4.860   4.447  12.638  1.00  0.00     0.049 C 
BRANCH  33  36
HETATM   36  O3  UNL     1      -6.916   5.621  12.586  1.00  0.00    -0.388 OA
HETATM   37  H37 UNL     1      -6.492   6.481  12.382  1.00  0.00     0.210 HD
ENDBRANCH  33  36
ENDBRANCH   9  33
TORSDOF 9
ENDMDL
MODEL 4
REMARK minimizedAffinity -6.77401829
REMARK CNNscore 0.454595149
REMARK CNNaffinity 6.53087473
REMARK  9 active torsions:
REMARK  status: ('A' for Active; 'I' for Inactive)
REMARK    1  A    between atoms: C2_2  and  C3_3 
REMARK    2  A    between atoms: C2_2  and  C9_11 
REMARK    3  A    between atoms: C3_3  and  C4_4 
REMARK    4  A    between atoms: C4_4  and  C5_5 
REMARK    5  A    between atoms: C5_5  and  O1_6 
REMARK    6  A    between atoms: C5_5  and  C6_7 
REMARK    7  A    between atoms: C6_7  and  O2_10 
REMARK    8  A    between atoms: C17_19  and  C18_20 
REMARK    9  A    between atoms: C18_20  and  O3_23 
ROOT
HETATM    1  C9  UNL     1     -10.653  -7.043  -4.875  1.00  0.00    -0.002 C 
HETATM    2  C10 UNL     1     -11.893  -7.484  -4.031  1.00  0.00     0.006 C 
HETATM    3  C11 UNL     1     -11.398  -8.536  -3.012  1.00  0.00     0.011 C 
HETATM    4  C12 UNL     1     -10.005  -8.941  -3.529  1.00  0.00    -0.032 C 
HETATM    5  C13 UNL     1     -10.273  -9.953  -4.696  1.00  0.00     0.016 C 
HETATM    6  C14 UNL     1      -9.043  -9.540  -2.461  1.00  0.00     0.003 C 
HETATM    7  C15 UNL     1      -9.589 -10.767  -1.716  1.00  0.00     0.009 C 
HETATM    8  C16 UNL     1      -8.551 -11.549  -0.913  1.00  0.00     0.042 C 
HETATM    9  C17 UNL     1      -7.237 -10.824  -0.511  1.00  0.00     0.095 C 
HETATM   10  O4  UNL     1      -6.272 -11.881  -0.205  1.00  0.00    -0.377 OA
HETATM   11  C21 UNL     1      -5.599 -12.439  -1.322  1.00  0.00     0.169 C 
HETATM   12  C22 UNL     1      -4.651 -11.427  -1.928  1.00  0.00     0.027 C 
HETATM   13  C23 UNL     1      -5.164  -9.997  -1.839  1.00  0.00     0.010 C 
HETATM   14  C24 UNL     1      -6.684  -9.840  -1.614  1.00  0.00     0.032 C 
HETATM   15  C25 UNL     1      -7.557  -9.712  -2.942  1.00  0.00    -0.033 C 
HETATM   16  C26 UNL     1      -7.358 -10.923  -3.879  1.00  0.00     0.016 C 
HETATM   17  C27 UNL     1      -7.076  -8.443  -3.745  1.00  0.00     0.011 C 
HETATM   18  C28 UNL     1      -8.097  -7.775  -4.695  1.00  0.00     0.011 C 
HETATM   19  C29 UNL     1      -9.452  -7.533  -4.006  1.00  0.00    -0.032 C 
HETATM   20  C30 UNL     1      -9.207  -6.510  -2.857  1.00  0.00     0.016 C 
ENDROOT
BRANCH   1  21
HETATM   21  C2  UNL     1     -10.784  -5.598  -5.451  1.00  0.00    -0.014 C 
HETATM   22  C1  UNL     1     -12.202  -5.036  -5.608  1.00  0.00     0.010 C 
BRANCH  21  23
HETATM   23  C3  UNL     1      -9.881  -4.602  -4.690  1.00  0.00     0.007 C 
BRANCH  23  24
HETATM   24  C4  UNL     1      -9.222  -3.481  -5.515  1.00  0.00     0.035 C 
BRANCH  24  25
HETATM   25  C5  UNL     1      -9.028  -2.153  -4.758  1.00  0.00     0.151 C 
BRANCH  25  26
HETATM   26  O1  UNL     1      -7.629  -1.917  -4.600  1.00  0.00    -0.393 OA
HETATM   27  H10 UNL     1      -7.512  -1.222  -3.930  1.00  0.00     0.210 HD
ENDBRANCH  25  26
BRANCH  25  28
HETATM   28  C6  UNL     1      -9.715  -0.943  -5.468  1.00  0.00     0.076 C 
HETATM   29  C7  UNL     1     -10.569  -0.136  -4.479  1.00  0.00     0.048 C 
HETATM   30  C8  UNL     1      -8.704  -0.005  -6.134  1.00  0.00     0.048 C 
BRANCH  28  31
HETATM   31  O2  UNL     1     -10.594  -1.420  -6.496  1.00  0.00    -0.388 OA
HETATM   32  H17 UNL     1     -11.293  -1.950  -6.078  1.00  0.00     0.210 HD
ENDBRANCH  28  31
ENDBRANCH  25  28
ENDBRANCH  24  25
ENDBRANCH  23  24
ENDBRANCH  21  23
ENDBRANCH   1  21
BRANCH   9  33
HETATM   33  C18 UNL     1      -7.395 -10.118   0.918  1.00  0.00     0.082 C 
HETATM   34  C19 UNL     1      -6.117 -10.016   1.753  1.00  0.00     0.049 C 
HETATM   35  C20 UNL     1      -8.497 -10.749   1.787  1.00  0.00     0.049 C 
BRANCH  33  36
HETATM   36  O3  UNL     1      -7.831  -8.758   0.690  1.00  0.00    -0.388 OA
HETATM   37  H37 UNL     1      -8.517  -8.838  -0.005  1.00  0.00     0.210 HD
ENDBRANCH  33  36
ENDBRANCH   9  33
TORSDOF 9
ENDMDL
MODEL 5
REMARK minimizedAffinity -8.96449184
REMARK CNNscore 0.360403866
REMARK CNNaffinity 6.9850173
REMARK  9 active torsions:
REMARK  status: ('A' for Active; 'I' for Inactive)
REMARK    1  A    between atoms: C2_2  and  C3_3 
REMARK    2  A    between atoms: C2_2  and  C9_11 
REMARK    3  A    between atoms: C3_3  and  C4_4 
REMARK    4  A    between atoms: C4_4  and  C5_5 
REMARK    5  A    between atoms: C5_5  and  O1_6 
REMARK    6  A    between atoms: C5_5  and  C6_7 
REMARK    7  A    between atoms: C6_7  and  O2_10 
REMARK    8  A    between atoms: C17_19  and  C18_20 
REMARK    9  A    between atoms: C18_20  and  O3_23 
ROOT
HETATM    1  C9  UNL     1      -5.752   6.318  14.468  1.00  0.00    -0.002 C 
HETATM    2  C10 UNL     1      -6.227   7.400  13.445  1.00  0.00     0.006 C 
HETATM    3  C11 UNL     1      -4.962   8.119  12.923  1.00  0.00     0.011 C 
HETATM    4  C12 UNL     1      -3.854   7.704  13.909  1.00  0.00    -0.032 C 
HETATM    5  C13 UNL     1      -4.057   8.615  15.169  1.00  0.00     0.016 C 
HETATM    6  C14 UNL     1      -2.400   7.799  13.361  1.00  0.00     0.003 C 
HETATM    7  C15 UNL     1      -1.998   9.185  12.835  1.00  0.00     0.009 C 
HETATM    8  C16 UNL     1      -0.500   9.377  12.600  1.00  0.00     0.042 C 
HETATM    9  C17 UNL     1       0.381   8.110  12.423  1.00  0.00     0.095 C 
HETATM   10  O4  UNL     1       1.755   8.536  12.697  1.00  0.00    -0.377 OA
HETATM   11  C21 UNL     1       2.123   8.577  14.065  1.00  0.00     0.169 C 
HETATM   12  C22 UNL     1       2.196   7.178  14.636  1.00  0.00     0.027 C 
HETATM   13  C23 UNL     1       1.168   6.231  14.034  1.00  0.00     0.010 C 
HETATM   14  C24 UNL     1      -0.041   6.901  13.344  1.00  0.00     0.032 C 
HETATM   15  C25 UNL     1      -1.310   7.140  14.280  1.00  0.00    -0.033 C 
HETATM   16  C26 UNL     1      -0.958   7.998  15.516  1.00  0.00     0.016 C 
HETATM   17  C27 UNL     1      -1.805   5.748  14.830  1.00  0.00     0.011 C 
HETATM   18  C28 UNL     1      -3.293   5.634  15.234  1.00  0.00     0.011 C 
HETATM   19  C29 UNL     1      -4.231   6.181  14.143  1.00  0.00    -0.032 C 
HETATM   20  C30 UNL     1      -4.059   5.271  12.891  1.00  0.00     0.016 C 
ENDROOT
BRANCH   1  21
HETATM   21  C2  UNL     1      -6.732   5.109  14.585  1.00  0.00    -0.014 C 
HETATM   22  C1  UNL     1      -7.535   4.986  15.886  1.00  0.00     0.010 C 
BRANCH  21  23
HETATM   23  C3  UNL     1      -7.664   5.015  13.357  1.00  0.00     0.007 C 
BRANCH  23  24
HETATM   24  C4  UNL     1      -7.161   4.192  12.155  1.00  0.00     0.035 C 
BRANCH  24  25
HETATM   25  C5  UNL     1      -6.741   2.748  12.493  1.00  0.00     0.151 C 
BRANCH  25  26
HETATM   26  O1  UNL     1      -7.918   1.970  12.708  1.00  0.00    -0.393 OA
HETATM   27  H10 UNL     1      -7.659   1.142  13.146  1.00  0.00     0.210 HD
ENDBRANCH  25  26
BRANCH  25  28
HETATM   28  C6  UNL     1      -5.846   2.102  11.389  1.00  0.00     0.076 C 
HETATM   29  C7  UNL     1      -5.690   3.041  10.185  1.00  0.00     0.048 C 
HETATM   30  C8  UNL     1      -4.456   1.725  11.911  1.00  0.00     0.048 C 
BRANCH  28  31
HETATM   31  O2  UNL     1      -6.460   0.897  10.910  1.00  0.00    -0.388 OA
HETATM   32  H17 UNL     1      -7.310   1.131  10.499  1.00  0.00     0.210 HD
ENDBRANCH  28  31
ENDBRANCH  25  28
ENDBRANCH  24  25
ENDBRANCH  23  24
ENDBRANCH  21  23
ENDBRANCH   1  21
BRANCH   9  33
HETATM   33  C18 UNL     1       0.480   7.701  10.878  1.00  0.00     0.082 C 
HETATM   34  C19 UNL     1      -0.205   8.651   9.895  1.00  0.00     0.049 C 
HETATM   35  C20 UNL     1      -0.012   6.269  10.598  1.00  0.00     0.049 C 
BRANCH  33  36
HETATM   36  O3  UNL     1       1.880   7.692  10.515  1.00  0.00    -0.388 OA
HETATM   37  H37 UNL     1       2.323   7.251  11.269  1.00  0.00     0.210 HD
ENDBRANCH  33  36
ENDBRANCH   9  33
TORSDOF 9
ENDMDL
MODEL 6
REMARK minimizedAffinity -7.35280943
REMARK CNNscore 0.353562474
REMARK CNNaffinity 6.39113855
REMARK  9 active torsions:
REMARK  status: ('A' for Active; 'I' for Inactive)
REMARK    1  A    between atoms: C2_2  and  C3_3 
REMARK    2  A    between atoms: C2_2  and  C9_11 
REMARK    3  A    between atoms: C3_3  and  C4_4 
REMARK    4  A    between atoms: C4_4  and  C5_5 
REMARK    5  A    between atoms: C5_5  and  O1_6 
REMARK    6  A    between atoms: C5_5  and  C6_7 
REMARK    7  A    between atoms: C6_7  and  O2_10 
REMARK    8  A    between atoms: C17_19  and  C18_20 
REMARK    9  A    between atoms: C18_20  and  O3_23 
ROOT
HETATM    1  C9  UNL     1      -0.438  12.075  17.299  1.00  0.00    -0.002 C 
HETATM    2  C10 UNL     1      -1.624  12.888  16.686  1.00  0.00     0.006 C 
HETATM    3  C11 UNL     1      -2.297  11.982  15.629  1.00  0.00     0.011 C 
HETATM    4  C12 UNL     1      -1.281  10.848  15.397  1.00  0.00    -0.032 C 
HETATM    5  C13 UNL     1      -0.198  11.449  14.437  1.00  0.00     0.016 C 
HETATM    6  C14 UNL     1      -1.874   9.523  14.834  1.00  0.00     0.003 C 
HETATM    7  C15 UNL     1      -2.647   9.671  13.515  1.00  0.00     0.009 C 
HETATM    8  C16 UNL     1      -2.950   8.359  12.793  1.00  0.00     0.042 C 
HETATM    9  C17 UNL     1      -2.922   7.045  13.621  1.00  0.00     0.095 C 
HETATM   10  O4  UNL     1      -2.763   5.962  12.648  1.00  0.00    -0.377 OA
HETATM   11  C21 UNL     1      -1.433   5.704  12.230  1.00  0.00     0.169 C 
HETATM   12  C22 UNL     1      -0.625   5.116  13.366  1.00  0.00     0.027 C 
HETATM   13  C23 UNL     1      -1.024   5.661  14.730  1.00  0.00     0.010 C 
HETATM   14  C24 UNL     1      -1.791   7.002  14.720  1.00  0.00     0.032 C 
HETATM   15  C25 UNL     1      -0.880   8.306  14.841  1.00  0.00    -0.033 C 
HETATM   16  C26 UNL     1       0.175   8.376  13.715  1.00  0.00     0.016 C 
HETATM   17  C27 UNL     1      -0.080   8.242  16.198  1.00  0.00     0.011 C 
HETATM   18  C28 UNL     1       0.376   9.583  16.817  1.00  0.00     0.011 C 
HETATM   19  C29 UNL     1      -0.771  10.608  16.880  1.00  0.00    -0.032 C 
HETATM   20  C30 UNL     1      -1.847  10.035  17.851  1.00  0.00     0.016 C 
ENDROOT
BRANCH   1  21
HETATM   21  C2  UNL     1      -0.084  12.509  18.756  1.00  0.00    -0.014 C 
HETATM   22  C1  UNL     1      -1.137  13.324  19.517  1.00  0.00     0.010 C 
BRANCH  21  23
HETATM   23  C3  UNL     1       0.396  11.310  19.603  1.00  0.00     0.007 C 
BRANCH  23  24
HETATM   24  C4  UNL     1       1.427  11.599  20.710  1.00  0.00     0.035 C 
BRANCH  24  25
HETATM   25  C5  UNL     1       2.156  10.355  21.253  1.00  0.00     0.151 C 
BRANCH  25  26
HETATM   26  O1  UNL     1       2.616   9.577  20.149  1.00  0.00    -0.393 OA
HETATM   27  H10 UNL     1       2.857   8.694  20.478  1.00  0.00     0.210 HD
ENDBRANCH  25  26
BRANCH  25  28
HETATM   28  C6  UNL     1       3.339  10.712  22.208  1.00  0.00     0.076 C 
HETATM   29  C7  UNL     1       3.169  12.121  22.794  1.00  0.00     0.048 C 
HETATM   30  C8  UNL     1       3.486   9.709  23.357  1.00  0.00     0.048 C 
BRANCH  28  31
HETATM   31  O2  UNL     1       4.573  10.704  21.476  1.00  0.00    -0.388 OA
HETATM   32  H17 UNL     1       4.527  11.394  20.794  1.00  0.00     0.210 HD
ENDBRANCH  28  31
ENDBRANCH  25  28
ENDBRANCH  24  25
ENDBRANCH  23  24
ENDBRANCH  21  23
ENDBRANCH   1  21
BRANCH   9  33
HETATM   33  C18 UNL     1      -4.372   6.721  14.218  1.00  0.00     0.082 C 
HETATM   34  C19 UNL     1      -4.963   5.365  13.829  1.00  0.00     0.049 C 
HETATM   35  C20 UNL     1      -5.411   7.814  13.911  1.00  0.00     0.049 C 
BRANCH  33  36
HETATM   36  O3  UNL     1      -4.259   6.708  15.660  1.00  0.00    -0.388 OA
HETATM   37  H37 UNL     1      -3.698   7.485  15.866  1.00  0.00     0.210 HD
ENDBRANCH  33  36
ENDBRANCH   9  33
TORSDOF 9
ENDMDL
MODEL 7
REMARK minimizedAffinity -7.55236435
REMARK CNNscore 0.347668886
REMARK CNNaffinity 6.73524714
REMARK  9 active torsions:
REMARK  status: ('A' for Active; 'I' for Inactive)
REMARK    1  A    between atoms: C2_2  and  C3_3 
REMARK    2  A    between atoms: C2_2  and  C9_11 
REMARK    3  A    between atoms: C3_3  and  C4_4 
REMARK    4  A    between atoms: C4_4  and  C5_5 
REMARK    5  A    between atoms: C5_5  and  O1_6 
REMARK    6  A    between atoms: C5_5  and  C6_7 
REMARK    7  A    between atoms: C6_7  and  O2_10 
REMARK    8  A    between atoms: C17_19  and  C18_20 
REMARK    9  A    between atoms: C18_20  and  O3_23 
ROOT
HETATM    1  C9  UNL     1       3.496   8.219  13.258  1.00  0.00    -0.002 C 
HETATM    2  C10 UNL     1       3.775   7.701  14.706  1.00  0.00     0.006 C 
HETATM    3  C11 UNL     1       2.409   7.593  15.421  1.00  0.00     0.011 C 
HETATM    4  C12 UNL     1       1.444   8.386  14.520  1.00  0.00    -0.032 C 
HETATM    5  C13 UNL     1       1.695   9.894  14.867  1.00  0.00     0.016 C 
HETATM    6  C14 UNL     1      -0.061   8.010  14.656  1.00  0.00     0.003 C 
HETATM    7  C15 UNL     1      -0.627   8.120  16.079  1.00  0.00     0.009 C 
HETATM    8  C16 UNL     1      -2.152   8.072  16.173  1.00  0.00     0.042 C 
HETATM    9  C17 UNL     1      -2.938   7.444  14.989  1.00  0.00     0.095 C 
HETATM   10  O4  UNL     1      -4.308   7.947  15.107  1.00  0.00    -0.377 OA
HETATM   11  C21 UNL     1      -4.539   9.232  14.553  1.00  0.00     0.169 C 
HETATM   12  C22 UNL     1      -4.438   9.185  13.044  1.00  0.00     0.027 C 
HETATM   13  C23 UNL     1      -3.401   8.190  12.544  1.00  0.00     0.010 C 
HETATM   14  C24 UNL     1      -2.327   7.765  13.570  1.00  0.00     0.032 C 
HETATM   15  C25 UNL     1      -0.995   8.641  13.562  1.00  0.00    -0.033 C 
HETATM   16  C26 UNL     1      -1.291  10.138  13.806  1.00  0.00     0.016 C 
HETATM   17  C27 UNL     1      -0.333   8.546  12.134  1.00  0.00     0.011 C 
HETATM   18  C28 UNL     1       1.192   8.780  12.042  1.00  0.00     0.011 C 
HETATM   19  C29 UNL     1       1.967   7.956  13.085  1.00  0.00    -0.032 C 
HETATM   20  C30 UNL     1       1.747   6.453  12.739  1.00  0.00     0.016 C 
ENDROOT
BRANCH   1  21
HETATM   21  C2  UNL     1       4.581   7.775  12.227  1.00  0.00    -0.014 C 
HETATM   22  C1  UNL     1       5.847   7.115  12.787  1.00  0.00     0.010 C 
BRANCH  21  23
HETATM   23  C3  UNL     1       3.971   6.917  11.097  1.00  0.00     0.007 C 
BRANCH  23  24
HETATM   24  C4  UNL     1       3.864   7.564   9.703  1.00  0.00     0.035 C 
BRANCH  24  25
HETATM   25  C5  UNL     1       2.972   6.800   8.705  1.00  0.00     0.151 C 
BRANCH  25  26
HETATM   26  O1  UNL     1       2.097   5.943   9.438  1.00  0.00    -0.393 OA
HETATM   27  H10 UNL     1       1.712   5.300   8.819  1.00  0.00     0.210 HD
ENDBRANCH  25  26
BRANCH  25  28
HETATM   28  C6  UNL     1       2.158   7.749   7.768  1.00  0.00     0.076 C 
HETATM   29  C7  UNL     1       1.852   7.069   6.426  1.00  0.00     0.048 C 
HETATM   30  C8  UNL     1       0.843   8.211   8.404  1.00  0.00     0.048 C 
BRANCH  28  31
HETATM   31  O2  UNL     1       2.928   8.925   7.481  1.00  0.00    -0.388 OA
HETATM   32  H17 UNL     1       3.729   8.655   7.002  1.00  0.00     0.210 HD
ENDBRANCH  28  31
ENDBRANCH  25  28
ENDBRANCH  24  25
ENDBRANCH  23  24
ENDBRANCH  21  23
ENDBRANCH   1  21
BRANCH   9  33
HETATM   33  C18 UNL     1      -3.157   5.875  15.223  1.00  0.00     0.082 C 
HETATM   34  C19 UNL     1      -1.942   4.987  14.952  1.00  0.00     0.049 C 
HETATM   35  C20 UNL     1      -4.359   5.308  14.447  1.00  0.00     0.049 C 
BRANCH  33  36
HETATM   36  O3  UNL     1      -3.488   5.682  16.618  1.00  0.00    -0.388 OA
HETATM   37  H37 UNL     1      -4.124   6.400  16.817  1.00  0.00     0.210 HD
ENDBRANCH  33  36
ENDBRANCH   9  33
TORSDOF 9
ENDMDL
MODEL 8
REMARK minimizedAffinity -8.12890053
REMARK CNNscore 0.337732196
REMARK CNNaffinity 6.61274576
REMARK  9 active torsions:
REMARK  status: ('A' for Active; 'I' for Inactive)
REMARK    1  A    between atoms: C2_2  and  C3_3 
REMARK    2  A    between atoms: C2_2  and  C9_11 
REMARK    3  A    between atoms: C3_3  and  C4_4 
REMARK    4  A    between atoms: C4_4  and  C5_5 
REMARK    5  A    between atoms: C5_5  and  O1_6 
REMARK    6  A    between atoms: C5_5  and  C6_7 
REMARK    7  A    between atoms: C6_7  and  O2_10 
REMARK    8  A    between atoms: C17_19  and  C18_20 
REMARK    9  A    between atoms: C18_20  and  O3_23 
ROOT
HETATM    1  C9  UNL     1      -2.139   8.031  14.202  1.00  0.00    -0.002 C 
HETATM    2  C10 UNL     1      -1.485   6.961  15.135  1.00  0.00     0.006 C 
HETATM    3  C11 UNL     1      -0.326   6.314  14.341  1.00  0.00     0.011 C 
HETATM    4  C12 UNL     1      -0.573   6.748  12.884  1.00  0.00    -0.032 C 
HETATM    5  C13 UNL     1      -1.695   5.791  12.351  1.00  0.00     0.016 C 
HETATM    6  C14 UNL     1       0.679   6.734  11.960  1.00  0.00     0.003 C 
HETATM    7  C15 UNL     1       1.407   5.384  11.880  1.00  0.00     0.009 C 
HETATM    8  C16 UNL     1       2.426   5.266  10.747  1.00  0.00     0.042 C 
HETATM    9  C17 UNL     1       2.989   6.576  10.129  1.00  0.00     0.095 C 
HETATM   10  O4  UNL     1       3.525   6.203   8.820  1.00  0.00    -0.377 OA
HETATM   11  C21 UNL     1       2.579   6.137   7.766  1.00  0.00     0.169 C 
HETATM   12  C22 UNL     1       2.070   7.520   7.423  1.00  0.00     0.027 C 
HETATM   13  C23 UNL     1       1.971   8.438   8.633  1.00  0.00     0.010 C 
HETATM   14  C24 UNL     1       1.928   7.737  10.008  1.00  0.00     0.032 C 
HETATM   15  C25 UNL     1       0.467   7.413  10.560  1.00  0.00    -0.033 C 
HETATM   16  C26 UNL     1      -0.336   6.535   9.575  1.00  0.00     0.016 C 
HETATM   17  C27 UNL     1      -0.333   8.764  10.705  1.00  0.00     0.011 C 
HETATM   18  C28 UNL     1      -1.484   8.800  11.736  1.00  0.00     0.011 C 
HETATM   19  C29 UNL     1      -1.050   8.245  13.105  1.00  0.00    -0.032 C 
HETATM   20  C30 UNL     1       0.049   9.200  13.660  1.00  0.00     0.016 C 
ENDROOT
BRANCH   1  21
HETATM   21  C2  UNL     1      -2.829   9.191  14.986  1.00  0.00    -0.014 C 
HETATM   22  C1  UNL     1      -2.251  10.599  14.801  1.00  0.00     0.010 C 
BRANCH  21  23
HETATM   23  C3  UNL     1      -4.357   9.193  14.765  1.00  0.00     0.007 C 
BRANCH  23  24
HETATM   24  C4  UNL     1      -4.975   7.943  14.110  1.00  0.00     0.035 C 
BRANCH  24  25
HETATM   25  C5  UNL     1      -5.513   6.895  15.103  1.00  0.00     0.151 C 
BRANCH  25  26
HETATM   26  O1  UNL     1      -6.167   7.574  16.174  1.00  0.00    -0.393 OA
HETATM   27  H10 UNL     1      -6.292   6.943  16.903  1.00  0.00     0.210 HD
ENDBRANCH  25  26
BRANCH  25  28
HETATM   28  C6  UNL     1      -6.476   5.862  14.434  1.00  0.00     0.076 C 
HETATM   29  C7  UNL     1      -7.589   6.573  13.651  1.00  0.00     0.048 C 
HETATM   30  C8  UNL     1      -5.741   4.902  13.494  1.00  0.00     0.048 C 
BRANCH  28  31
HETATM   31  O2  UNL     1      -7.111   5.066  15.444  1.00  0.00    -0.388 OA
HETATM   32  H17 UNL     1      -7.649   5.653  16.001  1.00  0.00     0.210 HD
ENDBRANCH  28  31
ENDBRANCH  25  28
ENDBRANCH  24  25
ENDBRANCH  23  24
ENDBRANCH  21  23
ENDBRANCH   1  21
BRANCH   9  33
HETATM   33  C18 UNL     1       4.318   7.036  10.895  1.00  0.00     0.082 C 
HETATM   34  C19 UNL     1       4.148   7.374  12.377  1.00  0.00     0.049 C 
HETATM   35  C20 UNL     1       5.039   8.209  10.206  1.00  0.00     0.049 C 
BRANCH  33  36
HETATM   36  O3  UNL     1       5.257   5.938  10.842  1.00  0.00    -0.388 OA
HETATM   37  H37 UNL     1       5.194   5.609   9.922  1.00  0.00     0.210 HD
ENDBRANCH  33  36
ENDBRANCH   9  33
TORSDOF 9
ENDMDL
MODEL 9
REMARK minimizedAffinity -6.71236086
REMARK CNNscore 0.336467355
REMARK CNNaffinity 6.36996651
REMARK  9 active torsions:
REMARK  status: ('A' for Active; 'I' for Inactive)
REMARK    1  A    between atoms: C2_2  and  C3_3 
REMARK    2  A    between atoms: C2_2  and  C9_11 
REMARK    3  A    between atoms: C3_3  and  C4_4 
REMARK    4  A    between atoms: C4_4  and  C5_5 
REMARK    5  A    between atoms: C5_5  and  O1_6 
REMARK    6  A    between atoms: C5_5  and  C6_7 
REMARK    7  A    between atoms: C6_7  and  O2_10 
REMARK    8  A    between atoms: C17_19  and  C18_20 
REMARK    9  A    between atoms: C18_20  and  O3_23 
ROOT
HETATM    1  C9  UNL     1     -10.340 -10.537   3.746  1.00  0.00    -0.002 C 
HETATM    2  C10 UNL     1     -10.484 -11.494   4.973  1.00  0.00     0.006 C 
HETATM    3  C11 UNL     1      -9.059 -11.956   5.357  1.00  0.00     0.011 C 
HETATM    4  C12 UNL     1      -8.192 -11.565   4.146  1.00  0.00    -0.032 C 
HETATM    5  C13 UNL     1      -8.446 -12.682   3.076  1.00  0.00     0.016 C 
HETATM    6  C14 UNL     1      -6.673 -11.387   4.439  1.00  0.00     0.003 C 
HETATM    7  C15 UNL     1      -5.990 -12.610   5.069  1.00  0.00     0.009 C 
HETATM    8  C16 UNL     1      -4.463 -12.571   5.062  1.00  0.00     0.042 C 
HETATM    9  C17 UNL     1      -3.766 -11.190   4.910  1.00  0.00     0.095 C 
HETATM   10  O4  UNL     1      -2.403 -11.477   4.461  1.00  0.00    -0.377 OA
HETATM   11  C21 UNL     1      -2.248 -11.686   3.067  1.00  0.00     0.169 C 
HETATM   12  C22 UNL     1      -2.477 -10.397   2.308  1.00  0.00     0.027 C 
HETATM   13  C23 UNL     1      -3.530  -9.505   2.948  1.00  0.00     0.010 C 
HETATM   14  C24 UNL     1      -4.503 -10.205   3.922  1.00  0.00     0.032 C 
HETATM   15  C25 UNL     1      -5.850 -10.749   3.264  1.00  0.00    -0.033 C 
HETATM   16  C26 UNL     1      -5.567 -11.739   2.113  1.00  0.00     0.016 C 
HETATM   17  C27 UNL     1      -6.629  -9.535   2.625  1.00  0.00     0.011 C 
HETATM   18  C28 UNL     1      -8.161  -9.676   2.476  1.00  0.00     0.011 C 
HETATM   19  C29 UNL     1      -8.826 -10.158   3.778  1.00  0.00    -0.032 C 
HETATM   20  C30 UNL     1      -8.603  -9.047   4.847  1.00  0.00     0.016 C 
ENDROOT
BRANCH   1  21
HETATM   21  C2  UNL     1     -11.499  -9.496   3.640  1.00  0.00    -0.014 C 
HETATM   22  C1  UNL     1     -12.931 -10.045   3.633  1.00  0.00     0.010 C 
BRANCH  21  23
HETATM   23  C3  UNL     1     -11.348  -8.372   4.689  1.00  0.00     0.007 C 
BRANCH  23  24
HETATM   24  C4  UNL     1     -12.124  -7.066   4.435  1.00  0.00     0.035 C 
BRANCH  24  25
HETATM   25  C5  UNL     1     -11.877  -6.427   3.054  1.00  0.00     0.151 C 
BRANCH  25  26
HETATM   26  O1  UNL     1     -12.633  -7.144   2.078  1.00  0.00    -0.393 OA
HETATM   27  H10 UNL     1     -12.300  -6.903   1.198  1.00  0.00     0.210 HD
ENDBRANCH  25  26
BRANCH  25  28
HETATM   28  C6  UNL     1     -12.228  -4.906   3.016  1.00  0.00     0.076 C 
HETATM   29  C7  UNL     1     -12.569  -4.384   4.419  1.00  0.00     0.048 C 
HETATM   30  C8  UNL     1     -11.094  -4.059   2.431  1.00  0.00     0.048 C 
BRANCH  28  31
HETATM   31  O2  UNL     1     -13.384  -4.695   2.193  1.00  0.00    -0.388 OA
HETATM   32  H17 UNL     1     -14.135  -5.160   2.598  1.00  0.00     0.210 HD
ENDBRANCH  28  31
ENDBRANCH  25  28
ENDBRANCH  24  25
ENDBRANCH  23  24
ENDBRANCH  21  23
ENDBRANCH   1  21
BRANCH   9  33
HETATM   33  C18 UNL     1      -3.494 -10.532   6.344  1.00  0.00     0.082 C 
HETATM   34  C19 UNL     1      -3.657 -11.466   7.545  1.00  0.00     0.049 C 
HETATM   35  C20 UNL     1      -4.326  -9.262   6.596  1.00  0.00     0.049 C 
BRANCH  33  36
HETATM   36  O3  UNL     1      -2.118 -10.088   6.369  1.00  0.00    -0.388 OA
HETATM   37  H37 UNL     1      -1.983  -9.667   5.495  1.00  0.00     0.210 HD
ENDBRANCH  33  36
ENDBRANCH   9  33
TORSDOF 9
ENDMDL
