MODEL 1
REMARK minimizedAffinity -8.64911938
REMARK CNNscore 0.489564419
REMARK CNNaffinity 6.49592781
REMARK  6 active torsions:
REMARK  status: ('A' for Active; 'I' for Inactive)
REMARK    1  A    between atoms: C2_2  and  C30_32 
REMARK    2  A    between atoms: C3_3  and  C4_4 
REMARK    3  A    between atoms: C4_4  and  C5_6 
REMARK    4  A    between atoms: C5_6  and  C6_7 
REMARK    5  A    between atoms: C6_7  and  C8_9 
REMARK    6  A    between atoms: C30_32  and  O4_34 
ROOT
HETATM    1  C8  UNL     1       6.217  64.614 -34.349  1.00  0.00    -0.001 C 
HETATM    2  C9  UNL     1       6.229  65.797 -33.365  1.00  0.00     0.007 C 
HETATM    3  C10 UNL     1       5.881  67.059 -34.177  1.00  0.00     0.015 C 
HETATM    4  C11 UNL     1       5.765  66.623 -35.664  1.00  0.00    -0.013 C 
HETATM    5  C12 UNL     1       7.194  66.777 -36.270  1.00  0.00     0.021 C 
HETATM    6  C13 UNL     1       4.711  67.422 -36.471  1.00  0.00    -0.070 C 
HETATM    7  C14 UNL     1       4.980  68.072 -37.616  1.00  0.00    -0.022 C 
HETATM    8  C15 UNL     1       3.968  68.714 -38.506  1.00  0.00     0.034 C 
HETATM    9  C16 UNL     1       2.469  68.425 -38.199  1.00  0.00     0.013 C 
HETATM   10  C17 UNL     1       1.572  69.483 -38.951  1.00  0.00     0.018 C 
HETATM   11  C18 UNL     1       0.083  69.094 -39.020  1.00  0.00     0.023 C 
HETATM   12  C19 UNL     1       2.032  69.649 -40.422  1.00  0.00     0.023 C 
HETATM   13  C20 UNL     1       1.695  70.834 -38.227  1.00  0.00     0.135 C 
HETATM   14  O2  UNL     1       1.763  71.900 -38.843  1.00  0.00    -0.297 OA
HETATM   15  C21 UNL     1       1.618  70.844 -36.712  1.00  0.00     0.080 C 
HETATM   16  C22 UNL     1       2.467  69.756 -36.055  1.00  0.00     0.017 C 
HETATM   17  C23 UNL     1       2.245  68.334 -36.653  1.00  0.00    -0.031 C 
HETATM   18  C24 UNL     1       0.820  67.872 -36.258  1.00  0.00     0.016 C 
HETATM   19  C25 UNL     1       3.270  67.316 -35.993  1.00  0.00     0.024 C 
HETATM   20  C26 UNL     1       2.904  65.824 -36.123  1.00  0.00     0.010 C 
HETATM   21  C27 UNL     1       3.811  64.985 -35.213  1.00  0.00     0.011 C 
HETATM   22  C28 UNL     1       5.325  65.107 -35.536  1.00  0.00    -0.029 C 
HETATM   23  C29 UNL     1       5.613  64.288 -36.812  1.00  0.00     0.016 C 
ENDROOT
BRANCH   1  24
HETATM   24  C6  UNL     1       5.941  63.207 -33.741  1.00  0.00    -0.007 C 
HETATM   25  C7  UNL     1       4.515  63.187 -33.155  1.00  0.00     0.011 C 
BRANCH  24  26
HETATM   26  C5  UNL     1       6.088  62.011 -34.704  1.00  0.00     0.087 C 
BRANCH  26  27
HETATM   27  C4  UNL     1       7.374  61.222 -34.493  1.00  0.00     0.150 C 
HETATM   28  O1  UNL     1       7.515  60.061 -34.866  1.00  0.00    -0.293 OA
BRANCH  27  29
HETATM   29  C3  UNL     1       8.452  61.929 -33.745  1.00  0.00     0.063 C 
HETATM   30  C2  UNL     1       9.389  62.715 -34.308  1.00  0.00     0.015 C 
HETATM   31  C1  UNL     1       9.499  63.092 -35.753  1.00  0.00     0.055 C 
BRANCH  30  32
HETATM   32  C30 UNL     1      10.385  63.269 -33.362  1.00  0.00     0.171 C 
HETATM   33  O3  UNL     1      10.145  63.911 -32.353  1.00  0.00    -0.646 OA
BRANCH  32  34
HETATM   34  O4  UNL     1      11.647  62.982 -33.717  1.00  0.00    -0.773 OA
HETATM   35  H44 UNL     1      12.191  63.384 -33.007  1.00  0.00     0.167 HD
ENDBRANCH  32  34
ENDBRANCH  30  32
ENDBRANCH  27  29
ENDBRANCH  26  27
ENDBRANCH  24  26
ENDBRANCH   1  24
TORSDOF 6
ENDMDL
MODEL 2
REMARK minimizedAffinity -7.77794504
REMARK CNNscore 0.437576354
REMARK CNNaffinity 5.82414007
REMARK  6 active torsions:
REMARK  status: ('A' for Active; 'I' for Inactive)
REMARK    1  A    between atoms: C2_2  and  C30_32 
REMARK    2  A    between atoms: C3_3  and  C4_4 
REMARK    3  A    between atoms: C4_4  and  C5_6 
REMARK    4  A    between atoms: C5_6  and  C6_7 
REMARK    5  A    between atoms: C6_7  and  C8_9 
REMARK    6  A    between atoms: C30_32  and  O4_34 
ROOT
HETATM    1  C8  UNL     1     -10.814  46.046 -27.307  1.00  0.00    -0.001 C 
HETATM    2  C9  UNL     1     -11.164  47.518 -27.026  1.00  0.00     0.007 C 
HETATM    3  C10 UNL     1     -12.699  47.632 -27.078  1.00  0.00     0.015 C 
HETATM    4  C11 UNL     1     -13.242  46.236 -27.493  1.00  0.00    -0.013 C 
HETATM    5  C12 UNL     1     -13.312  46.247 -29.051  1.00  0.00     0.021 C 
HETATM    6  C13 UNL     1     -14.612  45.884 -26.860  1.00  0.00    -0.070 C 
HETATM    7  C14 UNL     1     -15.694  45.522 -27.571  1.00  0.00    -0.022 C 
HETATM    8  C15 UNL     1     -16.979  45.020 -27.000  1.00  0.00     0.034 C 
HETATM    9  C16 UNL     1     -16.994  44.687 -25.479  1.00  0.00     0.013 C 
HETATM   10  C17 UNL     1     -18.490  44.578 -24.987  1.00  0.00     0.018 C 
HETATM   11  C18 UNL     1     -18.642  43.908 -23.608  1.00  0.00     0.023 C 
HETATM   12  C19 UNL     1     -19.331  43.718 -25.966  1.00  0.00     0.023 C 
HETATM   13  C20 UNL     1     -19.087  45.993 -24.916  1.00  0.00     0.135 C 
HETATM   14  O2  UNL     1     -20.244  46.231 -25.270  1.00  0.00    -0.297 OA
HETATM   15  C21 UNL     1     -18.252  47.092 -24.286  1.00  0.00     0.080 C 
HETATM   16  C22 UNL     1     -16.801  47.100 -24.766  1.00  0.00     0.017 C 
HETATM   17  C23 UNL     1     -16.105  45.707 -24.695  1.00  0.00    -0.031 C 
HETATM   18  C24 UNL     1     -15.917  45.348 -23.200  1.00  0.00     0.016 C 
HETATM   19  C25 UNL     1     -14.657  45.807 -25.342  1.00  0.00     0.024 C 
HETATM   20  C26 UNL     1     -13.678  44.677 -24.961  1.00  0.00     0.010 C 
HETATM   21  C27 UNL     1     -12.260  45.043 -25.416  1.00  0.00     0.011 C 
HETATM   22  C28 UNL     1     -12.119  45.263 -26.947  1.00  0.00    -0.029 C 
HETATM   23  C29 UNL     1     -12.134  43.881 -27.635  1.00  0.00     0.016 C 
ENDROOT
BRANCH   1  24
HETATM   24  C6  UNL     1      -9.456  45.535 -26.742  1.00  0.00    -0.007 C 
HETATM   25  C7  UNL     1      -9.598  44.045 -26.370  1.00  0.00     0.011 C 
BRANCH  24  26
HETATM   26  C5  UNL     1      -8.233  45.688 -27.671  1.00  0.00     0.087 C 
BRANCH  26  27
HETATM   27  C4  UNL     1      -7.596  47.070 -27.604  1.00  0.00     0.150 C 
HETATM   28  O1  UNL     1      -7.623  47.772 -26.598  1.00  0.00    -0.293 OA
BRANCH  27  29
HETATM   29  C3  UNL     1      -6.973  47.556 -28.868  1.00  0.00     0.063 C 
HETATM   30  C2  UNL     1      -5.729  48.061 -28.968  1.00  0.00     0.015 C 
HETATM   31  C1  UNL     1      -4.711  48.169 -27.874  1.00  0.00     0.055 C 
BRANCH  30  32
HETATM   32  C30 UNL     1      -5.353  48.524 -30.323  1.00  0.00     0.171 C 
HETATM   33  O3  UNL     1      -5.724  48.044 -31.380  1.00  0.00    -0.646 OA
BRANCH  32  34
HETATM   34  O4  UNL     1      -4.530  49.585 -30.295  1.00  0.00    -0.773 OA
HETATM   35  H44 UNL     1      -4.381  49.795 -31.240  1.00  0.00     0.167 HD
ENDBRANCH  32  34
ENDBRANCH  30  32
ENDBRANCH  27  29
ENDBRANCH  26  27
ENDBRANCH  24  26
ENDBRANCH   1  24
TORSDOF 6
ENDMDL
MODEL 3
REMARK minimizedAffinity -7.37007332
REMARK CNNscore 0.367905885
REMARK CNNaffinity 6.93102407
REMARK  6 active torsions:
REMARK  status: ('A' for Active; 'I' for Inactive)
REMARK    1  A    between atoms: C2_2  and  C30_32 
REMARK    2  A    between atoms: C3_3  and  C4_4 
REMARK    3  A    between atoms: C4_4  and  C5_6 
REMARK    4  A    between atoms: C5_6  and  C6_7 
REMARK    5  A    between atoms: C6_7  and  C8_9 
REMARK    6  A    between atoms: C30_32  and  O4_34 
ROOT
HETATM    1  C8  UNL     1      -1.081  52.227 -10.861  1.00  0.00    -0.001 C 
HETATM    2  C9  UNL     1      -1.588  53.680 -10.854  1.00  0.00     0.007 C 
HETATM    3  C10 UNL     1      -0.774  54.433  -9.785  1.00  0.00     0.015 C 
HETATM    4  C11 UNL     1       0.145  53.386  -9.095  1.00  0.00    -0.013 C 
HETATM    5  C12 UNL     1      -0.674  52.821  -7.894  1.00  0.00     0.021 C 
HETATM    6  C13 UNL     1       1.512  53.957  -8.639  1.00  0.00    -0.070 C 
HETATM    7  C14 UNL     1       1.977  53.869  -7.381  1.00  0.00    -0.022 C 
HETATM    8  C15 UNL     1       3.348  54.256  -6.935  1.00  0.00     0.034 C 
HETATM    9  C16 UNL     1       4.387  54.586  -8.047  1.00  0.00     0.013 C 
HETATM   10  C17 UNL     1       5.607  55.353  -7.405  1.00  0.00     0.018 C 
HETATM   11  C18 UNL     1       6.849  55.416  -8.316  1.00  0.00     0.023 C 
HETATM   12  C19 UNL     1       6.077  54.652  -6.103  1.00  0.00     0.023 C 
HETATM   13  C20 UNL     1       5.166  56.789  -7.075  1.00  0.00     0.135 C 
HETATM   14  O2  UNL     1       5.517  57.357  -6.038  1.00  0.00    -0.297 OA
HETATM   15  C21 UNL     1       4.367  57.549  -8.117  1.00  0.00     0.080 C 
HETATM   16  C22 UNL     1       3.240  56.725  -8.736  1.00  0.00     0.017 C 
HETATM   17  C23 UNL     1       3.687  55.319  -9.238  1.00  0.00    -0.031 C 
HETATM   18  C24 UNL     1       4.607  55.526 -10.467  1.00  0.00     0.016 C 
HETATM   19  C25 UNL     1       2.416  54.505  -9.732  1.00  0.00     0.024 C 
HETATM   20  C26 UNL     1       2.711  53.306 -10.658  1.00  0.00     0.010 C 
HETATM   21  C27 UNL     1       1.405  52.794 -11.277  1.00  0.00     0.011 C 
HETATM   22  C28 UNL     1       0.353  52.314 -10.241  1.00  0.00    -0.029 C 
HETATM   23  C29 UNL     1       0.799  50.938  -9.703  1.00  0.00     0.016 C 
ENDROOT
BRANCH   1  24
HETATM   24  C6  UNL     1      -1.275  51.430 -12.185  1.00  0.00    -0.007 C 
HETATM   25  C7  UNL     1      -2.781  51.178 -12.400  1.00  0.00     0.011 C 
BRANCH  24  26
HETATM   26  C5  UNL     1      -0.705  52.083 -13.461  1.00  0.00     0.087 C 
BRANCH  26  27
HETATM   27  C4  UNL     1       0.127  51.128 -14.307  1.00  0.00     0.150 C 
HETATM   28  O1  UNL     1       0.001  49.908 -14.258  1.00  0.00    -0.293 OA
BRANCH  27  29
HETATM   29  C3  UNL     1       1.159  51.764 -15.174  1.00  0.00     0.063 C 
HETATM   30  C2  UNL     1       2.488  51.693 -14.965  1.00  0.00     0.015 C 
HETATM   31  C1  UNL     1       3.191  50.922 -13.891  1.00  0.00     0.055 C 
BRANCH  30  32
HETATM   32  C30 UNL     1       3.310  52.449 -15.938  1.00  0.00     0.171 C 
HETATM   33  O3  UNL     1       4.490  52.264 -16.184  1.00  0.00    -0.646 OA
BRANCH  32  34
HETATM   34  O4  UNL     1       2.612  53.403 -16.572  1.00  0.00    -0.773 OA
HETATM   35  H44 UNL     1       3.260  53.804 -17.188  1.00  0.00     0.167 HD
ENDBRANCH  32  34
ENDBRANCH  30  32
ENDBRANCH  27  29
ENDBRANCH  26  27
ENDBRANCH  24  26
ENDBRANCH   1  24
TORSDOF 6
ENDMDL
MODEL 4
REMARK minimizedAffinity -7.63185787
REMARK CNNscore 0.344094336
REMARK CNNaffinity 5.60323906
REMARK  6 active torsions:
REMARK  status: ('A' for Active; 'I' for Inactive)
REMARK    1  A    between atoms: C2_2  and  C30_32 
REMARK    2  A    between atoms: C3_3  and  C4_4 
REMARK    3  A    between atoms: C4_4  and  C5_6 
REMARK    4  A    between atoms: C5_6  and  C6_7 
REMARK    5  A    between atoms: C6_7  and  C8_9 
REMARK    6  A    between atoms: C30_32  and  O4_34 
ROOT
HETATM    1  C8  UNL     1     -15.824  47.253 -19.963  1.00  0.00    -0.001 C 
HETATM    2  C9  UNL     1     -15.368  47.165 -21.430  1.00  0.00     0.007 C 
HETATM    3  C10 UNL     1     -13.867  47.513 -21.454  1.00  0.00     0.015 C 
HETATM    4  C11 UNL     1     -13.471  47.905 -20.003  1.00  0.00    -0.013 C 
HETATM    5  C12 UNL     1     -13.699  49.444 -19.896  1.00  0.00     0.021 C 
HETATM    6  C13 UNL     1     -12.021  47.513 -19.623  1.00  0.00    -0.070 C 
HETATM    7  C14 UNL     1     -11.110  48.381 -19.150  1.00  0.00    -0.022 C 
HETATM    8  C15 UNL     1      -9.762  48.020 -18.621  1.00  0.00     0.034 C 
HETATM    9  C16 UNL     1      -9.469  46.507 -18.400  1.00  0.00     0.013 C 
HETATM   10  C17 UNL     1      -7.913  46.297 -18.245  1.00  0.00     0.018 C 
HETATM   11  C18 UNL     1      -7.528  44.920 -17.671  1.00  0.00     0.023 C 
HETATM   12  C19 UNL     1      -7.310  47.341 -17.270  1.00  0.00     0.023 C 
HETATM   13  C20 UNL     1      -7.256  46.456 -19.626  1.00  0.00     0.135 C 
HETATM   14  O2  UNL     1      -6.179  47.039 -19.772  1.00  0.00    -0.297 OA
HETATM   15  C21 UNL     1      -7.910  45.774 -20.813  1.00  0.00     0.080 C 
HETATM   16  C22 UNL     1      -9.424  45.973 -20.866  1.00  0.00     0.017 C 
HETATM   17  C23 UNL     1     -10.151  45.658 -19.524  1.00  0.00    -0.031 C 
HETATM   18  C24 UNL     1     -10.064  44.130 -19.286  1.00  0.00     0.016 C 
HETATM   19  C25 UNL     1     -11.690  46.028 -19.656  1.00  0.00     0.024 C 
HETATM   20  C26 UNL     1     -12.623  45.379 -18.614  1.00  0.00     0.010 C 
HETATM   21  C27 UNL     1     -14.086  45.590 -19.023  1.00  0.00     0.011 C 
HETATM   22  C28 UNL     1     -14.508  47.080 -19.137  1.00  0.00    -0.029 C 
HETATM   23  C29 UNL     1     -14.681  47.642 -17.710  1.00  0.00     0.016 C 
ENDROOT
BRANCH   1  24
HETATM   24  C6  UNL     1     -17.070  46.404 -19.572  1.00  0.00    -0.007 C 
HETATM   25  C7  UNL     1     -18.280  47.343 -19.395  1.00  0.00     0.011 C 
BRANCH  24  26
HETATM   26  C5  UNL     1     -17.464  45.283 -20.555  1.00  0.00     0.087 C 
BRANCH  26  27
HETATM   27  C4  UNL     1     -18.859  45.459 -21.142  1.00  0.00     0.150 C 
HETATM   28  O1  UNL     1     -19.880  45.109 -20.557  1.00  0.00    -0.293 OA
BRANCH  27  29
HETATM   29  C3  UNL     1     -18.915  46.039 -22.513  1.00  0.00     0.063 C 
HETATM   30  C2  UNL     1     -19.543  45.474 -23.562  1.00  0.00     0.015 C 
HETATM   31  C1  UNL     1     -20.356  44.216 -23.554  1.00  0.00     0.055 C 
BRANCH  30  32
HETATM   32  C30 UNL     1     -19.417  46.218 -24.836  1.00  0.00     0.171 C 
HETATM   33  O3  UNL     1     -19.510  45.750 -25.958  1.00  0.00    -0.646 OA
BRANCH  32  34
HETATM   34  O4  UNL     1     -19.189  47.527 -24.648  1.00  0.00    -0.773 OA
HETATM   35  H44 UNL     1     -19.148  47.895 -25.555  1.00  0.00     0.167 HD
ENDBRANCH  32  34
ENDBRANCH  30  32
ENDBRANCH  27  29
ENDBRANCH  26  27
ENDBRANCH  24  26
ENDBRANCH   1  24
TORSDOF 6
ENDMDL
MODEL 5
REMARK minimizedAffinity -7.75085735
REMARK CNNscore 0.288094491
REMARK CNNaffinity 5.48761225
REMARK  6 active torsions:
REMARK  status: ('A' for Active; 'I' for Inactive)
REMARK    1  A    between atoms: C2_2  and  C30_32 
REMARK    2  A    between atoms: C3_3  and  C4_4 
REMARK    3  A    between atoms: C4_4  and  C5_6 
REMARK    4  A    between atoms: C5_6  and  C6_7 
REMARK    5  A    between atoms: C6_7  and  C8_9 
REMARK    6  A    between atoms: C30_32  and  O4_34 
ROOT
HETATM    1  C8  UNL     1       3.652  67.317 -35.906  1.00  0.00    -0.001 C 
HETATM    2  C9  UNL     1       2.457  66.348 -35.919  1.00  0.00     0.007 C 
HETATM    3  C10 UNL     1       1.307  67.064 -36.654  1.00  0.00     0.015 C 
HETATM    4  C11 UNL     1       1.805  68.500 -36.981  1.00  0.00    -0.013 C 
HETATM    5  C12 UNL     1       1.408  69.382 -35.757  1.00  0.00     0.021 C 
HETATM    6  C13 UNL     1       1.241  69.071 -38.307  1.00  0.00    -0.070 C 
HETATM    7  C14 UNL     1       0.589  70.242 -38.399  1.00  0.00    -0.022 C 
HETATM    8  C15 UNL     1       0.174  70.905 -39.671  1.00  0.00     0.034 C 
HETATM    9  C16 UNL     1       0.727  70.302 -40.997  1.00  0.00     0.013 C 
HETATM   10  C17 UNL     1      -0.123  70.849 -42.208  1.00  0.00     0.018 C 
HETATM   11  C18 UNL     1       0.537  70.618 -43.582  1.00  0.00     0.023 C 
HETATM   12  C19 UNL     1      -0.324  72.383 -42.093  1.00  0.00     0.023 C 
HETATM   13  C20 UNL     1      -1.496  70.157 -42.199  1.00  0.00     0.135 C 
HETATM   14  O2  UNL     1      -2.536  70.767 -42.457  1.00  0.00    -0.297 OA
HETATM   15  C21 UNL     1      -1.540  68.658 -41.971  1.00  0.00     0.080 C 
HETATM   16  C22 UNL     1      -0.649  68.194 -40.819  1.00  0.00     0.017 C 
HETATM   17  C23 UNL     1       0.808  68.743 -40.886  1.00  0.00    -0.031 C 
HETATM   18  C24 UNL     1       1.513  68.071 -42.090  1.00  0.00     0.016 C 
HETATM   19  C25 UNL     1       1.596  68.311 -39.576  1.00  0.00     0.024 C 
HETATM   20  C26 UNL     1       3.134  68.374 -39.673  1.00  0.00     0.010 C 
HETATM   21  C27 UNL     1       3.761  67.673 -38.462  1.00  0.00     0.011 C 
HETATM   22  C28 UNL     1       3.371  68.295 -37.094  1.00  0.00    -0.029 C 
HETATM   23  C29 UNL     1       4.163  69.608 -36.919  1.00  0.00     0.016 C 
ENDROOT
BRANCH   1  24
HETATM   24  C6  UNL     1       5.066  66.674 -35.785  1.00  0.00    -0.007 C 
HETATM   25  C7  UNL     1       5.957  67.587 -34.918  1.00  0.00     0.011 C 
BRANCH  24  26
HETATM   26  C5  UNL     1       5.116  65.248 -35.200  1.00  0.00     0.087 C 
BRANCH  26  27
HETATM   27  C4  UNL     1       5.974  64.291 -36.016  1.00  0.00     0.150 C 
HETATM   28  O1  UNL     1       5.823  64.121 -37.223  1.00  0.00    -0.293 OA
BRANCH  27  29
HETATM   29  C3  UNL     1       6.989  63.516 -35.248  1.00  0.00     0.063 C 
HETATM   30  C2  UNL     1       6.767  62.322 -34.668  1.00  0.00     0.015 C 
HETATM   31  C1  UNL     1       5.510  61.508 -34.733  1.00  0.00     0.055 C 
BRANCH  30  32
HETATM   32  C30 UNL     1       7.918  61.771 -33.917  1.00  0.00     0.171 C 
HETATM   33  O3  UNL     1       8.748  62.413 -33.295  1.00  0.00    -0.646 OA
BRANCH  32  34
HETATM   34  O4  UNL     1       7.973  60.431 -33.967  1.00  0.00    -0.773 OA
HETATM   35  H44 UNL     1       8.756  60.204 -33.423  1.00  0.00     0.167 HD
ENDBRANCH  32  34
ENDBRANCH  30  32
ENDBRANCH  27  29
ENDBRANCH  26  27
ENDBRANCH  24  26
ENDBRANCH   1  24
TORSDOF 6
ENDMDL
MODEL 6
REMARK minimizedAffinity -8.35202885
REMARK CNNscore 0.284445167
REMARK CNNaffinity 6.65721369
REMARK  6 active torsions:
REMARK  status: ('A' for Active; 'I' for Inactive)
REMARK    1  A    between atoms: C2_2  and  C30_32 
REMARK    2  A    between atoms: C3_3  and  C4_4 
REMARK    3  A    between atoms: C4_4  and  C5_6 
REMARK    4  A    between atoms: C5_6  and  C6_7 
REMARK    5  A    between atoms: C6_7  and  C8_9 
REMARK    6  A    between atoms: C30_32  and  O4_34 
ROOT
HETATM    1  C8  UNL     1      -0.012  49.403 -16.822  1.00  0.00    -0.001 C 
HETATM    2  C9  UNL     1       0.134  48.241 -15.823  1.00  0.00     0.007 C 
HETATM    3  C10 UNL     1       0.301  48.869 -14.426  1.00  0.00     0.015 C 
HETATM    4  C11 UNL     1       0.354  50.410 -14.627  1.00  0.00    -0.013 C 
HETATM    5  C12 UNL     1       1.858  50.766 -14.831  1.00  0.00     0.021 C 
HETATM    6  C13 UNL     1      -0.273  51.215 -13.460  1.00  0.00    -0.070 C 
HETATM    7  C14 UNL     1       0.373  52.181 -12.786  1.00  0.00    -0.022 C 
HETATM    8  C15 UNL     1      -0.240  53.088 -11.771  1.00  0.00     0.034 C 
HETATM    9  C16 UNL     1      -1.791  53.056 -11.638  1.00  0.00     0.013 C 
HETATM   10  C17 UNL     1      -2.208  53.741 -10.279  1.00  0.00     0.018 C 
HETATM   11  C18 UNL     1      -3.707  54.092 -10.197  1.00  0.00     0.023 C 
HETATM   12  C19 UNL     1      -1.452  55.080 -10.080  1.00  0.00     0.023 C 
HETATM   13  C20 UNL     1      -1.862  52.788  -9.122  1.00  0.00     0.135 C 
HETATM   14  O2  UNL     1      -1.393  53.198  -8.058  1.00  0.00    -0.297 OA
HETATM   15  C21 UNL     1      -2.218  51.321  -9.272  1.00  0.00     0.080 C 
HETATM   16  C22 UNL     1      -1.836  50.742 -10.634  1.00  0.00     0.017 C 
HETATM   17  C23 UNL     1      -2.319  51.598 -11.843  1.00  0.00    -0.031 C 
HETATM   18  C24 UNL     1      -3.863  51.500 -11.906  1.00  0.00     0.016 C 
HETATM   19  C25 UNL     1      -1.751  50.977 -13.190  1.00  0.00     0.024 C 
HETATM   20  C26 UNL     1      -2.477  51.410 -14.481  1.00  0.00     0.010 C 
HETATM   21  C27 UNL     1      -2.020  50.533 -15.653  1.00  0.00     0.011 C 
HETATM   22  C28 UNL     1      -0.497  50.606 -15.948  1.00  0.00    -0.029 C 
HETATM   23  C29 UNL     1      -0.207  51.947 -16.656  1.00  0.00     0.016 C 
ENDROOT
BRANCH   1  24
HETATM   24  C6  UNL     1      -0.769  49.089 -18.146  1.00  0.00    -0.007 C 
HETATM   25  C7  UNL     1      -2.007  48.228 -17.823  1.00  0.00     0.011 C 
BRANCH  24  26
HETATM   26  C5  UNL     1      -1.227  50.308 -18.972  1.00  0.00     0.087 C 
BRANCH  26  27
HETATM   27  C4  UNL     1      -0.330  50.598 -20.168  1.00  0.00     0.150 C 
HETATM   28  O1  UNL     1      -0.120  49.782 -21.061  1.00  0.00    -0.293 OA
BRANCH  27  29
HETATM   29  C3  UNL     1       0.337  51.931 -20.168  1.00  0.00     0.063 C 
HETATM   30  C2  UNL     1       0.539  52.690 -21.262  1.00  0.00     0.015 C 
HETATM   31  C1  UNL     1       0.083  52.396 -22.658  1.00  0.00     0.055 C 
BRANCH  30  32
HETATM   32  C30 UNL     1       1.269  53.955 -21.015  1.00  0.00     0.171 C 
HETATM   33  O3  UNL     1       1.661  54.739 -21.862  1.00  0.00    -0.646 OA
BRANCH  32  34
HETATM   34  O4  UNL     1       1.466  54.189 -19.709  1.00  0.00    -0.773 OA
HETATM   35  H44 UNL     1       1.932  55.051 -19.689  1.00  0.00     0.167 HD
ENDBRANCH  32  34
ENDBRANCH  30  32
ENDBRANCH  27  29
ENDBRANCH  26  27
ENDBRANCH  24  26
ENDBRANCH   1  24
TORSDOF 6
ENDMDL
MODEL 7
REMARK minimizedAffinity -7.57742643
REMARK CNNscore 0.231171191
REMARK CNNaffinity 6.66637087
REMARK  6 active torsions:
REMARK  status: ('A' for Active; 'I' for Inactive)
REMARK    1  A    between atoms: C2_2  and  C30_32 
REMARK    2  A    between atoms: C3_3  and  C4_4 
REMARK    3  A    between atoms: C4_4  and  C5_6 
REMARK    4  A    between atoms: C5_6  and  C6_7 
REMARK    5  A    between atoms: C6_7  and  C8_9 
REMARK    6  A    between atoms: C30_32  and  O4_34 
ROOT
HETATM    1  C8  UNL     1       0.338  49.463 -15.992  1.00  0.00    -0.001 C 
HETATM    2  C9  UNL     1       0.297  48.344 -14.937  1.00  0.00     0.007 C 
HETATM    3  C10 UNL     1       0.941  48.911 -13.657  1.00  0.00     0.015 C 
HETATM    4  C11 UNL     1       1.452  50.339 -14.002  1.00  0.00    -0.013 C 
HETATM    5  C12 UNL     1       2.915  50.160 -14.510  1.00  0.00     0.021 C 
HETATM    6  C13 UNL     1       1.374  51.335 -12.817  1.00  0.00    -0.070 C 
HETATM    7  C14 UNL     1       2.423  52.041 -12.363  1.00  0.00    -0.022 C 
HETATM    8  C15 UNL     1       2.360  53.125 -11.339  1.00  0.00     0.034 C 
HETATM    9  C16 UNL     1       0.945  53.623 -10.920  1.00  0.00     0.013 C 
HETATM   10  C17 UNL     1       1.059  54.439  -9.575  1.00  0.00     0.018 C 
HETATM   11  C18 UNL     1      -0.192  55.278  -9.251  1.00  0.00     0.023 C 
HETATM   12  C19 UNL     1       2.235  55.448  -9.641  1.00  0.00     0.023 C 
HETATM   13  C20 UNL     1       1.303  53.453  -8.421  1.00  0.00     0.135 C 
HETATM   14  O2  UNL     1       2.087  53.705  -7.503  1.00  0.00    -0.297 OA
HETATM   15  C21 UNL     1       0.465  52.189  -8.370  1.00  0.00     0.080 C 
HETATM   16  C22 UNL     1       0.352  51.483  -9.720  1.00  0.00     0.017 C 
HETATM   17  C23 UNL     1      -0.060  52.424 -10.893  1.00  0.00    -0.031 C 
HETATM   18  C24 UNL     1      -1.531  52.852 -10.661  1.00  0.00     0.016 C 
HETATM   19  C25 UNL     1      -0.013  51.617 -12.260  1.00  0.00     0.024 C 
HETATM   20  C26 UNL     1      -0.805  52.239 -13.429  1.00  0.00     0.010 C 
HETATM   21  C27 UNL     1      -0.907  51.233 -14.581  1.00  0.00     0.011 C 
HETATM   22  C28 UNL     1       0.462  50.780 -15.156  1.00  0.00    -0.029 C 
HETATM   23  C29 UNL     1       1.023  51.926 -16.023  1.00  0.00     0.016 C 
ENDROOT
BRANCH   1  24
HETATM   24  C6  UNL     1      -0.732  49.393 -17.121  1.00  0.00    -0.007 C 
HETATM   25  C7  UNL     1      -1.947  50.251 -16.712  1.00  0.00     0.011 C 
BRANCH  24  26
HETATM   26  C5  UNL     1      -0.271  49.840 -18.523  1.00  0.00     0.087 C 
BRANCH  26  27
HETATM   27  C4  UNL     1      -1.026  51.054 -19.048  1.00  0.00     0.150 C 
HETATM   28  O1  UNL     1      -2.244  51.069 -19.202  1.00  0.00    -0.293 OA
BRANCH  27  29
HETATM   29  C3  UNL     1      -0.185  52.226 -19.424  1.00  0.00     0.063 C 
HETATM   30  C2  UNL     1       0.214  52.516 -20.676  1.00  0.00     0.015 C 
HETATM   31  C1  UNL     1      -0.153  51.783 -21.930  1.00  0.00     0.055 C 
BRANCH  30  32
HETATM   32  C30 UNL     1       1.086  53.708 -20.791  1.00  0.00     0.171 C 
HETATM   33  O3  UNL     1       1.430  54.254 -21.825  1.00  0.00    -0.646 OA
BRANCH  32  34
HETATM   34  O4  UNL     1       1.480  54.174 -19.596  1.00  0.00    -0.773 OA
HETATM   35  H44 UNL     1       2.023  54.959 -19.814  1.00  0.00     0.167 HD
ENDBRANCH  32  34
ENDBRANCH  30  32
ENDBRANCH  27  29
ENDBRANCH  26  27
ENDBRANCH  24  26
ENDBRANCH   1  24
TORSDOF 6
ENDMDL
MODEL 8
REMARK minimizedAffinity -8.70664597
REMARK CNNscore 0.208068877
REMARK CNNaffinity 5.91998672
REMARK  6 active torsions:
REMARK  status: ('A' for Active; 'I' for Inactive)
REMARK    1  A    between atoms: C2_2  and  C30_32 
REMARK    2  A    between atoms: C3_3  and  C4_4 
REMARK    3  A    between atoms: C4_4  and  C5_6 
REMARK    4  A    between atoms: C5_6  and  C6_7 
REMARK    5  A    between atoms: C6_7  and  C8_9 
REMARK    6  A    between atoms: C30_32  and  O4_34 
ROOT
HETATM    1  C8  UNL     1      -4.650  48.871 -21.769  1.00  0.00    -0.001 C 
HETATM    2  C9  UNL     1      -3.451  47.911 -21.869  1.00  0.00     0.007 C 
HETATM    3  C10 UNL     1      -2.739  48.221 -23.200  1.00  0.00     0.015 C 
HETATM    4  C11 UNL     1      -3.589  49.301 -23.927  1.00  0.00    -0.013 C 
HETATM    5  C12 UNL     1      -4.618  48.522 -24.802  1.00  0.00     0.021 C 
HETATM    6  C13 UNL     1      -2.750  50.292 -24.773  1.00  0.00    -0.070 C 
HETATM    7  C14 UNL     1      -2.965  50.530 -26.078  1.00  0.00    -0.022 C 
HETATM    8  C15 UNL     1      -2.294  51.588 -26.889  1.00  0.00     0.034 C 
HETATM    9  C16 UNL     1      -1.438  52.635 -26.117  1.00  0.00     0.013 C 
HETATM   10  C17 UNL     1      -0.500  53.391 -27.136  1.00  0.00     0.018 C 
HETATM   11  C18 UNL     1       0.124  54.679 -26.565  1.00  0.00     0.023 C 
HETATM   12  C19 UNL     1      -1.293  53.831 -28.393  1.00  0.00     0.023 C 
HETATM   13  C20 UNL     1       0.633  52.441 -27.559  1.00  0.00     0.135 C 
HETATM   14  O2  UNL     1       1.041  52.391 -28.721  1.00  0.00    -0.297 OA
HETATM   15  C21 UNL     1       1.327  51.630 -26.481  1.00  0.00     0.080 C 
HETATM   16  C22 UNL     1       0.358  50.975 -25.497  1.00  0.00     0.017 C 
HETATM   17  C23 UNL     1      -0.707  51.951 -24.914  1.00  0.00    -0.031 C 
HETATM   18  C24 UNL     1       0.025  52.950 -23.983  1.00  0.00     0.016 C 
HETATM   19  C25 UNL     1      -1.735  51.137 -24.018  1.00  0.00     0.024 C 
HETATM   20  C26 UNL     1      -2.562  51.978 -23.023  1.00  0.00     0.010 C 
HETATM   21  C27 UNL     1      -3.293  51.052 -22.043  1.00  0.00     0.011 C 
HETATM   22  C28 UNL     1      -4.276  50.057 -22.717  1.00  0.00    -0.029 C 
HETATM   23  C29 UNL     1      -5.539  50.839 -23.137  1.00  0.00     0.016 C 
ENDROOT
BRANCH   1  24
HETATM   24  C6  UNL     1      -5.162  49.194 -20.334  1.00  0.00    -0.007 C 
HETATM   25  C7  UNL     1      -4.200  50.203 -19.675  1.00  0.00     0.011 C 
BRANCH  24  26
HETATM   26  C5  UNL     1      -6.596  49.754 -20.235  1.00  0.00     0.087 C 
BRANCH  26  27
HETATM   27  C4  UNL     1      -7.672  48.703 -20.472  1.00  0.00     0.150 C 
HETATM   28  O1  UNL     1      -8.329  48.638 -21.506  1.00  0.00    -0.293 OA
BRANCH  27  29
HETATM   29  C3  UNL     1      -7.927  47.772 -19.335  1.00  0.00     0.063 C 
HETATM   30  C2  UNL     1      -8.510  48.120 -18.173  1.00  0.00     0.015 C 
HETATM   31  C1  UNL     1      -9.076  49.460 -17.815  1.00  0.00     0.055 C 
BRANCH  30  32
HETATM   32  C30 UNL     1      -8.610  47.029 -17.176  1.00  0.00     0.171 C 
HETATM   33  O3  UNL     1      -9.237  45.991 -17.302  1.00  0.00    -0.646 OA
BRANCH  32  34
HETATM   34  O4  UNL     1      -7.906  47.282 -16.063  1.00  0.00    -0.773 OA
HETATM   35  H44 UNL     1      -8.041  46.486 -15.508  1.00  0.00     0.167 HD
ENDBRANCH  32  34
ENDBRANCH  30  32
ENDBRANCH  27  29
ENDBRANCH  26  27
ENDBRANCH  24  26
ENDBRANCH   1  24
TORSDOF 6
ENDMDL
MODEL 9
REMARK minimizedAffinity -9.53715229
REMARK CNNscore 0.207508177
REMARK CNNaffinity 5.85527563
REMARK  6 active torsions:
REMARK  status: ('A' for Active; 'I' for Inactive)
REMARK    1  A    between atoms: C2_2  and  C30_32 
REMARK    2  A    between atoms: C3_3  and  C4_4 
REMARK    3  A    between atoms: C4_4  and  C5_6 
REMARK    4  A    between atoms: C5_6  and  C6_7 
REMARK    5  A    between atoms: C6_7  and  C8_9 
REMARK    6  A    between atoms: C30_32  and  O4_34 
ROOT
HETATM    1  C8  UNL     1      -6.338  48.790 -21.955  1.00  0.00    -0.001 C 
HETATM    2  C9  UNL     1      -7.133  49.804 -22.797  1.00  0.00     0.007 C 
HETATM    3  C10 UNL     1      -6.139  50.893 -23.242  1.00  0.00     0.015 C 
HETATM    4  C11 UNL     1      -4.776  50.565 -22.570  1.00  0.00    -0.013 C 
HETATM    5  C12 UNL     1      -4.783  51.307 -21.198  1.00  0.00     0.021 C 
HETATM    6  C13 UNL     1      -3.545  50.955 -23.427  1.00  0.00    -0.070 C 
HETATM    7  C14 UNL     1      -2.551  51.747 -22.991  1.00  0.00    -0.022 C 
HETATM    8  C15 UNL     1      -1.275  52.017 -23.718  1.00  0.00     0.034 C 
HETATM    9  C16 UNL     1      -0.980  51.147 -24.976  1.00  0.00     0.013 C 
HETATM   10  C17 UNL     1       0.161  51.832 -25.823  1.00  0.00     0.018 C 
HETATM   11  C18 UNL     1       0.787  50.905 -26.883  1.00  0.00     0.023 C 
HETATM   12  C19 UNL     1       1.333  52.279 -24.911  1.00  0.00     0.023 C 
HETATM   13  C20 UNL     1      -0.426  53.065 -26.532  1.00  0.00     0.135 C 
HETATM   14  O2  UNL     1       0.205  54.119 -26.636  1.00  0.00    -0.297 OA
HETATM   15  C21 UNL     1      -1.775  52.924 -27.212  1.00  0.00     0.080 C 
HETATM   16  C22 UNL     1      -2.812  52.201 -26.354  1.00  0.00     0.017 C 
HETATM   17  C23 UNL     1      -2.307  50.855 -25.751  1.00  0.00    -0.031 C 
HETATM   18  C24 UNL     1      -2.137  49.849 -26.917  1.00  0.00     0.016 C 
HETATM   19  C25 UNL     1      -3.412  50.264 -24.776  1.00  0.00     0.024 C 
HETATM   20  C26 UNL     1      -3.282  48.761 -24.454  1.00  0.00     0.010 C 
HETATM   21  C27 UNL     1      -4.551  48.270 -23.746  1.00  0.00     0.011 C 
HETATM   22  C28 UNL     1      -4.854  48.992 -22.405  1.00  0.00    -0.029 C 
HETATM   23  C29 UNL     1      -3.880  48.451 -21.337  1.00  0.00     0.016 C 
ENDROOT
BRANCH   1  24
HETATM   24  C6  UNL     1      -6.909  47.343 -21.889  1.00  0.00    -0.007 C 
HETATM   25  C7  UNL     1      -8.223  47.360 -21.083  1.00  0.00     0.011 C 
BRANCH  24  26
HETATM   26  C5  UNL     1      -7.179  46.657 -23.245  1.00  0.00     0.087 C 
BRANCH  26  27
HETATM   27  C4  UNL     1      -8.648  46.322 -23.468  1.00  0.00     0.150 C 
HETATM   28  O1  UNL     1      -9.155  45.263 -23.110  1.00  0.00    -0.293 OA
BRANCH  27  29
HETATM   29  C3  UNL     1      -9.439  47.345 -24.210  1.00  0.00     0.063 C 
HETATM   30  C2  UNL     1      -9.111  47.845 -25.416  1.00  0.00     0.015 C 
HETATM   31  C1  UNL     1      -7.954  47.436 -26.276  1.00  0.00     0.055 C 
BRANCH  30  32
HETATM   32  C30 UNL     1     -10.029  48.888 -25.927  1.00  0.00     0.171 C 
HETATM   33  O3  UNL     1     -11.188  48.726 -26.270  1.00  0.00    -0.646 OA
BRANCH  32  34
HETATM   34  O4  UNL     1      -9.455  50.101 -25.975  1.00  0.00    -0.773 OA
HETATM   35  H44 UNL     1     -10.166  50.688 -26.306  1.00  0.00     0.167 HD
ENDBRANCH  32  34
ENDBRANCH  30  32
ENDBRANCH  27  29
ENDBRANCH  26  27
ENDBRANCH  24  26
ENDBRANCH   1  24
TORSDOF 6
ENDMDL
