MODEL 1
REMARK minimizedAffinity -7.64297915
REMARK CNNscore 0.585475564
REMARK CNNaffinity 6.67380667
REMARK  20 active torsions:
REMARK  status: ('A' for Active; 'I' for Inactive)
REMARK    1  A    between atoms: C2_2  and  C3_3 
REMARK    2  A    between atoms: C2_2  and  C27_34 
REMARK    3  A    between atoms: C4_4  and  C5_5 
REMARK    4  A    between atoms: C6_6  and  C7_7 
REMARK    5  A    between atoms: C6_6  and  C10_12 
REMARK    6  A    between atoms: C7_7  and  O1_8 
REMARK    7  A    between atoms: O1_8  and  C8_9 
REMARK    8  A    between atoms: C8_9  and  C9_10 
REMARK    9  A    between atoms: C9_10  and  O2_11 
REMARK   10  A    between atoms: C14_16  and  O3_17 
REMARK   11  A    between atoms: C15_18  and  C16_19 
REMARK   12  A    between atoms: C16_19  and  C17_20 
REMARK   13  A    between atoms: C17_20  and  C18_21 
REMARK   14  A    between atoms: C18_21  and  O4_22 
REMARK   15  A    between atoms: C20_24  and  C22_26 
REMARK   16  A    between atoms: C25_30  and  O6_31 
REMARK   17  A    between atoms: C25_30  and  C26_32 
REMARK   18  A    between atoms: C26_32  and  O7_33 
REMARK   19  A    between atoms: C27_34  and  C28_35 
REMARK   20  A    between atoms: C28_35  and  C29_36 
ROOT
HETATM    1  C10 UNL     1      -0.890   9.354  12.942  1.00  0.00     0.046 C 
HETATM    2  C11 UNL     1      -1.709   8.398  12.068  1.00  0.00     0.013 C 
HETATM    3  C12 UNL     1      -0.651   7.662  11.264  1.00  0.00     0.017 C 
HETATM    4  C13 UNL     1       0.512   7.361  12.261  1.00  0.00     0.027 C 
HETATM    5  C14 UNL     1       0.272   8.426  13.401  1.00  0.00     0.138 C 
HETATM    6  C15 UNL     1       1.895   7.686  11.535  1.00  0.00     0.029 C 
HETATM    7  C19 UNL     1       2.114   6.713  10.370  1.00  0.00    -0.066 C 
HETATM    8  C20 UNL     1       2.291   7.064   9.072  1.00  0.00    -0.021 C 
HETATM    9  C21 UNL     1       2.538   6.096   7.953  1.00  0.00     0.052 C 
HETATM   10  C23 UNL     1       2.157   5.273  10.832  1.00  0.00     0.038 C 
HETATM   11  C24 UNL     1       0.874   4.888  11.553  1.00  0.00     0.045 C 
HETATM   12  C25 UNL     1       0.454   5.836  12.710  1.00  0.00     0.090 C 
ENDROOT
BRANCH   5  13
HETATM   13  O3  UNL     1      -0.008   7.795  14.642  1.00  0.00    -0.394 OA
HETATM   14  H19 UNL     1       0.771   7.224  14.824  1.00  0.00     0.210 HD
ENDBRANCH   5  13
BRANCH   6  15
HETATM   15  C16 UNL     1       3.165   7.724  12.443  1.00  0.00     0.012 C 
BRANCH  15  16
HETATM   16  C17 UNL     1       4.447   8.034  11.647  1.00  0.00     0.027 C 
BRANCH  16  17
HETATM   17  C18 UNL     1       5.453   6.891  11.694  1.00  0.00     0.164 C 
BRANCH  17  18
HETATM   18  O4  UNL     1       6.226   6.881  10.503  1.00  0.00    -0.401 OA
HETATM   19  H27 UNL     1       6.854   6.140  10.580  1.00  0.00     0.209 HD
ENDBRANCH  17  18
ENDBRANCH  16  17
ENDBRANCH  15  16
ENDBRANCH   6  15
BRANCH  12  20
HETATM   20  O6  UNL     1       1.392   5.661  13.793  1.00  0.00    -0.387 OA
HETATM   21  H36 UNL     1       1.127   4.851  14.275  1.00  0.00     0.210 HD
ENDBRANCH  12  20
BRANCH  12  22
HETATM   22  C26 UNL     1      -0.934   5.287  13.197  1.00  0.00     0.202 C 
BRANCH  22  23
HETATM   23  O7  UNL     1      -1.470   4.246  12.396  1.00  0.00    -0.398 OA
HETATM   24  H39 UNL     1      -0.760   3.577  12.264  1.00  0.00     0.209 HD
ENDBRANCH  22  23
ENDBRANCH  12  22
BRANCH   1  25
HETATM   25  C6  UNL     1      -1.699  10.194  13.939  1.00  0.00    -0.050 C 
HETATM   26  C5  UNL     1      -2.863   9.890  14.559  1.00  0.00     0.005 C 
BRANCH  26  27
HETATM   27  C4  UNL     1      -3.724   8.735  14.445  1.00  0.00     0.001 C 
HETATM   28  C3  UNL     1      -4.982   8.734  14.918  1.00  0.00     0.006 C 
BRANCH  28  29
HETATM   29  C2  UNL     1      -5.967   7.666  14.794  1.00  0.00    -0.067 C 
HETATM   30  C1  UNL     1      -6.716   7.334  15.861  1.00  0.00     0.019 C 
BRANCH  29  31
HETATM   31  C27 UNL     1      -6.213   6.989  13.461  1.00  0.00     0.041 C 
BRANCH  31  32
HETATM   32  C28 UNL     1      -7.471   6.115  13.456  1.00  0.00     0.032 C 
BRANCH  32  33
HETATM   33  C29 UNL     1      -7.218   4.824  12.720  1.00  0.00    -0.024 C 
HETATM   34  C30 UNL     1      -6.060   4.144  12.615  1.00  0.00    -0.091 C 
HETATM   35  C31 UNL     1      -5.998   2.858  11.835  1.00  0.00     0.042 C 
HETATM   36  C32 UNL     1      -4.757   4.540  13.255  1.00  0.00     0.042 C 
ENDBRANCH  32  33
ENDBRANCH  31  32
ENDBRANCH  29  31
ENDBRANCH  28  29
ENDBRANCH  26  27
BRANCH  25  37
HETATM   37  C7  UNL     1      -1.043  11.504  14.378  1.00  0.00     0.202 C 
BRANCH  37  38
HETATM   38  O1  UNL     1      -1.837  12.636  14.023  1.00  0.00    -0.385 OA
BRANCH  38  39
HETATM   39  C8  UNL     1      -1.372  13.876  14.567  1.00  0.00     0.194 C 
BRANCH  39  40
HETATM   40  C9  UNL     1      -0.944  14.844  13.464  1.00  0.00     0.190 C 
BRANCH  40  41
HETATM   41  O2  UNL     1      -1.971  14.992  12.483  1.00  0.00    -0.399 OA
HETATM   42  H12 UNL     1      -1.641  15.632  11.830  1.00  0.00     0.209 HD
ENDBRANCH  40  41
ENDBRANCH  39  40
ENDBRANCH  38  39
ENDBRANCH  37  38
ENDBRANCH  25  37
ENDBRANCH   1  25
BRANCH   8  43
HETATM   43  C22 UNL     1       2.312   8.489   8.630  1.00  0.00     0.265 C 
HETATM   44  O5  UNL     1       2.931   8.895   7.657  1.00  0.00    -0.302 OA
ENDBRANCH   8  43
TORSDOF 20
ENDMDL
MODEL 2
REMARK minimizedAffinity -6.70467377
REMARK CNNscore 0.506143928
REMARK CNNaffinity 6.48400164
REMARK  20 active torsions:
REMARK  status: ('A' for Active; 'I' for Inactive)
REMARK    1  A    between atoms: C2_2  and  C3_3 
REMARK    2  A    between atoms: C2_2  and  C27_34 
REMARK    3  A    between atoms: C4_4  and  C5_5 
REMARK    4  A    between atoms: C6_6  and  C7_7 
REMARK    5  A    between atoms: C6_6  and  C10_12 
REMARK    6  A    between atoms: C7_7  and  O1_8 
REMARK    7  A    between atoms: O1_8  and  C8_9 
REMARK    8  A    between atoms: C8_9  and  C9_10 
REMARK    9  A    between atoms: C9_10  and  O2_11 
REMARK   10  A    between atoms: C14_16  and  O3_17 
REMARK   11  A    between atoms: C15_18  and  C16_19 
REMARK   12  A    between atoms: C16_19  and  C17_20 
REMARK   13  A    between atoms: C17_20  and  C18_21 
REMARK   14  A    between atoms: C18_21  and  O4_22 
REMARK   15  A    between atoms: C20_24  and  C22_26 
REMARK   16  A    between atoms: C25_30  and  O6_31 
REMARK   17  A    between atoms: C25_30  and  C26_32 
REMARK   18  A    between atoms: C26_32  and  O7_33 
REMARK   19  A    between atoms: C27_34  and  C28_35 
REMARK   20  A    between atoms: C28_35  and  C29_36 
ROOT
HETATM    1  C10 UNL     1     -12.844   7.823  14.787  1.00  0.00     0.046 C 
HETATM    2  C11 UNL     1     -12.922   7.405  13.315  1.00  0.00     0.013 C 
HETATM    3  C12 UNL     1     -14.180   6.554  13.257  1.00  0.00     0.017 C 
HETATM    4  C13 UNL     1     -15.232   7.284  14.149  1.00  0.00     0.027 C 
HETATM    5  C14 UNL     1     -14.329   8.184  15.080  1.00  0.00     0.138 C 
HETATM    6  C15 UNL     1     -15.975   6.194  15.047  1.00  0.00     0.029 C 
HETATM    7  C19 UNL     1     -16.797   5.257  14.156  1.00  0.00    -0.066 C 
HETATM    8  C20 UNL     1     -16.656   3.910  14.086  1.00  0.00    -0.021 C 
HETATM    9  C21 UNL     1     -17.496   3.007  13.232  1.00  0.00     0.052 C 
HETATM   10  C23 UNL     1     -17.849   6.002  13.363  1.00  0.00     0.038 C 
HETATM   11  C24 UNL     1     -17.220   7.077  12.489  1.00  0.00     0.045 C 
HETATM   12  C25 UNL     1     -16.272   8.061  13.228  1.00  0.00     0.090 C 
ENDROOT
BRANCH   5  13
HETATM   13  O3  UNL     1     -14.593   9.564  14.873  1.00  0.00    -0.394 OA
HETATM   14  H19 UNL     1     -15.552   9.676  15.063  1.00  0.00     0.210 HD
ENDBRANCH   5  13
BRANCH   6  15
HETATM   15  C16 UNL     1     -16.863   6.740  16.209  1.00  0.00     0.012 C 
BRANCH  15  16
HETATM   16  C17 UNL     1     -16.583   6.028  17.547  1.00  0.00     0.027 C 
BRANCH  16  17
HETATM   17  C18 UNL     1     -15.972   6.959  18.587  1.00  0.00     0.164 C 
BRANCH  17  18
HETATM   18  O4  UNL     1     -14.591   7.145  18.314  1.00  0.00    -0.401 OA
HETATM   19  H27 UNL     1     -14.247   7.746  18.998  1.00  0.00     0.209 HD
ENDBRANCH  17  18
ENDBRANCH  16  17
ENDBRANCH  15  16
ENDBRANCH   6  15
BRANCH  12  20
HETATM   20  O6  UNL     1     -17.077   8.899  14.083  1.00  0.00    -0.387 OA
HETATM   21  H36 UNL     1     -17.466   9.596  13.519  1.00  0.00     0.210 HD
ENDBRANCH  12  20
BRANCH  12  22
HETATM   22  C26 UNL     1     -15.680   8.976  12.097  1.00  0.00     0.202 C 
BRANCH  22  23
HETATM   23  O7  UNL     1     -15.863   8.478  10.781  1.00  0.00    -0.398 OA
HETATM   24  H39 UNL     1     -16.810   8.229  10.687  1.00  0.00     0.209 HD
ENDBRANCH  22  23
ENDBRANCH  12  22
BRANCH   1  25
HETATM   25  C6  UNL     1     -11.693   8.774  15.144  1.00  0.00    -0.050 C 
HETATM   26  C5  UNL     1     -10.387   8.487  15.351  1.00  0.00     0.005 C 
BRANCH  26  27
HETATM   27  C4  UNL     1      -9.685   7.224  15.360  1.00  0.00     0.001 C 
HETATM   28  C3  UNL     1      -8.797   6.895  14.405  1.00  0.00     0.006 C 
BRANCH  28  29
HETATM   29  C2  UNL     1      -7.973   5.693  14.347  1.00  0.00    -0.067 C 
HETATM   30  C1  UNL     1      -7.139   5.417  15.365  1.00  0.00     0.019 C 
BRANCH  29  31
HETATM   31  C27 UNL     1      -8.109   4.716  13.198  1.00  0.00     0.041 C 
BRANCH  31  32
HETATM   32  C28 UNL     1      -7.123   3.546  13.287  1.00  0.00     0.032 C 
BRANCH  32  33
HETATM   33  C29 UNL     1      -5.937   3.781  12.388  1.00  0.00    -0.024 C 
HETATM   34  C30 UNL     1      -5.390   2.931  11.497  1.00  0.00    -0.091 C 
HETATM   35  C31 UNL     1      -4.199   3.346  10.676  1.00  0.00     0.042 C 
HETATM   36  C32 UNL     1      -5.890   1.543  11.201  1.00  0.00     0.042 C 
ENDBRANCH  32  33
ENDBRANCH  31  32
ENDBRANCH  29  31
ENDBRANCH  28  29
ENDBRANCH  26  27
BRANCH  25  37
HETATM   37  C7  UNL     1     -12.049  10.261  15.154  1.00  0.00     0.202 C 
BRANCH  37  38
HETATM   38  O1  UNL     1     -11.904  10.829  16.455  1.00  0.00    -0.385 OA
BRANCH  38  39
HETATM   39  C8  UNL     1     -12.410  10.012  17.516  1.00  0.00     0.194 C 
BRANCH  39  40
HETATM   40  C9  UNL     1     -11.408   9.905  18.665  1.00  0.00     0.190 C 
BRANCH  40  41
HETATM   41  O2  UNL     1     -11.503   8.636  19.313  1.00  0.00    -0.399 OA
HETATM   42  H12 UNL     1     -10.828   8.629  20.012  1.00  0.00     0.209 HD
ENDBRANCH  40  41
ENDBRANCH  39  40
ENDBRANCH  38  39
ENDBRANCH  37  38
ENDBRANCH  25  37
ENDBRANCH   1  25
BRANCH   8  43
HETATM   43  C22 UNL     1     -15.662   3.171  14.918  1.00  0.00     0.265 C 
HETATM   44  O5  UNL     1     -15.955   2.303  15.727  1.00  0.00    -0.302 OA
ENDBRANCH   8  43
TORSDOF 20
ENDMDL
MODEL 3
REMARK minimizedAffinity -7.56688452
REMARK CNNscore 0.361203045
REMARK CNNaffinity 7.0751729
REMARK  20 active torsions:
REMARK  status: ('A' for Active; 'I' for Inactive)
REMARK    1  A    between atoms: C2_2  and  C3_3 
REMARK    2  A    between atoms: C2_2  and  C27_34 
REMARK    3  A    between atoms: C4_4  and  C5_5 
REMARK    4  A    between atoms: C6_6  and  C7_7 
REMARK    5  A    between atoms: C6_6  and  C10_12 
REMARK    6  A    between atoms: C7_7  and  O1_8 
REMARK    7  A    between atoms: O1_8  and  C8_9 
REMARK    8  A    between atoms: C8_9  and  C9_10 
REMARK    9  A    between atoms: C9_10  and  O2_11 
REMARK   10  A    between atoms: C14_16  and  O3_17 
REMARK   11  A    between atoms: C15_18  and  C16_19 
REMARK   12  A    between atoms: C16_19  and  C17_20 
REMARK   13  A    between atoms: C17_20  and  C18_21 
REMARK   14  A    between atoms: C18_21  and  O4_22 
REMARK   15  A    between atoms: C20_24  and  C22_26 
REMARK   16  A    between atoms: C25_30  and  O6_31 
REMARK   17  A    between atoms: C25_30  and  C26_32 
REMARK   18  A    between atoms: C26_32  and  O7_33 
REMARK   19  A    between atoms: C27_34  and  C28_35 
REMARK   20  A    between atoms: C28_35  and  C29_36 
ROOT
HETATM    1  C10 UNL     1      -3.394   8.037  14.600  1.00  0.00     0.046 C 
HETATM    2  C11 UNL     1      -2.752   6.956  15.476  1.00  0.00     0.013 C 
HETATM    3  C12 UNL     1      -1.733   6.313  14.551  1.00  0.00     0.017 C 
HETATM    4  C13 UNL     1      -1.072   7.486  13.760  1.00  0.00     0.027 C 
HETATM    5  C14 UNL     1      -2.145   8.636  13.892  1.00  0.00     0.138 C 
HETATM    6  C15 UNL     1      -0.958   7.059  12.227  1.00  0.00     0.029 C 
HETATM    7  C19 UNL     1       0.019   5.888  12.082  1.00  0.00    -0.066 C 
HETATM    8  C20 UNL     1      -0.274   4.676  11.550  1.00  0.00    -0.021 C 
HETATM    9  C21 UNL     1       0.709   3.554  11.387  1.00  0.00     0.052 C 
HETATM   10  C23 UNL     1       1.407   6.241  12.572  1.00  0.00     0.038 C 
HETATM   11  C24 UNL     1       1.382   6.678  14.030  1.00  0.00     0.045 C 
HETATM   12  C25 UNL     1       0.364   7.802  14.367  1.00  0.00     0.090 C 
ENDROOT
BRANCH   5  13
HETATM   13  O3  UNL     1      -1.618   9.752  14.594  1.00  0.00    -0.394 OA
HETATM   14  H19 UNL     1      -0.830  10.035  14.079  1.00  0.00     0.210 HD
ENDBRANCH   5  13
BRANCH   6  15
HETATM   15  C16 UNL     1      -0.589   8.190  11.217  1.00  0.00     0.012 C 
BRANCH  15  16
HETATM   16  C17 UNL     1       0.198   7.660  10.003  1.00  0.00     0.027 C 
BRANCH  16  17
HETATM   17  C18 UNL     1      -0.083   8.453   8.733  1.00  0.00     0.164 C 
BRANCH  17  18
HETATM   18  O4  UNL     1       0.816   8.056   7.709  1.00  0.00    -0.401 OA
HETATM   19  H27 UNL     1       0.597   8.584   6.921  1.00  0.00     0.209 HD
ENDBRANCH  17  18
ENDBRANCH  16  17
ENDBRANCH  15  16
ENDBRANCH   6  15
BRANCH  12  20
HETATM   20  O6  UNL     1       0.836   9.026  13.765  1.00  0.00    -0.387 OA
HETATM   21  H36 UNL     1       1.528   9.388  14.354  1.00  0.00     0.210 HD
ENDBRANCH  12  20
BRANCH  12  22
HETATM   22  C26 UNL     1       0.459   7.977  15.925  1.00  0.00     0.202 C 
BRANCH  22  23
HETATM   23  O7  UNL     1       1.111   6.911  16.599  1.00  0.00    -0.398 OA
HETATM   24  H39 UNL     1       1.957   6.737  16.129  1.00  0.00     0.209 HD
ENDBRANCH  22  23
ENDBRANCH  12  22
BRANCH   1  25
HETATM   25  C6  UNL     1      -4.433   8.924  15.301  1.00  0.00    -0.050 C 
HETATM   26  C5  UNL     1      -5.783   8.884  15.212  1.00  0.00     0.005 C 
BRANCH  26  27
HETATM   27  C4  UNL     1      -6.655   8.056  14.410  1.00  0.00     0.001 C 
HETATM   28  C3  UNL     1      -7.721   7.427  14.935  1.00  0.00     0.006 C 
BRANCH  28  29
HETATM   29  C2  UNL     1      -8.714   6.634  14.219  1.00  0.00    -0.067 C 
HETATM   30  C1  UNL     1     -10.015   6.954  14.328  1.00  0.00     0.019 C 
BRANCH  29  31
HETATM   31  C27 UNL     1      -8.289   5.513  13.292  1.00  0.00     0.041 C 
BRANCH  31  32
HETATM   32  C28 UNL     1      -7.559   4.379  14.019  1.00  0.00     0.032 C 
BRANCH  32  33
HETATM   33  C29 UNL     1      -7.250   3.251  13.068  1.00  0.00    -0.024 C 
HETATM   34  C30 UNL     1      -6.145   3.078  12.318  1.00  0.00    -0.091 C 
HETATM   35  C31 UNL     1      -6.009   1.877  11.422  1.00  0.00     0.042 C 
HETATM   36  C32 UNL     1      -4.953   3.997  12.302  1.00  0.00     0.042 C 
ENDBRANCH  32  33
ENDBRANCH  31  32
ENDBRANCH  29  31
ENDBRANCH  28  29
ENDBRANCH  26  27
BRANCH  25  37
HETATM   37  C7  UNL     1      -3.871   9.910  16.325  1.00  0.00     0.202 C 
BRANCH  37  38
HETATM   38  O1  UNL     1      -2.885   9.300  17.159  1.00  0.00    -0.385 OA
BRANCH  38  39
HETATM   39  C8  UNL     1      -2.292  10.185  18.115  1.00  0.00     0.194 C 
BRANCH  39  40
HETATM   40  C9  UNL     1      -2.206  11.612  17.576  1.00  0.00     0.190 C 
BRANCH  40  41
HETATM   41  O2  UNL     1      -0.985  12.239  17.972  1.00  0.00    -0.399 OA
HETATM   42  H12 UNL     1      -0.988  13.127  17.578  1.00  0.00     0.209 HD
ENDBRANCH  40  41
ENDBRANCH  39  40
ENDBRANCH  38  39
ENDBRANCH  37  38
ENDBRANCH  25  37
ENDBRANCH   1  25
BRANCH   8  43
HETATM   43  C22 UNL     1      -1.627   4.352  11.009  1.00  0.00     0.265 C 
HETATM   44  O5  UNL     1      -1.863   3.401  10.277  1.00  0.00    -0.302 OA
ENDBRANCH   8  43
TORSDOF 20
ENDMDL
MODEL 4
REMARK minimizedAffinity -7.26079941
REMARK CNNscore 0.348677844
REMARK CNNaffinity 6.63610458
REMARK  20 active torsions:
REMARK  status: ('A' for Active; 'I' for Inactive)
REMARK    1  A    between atoms: C2_2  and  C3_3 
REMARK    2  A    between atoms: C2_2  and  C27_34 
REMARK    3  A    between atoms: C4_4  and  C5_5 
REMARK    4  A    between atoms: C6_6  and  C7_7 
REMARK    5  A    between atoms: C6_6  and  C10_12 
REMARK    6  A    between atoms: C7_7  and  O1_8 
REMARK    7  A    between atoms: O1_8  and  C8_9 
REMARK    8  A    between atoms: C8_9  and  C9_10 
REMARK    9  A    between atoms: C9_10  and  O2_11 
REMARK   10  A    between atoms: C14_16  and  O3_17 
REMARK   11  A    between atoms: C15_18  and  C16_19 
REMARK   12  A    between atoms: C16_19  and  C17_20 
REMARK   13  A    between atoms: C17_20  and  C18_21 
REMARK   14  A    between atoms: C18_21  and  O4_22 
REMARK   15  A    between atoms: C20_24  and  C22_26 
REMARK   16  A    between atoms: C25_30  and  O6_31 
REMARK   17  A    between atoms: C25_30  and  C26_32 
REMARK   18  A    between atoms: C26_32  and  O7_33 
REMARK   19  A    between atoms: C27_34  and  C28_35 
REMARK   20  A    between atoms: C28_35  and  C29_36 
ROOT
HETATM    1  C10 UNL     1      -0.898   9.434  13.061  1.00  0.00     0.046 C 
HETATM    2  C11 UNL     1      -1.693   8.413  12.241  1.00  0.00     0.013 C 
HETATM    3  C12 UNL     1      -0.622   7.693  11.440  1.00  0.00     0.017 C 
HETATM    4  C13 UNL     1       0.575   7.479  12.419  1.00  0.00     0.027 C 
HETATM    5  C14 UNL     1       0.313   8.574  13.526  1.00  0.00     0.138 C 
HETATM    6  C15 UNL     1       1.926   7.835  11.650  1.00  0.00     0.029 C 
HETATM    7  C19 UNL     1       2.162   6.831  10.517  1.00  0.00    -0.066 C 
HETATM    8  C20 UNL     1       2.295   7.141   9.203  1.00  0.00    -0.021 C 
HETATM    9  C21 UNL     1       2.559   6.144   8.114  1.00  0.00     0.052 C 
HETATM   10  C23 UNL     1       2.278   5.412  11.029  1.00  0.00     0.038 C 
HETATM   11  C24 UNL     1       1.028   4.999  11.793  1.00  0.00     0.045 C 
HETATM   12  C25 UNL     1       0.593   5.971  12.925  1.00  0.00     0.090 C 
ENDROOT
BRANCH   5  13
HETATM   13  O3  UNL     1       0.088   7.978  14.795  1.00  0.00    -0.394 OA
HETATM   14  H19 UNL     1       0.895   7.447  14.979  1.00  0.00     0.210 HD
ENDBRANCH   5  13
BRANCH   6  15
HETATM   15  C16 UNL     1       3.212   7.962  12.526  1.00  0.00     0.012 C 
BRANCH  15  16
HETATM   16  C17 UNL     1       4.504   7.847  11.695  1.00  0.00     0.027 C 
BRANCH  16  17
HETATM   17  C18 UNL     1       5.760   7.960  12.549  1.00  0.00     0.164 C 
BRANCH  17  18
HETATM   18  O4  UNL     1       5.806   6.891  13.482  1.00  0.00    -0.401 OA
HETATM   19  H27 UNL     1       6.623   7.002  13.999  1.00  0.00     0.209 HD
ENDBRANCH  17  18
ENDBRANCH  16  17
ENDBRANCH  15  16
ENDBRANCH   6  15
BRANCH  12  20
HETATM   20  O6  UNL     1       1.561   5.876  13.991  1.00  0.00    -0.387 OA
HETATM   21  H36 UNL     1       1.342   5.074  14.507  1.00  0.00     0.210 HD
ENDBRANCH  12  20
BRANCH  12  22
HETATM   22  C26 UNL     1      -0.759   5.381  13.463  1.00  0.00     0.202 C 
BRANCH  22  23
HETATM   23  O7  UNL     1      -0.861   5.336  14.878  1.00  0.00    -0.398 OA
HETATM   24  H39 UNL     1      -0.605   6.222  15.222  1.00  0.00     0.209 HD
ENDBRANCH  22  23
ENDBRANCH  12  22
BRANCH   1  25
HETATM   25  C6  UNL     1      -1.721  10.275  14.047  1.00  0.00    -0.050 C 
HETATM   26  C5  UNL     1      -2.829   9.928  14.741  1.00  0.00     0.005 C 
BRANCH  26  27
HETATM   27  C4  UNL     1      -3.605   8.709  14.739  1.00  0.00     0.001 C 
HETATM   28  C3  UNL     1      -4.416   8.382  13.717  1.00  0.00     0.006 C 
BRANCH  28  29
HETATM   29  C2  UNL     1      -5.185   7.152  13.564  1.00  0.00    -0.067 C 
HETATM   30  C1  UNL     1      -4.550   6.018  13.219  1.00  0.00     0.019 C 
BRANCH  29  31
HETATM   31  C27 UNL     1      -6.668   7.123  13.870  1.00  0.00     0.041 C 
BRANCH  31  32
HETATM   32  C28 UNL     1      -7.022   6.179  15.024  1.00  0.00     0.032 C 
BRANCH  32  33
HETATM   33  C29 UNL     1      -7.067   4.750  14.547  1.00  0.00    -0.024 C 
HETATM   34  C30 UNL     1      -7.718   4.254  13.477  1.00  0.00    -0.091 C 
HETATM   35  C31 UNL     1      -7.643   2.786  13.151  1.00  0.00     0.042 C 
HETATM   36  C32 UNL     1      -8.534   5.061  12.504  1.00  0.00     0.042 C 
ENDBRANCH  32  33
ENDBRANCH  31  32
ENDBRANCH  29  31
ENDBRANCH  28  29
ENDBRANCH  26  27
BRANCH  25  37
HETATM   37  C7  UNL     1      -1.146  11.653  14.373  1.00  0.00     0.202 C 
BRANCH  37  38
HETATM   38  O1  UNL     1      -1.730  12.204  15.553  1.00  0.00    -0.385 OA
BRANCH  38  39
HETATM   39  C8  UNL     1      -0.854  12.239  16.685  1.00  0.00     0.194 C 
BRANCH  39  40
HETATM   40  C9  UNL     1      -1.622  12.044  17.992  1.00  0.00     0.190 C 
BRANCH  40  41
HETATM   41  O2  UNL     1      -0.783  12.286  19.122  1.00  0.00    -0.399 OA
HETATM   42  H12 UNL     1      -1.338  12.166  19.911  1.00  0.00     0.209 HD
ENDBRANCH  40  41
ENDBRANCH  39  40
ENDBRANCH  38  39
ENDBRANCH  37  38
ENDBRANCH  25  37
ENDBRANCH   1  25
BRANCH   8  43
HETATM   43  C22 UNL     1       2.244   8.548   8.709  1.00  0.00     0.265 C 
HETATM   44  O5  UNL     1       2.769   8.930   7.673  1.00  0.00    -0.302 OA
ENDBRANCH   8  43
TORSDOF 20
ENDMDL
MODEL 5
REMARK minimizedAffinity -6.52337217
REMARK CNNscore 0.314907491
REMARK CNNaffinity 6.17675734
REMARK  20 active torsions:
REMARK  status: ('A' for Active; 'I' for Inactive)
REMARK    1  A    between atoms: C2_2  and  C3_3 
REMARK    2  A    between atoms: C2_2  and  C27_34 
REMARK    3  A    between atoms: C4_4  and  C5_5 
REMARK    4  A    between atoms: C6_6  and  C7_7 
REMARK    5  A    between atoms: C6_6  and  C10_12 
REMARK    6  A    between atoms: C7_7  and  O1_8 
REMARK    7  A    between atoms: O1_8  and  C8_9 
REMARK    8  A    between atoms: C8_9  and  C9_10 
REMARK    9  A    between atoms: C9_10  and  O2_11 
REMARK   10  A    between atoms: C14_16  and  O3_17 
REMARK   11  A    between atoms: C15_18  and  C16_19 
REMARK   12  A    between atoms: C16_19  and  C17_20 
REMARK   13  A    between atoms: C17_20  and  C18_21 
REMARK   14  A    between atoms: C18_21  and  O4_22 
REMARK   15  A    between atoms: C20_24  and  C22_26 
REMARK   16  A    between atoms: C25_30  and  O6_31 
REMARK   17  A    between atoms: C25_30  and  C26_32 
REMARK   18  A    between atoms: C26_32  and  O7_33 
REMARK   19  A    between atoms: C27_34  and  C28_35 
REMARK   20  A    between atoms: C28_35  and  C29_36 
ROOT
HETATM    1  C10 UNL     1      -0.670   7.590  13.024  1.00  0.00     0.046 C 
HETATM    2  C11 UNL     1       0.469   8.444  12.458  1.00  0.00     0.013 C 
HETATM    3  C12 UNL     1       0.607   9.564  13.475  1.00  0.00     0.017 C 
HETATM    4  C13 UNL     1       0.459   8.892  14.876  1.00  0.00     0.027 C 
HETATM    5  C14 UNL     1      -0.299   7.550  14.535  1.00  0.00     0.138 C 
HETATM    6  C15 UNL     1      -0.489   9.807  15.776  1.00  0.00     0.029 C 
HETATM    7  C19 UNL     1       0.193  11.150  16.056  1.00  0.00    -0.066 C 
HETATM    8  C20 UNL     1      -0.306  12.370  15.736  1.00  0.00    -0.021 C 
HETATM    9  C21 UNL     1       0.364  13.675  16.050  1.00  0.00     0.052 C 
HETATM   10  C23 UNL     1       1.507  10.980  16.787  1.00  0.00     0.038 C 
HETATM   11  C24 UNL     1       2.466  10.102  15.997  1.00  0.00     0.045 C 
HETATM   12  C25 UNL     1       1.891   8.730  15.549  1.00  0.00     0.090 C 
ENDROOT
BRANCH   5  13
HETATM   13  O3  UNL     1       0.491   6.417  14.860  1.00  0.00    -0.394 OA
HETATM   14  H19 UNL     1       0.684   6.502  15.821  1.00  0.00     0.210 HD
ENDBRANCH   5  13
BRANCH   6  15
HETATM   15  C16 UNL     1      -0.996   9.178  17.113  1.00  0.00     0.012 C 
BRANCH  15  16
HETATM   16  C17 UNL     1      -2.471   8.741  17.035  1.00  0.00     0.027 C 
BRANCH  16  17
HETATM   17  C18 UNL     1      -3.195   9.339  15.836  1.00  0.00     0.164 C 
BRANCH  17  18
HETATM   18  O4  UNL     1      -4.583   9.052  15.919  1.00  0.00    -0.401 OA
HETATM   19  H27 UNL     1      -5.002   9.456  15.139  1.00  0.00     0.209 HD
ENDBRANCH  17  18
ENDBRANCH  16  17
ENDBRANCH  15  16
ENDBRANCH   6  15
BRANCH  12  20
HETATM   20  O6  UNL     1       1.735   7.906  16.724  1.00  0.00    -0.387 OA
HETATM   21  H36 UNL     1       2.616   7.540  16.937  1.00  0.00     0.210 HD
ENDBRANCH  12  20
BRANCH  12  22
HETATM   22  C26 UNL     1       3.024   8.086  14.672  1.00  0.00     0.202 C 
BRANCH  22  23
HETATM   23  O7  UNL     1       2.720   6.792  14.173  1.00  0.00    -0.398 OA
HETATM   24  H39 UNL     1       1.825   6.834  13.766  1.00  0.00     0.209 HD
ENDBRANCH  22  23
ENDBRANCH  12  22
BRANCH   1  25
HETATM   25  C6  UNL     1      -0.993   6.313  12.235  1.00  0.00    -0.050 C 
HETATM   26  C5  UNL     1      -0.292   5.732  11.235  1.00  0.00     0.005 C 
BRANCH  26  27
HETATM   27  C4  UNL     1       0.923   6.142  10.567  1.00  0.00     0.001 C 
HETATM   28  C3  UNL     1       0.929   7.100   9.623  1.00  0.00     0.006 C 
BRANCH  28  29
HETATM   29  C2  UNL     1       2.093   7.652   8.938  1.00  0.00    -0.067 C 
HETATM   30  C1  UNL     1       3.119   8.128   9.664  1.00  0.00     0.019 C 
BRANCH  29  31
HETATM   31  C27 UNL     1       2.191   7.616   7.427  1.00  0.00     0.041 C 
BRANCH  31  32
HETATM   32  C28 UNL     1       2.302   6.193   6.868  1.00  0.00     0.032 C 
BRANCH  32  33
HETATM   33  C29 UNL     1       3.085   5.312   7.807  1.00  0.00    -0.024 C 
HETATM   34  C30 UNL     1       3.708   4.151   7.528  1.00  0.00    -0.091 C 
HETATM   35  C31 UNL     1       4.452   3.405   8.603  1.00  0.00     0.042 C 
HETATM   36  C32 UNL     1       3.766   3.499   6.173  1.00  0.00     0.042 C 
ENDBRANCH  32  33
ENDBRANCH  31  32
ENDBRANCH  29  31
ENDBRANCH  28  29
ENDBRANCH  26  27
BRANCH  25  37
HETATM   37  C7  UNL     1      -2.214   5.532  12.722  1.00  0.00     0.202 C 
BRANCH  37  38
HETATM   38  O1  UNL     1      -3.138   6.373  13.412  1.00  0.00    -0.385 OA
BRANCH  38  39
HETATM   39  C8  UNL     1      -4.514   6.067  13.162  1.00  0.00     0.194 C 
BRANCH  39  40
HETATM   40  C9  UNL     1      -4.713   4.578  12.884  1.00  0.00     0.190 C 
BRANCH  40  41
HETATM   41  O2  UNL     1      -6.018   4.151  13.277  1.00  0.00    -0.399 OA
HETATM   42  H12 UNL     1      -6.082   3.208  13.052  1.00  0.00     0.209 HD
ENDBRANCH  40  41
ENDBRANCH  39  40
ENDBRANCH  38  39
ENDBRANCH  37  38
ENDBRANCH  25  37
ENDBRANCH   1  25
BRANCH   8  43
HETATM   43  C22 UNL     1      -1.632  12.537  15.073  1.00  0.00     0.265 C 
HETATM   44  O5  UNL     1      -1.850  12.271  13.899  1.00  0.00    -0.302 OA
ENDBRANCH   8  43
TORSDOF 20
ENDMDL
MODEL 6
REMARK minimizedAffinity -7.40284491
REMARK CNNscore 0.285487682
REMARK CNNaffinity 6.57029104
REMARK  20 active torsions:
REMARK  status: ('A' for Active; 'I' for Inactive)
REMARK    1  A    between atoms: C2_2  and  C3_3 
REMARK    2  A    between atoms: C2_2  and  C27_34 
REMARK    3  A    between atoms: C4_4  and  C5_5 
REMARK    4  A    between atoms: C6_6  and  C7_7 
REMARK    5  A    between atoms: C6_6  and  C10_12 
REMARK    6  A    between atoms: C7_7  and  O1_8 
REMARK    7  A    between atoms: O1_8  and  C8_9 
REMARK    8  A    between atoms: C8_9  and  C9_10 
REMARK    9  A    between atoms: C9_10  and  O2_11 
REMARK   10  A    between atoms: C14_16  and  O3_17 
REMARK   11  A    between atoms: C15_18  and  C16_19 
REMARK   12  A    between atoms: C16_19  and  C17_20 
REMARK   13  A    between atoms: C17_20  and  C18_21 
REMARK   14  A    between atoms: C18_21  and  O4_22 
REMARK   15  A    between atoms: C20_24  and  C22_26 
REMARK   16  A    between atoms: C25_30  and  O6_31 
REMARK   17  A    between atoms: C25_30  and  C26_32 
REMARK   18  A    between atoms: C26_32  and  O7_33 
REMARK   19  A    between atoms: C27_34  and  C28_35 
REMARK   20  A    between atoms: C28_35  and  C29_36 
ROOT
HETATM    1  C10 UNL     1      -1.787   9.044  13.201  1.00  0.00     0.046 C 
HETATM    2  C11 UNL     1      -2.311   7.773  12.526  1.00  0.00     0.013 C 
HETATM    3  C12 UNL     1      -1.125   7.295  11.706  1.00  0.00     0.017 C 
HETATM    4  C13 UNL     1       0.132   7.507  12.607  1.00  0.00     0.027 C 
HETATM    5  C14 UNL     1      -0.365   8.592  13.640  1.00  0.00     0.138 C 
HETATM    6  C15 UNL     1       1.292   8.138  11.713  1.00  0.00     0.029 C 
HETATM    7  C19 UNL     1       1.738   7.131  10.648  1.00  0.00    -0.066 C 
HETATM    8  C20 UNL     1       1.714   7.337   9.308  1.00  0.00    -0.021 C 
HETATM    9  C21 UNL     1       2.187   6.348   8.283  1.00  0.00     0.052 C 
HETATM   10  C23 UNL     1       2.265   5.851  11.260  1.00  0.00     0.038 C 
HETATM   11  C24 UNL     1       1.218   5.193  12.146  1.00  0.00     0.045 C 
HETATM   12  C25 UNL     1       0.590   6.115  13.227  1.00  0.00     0.090 C 
ENDROOT
BRANCH   5  13
HETATM   13  O3  UNL     1      -0.353   8.082  14.966  1.00  0.00    -0.394 OA
HETATM   14  H19 UNL     1       0.577   7.809  15.130  1.00  0.00     0.210 HD
ENDBRANCH   5  13
BRANCH   6  15
HETATM   15  C16 UNL     1       2.536   8.690  12.478  1.00  0.00     0.012 C 
BRANCH  15  16
HETATM   16  C17 UNL     1       3.819   8.644  11.625  1.00  0.00     0.027 C 
BRANCH  16  17
HETATM   17  C18 UNL     1       4.967   7.939  12.335  1.00  0.00     0.164 C 
BRANCH  17  18
HETATM   18  O4  UNL     1       4.500   7.351  13.539  1.00  0.00    -0.401 OA
HETATM   19  H27 UNL     1       5.264   6.912  13.954  1.00  0.00     0.209 HD
ENDBRANCH  17  18
ENDBRANCH  16  17
ENDBRANCH  15  16
ENDBRANCH   6  15
BRANCH  12  20
HETATM   20  O6  UNL     1       1.599   6.387  14.222  1.00  0.00    -0.387 OA
HETATM   21  H36 UNL     1       1.635   5.610  14.815  1.00  0.00     0.210 HD
ENDBRANCH  12  20
BRANCH  12  22
HETATM   22  C26 UNL     1      -0.519   5.238  13.910  1.00  0.00     0.202 C 
BRANCH  22  23
HETATM   23  O7  UNL     1      -0.626   5.411  15.315  1.00  0.00    -0.398 OA
HETATM   24  H39 UNL     1      -0.666   6.378  15.492  1.00  0.00     0.209 HD
ENDBRANCH  22  23
ENDBRANCH  12  22
BRANCH   1  25
HETATM   25  C6  UNL     1      -2.759   9.724  14.176  1.00  0.00    -0.050 C 
HETATM   26  C5  UNL     1      -4.013   9.351  14.524  1.00  0.00     0.005 C 
BRANCH  26  27
HETATM   27  C4  UNL     1      -4.839   8.259  14.062  1.00  0.00     0.001 C 
HETATM   28  C3  UNL     1      -5.284   7.301  14.894  1.00  0.00     0.006 C 
BRANCH  28  29
HETATM   29  C2  UNL     1      -6.182   6.199  14.566  1.00  0.00    -0.067 C 
HETATM   30  C1  UNL     1      -7.137   5.846  15.444  1.00  0.00     0.019 C 
BRANCH  29  31
HETATM   31  C27 UNL     1      -6.103   5.511  13.220  1.00  0.00     0.041 C 
BRANCH  31  32
HETATM   32  C28 UNL     1      -5.204   4.270  13.233  1.00  0.00     0.032 C 
BRANCH  32  33
HETATM   33  C29 UNL     1      -4.011   4.469  12.333  1.00  0.00    -0.024 C 
HETATM   34  C30 UNL     1      -3.282   3.527  11.704  1.00  0.00    -0.091 C 
HETATM   35  C31 UNL     1      -2.117   3.917  10.834  1.00  0.00     0.042 C 
HETATM   36  C32 UNL     1      -3.539   2.045  11.761  1.00  0.00     0.042 C 
ENDBRANCH  32  33
ENDBRANCH  31  32
ENDBRANCH  29  31
ENDBRANCH  28  29
ENDBRANCH  26  27
BRANCH  25  37
HETATM   37  C7  UNL     1      -2.192  10.918  14.943  1.00  0.00     0.202 C 
BRANCH  37  38
HETATM   38  O1  UNL     1      -2.743  11.012  16.257  1.00  0.00    -0.385 OA
BRANCH  38  39
HETATM   39  C8  UNL     1      -2.013  10.292  17.256  1.00  0.00     0.194 C 
BRANCH  39  40
HETATM   40  C9  UNL     1      -2.490  10.651  18.663  1.00  0.00     0.190 C 
BRANCH  40  41
HETATM   41  O2  UNL     1      -3.206   9.566  19.255  1.00  0.00    -0.399 OA
HETATM   42  H12 UNL     1      -3.457   9.854  20.149  1.00  0.00     0.209 HD
ENDBRANCH  40  41
ENDBRANCH  39  40
ENDBRANCH  38  39
ENDBRANCH  37  38
ENDBRANCH  25  37
ENDBRANCH   1  25
BRANCH   8  43
HETATM   43  C22 UNL     1       1.253   8.624   8.710  1.00  0.00     0.265 C 
HETATM   44  O5  UNL     1       0.095   9.016   8.734  1.00  0.00    -0.302 OA
ENDBRANCH   8  43
TORSDOF 20
ENDMDL
MODEL 7
REMARK minimizedAffinity -6.92378235
REMARK CNNscore 0.280656248
REMARK CNNaffinity 6.15301895
REMARK  20 active torsions:
REMARK  status: ('A' for Active; 'I' for Inactive)
REMARK    1  A    between atoms: C2_2  and  C3_3 
REMARK    2  A    between atoms: C2_2  and  C27_34 
REMARK    3  A    between atoms: C4_4  and  C5_5 
REMARK    4  A    between atoms: C6_6  and  C7_7 
REMARK    5  A    between atoms: C6_6  and  C10_12 
REMARK    6  A    between atoms: C7_7  and  O1_8 
REMARK    7  A    between atoms: O1_8  and  C8_9 
REMARK    8  A    between atoms: C8_9  and  C9_10 
REMARK    9  A    between atoms: C9_10  and  O2_11 
REMARK   10  A    between atoms: C14_16  and  O3_17 
REMARK   11  A    between atoms: C15_18  and  C16_19 
REMARK   12  A    between atoms: C16_19  and  C17_20 
REMARK   13  A    between atoms: C17_20  and  C18_21 
REMARK   14  A    between atoms: C18_21  and  O4_22 
REMARK   15  A    between atoms: C20_24  and  C22_26 
REMARK   16  A    between atoms: C25_30  and  O6_31 
REMARK   17  A    between atoms: C25_30  and  C26_32 
REMARK   18  A    between atoms: C26_32  and  O7_33 
REMARK   19  A    between atoms: C27_34  and  C28_35 
REMARK   20  A    between atoms: C28_35  and  C29_36 
ROOT
HETATM    1  C10 UNL     1      -2.696  10.736  15.588  1.00  0.00     0.046 C 
HETATM    2  C11 UNL     1      -3.630  10.381  14.427  1.00  0.00     0.013 C 
HETATM    3  C12 UNL     1      -2.942   9.195  13.773  1.00  0.00     0.017 C 
HETATM    4  C13 UNL     1      -2.414   8.306  14.942  1.00  0.00     0.027 C 
HETATM    5  C14 UNL     1      -2.354   9.325  16.147  1.00  0.00     0.138 C 
HETATM    6  C15 UNL     1      -0.931   7.836  14.589  1.00  0.00     0.029 C 
HETATM    7  C19 UNL     1      -0.954   6.908  13.370  1.00  0.00    -0.066 C 
HETATM    8  C20 UNL     1      -0.288   7.116  12.207  1.00  0.00    -0.021 C 
HETATM    9  C21 UNL     1      -0.298   6.176  11.038  1.00  0.00     0.052 C 
HETATM   10  C23 UNL     1      -1.789   5.670  13.613  1.00  0.00     0.038 C 
HETATM   11  C24 UNL     1      -3.222   6.035  13.975  1.00  0.00     0.045 C 
HETATM   12  C25 UNL     1      -3.373   7.052  15.139  1.00  0.00     0.090 C 
ENDROOT
BRANCH   5  13
HETATM   13  O3  UNL     1      -3.235   8.937  17.191  1.00  0.00    -0.394 OA
HETATM   14  H19 UNL     1      -2.947   8.034  17.452  1.00  0.00     0.210 HD
ENDBRANCH   5  13
BRANCH   6  15
HETATM   15  C16 UNL     1      -0.117   7.176  15.746  1.00  0.00     0.012 C 
BRANCH  15  16
HETATM   16  C17 UNL     1       1.160   7.966  16.091  1.00  0.00     0.027 C 
BRANCH  16  17
HETATM   17  C18 UNL     1       2.337   7.591  15.200  1.00  0.00     0.164 C 
BRANCH  17  18
HETATM   18  O4  UNL     1       3.057   6.515  15.781  1.00  0.00    -0.401 OA
HETATM   19  H27 UNL     1       3.793   6.309  15.177  1.00  0.00     0.209 HD
ENDBRANCH  17  18
ENDBRANCH  16  17
ENDBRANCH  15  16
ENDBRANCH   6  15
BRANCH  12  20
HETATM   20  O6  UNL     1      -2.986   6.390  16.362  1.00  0.00    -0.387 OA
HETATM   21  H36 UNL     1      -3.748   5.849  16.650  1.00  0.00     0.210 HD
ENDBRANCH  12  20
BRANCH  12  22
HETATM   22  C26 UNL     1      -4.914   7.337  15.228  1.00  0.00     0.202 C 
BRANCH  22  23
HETATM   23  O7  UNL     1      -5.644   7.002  14.057  1.00  0.00    -0.398 OA
HETATM   24  H39 UNL     1      -5.385   6.089  13.797  1.00  0.00     0.209 HD
ENDBRANCH  22  23
ENDBRANCH  12  22
BRANCH   1  25
HETATM   25  C6  UNL     1      -3.178  11.874  16.499  1.00  0.00    -0.050 C 
HETATM   26  C5  UNL     1      -2.644  12.316  17.661  1.00  0.00     0.005 C 
BRANCH  26  27
HETATM   27  C4  UNL     1      -1.515  11.839  18.428  1.00  0.00     0.001 C 
HETATM   28  C3  UNL     1      -0.665  12.679  19.043  1.00  0.00     0.006 C 
BRANCH  28  29
HETATM   29  C2  UNL     1       0.456  12.320  19.904  1.00  0.00    -0.067 C 
HETATM   30  C1  UNL     1       1.244  13.292  20.397  1.00  0.00     0.019 C 
BRANCH  29  31
HETATM   31  C27 UNL     1       0.688  10.881  20.315  1.00  0.00     0.041 C 
BRANCH  31  32
HETATM   32  C28 UNL     1       2.136  10.424  20.105  1.00  0.00     0.032 C 
BRANCH  32  33
HETATM   33  C29 UNL     1       2.909  10.498  21.396  1.00  0.00    -0.024 C 
HETATM   34  C30 UNL     1       2.902   9.620  22.418  1.00  0.00    -0.091 C 
HETATM   35  C31 UNL     1       3.750   9.860  23.638  1.00  0.00     0.042 C 
HETATM   36  C32 UNL     1       2.113   8.339  22.458  1.00  0.00     0.042 C 
ENDBRANCH  32  33
ENDBRANCH  31  32
ENDBRANCH  29  31
ENDBRANCH  28  29
ENDBRANCH  26  27
BRANCH  25  37
HETATM   37  C7  UNL     1      -4.352  12.692  15.962  1.00  0.00     0.202 C 
BRANCH  37  38
HETATM   38  O1  UNL     1      -4.007  14.068  15.800  1.00  0.00    -0.385 OA
BRANCH  38  39
HETATM   39  C8  UNL     1      -3.974  14.512  14.440  1.00  0.00     0.194 C 
BRANCH  39  40
HETATM   40  C9  UNL     1      -2.550  14.503  13.884  1.00  0.00     0.190 C 
BRANCH  40  41
HETATM   41  O2  UNL     1      -1.809  15.632  14.350  1.00  0.00    -0.399 OA
HETATM   42  H12 UNL     1      -0.915  15.550  13.979  1.00  0.00     0.209 HD
ENDBRANCH  40  41
ENDBRANCH  39  40
ENDBRANCH  38  39
ENDBRANCH  37  38
ENDBRANCH  25  37
ENDBRANCH   1  25
BRANCH   8  43
HETATM   43  C22 UNL     1       0.586   8.306  11.994  1.00  0.00     0.265 C 
HETATM   44  O5  UNL     1       0.710   8.883  10.923  1.00  0.00    -0.302 OA
ENDBRANCH   8  43
TORSDOF 20
ENDMDL
MODEL 8
REMARK minimizedAffinity -7.45491552
REMARK CNNscore 0.261093676
REMARK CNNaffinity 6.57535982
REMARK  20 active torsions:
REMARK  status: ('A' for Active; 'I' for Inactive)
REMARK    1  A    between atoms: C2_2  and  C3_3 
REMARK    2  A    between atoms: C2_2  and  C27_34 
REMARK    3  A    between atoms: C4_4  and  C5_5 
REMARK    4  A    between atoms: C6_6  and  C7_7 
REMARK    5  A    between atoms: C6_6  and  C10_12 
REMARK    6  A    between atoms: C7_7  and  O1_8 
REMARK    7  A    between atoms: O1_8  and  C8_9 
REMARK    8  A    between atoms: C8_9  and  C9_10 
REMARK    9  A    between atoms: C9_10  and  O2_11 
REMARK   10  A    between atoms: C14_16  and  O3_17 
REMARK   11  A    between atoms: C15_18  and  C16_19 
REMARK   12  A    between atoms: C16_19  and  C17_20 
REMARK   13  A    between atoms: C17_20  and  C18_21 
REMARK   14  A    between atoms: C18_21  and  O4_22 
REMARK   15  A    between atoms: C20_24  and  C22_26 
REMARK   16  A    between atoms: C25_30  and  O6_31 
REMARK   17  A    between atoms: C25_30  and  C26_32 
REMARK   18  A    between atoms: C26_32  and  O7_33 
REMARK   19  A    between atoms: C27_34  and  C28_35 
REMARK   20  A    between atoms: C28_35  and  C29_36 
ROOT
HETATM    1  C10 UNL     1      -3.061   9.305  14.175  1.00  0.00     0.046 C 
HETATM    2  C11 UNL     1      -3.611   8.145  13.339  1.00  0.00     0.013 C 
HETATM    3  C12 UNL     1      -2.363   7.520  12.740  1.00  0.00     0.017 C 
HETATM    4  C13 UNL     1      -1.296   7.517  13.879  1.00  0.00     0.027 C 
HETATM    5  C14 UNL     1      -1.834   8.634  14.856  1.00  0.00     0.138 C 
HETATM    6  C15 UNL     1       0.098   7.994  13.266  1.00  0.00     0.029 C 
HETATM    7  C19 UNL     1       0.603   6.962  12.252  1.00  0.00    -0.066 C 
HETATM    8  C20 UNL     1       0.878   7.207  10.947  1.00  0.00    -0.021 C 
HETATM    9  C21 UNL     1       1.405   6.189   9.979  1.00  0.00     0.052 C 
HETATM   10  C23 UNL     1       0.812   5.602  12.880  1.00  0.00     0.038 C 
HETATM   11  C24 UNL     1      -0.474   5.081  13.506  1.00  0.00     0.045 C 
HETATM   12  C25 UNL     1      -1.171   6.055  14.495  1.00  0.00     0.090 C 
ENDROOT
BRANCH   5  13
HETATM   13  O3  UNL     1      -2.160   8.090  16.126  1.00  0.00    -0.394 OA
HETATM   14  H19 UNL     1      -1.330   7.677  16.454  1.00  0.00     0.210 HD
ENDBRANCH   5  13
BRANCH   6  15
HETATM   15  C16 UNL     1       1.227   8.332  14.289  1.00  0.00     0.012 C 
BRANCH  15  16
HETATM   16  C17 UNL     1       2.611   7.845  13.820  1.00  0.00     0.027 C 
BRANCH  16  17
HETATM   17  C18 UNL     1       3.541   7.519  14.982  1.00  0.00     0.164 C 
BRANCH  17  18
HETATM   18  O4  UNL     1       2.971   6.494  15.781  1.00  0.00    -0.401 OA
HETATM   19  H27 UNL     1       3.598   6.318  16.504  1.00  0.00     0.209 HD
ENDBRANCH  17  18
ENDBRANCH  16  17
ENDBRANCH  15  16
ENDBRANCH   6  15
BRANCH  12  20
HETATM   20  O6  UNL     1      -0.356   6.146  15.682  1.00  0.00    -0.387 OA
HETATM   21  H36 UNL     1      -0.548   5.355  16.224  1.00  0.00     0.210 HD
ENDBRANCH  12  20
BRANCH  12  22
HETATM   22  C26 UNL     1      -2.507   5.333  14.897  1.00  0.00     0.202 C 
BRANCH  22  23
HETATM   23  O7  UNL     1      -3.068   5.773  16.124  1.00  0.00    -0.398 OA
HETATM   24  H39 UNL     1      -3.095   6.756  16.103  1.00  0.00     0.209 HD
ENDBRANCH  22  23
ENDBRANCH  12  22
BRANCH   1  25
HETATM   25  C6  UNL     1      -4.104  10.093  14.979  1.00  0.00    -0.050 C 
HETATM   26  C5  UNL     1      -5.267   9.659  15.518  1.00  0.00     0.005 C 
BRANCH  26  27
HETATM   27  C4  UNL     1      -5.911   8.366  15.466  1.00  0.00     0.001 C 
HETATM   28  C3  UNL     1      -7.160   8.211  14.993  1.00  0.00     0.006 C 
BRANCH  28  29
HETATM   29  C2  UNL     1      -7.884   6.957  14.818  1.00  0.00    -0.067 C 
HETATM   30  C1  UNL     1      -8.914   6.672  15.634  1.00  0.00     0.019 C 
BRANCH  29  31
HETATM   31  C27 UNL     1      -7.544   6.020  13.678  1.00  0.00     0.041 C 
BRANCH  31  32
HETATM   32  C28 UNL     1      -6.428   5.030  14.028  1.00  0.00     0.032 C 
BRANCH  32  33
HETATM   33  C29 UNL     1      -6.506   3.808  13.148  1.00  0.00    -0.024 C 
HETATM   34  C30 UNL     1      -5.614   3.392  12.229  1.00  0.00    -0.091 C 
HETATM   35  C31 UNL     1      -5.859   2.133  11.441  1.00  0.00     0.042 C 
HETATM   36  C32 UNL     1      -4.312   4.075  11.908  1.00  0.00     0.042 C 
ENDBRANCH  32  33
ENDBRANCH  31  32
ENDBRANCH  29  31
ENDBRANCH  28  29
ENDBRANCH  26  27
BRANCH  25  37
HETATM   37  C7  UNL     1      -3.723  11.536  15.312  1.00  0.00     0.202 C 
BRANCH  37  38
HETATM   38  O1  UNL     1      -3.188  11.649  16.631  1.00  0.00    -0.385 OA
BRANCH  38  39
HETATM   39  C8  UNL     1      -3.614  12.814  17.343  1.00  0.00     0.194 C 
BRANCH  39  40
HETATM   40  C9  UNL     1      -3.062  12.831  18.768  1.00  0.00     0.190 C 
BRANCH  40  41
HETATM   41  O2  UNL     1      -1.748  12.275  18.817  1.00  0.00    -0.399 OA
HETATM   42  H12 UNL     1      -1.453  12.338  19.741  1.00  0.00     0.209 HD
ENDBRANCH  40  41
ENDBRANCH  39  40
ENDBRANCH  38  39
ENDBRANCH  37  38
ENDBRANCH  25  37
ENDBRANCH   1  25
BRANCH   8  43
HETATM   43  C22 UNL     1       0.732   8.565  10.346  1.00  0.00     0.265 C 
HETATM   44  O5  UNL     1       0.693   8.782   9.143  1.00  0.00    -0.302 OA
ENDBRANCH   8  43
TORSDOF 20
ENDMDL
MODEL 9
REMARK minimizedAffinity -5.90107155
REMARK CNNscore 0.254240274
REMARK CNNaffinity 5.67747068
REMARK  20 active torsions:
REMARK  status: ('A' for Active; 'I' for Inactive)
REMARK    1  A    between atoms: C2_2  and  C3_3 
REMARK    2  A    between atoms: C2_2  and  C27_34 
REMARK    3  A    between atoms: C4_4  and  C5_5 
REMARK    4  A    between atoms: C6_6  and  C7_7 
REMARK    5  A    between atoms: C6_6  and  C10_12 
REMARK    6  A    between atoms: C7_7  and  O1_8 
REMARK    7  A    between atoms: O1_8  and  C8_9 
REMARK    8  A    between atoms: C8_9  and  C9_10 
REMARK    9  A    between atoms: C9_10  and  O2_11 
REMARK   10  A    between atoms: C14_16  and  O3_17 
REMARK   11  A    between atoms: C15_18  and  C16_19 
REMARK   12  A    between atoms: C16_19  and  C17_20 
REMARK   13  A    between atoms: C17_20  and  C18_21 
REMARK   14  A    between atoms: C18_21  and  O4_22 
REMARK   15  A    between atoms: C20_24  and  C22_26 
REMARK   16  A    between atoms: C25_30  and  O6_31 
REMARK   17  A    between atoms: C25_30  and  C26_32 
REMARK   18  A    between atoms: C26_32  and  O7_33 
REMARK   19  A    between atoms: C27_34  and  C28_35 
REMARK   20  A    between atoms: C28_35  and  C29_36 
ROOT
HETATM    1  C10 UNL     1       2.975   9.482  13.642  1.00  0.00     0.046 C 
HETATM    2  C11 UNL     1       3.528   9.514  12.214  1.00  0.00     0.013 C 
HETATM    3  C12 UNL     1       5.019   9.723  12.419  1.00  0.00     0.017 C 
HETATM    4  C13 UNL     1       5.416   8.819  13.627  1.00  0.00     0.027 C 
HETATM    5  C14 UNL     1       4.035   8.597  14.359  1.00  0.00     0.138 C 
HETATM    6  C15 UNL     1       6.381   9.653  14.586  1.00  0.00     0.029 C 
HETATM    7  C19 UNL     1       7.701   9.950  13.867  1.00  0.00    -0.066 C 
HETATM    8  C20 UNL     1       8.213  11.184  13.634  1.00  0.00    -0.021 C 
HETATM    9  C21 UNL     1       9.525  11.452  12.958  1.00  0.00     0.052 C 
HETATM   10  C23 UNL     1       8.427   8.685  13.462  1.00  0.00     0.038 C 
HETATM   11  C24 UNL     1       7.562   7.821  12.556  1.00  0.00     0.045 C 
HETATM   12  C25 UNL     1       6.142   7.505  13.100  1.00  0.00     0.090 C 
ENDROOT
BRANCH   5  13
HETATM   13  O3  UNL     1       3.671   7.225  14.363  1.00  0.00    -0.394 OA
HETATM   14  H19 UNL     1       4.410   6.761  14.815  1.00  0.00     0.210 HD
ENDBRANCH   5  13
BRANCH   6  15
HETATM   15  C16 UNL     1       6.667   9.037  15.991  1.00  0.00     0.012 C 
BRANCH  15  16
HETATM   16  C17 UNL     1       8.037   9.462  16.552  1.00  0.00     0.027 C 
BRANCH  16  17
HETATM   17  C18 UNL     1       7.917  10.490  17.670  1.00  0.00     0.164 C 
BRANCH  17  18
HETATM   18  O4  UNL     1       6.789  10.193  18.478  1.00  0.00    -0.401 OA
HETATM   19  H27 UNL     1       6.756  10.870  19.177  1.00  0.00     0.209 HD
ENDBRANCH  17  18
ENDBRANCH  16  17
ENDBRANCH  15  16
ENDBRANCH   6  15
BRANCH  12  20
HETATM   20  O6  UNL     1       6.283   6.602  14.217  1.00  0.00    -0.387 OA
HETATM   21  H36 UNL     1       6.411   5.705  13.847  1.00  0.00     0.210 HD
ENDBRANCH  12  20
BRANCH  12  22
HETATM   22  C26 UNL     1       5.435   6.713  11.943  1.00  0.00     0.202 C 
BRANCH  22  23
HETATM   23  O7  UNL     1       6.120   6.747  10.700  1.00  0.00    -0.398 OA
HETATM   24  H39 UNL     1       7.061   6.515  10.874  1.00  0.00     0.209 HD
ENDBRANCH  22  23
ENDBRANCH  12  22
BRANCH   1  25
HETATM   25  C6  UNL     1       1.470   9.201  13.762  1.00  0.00    -0.050 C 
HETATM   26  C5  UNL     1       0.585   9.687  14.662  1.00  0.00     0.005 C 
BRANCH  26  27
HETATM   27  C4  UNL     1       0.772  10.555  15.803  1.00  0.00     0.001 C 
HETATM   28  C3  UNL     1       0.874  10.075  17.054  1.00  0.00     0.006 C 
BRANCH  28  29
HETATM   29  C2  UNL     1       1.141  10.837  18.269  1.00  0.00    -0.067 C 
HETATM   30  C1  UNL     1       0.185  11.644  18.763  1.00  0.00     0.019 C 
BRANCH  29  31
HETATM   31  C27 UNL     1       2.444  10.664  19.021  1.00  0.00     0.041 C 
BRANCH  31  32
HETATM   32  C28 UNL     1       2.345  11.078  20.494  1.00  0.00     0.032 C 
BRANCH  32  33
HETATM   33  C29 UNL     1       2.030   9.886  21.361  1.00  0.00    -0.024 C 
HETATM   34  C30 UNL     1       2.801   9.326  22.312  1.00  0.00    -0.091 C 
HETATM   35  C31 UNL     1       2.313   8.132  23.087  1.00  0.00     0.042 C 
HETATM   36  C32 UNL     1       4.164   9.814  22.725  1.00  0.00     0.042 C 
ENDBRANCH  32  33
ENDBRANCH  31  32
ENDBRANCH  29  31
ENDBRANCH  28  29
ENDBRANCH  26  27
BRANCH  25  37
HETATM   37  C7  UNL     1       0.871   8.349  12.644  1.00  0.00     0.202 C 
BRANCH  37  38
HETATM   38  O1  UNL     1       1.009   6.954  12.912  1.00  0.00    -0.385 OA
BRANCH  38  39
HETATM   39  C8  UNL     1      -0.232   6.254  13.050  1.00  0.00     0.194 C 
BRANCH  39  40
HETATM   40  C9  UNL     1      -0.029   4.740  12.989  1.00  0.00     0.190 C 
BRANCH  40  41
HETATM   41  O2  UNL     1      -0.765   4.166  11.908  1.00  0.00    -0.399 OA
HETATM   42  H12 UNL     1      -0.573   3.213  11.915  1.00  0.00     0.209 HD
ENDBRANCH  40  41
ENDBRANCH  39  40
ENDBRANCH  38  39
ENDBRANCH  37  38
ENDBRANCH  25  37
ENDBRANCH   1  25
BRANCH   8  43
HETATM   43  C22 UNL     1       7.526  12.428  14.091  1.00  0.00     0.265 C 
HETATM   44  O5  UNL     1       7.686  12.934  15.193  1.00  0.00    -0.302 OA
ENDBRANCH   8  43
TORSDOF 20
ENDMDL
