MODEL 1
REMARK minimizedAffinity -7.82104158
REMARK CNNscore 0.597881138
REMARK CNNaffinity 6.86747122
REMARK  6 active torsions:
REMARK  status: ('A' for Active; 'I' for Inactive)
REMARK    1  A    between atoms: C4_4  and  C5_5 
REMARK    2  A    between atoms: C5_5  and  O1_6 
REMARK    3  A    between atoms: C5_5  and  C6_7 
REMARK    4  A    between atoms: C6_7  and  C7_8 
REMARK    5  A    between atoms: C7_8  and  C9_10 
REMARK    6  A    between atoms: C30_32  and  O3_33 
ROOT
HETATM    1  C9  UNL     1      -2.183   9.318  15.785  1.00  0.00    -0.002 C 
HETATM    2  C10 UNL     1      -0.903   9.611  16.619  1.00  0.00     0.007 C 
HETATM    3  C11 UNL     1       0.306   9.075  15.827  1.00  0.00     0.015 C 
HETATM    4  C12 UNL     1      -0.299   8.204  14.715  1.00  0.00    -0.010 C 
HETATM    5  C13 UNL     1      -0.565   6.799  15.344  1.00  0.00     0.021 C 
HETATM    6  C14 UNL     1       0.511   7.911  13.449  1.00  0.00    -0.039 C 
HETATM    7  C15 UNL     1      -0.127   7.669  12.272  1.00  0.00    -0.066 C 
HETATM    8  C16 UNL     1      -1.657   7.761  12.164  1.00  0.00     0.036 C 
HETATM    9  C17 UNL     1      -2.442   8.171  13.426  1.00  0.00     0.015 C 
HETATM   10  C18 UNL     1      -1.594   9.036  14.366  1.00  0.00    -0.029 C 
HETATM   11  C19 UNL     1      -1.275  10.392  13.664  1.00  0.00     0.016 C 
HETATM   12  C20 UNL     1       0.634   7.266  10.977  1.00  0.00    -0.015 C 
HETATM   13  C21 UNL     1       0.355   5.759  10.756  1.00  0.00     0.020 C 
HETATM   14  C22 UNL     1       0.105   8.071   9.756  1.00  0.00     0.021 C 
HETATM   15  C23 UNL     1       1.056   8.181   8.565  1.00  0.00     0.080 C 
HETATM   16  C24 UNL     1       2.175   7.168   8.600  1.00  0.00     0.135 C 
HETATM   17  O2  UNL     1       2.417   6.470   7.616  1.00  0.00    -0.297 OA
HETATM   18  C25 UNL     1       3.035   7.127   9.871  1.00  0.00     0.018 C 
HETATM   19  C26 UNL     1       3.668   5.728  10.024  1.00  0.00     0.023 C 
HETATM   20  C27 UNL     1       4.188   8.130   9.657  1.00  0.00     0.023 C 
HETATM   21  C28 UNL     1       2.168   7.578  11.101  1.00  0.00     0.016 C 
HETATM   22  C29 UNL     1       2.714   7.093  12.455  1.00  0.00     0.043 C 
HETATM   23  C30 UNL     1       2.010   7.800  13.613  1.00  0.00     0.148 C 
ENDROOT
BRANCH   1  24
HETATM   24  C7  UNL     1      -3.283  10.406  15.985  1.00  0.00    -0.011 C 
HETATM   25  C8  UNL     1      -4.680   9.792  16.159  1.00  0.00     0.010 C 
BRANCH  24  26
HETATM   26  C6  UNL     1      -2.988  11.285  17.241  1.00  0.00     0.040 C 
BRANCH  26  27
HETATM   27  C5  UNL     1      -3.968  11.080  18.413  1.00  0.00     0.141 C 
BRANCH  27  28
HETATM   28  C4  UNL     1      -3.997  12.292  19.312  1.00  0.00     0.006 C 
HETATM   29  C2  UNL     1      -4.736  13.412  19.151  1.00  0.00    -0.089 C 
HETATM   30  C1  UNL     1      -4.615  14.558  20.122  1.00  0.00     0.042 C 
HETATM   31  C3  UNL     1      -5.735  13.633  18.045  1.00  0.00     0.042 C 
ENDBRANCH  27  28
BRANCH  27  32
HETATM   32  O1  UNL     1      -3.554   9.950  19.177  1.00  0.00    -0.392 OA
HETATM   33  H9  UNL     1      -3.432  10.246  20.102  1.00  0.00     0.210 HD
ENDBRANCH  27  32
ENDBRANCH  26  27
ENDBRANCH  24  26
ENDBRANCH   1  24
BRANCH  23  34
HETATM   34  O3  UNL     1       2.562   9.109  13.727  1.00  0.00    -0.391 OA
HETATM   35  H48 UNL     1       1.977   9.716  13.240  1.00  0.00     0.210 HD
ENDBRANCH  23  34
TORSDOF 6
ENDMDL
MODEL 2
REMARK minimizedAffinity -8.36838055
REMARK CNNscore 0.472316116
REMARK CNNaffinity 6.62536383
REMARK  6 active torsions:
REMARK  status: ('A' for Active; 'I' for Inactive)
REMARK    1  A    between atoms: C4_4  and  C5_5 
REMARK    2  A    between atoms: C5_5  and  O1_6 
REMARK    3  A    between atoms: C5_5  and  C6_7 
REMARK    4  A    between atoms: C6_7  and  C7_8 
REMARK    5  A    between atoms: C7_8  and  C9_10 
REMARK    6  A    between atoms: C30_32  and  O3_33 
ROOT
HETATM    1  C9  UNL     1      -0.703   6.681  12.441  1.00  0.00    -0.002 C 
HETATM    2  C10 UNL     1      -2.200   6.294  12.270  1.00  0.00     0.007 C 
HETATM    3  C11 UNL     1      -3.012   7.094  13.306  1.00  0.00     0.015 C 
HETATM    4  C12 UNL     1      -1.967   7.683  14.267  1.00  0.00    -0.010 C 
HETATM    5  C13 UNL     1      -1.647   6.568  15.314  1.00  0.00     0.021 C 
HETATM    6  C14 UNL     1      -2.312   8.913  15.110  1.00  0.00    -0.039 C 
HETATM    7  C15 UNL     1      -1.328   9.769  15.499  1.00  0.00    -0.066 C 
HETATM    8  C16 UNL     1       0.125   9.571  15.043  1.00  0.00     0.036 C 
HETATM    9  C17 UNL     1       0.426   8.389  14.101  1.00  0.00     0.015 C 
HETATM   10  C18 UNL     1      -0.798   8.008  13.259  1.00  0.00    -0.029 C 
HETATM   11  C19 UNL     1      -1.138   9.184  12.292  1.00  0.00     0.016 C 
HETATM   12  C20 UNL     1      -1.599  10.979  16.439  1.00  0.00    -0.015 C 
HETATM   13  C21 UNL     1      -1.002  10.604  17.818  1.00  0.00     0.020 C 
HETATM   14  C22 UNL     1      -0.893  12.258  15.905  1.00  0.00     0.021 C 
HETATM   15  C23 UNL     1      -1.464  13.589  16.392  1.00  0.00     0.080 C 
HETATM   16  C24 UNL     1      -2.346  13.450  17.610  1.00  0.00     0.135 C 
HETATM   17  O2  UNL     1      -2.164  14.162  18.596  1.00  0.00    -0.297 OA
HETATM   18  C25 UNL     1      -3.513  12.459  17.512  1.00  0.00     0.018 C 
HETATM   19  C26 UNL     1      -3.902  11.975  18.925  1.00  0.00     0.023 C 
HETATM   20  C27 UNL     1      -4.715  13.247  16.951  1.00  0.00     0.023 C 
HETATM   21  C28 UNL     1      -3.134  11.302  16.520  1.00  0.00     0.016 C 
HETATM   22  C29 UNL     1      -3.951  10.015  16.725  1.00  0.00     0.043 C 
HETATM   23  C30 UNL     1      -3.749   9.048  15.559  1.00  0.00     0.148 C 
ENDROOT
BRANCH   1  24
HETATM   24  C7  UNL     1       0.079   6.634  11.092  1.00  0.00    -0.011 C 
HETATM   25  C8  UNL     1       0.359   8.039  10.537  1.00  0.00     0.010 C 
BRANCH  24  26
HETATM   26  C6  UNL     1       1.448   5.902  11.255  1.00  0.00     0.040 C 
BRANCH  26  27
HETATM   27  C5  UNL     1       2.574   6.437  10.349  1.00  0.00     0.141 C 
BRANCH  27  28
HETATM   28  C4  UNL     1       2.228   6.257   8.891  1.00  0.00     0.006 C 
HETATM   29  C2  UNL     1       2.398   7.152   7.893  1.00  0.00    -0.089 C 
HETATM   30  C1  UNL     1       1.955   6.830   6.489  1.00  0.00     0.042 C 
HETATM   31  C3  UNL     1       3.037   8.507   8.052  1.00  0.00     0.042 C 
ENDBRANCH  27  28
BRANCH  27  32
HETATM   32  O1  UNL     1       3.777   5.725  10.628  1.00  0.00    -0.392 OA
HETATM   33  H9  UNL     1       4.090   5.331   9.788  1.00  0.00     0.210 HD
ENDBRANCH  27  32
ENDBRANCH  26  27
ENDBRANCH  24  26
ENDBRANCH   1  24
BRANCH  23  34
HETATM   34  O3  UNL     1      -4.536   9.511  14.464  1.00  0.00    -0.391 OA
HETATM   35  H48 UNL     1      -3.954  10.039  13.890  1.00  0.00     0.210 HD
ENDBRANCH  23  34
TORSDOF 6
ENDMDL
MODEL 3
REMARK minimizedAffinity -7.38728857
REMARK CNNscore 0.457654238
REMARK CNNaffinity 6.29573298
REMARK  6 active torsions:
REMARK  status: ('A' for Active; 'I' for Inactive)
REMARK    1  A    between atoms: C4_4  and  C5_5 
REMARK    2  A    between atoms: C5_5  and  O1_6 
REMARK    3  A    between atoms: C5_5  and  C6_7 
REMARK    4  A    between atoms: C6_7  and  C7_8 
REMARK    5  A    between atoms: C7_8  and  C9_10 
REMARK    6  A    between atoms: C30_32  and  O3_33 
ROOT
HETATM    1  C9  UNL     1     -14.051   6.994  23.697  1.00  0.00    -0.002 C 
HETATM    2  C10 UNL     1     -13.814   6.524  22.232  1.00  0.00     0.007 C 
HETATM    3  C11 UNL     1     -13.150   7.687  21.469  1.00  0.00     0.015 C 
HETATM    4  C12 UNL     1     -13.299   8.908  22.390  1.00  0.00    -0.010 C 
HETATM    5  C13 UNL     1     -14.724   9.492  22.128  1.00  0.00     0.021 C 
HETATM    6  C14 UNL     1     -12.358  10.105  22.229  1.00  0.00    -0.039 C 
HETATM    7  C15 UNL     1     -12.070  10.893  23.301  1.00  0.00    -0.066 C 
HETATM    8  C16 UNL     1     -12.611  10.562  24.700  1.00  0.00     0.036 C 
HETATM    9  C17 UNL     1     -13.462   9.287  24.856  1.00  0.00     0.015 C 
HETATM   10  C18 UNL     1     -13.104   8.232  23.802  1.00  0.00    -0.029 C 
HETATM   11  C19 UNL     1     -11.644   7.742  24.045  1.00  0.00     0.016 C 
HETATM   12  C20 UNL     1     -11.204  12.180  23.181  1.00  0.00    -0.015 C 
HETATM   13  C21 UNL     1     -12.178  13.377  23.312  1.00  0.00     0.020 C 
HETATM   14  C22 UNL     1     -10.155  12.244  24.327  1.00  0.00     0.021 C 
HETATM   15  C23 UNL     1      -8.934  13.125  24.067  1.00  0.00     0.080 C 
HETATM   16  C24 UNL     1      -9.131  14.096  22.928  1.00  0.00     0.135 C 
HETATM   17  O2  UNL     1      -8.877  15.291  23.074  1.00  0.00    -0.297 OA
HETATM   18  C25 UNL     1      -9.566  13.506  21.580  1.00  0.00     0.018 C 
HETATM   19  C26 UNL     1     -10.301  14.583  20.755  1.00  0.00     0.023 C 
HETATM   20  C27 UNL     1      -8.273  13.148  20.817  1.00  0.00     0.023 C 
HETATM   21  C28 UNL     1     -10.407  12.203  21.828  1.00  0.00     0.016 C 
HETATM   22  C29 UNL     1     -11.321  11.820  20.651  1.00  0.00     0.043 C 
HETATM   23  C30 UNL     1     -11.878  10.408  20.829  1.00  0.00     0.148 C 
ENDROOT
BRANCH   1  24
HETATM   24  C7  UNL     1     -13.941   5.822  24.720  1.00  0.00    -0.011 C 
HETATM   25  C8  UNL     1     -15.305   5.443  25.316  1.00  0.00     0.010 C 
BRANCH  24  26
HETATM   26  C6  UNL     1     -13.339   4.544  24.055  1.00  0.00     0.040 C 
BRANCH  26  27
HETATM   27  C5  UNL     1     -14.012   3.223  24.475  1.00  0.00     0.141 C 
BRANCH  27  28
HETATM   28  C4  UNL     1     -13.461   2.728  25.790  1.00  0.00     0.006 C 
HETATM   29  C2  UNL     1     -12.348   1.988  25.984  1.00  0.00    -0.089 C 
HETATM   30  C1  UNL     1     -11.957   1.535  27.366  1.00  0.00     0.042 C 
HETATM   31  C3  UNL     1     -11.398   1.561  24.895  1.00  0.00     0.042 C 
ENDBRANCH  27  28
BRANCH  27  32
HETATM   32  O1  UNL     1     -13.771   2.236  23.475  1.00  0.00    -0.392 OA
HETATM   33  H9  UNL     1     -13.342   1.472  23.909  1.00  0.00     0.210 HD
ENDBRANCH  27  32
ENDBRANCH  26  27
ENDBRANCH  24  26
ENDBRANCH   1  24
BRANCH  23  34
HETATM   34  O3  UNL     1     -10.849   9.485  20.481  1.00  0.00    -0.391 OA
HETATM   35  H48 UNL     1     -10.406   9.218  21.306  1.00  0.00     0.210 HD
ENDBRANCH  23  34
TORSDOF 6
ENDMDL
MODEL 4
REMARK minimizedAffinity -6.58213234
REMARK CNNscore 0.429346561
REMARK CNNaffinity 6.37141228
REMARK  6 active torsions:
REMARK  status: ('A' for Active; 'I' for Inactive)
REMARK    1  A    between atoms: C4_4  and  C5_5 
REMARK    2  A    between atoms: C5_5  and  O1_6 
REMARK    3  A    between atoms: C5_5  and  C6_7 
REMARK    4  A    between atoms: C6_7  and  C7_8 
REMARK    5  A    between atoms: C7_8  and  C9_10 
REMARK    6  A    between atoms: C30_32  and  O3_33 
ROOT
HETATM    1  C9  UNL     1      -9.793  -7.489  -4.615  1.00  0.00    -0.002 C 
HETATM    2  C10 UNL     1     -11.034  -7.362  -3.685  1.00  0.00     0.007 C 
HETATM    3  C11 UNL     1     -10.825  -8.313  -2.491  1.00  0.00     0.015 C 
HETATM    4  C12 UNL     1      -9.641  -9.207  -2.893  1.00  0.00    -0.010 C 
HETATM    5  C13 UNL     1     -10.230 -10.361  -3.766  1.00  0.00     0.021 C 
HETATM    6  C14 UNL     1      -8.823  -9.921  -1.814  1.00  0.00    -0.039 C 
HETATM    7  C15 UNL     1      -7.514 -10.219  -2.038  1.00  0.00    -0.066 C 
HETATM    8  C16 UNL     1      -6.808  -9.782  -3.331  1.00  0.00     0.036 C 
HETATM    9  C17 UNL     1      -7.624  -8.964  -4.352  1.00  0.00     0.015 C 
HETATM   10  C18 UNL     1      -8.747  -8.168  -3.675  1.00  0.00    -0.029 C 
HETATM   11  C19 UNL     1      -8.115  -7.087  -2.744  1.00  0.00     0.016 C 
HETATM   12  C20 UNL     1      -6.658 -11.031  -1.024  1.00  0.00    -0.015 C 
HETATM   13  C21 UNL     1      -6.471 -12.440  -1.640  1.00  0.00     0.020 C 
HETATM   14  C22 UNL     1      -5.265 -10.368  -0.826  1.00  0.00     0.021 C 
HETATM   15  C23 UNL     1      -4.537 -10.718   0.470  1.00  0.00     0.080 C 
HETATM   16  C24 UNL     1      -5.091 -11.946   1.152  1.00  0.00     0.135 C 
HETATM   17  O2  UNL     1      -4.341 -12.855   1.508  1.00  0.00    -0.297 OA
HETATM   18  C25 UNL     1      -6.595 -11.952   1.456  1.00  0.00     0.018 C 
HETATM   19  C26 UNL     1      -7.098 -13.408   1.551  1.00  0.00     0.023 C 
HETATM   20  C27 UNL     1      -6.767 -11.316   2.851  1.00  0.00     0.023 C 
HETATM   21  C28 UNL     1      -7.346 -11.082   0.386  1.00  0.00     0.016 C 
HETATM   22  C29 UNL     1      -8.841 -11.419   0.250  1.00  0.00     0.043 C 
HETATM   23  C30 UNL     1      -9.568 -10.357  -0.574  1.00  0.00     0.148 C 
ENDROOT
BRANCH   1  24
HETATM   24  C7  UNL     1      -9.456  -6.150  -5.340  1.00  0.00    -0.011 C 
HETATM   25  C8  UNL     1     -10.392  -5.885  -6.529  1.00  0.00     0.010 C 
BRANCH  24  26
HETATM   26  C6  UNL     1      -9.565  -4.935  -4.367  1.00  0.00     0.040 C 
BRANCH  26  27
HETATM   27  C5  UNL     1     -10.049  -3.627  -5.023  1.00  0.00     0.141 C 
BRANCH  27  28
HETATM   28  C4  UNL     1      -8.886  -2.724  -5.353  1.00  0.00     0.006 C 
HETATM   29  C2  UNL     1      -8.914  -1.383  -5.521  1.00  0.00    -0.089 C 
HETATM   30  C1  UNL     1      -7.664  -0.630  -5.895  1.00  0.00     0.042 C 
HETATM   31  C3  UNL     1     -10.135  -0.519  -5.345  1.00  0.00     0.042 C 
ENDBRANCH  27  28
BRANCH  27  32
HETATM   32  O1  UNL     1     -10.920  -2.946  -4.122  1.00  0.00    -0.392 OA
HETATM   33  H9  UNL     1     -10.556  -2.049  -3.979  1.00  0.00     0.210 HD
ENDBRANCH  27  32
ENDBRANCH  26  27
ENDBRANCH  24  26
ENDBRANCH   1  24
BRANCH  23  34
HETATM   34  O3  UNL     1      -9.781  -9.223   0.263  1.00  0.00    -0.391 OA
HETATM   35  H48 UNL     1      -9.055  -8.596   0.094  1.00  0.00     0.210 HD
ENDBRANCH  23  34
TORSDOF 6
ENDMDL
MODEL 5
REMARK minimizedAffinity -9.21549606
REMARK CNNscore 0.403020382
REMARK CNNaffinity 6.90803528
REMARK  6 active torsions:
REMARK  status: ('A' for Active; 'I' for Inactive)
REMARK    1  A    between atoms: C4_4  and  C5_5 
REMARK    2  A    between atoms: C5_5  and  O1_6 
REMARK    3  A    between atoms: C5_5  and  C6_7 
REMARK    4  A    between atoms: C6_7  and  C7_8 
REMARK    5  A    between atoms: C7_8  and  C9_10 
REMARK    6  A    between atoms: C30_32  and  O3_33 
ROOT
HETATM    1  C9  UNL     1      -4.552   5.219  13.834  1.00  0.00    -0.002 C 
HETATM    2  C10 UNL     1      -5.247   4.425  12.690  1.00  0.00     0.007 C 
HETATM    3  C11 UNL     1      -6.742   4.798  12.703  1.00  0.00     0.015 C 
HETATM    4  C12 UNL     1      -6.959   5.539  14.031  1.00  0.00    -0.010 C 
HETATM    5  C13 UNL     1      -7.177   4.444  15.123  1.00  0.00     0.021 C 
HETATM    6  C14 UNL     1      -8.152   6.484  14.192  1.00  0.00    -0.039 C 
HETATM    7  C15 UNL     1      -8.077   7.537  15.051  1.00  0.00    -0.066 C 
HETATM    8  C16 UNL     1      -6.781   7.849  15.815  1.00  0.00     0.036 C 
HETATM    9  C17 UNL     1      -5.558   6.949  15.549  1.00  0.00     0.015 C 
HETATM   10  C18 UNL     1      -5.600   6.334  14.145  1.00  0.00    -0.029 C 
HETATM   11  C19 UNL     1      -5.470   7.471  13.085  1.00  0.00     0.016 C 
HETATM   12  C20 UNL     1      -9.288   8.472  15.334  1.00  0.00    -0.015 C 
HETATM   13  C21 UNL     1      -9.796   8.113  16.752  1.00  0.00     0.020 C 
HETATM   14  C22 UNL     1      -8.848   9.963  15.308  1.00  0.00     0.021 C 
HETATM   15  C23 UNL     1      -9.956  10.982  15.050  1.00  0.00     0.080 C 
HETATM   16  C24 UNL     1     -11.342  10.423  15.262  1.00  0.00     0.135 C 
HETATM   17  O2  UNL     1     -12.155  11.018  15.969  1.00  0.00    -0.297 OA
HETATM   18  C25 UNL     1     -11.702   9.149  14.487  1.00  0.00     0.018 C 
HETATM   19  C26 UNL     1     -12.818   8.386  15.232  1.00  0.00     0.023 C 
HETATM   20  C27 UNL     1     -12.286   9.605  13.133  1.00  0.00     0.023 C 
HETATM   21  C28 UNL     1     -10.401   8.304  14.239  1.00  0.00     0.016 C 
HETATM   22  C29 UNL     1     -10.672   6.815  13.962  1.00  0.00     0.043 C 
HETATM   23  C30 UNL     1      -9.414   6.118  13.444  1.00  0.00     0.148 C 
ENDROOT
BRANCH   1  24
HETATM   24  C7  UNL     1      -3.077   5.591  13.486  1.00  0.00    -0.011 C 
HETATM   25  C8  UNL     1      -2.151   5.490  14.706  1.00  0.00     0.010 C 
BRANCH  24  26
HETATM   26  C6  UNL     1      -2.505   4.658  12.373  1.00  0.00     0.040 C 
BRANCH  26  27
HETATM   27  C5  UNL     1      -0.969   4.676  12.246  1.00  0.00     0.141 C 
BRANCH  27  28
HETATM   28  C4  UNL     1      -0.530   5.558  11.102  1.00  0.00     0.006 C 
HETATM   29  C2  UNL     1       0.670   6.160  10.948  1.00  0.00    -0.089 C 
HETATM   30  C1  UNL     1       0.935   7.051   9.762  1.00  0.00     0.042 C 
HETATM   31  C3  UNL     1       1.837   6.006  11.888  1.00  0.00     0.042 C 
ENDBRANCH  27  28
BRANCH  27  32
HETATM   32  O1  UNL     1      -0.504   3.350  12.010  1.00  0.00    -0.392 OA
HETATM   33  H9  UNL     1       0.016   3.361  11.181  1.00  0.00     0.210 HD
ENDBRANCH  27  32
ENDBRANCH  26  27
ENDBRANCH  24  26
ENDBRANCH   1  24
BRANCH  23  34
HETATM   34  O3  UNL     1      -9.256   6.465  12.070  1.00  0.00    -0.391 OA
HETATM   35  H48 UNL     1      -8.638   7.216  12.028  1.00  0.00     0.210 HD
ENDBRANCH  23  34
TORSDOF 6
ENDMDL
MODEL 6
REMARK minimizedAffinity -7.17485094
REMARK CNNscore 0.397724926
REMARK CNNaffinity 6.65377855
REMARK  6 active torsions:
REMARK  status: ('A' for Active; 'I' for Inactive)
REMARK    1  A    between atoms: C4_4  and  C5_5 
REMARK    2  A    between atoms: C5_5  and  O1_6 
REMARK    3  A    between atoms: C5_5  and  C6_7 
REMARK    4  A    between atoms: C6_7  and  C7_8 
REMARK    5  A    between atoms: C7_8  and  C9_10 
REMARK    6  A    between atoms: C30_32  and  O3_33 
ROOT
HETATM    1  C9  UNL     1     -11.957   7.988  14.805  1.00  0.00    -0.002 C 
HETATM    2  C10 UNL     1     -12.172   6.640  14.056  1.00  0.00     0.007 C 
HETATM    3  C11 UNL     1     -13.556   6.695  13.382  1.00  0.00     0.015 C 
HETATM    4  C12 UNL     1     -14.255   7.916  14.000  1.00  0.00    -0.010 C 
HETATM    5  C13 UNL     1     -14.882   7.436  15.348  1.00  0.00     0.021 C 
HETATM    6  C14 UNL     1     -15.412   8.591  13.257  1.00  0.00    -0.039 C 
HETATM    7  C15 UNL     1     -15.659   9.916  13.443  1.00  0.00    -0.066 C 
HETATM    8  C16 UNL     1     -14.748  10.779  14.329  1.00  0.00     0.036 C 
HETATM    9  C17 UNL     1     -13.524  10.100  14.974  1.00  0.00     0.015 C 
HETATM   10  C18 UNL     1     -13.035   8.906  14.146  1.00  0.00    -0.029 C 
HETATM   11  C19 UNL     1     -12.501   9.420  12.773  1.00  0.00     0.016 C 
HETATM   12  C20 UNL     1     -16.878  10.635  12.797  1.00  0.00    -0.015 C 
HETATM   13  C21 UNL     1     -17.891  10.892  13.941  1.00  0.00     0.020 C 
HETATM   14  C22 UNL     1     -16.448  11.995  12.177  1.00  0.00     0.021 C 
HETATM   15  C23 UNL     1     -17.366  12.555  11.091  1.00  0.00     0.080 C 
HETATM   16  C24 UNL     1     -18.733  11.915  11.079  1.00  0.00     0.135 C 
HETATM   17  O2  UNL     1     -19.748  12.610  11.074  1.00  0.00    -0.297 OA
HETATM   18  C25 UNL     1     -18.783  10.385  10.977  1.00  0.00     0.018 C 
HETATM   19  C26 UNL     1     -20.105   9.867  11.582  1.00  0.00     0.023 C 
HETATM   20  C27 UNL     1     -18.804  10.043   9.472  1.00  0.00     0.023 C 
HETATM   21  C28 UNL     1     -17.494   9.776  11.636  1.00  0.00     0.016 C 
HETATM   22  C29 UNL     1     -17.652   8.308  12.069  1.00  0.00     0.043 C 
HETATM   23  C30 UNL     1     -16.297   7.694  12.422  1.00  0.00     0.148 C 
ENDROOT
BRANCH   1  24
HETATM   24  C7  UNL     1     -10.457   8.418  14.832  1.00  0.00    -0.011 C 
HETATM   25  C8  UNL     1     -10.290   9.915  15.128  1.00  0.00     0.010 C 
BRANCH  24  26
HETATM   26  C6  UNL     1      -9.659   7.624  15.914  1.00  0.00     0.040 C 
BRANCH  26  27
HETATM   27  C5  UNL     1      -8.613   6.644  15.349  1.00  0.00     0.141 C 
BRANCH  27  28
HETATM   28  C4  UNL     1      -8.909   6.305  13.908  1.00  0.00     0.006 C 
HETATM   29  C2  UNL     1      -8.049   5.808  12.992  1.00  0.00    -0.089 C 
HETATM   30  C1  UNL     1      -8.495   5.566  11.573  1.00  0.00     0.042 C 
HETATM   31  C3  UNL     1      -6.616   5.435  13.270  1.00  0.00     0.042 C 
ENDBRANCH  27  28
BRANCH  27  32
HETATM   32  O1  UNL     1      -8.635   5.443  16.118  1.00  0.00    -0.392 OA
HETATM   33  H9  UNL     1      -8.799   4.700  15.503  1.00  0.00     0.210 HD
ENDBRANCH  27  32
ENDBRANCH  26  27
ENDBRANCH  24  26
ENDBRANCH   1  24
BRANCH  23  34
HETATM   34  O3  UNL     1     -15.626   7.384  11.204  1.00  0.00    -0.391 OA
HETATM   35  H48 UNL     1     -15.031   8.127  11.001  1.00  0.00     0.210 HD
ENDBRANCH  23  34
TORSDOF 6
ENDMDL
MODEL 7
REMARK minimizedAffinity -6.77127028
REMARK CNNscore 0.396084398
REMARK CNNaffinity 6.17865705
REMARK  6 active torsions:
REMARK  status: ('A' for Active; 'I' for Inactive)
REMARK    1  A    between atoms: C4_4  and  C5_5 
REMARK    2  A    between atoms: C5_5  and  O1_6 
REMARK    3  A    between atoms: C5_5  and  C6_7 
REMARK    4  A    between atoms: C6_7  and  C7_8 
REMARK    5  A    between atoms: C7_8  and  C9_10 
REMARK    6  A    between atoms: C30_32  and  O3_33 
ROOT
HETATM    1  C9  UNL     1     -13.895   9.814  23.461  1.00  0.00    -0.002 C 
HETATM    2  C10 UNL     1     -14.372  10.193  24.894  1.00  0.00     0.007 C 
HETATM    3  C11 UNL     1     -14.746   8.888  25.623  1.00  0.00     0.015 C 
HETATM    4  C12 UNL     1     -14.791   7.814  24.525  1.00  0.00    -0.010 C 
HETATM    5  C13 UNL     1     -16.207   7.905  23.870  1.00  0.00     0.021 C 
HETATM    6  C14 UNL     1     -14.634   6.337  24.895  1.00  0.00    -0.039 C 
HETATM    7  C15 UNL     1     -14.111   5.461  23.995  1.00  0.00    -0.066 C 
HETATM    8  C16 UNL     1     -13.596   5.938  22.628  1.00  0.00     0.036 C 
HETATM    9  C17 UNL     1     -13.660   7.448  22.325  1.00  0.00     0.015 C 
HETATM   10  C18 UNL     1     -13.599   8.288  23.607  1.00  0.00    -0.029 C 
HETATM   11  C19 UNL     1     -12.203   8.097  24.276  1.00  0.00     0.016 C 
HETATM   12  C20 UNL     1     -14.019   3.933  24.273  1.00  0.00    -0.015 C 
HETATM   13  C21 UNL     1     -15.109   3.263  23.399  1.00  0.00     0.020 C 
HETATM   14  C22 UNL     1     -12.623   3.383  23.863  1.00  0.00     0.021 C 
HETATM   15  C23 UNL     1     -12.199   2.075  24.529  1.00  0.00     0.080 C 
HETATM   16  C24 UNL     1     -13.348   1.326  25.159  1.00  0.00     0.135 C 
HETATM   17  O2  UNL     1     -13.523   0.132  24.916  1.00  0.00    -0.297 OA
HETATM   18  C25 UNL     1     -14.210   2.096  26.168  1.00  0.00     0.018 C 
HETATM   19  C26 UNL     1     -15.618   1.468  26.234  1.00  0.00     0.023 C 
HETATM   20  C27 UNL     1     -13.555   1.895  27.551  1.00  0.00     0.023 C 
HETATM   21  C28 UNL     1     -14.204   3.623  25.801  1.00  0.00     0.016 C 
HETATM   22  C29 UNL     1     -15.399   4.404  26.374  1.00  0.00     0.043 C 
HETATM   23  C30 UNL     1     -15.183   5.911  26.237  1.00  0.00     0.148 C 
ENDROOT
BRANCH   1  24
HETATM   24  C7  UNL     1     -12.800  10.787  22.926  1.00  0.00    -0.011 C 
HETATM   25  C8  UNL     1     -13.252  11.526  21.657  1.00  0.00     0.010 C 
BRANCH  24  26
HETATM   26  C6  UNL     1     -12.423  11.860  23.995  1.00  0.00     0.040 C 
BRANCH  26  27
HETATM   27  C5  UNL     1     -10.910  12.008  24.251  1.00  0.00     0.141 C 
BRANCH  27  28
HETATM   28  C4  UNL     1     -10.155  12.176  22.955  1.00  0.00     0.006 C 
HETATM   29  C2  UNL     1      -9.021  12.883  22.755  1.00  0.00    -0.089 C 
HETATM   30  C1  UNL     1      -8.414  12.989  21.380  1.00  0.00     0.042 C 
HETATM   31  C3  UNL     1      -8.253  13.601  23.834  1.00  0.00     0.042 C 
ENDBRANCH  27  28
BRANCH  27  32
HETATM   32  O1  UNL     1     -10.432  10.840  24.913  1.00  0.00    -0.392 OA
HETATM   33  H9  UNL     1      -9.707  10.467  24.372  1.00  0.00     0.210 HD
ENDBRANCH  27  32
ENDBRANCH  26  27
ENDBRANCH  24  26
ENDBRANCH   1  24
BRANCH  23  34
HETATM   34  O3  UNL     1     -14.277   6.318  27.260  1.00  0.00    -0.391 OA
HETATM   35  H48 UNL     1     -13.386   6.339  26.869  1.00  0.00     0.210 HD
ENDBRANCH  23  34
TORSDOF 6
ENDMDL
MODEL 8
REMARK minimizedAffinity -8.32556534
REMARK CNNscore 0.395212591
REMARK CNNaffinity 6.7164855
REMARK  6 active torsions:
REMARK  status: ('A' for Active; 'I' for Inactive)
REMARK    1  A    between atoms: C4_4  and  C5_5 
REMARK    2  A    between atoms: C5_5  and  O1_6 
REMARK    3  A    between atoms: C5_5  and  C6_7 
REMARK    4  A    between atoms: C6_7  and  C7_8 
REMARK    5  A    between atoms: C7_8  and  C9_10 
REMARK    6  A    between atoms: C30_32  and  O3_33 
ROOT
HETATM    1  C9  UNL     1      -7.961   6.709  14.686  1.00  0.00    -0.002 C 
HETATM    2  C10 UNL     1      -7.691   5.677  15.820  1.00  0.00     0.007 C 
HETATM    3  C11 UNL     1      -6.169   5.447  15.890  1.00  0.00     0.015 C 
HETATM    4  C12 UNL     1      -5.607   6.085  14.611  1.00  0.00    -0.010 C 
HETATM    5  C13 UNL     1      -5.760   5.021  13.477  1.00  0.00     0.021 C 
HETATM    6  C14 UNL     1      -4.136   6.503  14.548  1.00  0.00    -0.039 C 
HETATM    7  C15 UNL     1      -3.752   7.527  13.738  1.00  0.00    -0.066 C 
HETATM    8  C16 UNL     1      -4.783   8.334  12.934  1.00  0.00     0.036 C 
HETATM    9  C17 UNL     1      -6.271   7.967  13.103  1.00  0.00     0.015 C 
HETATM   10  C18 UNL     1      -6.550   7.343  14.476  1.00  0.00    -0.029 C 
HETATM   11  C19 UNL     1      -6.298   8.413  15.583  1.00  0.00     0.016 C 
HETATM   12  C20 UNL     1      -2.262   7.933  13.555  1.00  0.00    -0.015 C 
HETATM   13  C21 UNL     1      -1.846   7.446  12.144  1.00  0.00     0.020 C 
HETATM   14  C22 UNL     1      -2.099   9.477  13.633  1.00  0.00     0.021 C 
HETATM   15  C23 UNL     1      -0.703   9.985  13.988  1.00  0.00     0.080 C 
HETATM   16  C24 UNL     1       0.374   8.942  13.810  1.00  0.00     0.135 C 
HETATM   17  O2  UNL     1       1.393   9.199  13.170  1.00  0.00    -0.297 OA
HETATM   18  C25 UNL     1       0.174   7.606  14.538  1.00  0.00     0.018 C 
HETATM   19  C26 UNL     1       0.955   6.494  13.807  1.00  0.00     0.023 C 
HETATM   20  C27 UNL     1       0.806   7.766  15.937  1.00  0.00     0.023 C 
HETATM   21  C28 UNL     1      -1.363   7.319  14.687  1.00  0.00     0.016 C 
HETATM   22  C29 UNL     1      -1.699   5.834  14.904  1.00  0.00     0.043 C 
HETATM   23  C30 UNL     1      -3.156   5.660  15.332  1.00  0.00     0.148 C 
ENDROOT
BRANCH   1  24
HETATM   24  C7  UNL     1      -9.199   7.609  14.987  1.00  0.00    -0.011 C 
HETATM   25  C8  UNL     1      -8.830   9.098  15.051  1.00  0.00     0.010 C 
BRANCH  24  26
HETATM   26  C6  UNL     1     -10.304   7.436  13.898  1.00  0.00     0.040 C 
BRANCH  26  27
HETATM   27  C5  UNL     1     -11.676   6.990  14.440  1.00  0.00     0.141 C 
BRANCH  27  28
HETATM   28  C4  UNL     1     -12.773   7.285  13.446  1.00  0.00     0.006 C 
HETATM   29  C2  UNL     1     -14.013   6.750  13.415  1.00  0.00    -0.089 C 
HETATM   30  C1  UNL     1     -14.982   7.120  12.321  1.00  0.00     0.042 C 
HETATM   31  C3  UNL     1     -14.558   5.780  14.431  1.00  0.00     0.042 C 
ENDBRANCH  27  28
BRANCH  27  32
HETATM   32  O1  UNL     1     -11.951   7.691  15.651  1.00  0.00    -0.392 OA
HETATM   33  H9  UNL     1     -12.805   8.155  15.537  1.00  0.00     0.210 HD
ENDBRANCH  27  32
ENDBRANCH  26  27
ENDBRANCH  24  26
ENDBRANCH   1  24
BRANCH  23  34
HETATM   34  O3  UNL     1      -3.250   6.003  16.713  1.00  0.00    -0.391 OA
HETATM   35  H48 UNL     1      -3.536   6.931  16.764  1.00  0.00     0.210 HD
ENDBRANCH  23  34
TORSDOF 6
ENDMDL
MODEL 9
REMARK minimizedAffinity -9.30483437
REMARK CNNscore 0.394720823
REMARK CNNaffinity 6.99045944
REMARK  6 active torsions:
REMARK  status: ('A' for Active; 'I' for Inactive)
REMARK    1  A    between atoms: C4_4  and  C5_5 
REMARK    2  A    between atoms: C5_5  and  O1_6 
REMARK    3  A    between atoms: C5_5  and  C6_7 
REMARK    4  A    between atoms: C6_7  and  C7_8 
REMARK    5  A    between atoms: C7_8  and  C9_10 
REMARK    6  A    between atoms: C30_32  and  O3_33 
ROOT
HETATM    1  C9  UNL     1       1.317   6.680  12.216  1.00  0.00    -0.002 C 
HETATM    2  C10 UNL     1       1.274   5.428  11.292  1.00  0.00     0.007 C 
HETATM    3  C11 UNL     1      -0.103   4.760  11.471  1.00  0.00     0.015 C 
HETATM    4  C12 UNL     1      -0.714   5.428  12.713  1.00  0.00    -0.010 C 
HETATM    5  C13 UNL     1      -0.138   4.675  13.954  1.00  0.00     0.021 C 
HETATM    6  C14 UNL     1      -2.230   5.409  12.922  1.00  0.00    -0.039 C 
HETATM    7  C15 UNL     1      -2.834   6.408  13.622  1.00  0.00    -0.066 C 
HETATM    8  C16 UNL     1      -2.032   7.608  14.148  1.00  0.00     0.036 C 
HETATM    9  C17 UNL     1      -0.526   7.661  13.825  1.00  0.00     0.015 C 
HETATM   10  C18 UNL     1      -0.196   6.908  12.530  1.00  0.00    -0.029 C 
HETATM   11  C19 UNL     1      -0.865   7.643  11.328  1.00  0.00     0.016 C 
HETATM   12  C20 UNL     1      -4.354   6.393  13.955  1.00  0.00    -0.015 C 
HETATM   13  C21 UNL     1      -4.468   6.069  15.465  1.00  0.00     0.020 C 
HETATM   14  C22 UNL     1      -4.990   7.785  13.679  1.00  0.00     0.021 C 
HETATM   15  C23 UNL     1      -6.501   7.796  13.456  1.00  0.00     0.080 C 
HETATM   16  C24 UNL     1      -7.184   6.537  13.932  1.00  0.00     0.135 C 
HETATM   17  O2  UNL     1      -8.169   6.600  14.667  1.00  0.00    -0.297 OA
HETATM   18  C25 UNL     1      -6.650   5.207  13.383  1.00  0.00     0.018 C 
HETATM   19  C26 UNL     1      -6.981   4.068  14.370  1.00  0.00     0.023 C 
HETATM   20  C27 UNL     1      -7.427   4.924  12.080  1.00  0.00     0.023 C 
HETATM   21  C28 UNL     1      -5.120   5.354  13.061  1.00  0.00     0.016 C 
HETATM   22  C29 UNL     1      -4.364   4.014  13.015  1.00  0.00     0.043 C 
HETATM   23  C30 UNL     1      -2.970   4.193  12.414  1.00  0.00     0.148 C 
ENDROOT
BRANCH   1  24
HETATM   24  C7  UNL     1       2.185   7.829  11.616  1.00  0.00    -0.011 C 
HETATM   25  C8  UNL     1       2.053   9.132  12.418  1.00  0.00     0.010 C 
BRANCH  24  26
HETATM   26  C6  UNL     1       3.696   7.439  11.582  1.00  0.00     0.040 C 
BRANCH  26  27
HETATM   27  C5  UNL     1       4.307   7.357  10.169  1.00  0.00     0.141 C 
BRANCH  27  28
HETATM   28  C4  UNL     1       3.307   7.784   9.122  1.00  0.00     0.006 C 
HETATM   29  C2  UNL     1       2.716   7.004   8.190  1.00  0.00    -0.089 C 
HETATM   30  C1  UNL     1       1.768   7.597   7.181  1.00  0.00     0.042 C 
HETATM   31  C3  UNL     1       2.910   5.515   8.066  1.00  0.00     0.042 C 
ENDBRANCH  27  28
BRANCH  27  32
HETATM   32  O1  UNL     1       4.703   6.013   9.908  1.00  0.00    -0.392 OA
HETATM   33  H9  UNL     1       4.250   5.725   9.090  1.00  0.00     0.210 HD
ENDBRANCH  27  32
ENDBRANCH  26  27
ENDBRANCH  24  26
ENDBRANCH   1  24
BRANCH  23  34
HETATM   34  O3  UNL     1      -3.113   4.294  10.999  1.00  0.00    -0.391 OA
HETATM   35  H48 UNL     1      -3.133   5.241  10.775  1.00  0.00     0.210 HD
ENDBRANCH  23  34
TORSDOF 6
ENDMDL
