MODEL 1
REMARK minimizedAffinity -9.68254566
REMARK  4 active torsions:
REMARK  status: ('A' for Active; 'I' for Inactive)
REMARK    1  A    between atoms: C4_4  and  C5_5 
REMARK    2  A    between atoms: C5_5  and  C6_6 
REMARK    3  A    between atoms: C6_6  and  C7_7 
REMARK    4  A    between atoms: C7_7  and  C9_9 
ROOT
HETATM    1  C9  UNL     1      -0.672  52.458 -21.053  1.00  0.00    -0.001 C 
HETATM    2  C10 UNL     1       0.034  52.121 -22.390  1.00  0.00     0.007 C 
HETATM    3  C11 UNL     1      -0.802  51.012 -23.071  1.00  0.00     0.024 C 
HETATM    4  C12 UNL     1      -2.015  50.839 -22.180  1.00  0.00     0.092 C 
HETATM    5  C13 UNL     1      -3.173  51.795 -22.582  1.00  0.00     0.272 C 
HETATM    6  O1  UNL     1      -3.094  52.855 -23.179  1.00  0.00    -0.264 OA
HETATM    7  O2  UNL     1      -4.366  51.245 -22.146  1.00  0.00    -0.305 OA
HETATM    8  C14 UNL     1      -4.088  49.976 -21.508  1.00  0.00     0.113 C 
HETATM    9  C15 UNL     1      -3.795  50.292 -20.002  1.00  0.00     0.043 C 
HETATM   10  C16 UNL     1      -2.717  51.394 -19.803  1.00  0.00     0.014 C 
HETATM   11  C17 UNL     1      -1.503  51.179 -20.737  1.00  0.00    -0.020 C 
HETATM   12  C18 UNL     1      -0.637  50.044 -20.145  1.00  0.00     0.017 C 
HETATM   13  C19 UNL     1      -2.804  49.591 -22.188  1.00  0.00     0.137 A 
HETATM   14  O3  UNL     1      -2.216  48.317 -22.003  1.00  0.00    -0.364 OA
HETATM   15  C20 UNL     1      -2.757  48.577 -23.313  1.00  0.00     0.162 A 
HETATM   16  C21 UNL     1      -3.986  47.791 -23.660  1.00  0.00     0.042 C 
HETATM   17  C22 UNL     1      -5.251  48.607 -23.318  1.00  0.00     0.014 C 
HETATM   18  C23 UNL     1      -6.588  48.055 -23.917  1.00  0.00     0.018 C 
HETATM   19  C24 UNL     1      -6.492  47.985 -25.458  1.00  0.00     0.023 C 
HETATM   20  C25 UNL     1      -7.007  46.672 -23.402  1.00  0.00     0.023 C 
HETATM   21  C26 UNL     1      -7.722  49.039 -23.584  1.00  0.00     0.135 C 
HETATM   22  O4  UNL     1      -8.847  48.924 -24.071  1.00  0.00    -0.297 OA
HETATM   23  C27 UNL     1      -7.410  50.176 -22.638  1.00  0.00     0.080 C 
HETATM   24  C28 UNL     1      -6.656  49.634 -21.433  1.00  0.00     0.020 C 
HETATM   25  C29 UNL     1      -5.282  48.979 -21.778  1.00  0.00    -0.004 C 
HETATM   26  C30 UNL     1      -5.125  47.746 -20.848  1.00  0.00     0.019 C 
ENDROOT
BRANCH   1  27
HETATM   27  C7  UNL     1       0.146  53.204 -19.964  1.00  0.00    -0.014 C 
HETATM   28  C8  UNL     1       1.477  53.696 -20.569  1.00  0.00     0.010 C 
BRANCH  27  29
HETATM   29  C6  UNL     1       0.424  52.575 -18.580  1.00  0.00     0.008 C 
BRANCH  29  30
HETATM   30  C5  UNL     1       1.753  52.914 -17.901  1.00  0.00     0.028 C 
BRANCH  30  31
HETATM   31  C4  UNL     1       1.820  52.302 -16.526  1.00  0.00    -0.025 C 
HETATM   32  C2  UNL     1       2.907  52.083 -15.763  1.00  0.00    -0.091 C 
HETATM   33  C1  UNL     1       2.767  51.472 -14.393  1.00  0.00     0.042 C 
HETATM   34  C3  UNL     1       4.324  52.404 -16.148  1.00  0.00     0.042 C 
ENDBRANCH  30  31
ENDBRANCH  29  30
ENDBRANCH  27  29
ENDBRANCH   1  27
TORSDOF 4
ENDMDL
MODEL 2
REMARK minimizedAffinity -9.25104427
REMARK  4 active torsions:
REMARK  status: ('A' for Active; 'I' for Inactive)
REMARK    1  A    between atoms: C4_4  and  C5_5 
REMARK    2  A    between atoms: C5_5  and  C6_6 
REMARK    3  A    between atoms: C6_6  and  C7_7 
REMARK    4  A    between atoms: C7_7  and  C9_9 
ROOT
HETATM    1  C9  UNL     1      -6.070  49.338 -23.163  1.00  0.00    -0.001 C 
HETATM    2  C10 UNL     1      -6.882  49.996 -22.020  1.00  0.00     0.007 C 
HETATM    3  C11 UNL     1      -5.857  50.575 -21.019  1.00  0.00     0.024 C 
HETATM    4  C12 UNL     1      -4.508  50.349 -21.670  1.00  0.00     0.092 C 
HETATM    5  C13 UNL     1      -4.101  51.534 -22.589  1.00  0.00     0.272 C 
HETATM    6  O1  UNL     1      -4.832  52.339 -23.139  1.00  0.00    -0.264 OA
HETATM    7  O2  UNL     1      -2.722  51.547 -22.702  1.00  0.00    -0.305 OA
HETATM    8  C14 UNL     1      -2.179  50.474 -21.897  1.00  0.00     0.113 C 
HETATM    9  C15 UNL     1      -2.144  49.205 -22.817  1.00  0.00     0.043 C 
HETATM   10  C16 UNL     1      -3.506  48.907 -23.505  1.00  0.00     0.014 C 
HETATM   11  C17 UNL     1      -4.686  49.040 -22.514  1.00  0.00    -0.020 C 
HETATM   12  C18 UNL     1      -4.711  47.774 -21.626  1.00  0.00     0.017 C 
HETATM   13  C19 UNL     1      -3.265  50.307 -20.873  1.00  0.00     0.137 A 
HETATM   14  O3  UNL     1      -3.109  49.460 -19.750  1.00  0.00    -0.364 OA
HETATM   15  C20 UNL     1      -3.150  50.873 -19.472  1.00  0.00     0.162 A 
HETATM   16  C21 UNL     1      -1.852  51.468 -19.013  1.00  0.00     0.042 C 
HETATM   17  C22 UNL     1      -1.078  52.045 -20.217  1.00  0.00     0.014 C 
HETATM   18  C23 UNL     1       0.129  52.975 -19.857  1.00  0.00     0.018 C 
HETATM   19  C24 UNL     1      -0.356  54.172 -19.009  1.00  0.00     0.023 C 
HETATM   20  C25 UNL     1       1.273  52.287 -19.101  1.00  0.00     0.023 C 
HETATM   21  C26 UNL     1       0.712  53.554 -21.157  1.00  0.00     0.135 C 
HETATM   22  O4  UNL     1       1.569  54.438 -21.148  1.00  0.00    -0.297 OA
HETATM   23  C27 UNL     1       0.187  53.009 -22.465  1.00  0.00     0.080 C 
HETATM   24  C28 UNL     1       0.152  51.490 -22.400  1.00  0.00     0.020 C 
HETATM   25  C29 UNL     1      -0.789  50.918 -21.293  1.00  0.00    -0.004 C 
HETATM   26  C30 UNL     1      -0.079  49.672 -20.699  1.00  0.00     0.019 C 
ENDROOT
BRANCH   1  27
HETATM   27  C7  UNL     1      -6.794  48.311 -24.076  1.00  0.00    -0.014 C 
HETATM   28  C8  UNL     1      -7.108  47.036 -23.266  1.00  0.00     0.010 C 
BRANCH  27  29
HETATM   29  C6  UNL     1      -6.228  47.904 -25.455  1.00  0.00     0.008 C 
BRANCH  29  30
HETATM   30  C5  UNL     1      -7.143  47.115 -26.393  1.00  0.00     0.028 C 
BRANCH  30  31
HETATM   31  C4  UNL     1      -6.817  47.414 -27.833  1.00  0.00    -0.025 C 
HETATM   32  C2  UNL     1      -5.665  47.886 -28.347  1.00  0.00    -0.091 C 
HETATM   33  C1  UNL     1      -5.524  48.104 -29.831  1.00  0.00     0.042 C 
HETATM   34  C3  UNL     1      -4.434  48.233 -27.557  1.00  0.00     0.042 C 
ENDBRANCH  30  31
ENDBRANCH  29  30
ENDBRANCH  27  29
ENDBRANCH   1  27
TORSDOF 4
ENDMDL
MODEL 3
REMARK minimizedAffinity -9.18356323
REMARK  4 active torsions:
REMARK  status: ('A' for Active; 'I' for Inactive)
REMARK    1  A    between atoms: C4_4  and  C5_5 
REMARK    2  A    between atoms: C5_5  and  C6_6 
REMARK    3  A    between atoms: C6_6  and  C7_7 
REMARK    4  A    between atoms: C7_7  and  C9_9 
ROOT
HETATM    1  C9  UNL     1      -0.868  50.326 -21.410  1.00  0.00    -0.001 C 
HETATM    2  C10 UNL     1      -0.423  48.896 -21.014  1.00  0.00     0.007 C 
HETATM    3  C11 UNL     1      -1.712  48.083 -20.750  1.00  0.00     0.024 C 
HETATM    4  C12 UNL     1      -2.844  49.019 -21.123  1.00  0.00     0.092 C 
HETATM    5  C13 UNL     1      -3.221  48.906 -22.626  1.00  0.00     0.272 C 
HETATM    6  O1  UNL     1      -2.519  48.523 -23.546  1.00  0.00    -0.264 OA
HETATM    7  O2  UNL     1      -4.531  49.323 -22.781  1.00  0.00    -0.305 OA
HETATM    8  C14 UNL     1      -5.064  49.677 -21.483  1.00  0.00     0.113 C 
HETATM    9  C15 UNL     1      -4.713  51.187 -21.257  1.00  0.00     0.043 C 
HETATM   10  C16 UNL     1      -3.208  51.508 -21.476  1.00  0.00     0.014 C 
HETATM   11  C17 UNL     1      -2.296  50.454 -20.803  1.00  0.00    -0.020 C 
HETATM   12  C18 UNL     1      -2.270  50.742 -19.285  1.00  0.00     0.017 C 
HETATM   13  C19 UNL     1      -4.206  48.833 -20.583  1.00  0.00     0.137 A 
HETATM   14  O3  UNL     1      -4.466  48.718 -19.197  1.00  0.00    -0.364 OA
HETATM   15  C20 UNL     1      -4.698  47.532 -19.982  1.00  0.00     0.162 A 
HETATM   16  C21 UNL     1      -6.138  47.140 -20.130  1.00  0.00     0.042 C 
HETATM   17  C22 UNL     1      -6.717  47.736 -21.430  1.00  0.00     0.014 C 
HETATM   18  C23 UNL     1      -8.099  47.152 -21.880  1.00  0.00     0.018 C 
HETATM   19  C24 UNL     1      -7.989  45.624 -22.086  1.00  0.00     0.023 C 
HETATM   20  C25 UNL     1      -9.260  47.421 -20.914  1.00  0.00     0.023 C 
HETATM   21  C26 UNL     1      -8.475  47.762 -23.241  1.00  0.00     0.135 C 
HETATM   22  O4  UNL     1      -9.437  47.354 -23.892  1.00  0.00    -0.297 OA
HETATM   23  C27 UNL     1      -7.610  48.882 -23.771  1.00  0.00     0.080 C 
HETATM   24  C28 UNL     1      -7.362  49.894 -22.663  1.00  0.00     0.020 C 
HETATM   25  C29 UNL     1      -6.601  49.316 -21.428  1.00  0.00    -0.004 C 
HETATM   26  C30 UNL     1      -7.224  49.974 -20.166  1.00  0.00     0.019 C 
ENDROOT
BRANCH   1  27
HETATM   27  C7  UNL     1       0.179  51.470 -21.311  1.00  0.00    -0.014 C 
HETATM   28  C8  UNL     1       0.059  52.157 -19.935  1.00  0.00     0.010 C 
BRANCH  27  29
HETATM   29  C6  UNL     1       0.308  52.553 -22.405  1.00  0.00     0.008 C 
BRANCH  29  30
HETATM   30  C5  UNL     1      -0.219  52.218 -23.801  1.00  0.00     0.028 C 
BRANCH  30  31
HETATM   31  C4  UNL     1       0.902  52.209 -24.807  1.00  0.00    -0.025 C 
HETATM   32  C2  UNL     1       0.956  51.571 -25.991  1.00  0.00    -0.091 C 
HETATM   33  C1  UNL     1       2.170  51.701 -26.875  1.00  0.00     0.042 C 
HETATM   34  C3  UNL     1      -0.126  50.697 -26.563  1.00  0.00     0.042 C 
ENDBRANCH  30  31
ENDBRANCH  29  30
ENDBRANCH  27  29
ENDBRANCH   1  27
TORSDOF 4
ENDMDL
MODEL 4
REMARK minimizedAffinity -8.97367096
REMARK  4 active torsions:
REMARK  status: ('A' for Active; 'I' for Inactive)
REMARK    1  A    between atoms: C4_4  and  C5_5 
REMARK    2  A    between atoms: C5_5  and  C6_6 
REMARK    3  A    between atoms: C6_6  and  C7_7 
REMARK    4  A    between atoms: C7_7  and  C9_9 
ROOT
HETATM    1  C9  UNL     1      -0.727  51.238 -21.045  1.00  0.00    -0.001 C 
HETATM    2  C10 UNL     1      -1.185  52.005 -19.779  1.00  0.00     0.007 C 
HETATM    3  C11 UNL     1      -2.456  51.295 -19.260  1.00  0.00     0.024 C 
HETATM    4  C12 UNL     1      -2.615  50.082 -20.153  1.00  0.00     0.092 C 
HETATM    5  C13 UNL     1      -1.844  48.849 -19.603  1.00  0.00     0.272 C 
HETATM    6  O1  UNL     1      -0.880  48.842 -18.858  1.00  0.00    -0.264 OA
HETATM    7  O2  UNL     1      -2.438  47.703 -20.103  1.00  0.00    -0.305 OA
HETATM    8  C14 UNL     1      -3.568  48.084 -20.923  1.00  0.00     0.113 C 
HETATM    9  C15 UNL     1      -3.010  48.309 -22.370  1.00  0.00     0.043 C 
HETATM   10  C16 UNL     1      -1.791  49.272 -22.416  1.00  0.00     0.014 C 
HETATM   11  C17 UNL     1      -2.021  50.524 -21.536  1.00  0.00    -0.020 C 
HETATM   12  C18 UNL     1      -2.969  51.478 -22.298  1.00  0.00     0.017 C 
HETATM   13  C19 UNL     1      -3.922  49.415 -20.321  1.00  0.00     0.137 A 
HETATM   14  O3  UNL     1      -5.092  50.116 -20.697  1.00  0.00    -0.364 OA
HETATM   15  C20 UNL     1      -5.078  49.585 -19.357  1.00  0.00     0.162 A 
HETATM   16  C21 UNL     1      -6.022  48.445 -19.117  1.00  0.00     0.042 C 
HETATM   17  C22 UNL     1      -5.292  47.101 -19.322  1.00  0.00     0.014 C 
HETATM   18  C23 UNL     1      -6.052  45.837 -18.796  1.00  0.00     0.018 C 
HETATM   19  C24 UNL     1      -6.335  45.977 -17.284  1.00  0.00     0.023 C 
HETATM   20  C25 UNL     1      -7.380  45.538 -19.504  1.00  0.00     0.023 C 
HETATM   21  C26 UNL     1      -5.145  44.607 -18.970  1.00  0.00     0.135 C 
HETATM   22  O4  UNL     1      -5.438  43.510 -18.493  1.00  0.00    -0.297 OA
HETATM   23  C27 UNL     1      -3.858  44.787 -19.741  1.00  0.00     0.080 C 
HETATM   24  C28 UNL     1      -4.143  45.558 -21.021  1.00  0.00     0.020 C 
HETATM   25  C29 UNL     1      -4.705  46.996 -20.790  1.00  0.00    -0.004 C 
HETATM   26  C30 UNL     1      -5.769  47.247 -21.893  1.00  0.00     0.019 C 
ENDROOT
BRANCH   1  27
HETATM   27  C7  UNL     1       0.245  51.955 -22.021  1.00  0.00    -0.014 C 
HETATM   28  C8  UNL     1       0.921  53.136 -21.296  1.00  0.00     0.010 C 
BRANCH  27  29
HETATM   29  C6  UNL     1      -0.203  52.416 -23.425  1.00  0.00     0.008 C 
BRANCH  29  30
HETATM   30  C5  UNL     1       0.879  52.895 -24.394  1.00  0.00     0.028 C 
BRANCH  30  31
HETATM   31  C4  UNL     1       0.470  52.637 -25.821  1.00  0.00    -0.025 C 
HETATM   32  C2  UNL     1       1.173  52.025 -26.793  1.00  0.00    -0.091 C 
HETATM   33  C1  UNL     1       0.578  51.843 -28.166  1.00  0.00     0.042 C 
HETATM   34  C3  UNL     1       2.562  51.469 -26.649  1.00  0.00     0.042 C 
ENDBRANCH  30  31
ENDBRANCH  29  30
ENDBRANCH  27  29
ENDBRANCH   1  27
TORSDOF 4
ENDMDL
MODEL 5
REMARK minimizedAffinity -8.96386147
REMARK  4 active torsions:
REMARK  status: ('A' for Active; 'I' for Inactive)
REMARK    1  A    between atoms: C4_4  and  C5_5 
REMARK    2  A    between atoms: C5_5  and  C6_6 
REMARK    3  A    between atoms: C6_6  and  C7_7 
REMARK    4  A    between atoms: C7_7  and  C9_9 
ROOT
HETATM    1  C9  UNL     1      -3.321  48.081 -19.688  1.00  0.00    -0.001 C 
HETATM    2  C10 UNL     1      -2.982  46.772 -20.444  1.00  0.00     0.007 C 
HETATM    3  C11 UNL     1      -2.687  47.164 -21.910  1.00  0.00     0.024 C 
HETATM    4  C12 UNL     1      -2.738  48.678 -21.924  1.00  0.00     0.092 C 
HETATM    5  C13 UNL     1      -1.355  49.309 -21.600  1.00  0.00     0.272 C 
HETATM    6  O1  UNL     1      -0.433  48.810 -20.979  1.00  0.00    -0.264 OA
HETATM    7  O2  UNL     1      -1.316  50.581 -22.145  1.00  0.00    -0.305 OA
HETATM    8  C14 UNL     1      -2.563  50.831 -22.835  1.00  0.00     0.113 C 
HETATM    9  C15 UNL     1      -3.547  51.423 -21.769  1.00  0.00     0.043 C 
HETATM   10  C16 UNL     1      -3.653  50.559 -20.481  1.00  0.00     0.014 C 
HETATM   11  C17 UNL     1      -3.781  49.053 -20.815  1.00  0.00    -0.020 C 
HETATM   12  C18 UNL     1      -5.234  48.785 -21.269  1.00  0.00     0.017 C 
HETATM   13  C19 UNL     1      -2.989  49.429 -23.170  1.00  0.00     0.137 A 
HETATM   14  O3  UNL     1      -4.100  49.167 -24.006  1.00  0.00    -0.364 OA
HETATM   15  C20 UNL     1      -2.808  48.839 -24.554  1.00  0.00     0.162 A 
HETATM   16  C21 UNL     1      -2.357  49.714 -25.685  1.00  0.00     0.042 C 
HETATM   17  C22 UNL     1      -1.487  50.869 -25.146  1.00  0.00     0.014 C 
HETATM   18  C23 UNL     1      -0.686  51.668 -26.228  1.00  0.00     0.018 C 
HETATM   19  C24 UNL     1       0.249  50.717 -27.008  1.00  0.00     0.023 C 
HETATM   20  C25 UNL     1      -1.549  52.427 -27.244  1.00  0.00     0.023 C 
HETATM   21  C26 UNL     1       0.211  52.697 -25.520  1.00  0.00     0.135 C 
HETATM   22  O4  UNL     1       1.061  53.348 -26.129  1.00  0.00    -0.297 OA
HETATM   23  C27 UNL     1       0.028  52.880 -24.031  1.00  0.00     0.080 C 
HETATM   24  C28 UNL     1      -1.455  53.001 -23.717  1.00  0.00     0.020 C 
HETATM   25  C29 UNL     1      -2.294  51.740 -24.097  1.00  0.00    -0.004 C 
HETATM   26  C30 UNL     1      -3.654  52.252 -24.644  1.00  0.00     0.019 C 
ENDROOT
BRANCH   1  27
HETATM   27  C7  UNL     1      -4.073  47.968 -18.334  1.00  0.00    -0.014 C 
HETATM   28  C8  UNL     1      -5.475  48.596 -18.472  1.00  0.00     0.010 C 
BRANCH  27  29
HETATM   29  C6  UNL     1      -3.438  48.442 -17.007  1.00  0.00     0.008 C 
BRANCH  29  30
HETATM   30  C5  UNL     1      -1.914  48.567 -16.955  1.00  0.00     0.028 C 
BRANCH  30  31
HETATM   31  C4  UNL     1      -1.441  49.688 -17.843  1.00  0.00    -0.025 C 
HETATM   32  C2  UNL     1      -0.393  50.514 -17.658  1.00  0.00    -0.091 C 
HETATM   33  C1  UNL     1      -0.065  51.571 -18.680  1.00  0.00     0.042 C 
HETATM   34  C3  UNL     1       0.540  50.490 -16.479  1.00  0.00     0.042 C 
ENDBRANCH  30  31
ENDBRANCH  29  30
ENDBRANCH  27  29
ENDBRANCH   1  27
TORSDOF 4
ENDMDL
MODEL 6
REMARK minimizedAffinity -8.86794472
REMARK  4 active torsions:
REMARK  status: ('A' for Active; 'I' for Inactive)
REMARK    1  A    between atoms: C4_4  and  C5_5 
REMARK    2  A    between atoms: C5_5  and  C6_6 
REMARK    3  A    between atoms: C6_6  and  C7_7 
REMARK    4  A    between atoms: C7_7  and  C9_9 
ROOT
HETATM    1  C9  UNL     1      -2.534  51.316 -24.383  1.00  0.00    -0.001 C 
HETATM    2  C10 UNL     1      -3.806  51.914 -25.035  1.00  0.00     0.007 C 
HETATM    3  C11 UNL     1      -5.011  51.127 -24.471  1.00  0.00     0.024 C 
HETATM    4  C12 UNL     1      -4.416  50.201 -23.430  1.00  0.00     0.092 C 
HETATM    5  C13 UNL     1      -4.347  50.869 -22.028  1.00  0.00     0.272 C 
HETATM    6  O1  UNL     1      -4.311  52.059 -21.769  1.00  0.00    -0.264 OA
HETATM    7  O2  UNL     1      -4.333  49.872 -21.069  1.00  0.00    -0.305 OA
HETATM    8  C14 UNL     1      -4.419  48.587 -21.730  1.00  0.00     0.113 C 
HETATM    9  C15 UNL     1      -2.947  48.159 -22.056  1.00  0.00     0.043 C 
HETATM   10  C16 UNL     1      -2.142  49.252 -22.813  1.00  0.00     0.014 C 
HETATM   11  C17 UNL     1      -2.973  49.884 -23.955  1.00  0.00    -0.020 C 
HETATM   12  C18 UNL     1      -2.989  48.893 -25.141  1.00  0.00     0.017 C 
HETATM   13  C19 UNL     1      -5.113  48.969 -23.006  1.00  0.00     0.137 A 
HETATM   14  O3  UNL     1      -5.569  47.997 -23.928  1.00  0.00    -0.364 OA
HETATM   15  C20 UNL     1      -6.593  48.728 -23.226  1.00  0.00     0.162 A 
HETATM   16  C21 UNL     1      -7.374  47.926 -22.227  1.00  0.00     0.042 C 
HETATM   17  C22 UNL     1      -6.746  48.072 -20.825  1.00  0.00     0.014 C 
HETATM   18  C23 UNL     1      -7.630  47.561 -19.637  1.00  0.00     0.018 C 
HETATM   19  C24 UNL     1      -8.979  48.314 -19.615  1.00  0.00     0.023 C 
HETATM   20  C25 UNL     1      -7.924  46.056 -19.650  1.00  0.00     0.023 C 
HETATM   21  C26 UNL     1      -6.914  47.885 -18.314  1.00  0.00     0.135 C 
HETATM   22  O4  UNL     1      -7.465  47.731 -17.223  1.00  0.00    -0.297 OA
HETATM   23  C27 UNL     1      -5.503  48.417 -18.392  1.00  0.00     0.080 C 
HETATM   24  C28 UNL     1      -4.697  47.568 -19.363  1.00  0.00     0.020 C 
HETATM   25  C29 UNL     1      -5.239  47.584 -20.828  1.00  0.00    -0.004 C 
HETATM   26  C30 UNL     1      -5.062  46.147 -21.389  1.00  0.00     0.019 C 
ENDROOT
BRANCH   1  27
HETATM   27  C7  UNL     1      -1.165  51.594 -25.062  1.00  0.00    -0.014 C 
HETATM   28  C8  UNL     1      -0.986  50.641 -26.262  1.00  0.00     0.010 C 
BRANCH  27  29
HETATM   29  C6  UNL     1       0.151  51.641 -24.255  1.00  0.00     0.008 C 
BRANCH  29  30
HETATM   30  C5  UNL     1       0.276  52.703 -23.162  1.00  0.00     0.028 C 
BRANCH  30  31
HETATM   31  C4  UNL     1       0.028  52.102 -21.803  1.00  0.00    -0.025 C 
HETATM   32  C2  UNL     1       0.265  52.645 -20.594  1.00  0.00    -0.091 C 
HETATM   33  C1  UNL     1      -0.072  51.886 -19.337  1.00  0.00     0.042 C 
HETATM   34  C3  UNL     1       0.859  54.004 -20.349  1.00  0.00     0.042 C 
ENDBRANCH  30  31
ENDBRANCH  29  30
ENDBRANCH  27  29
ENDBRANCH   1  27
TORSDOF 4
ENDMDL
MODEL 7
REMARK minimizedAffinity -8.85054207
REMARK  4 active torsions:
REMARK  status: ('A' for Active; 'I' for Inactive)
REMARK    1  A    between atoms: C4_4  and  C5_5 
REMARK    2  A    between atoms: C5_5  and  C6_6 
REMARK    3  A    between atoms: C6_6  and  C7_7 
REMARK    4  A    between atoms: C7_7  and  C9_9 
ROOT
HETATM    1  C9  UNL     1      -2.213  51.102 -22.493  1.00  0.00    -0.001 C 
HETATM    2  C10 UNL     1      -3.246  52.190 -22.877  1.00  0.00     0.007 C 
HETATM    3  C11 UNL     1      -4.643  51.616 -22.549  1.00  0.00     0.024 C 
HETATM    4  C12 UNL     1      -4.369  50.287 -21.876  1.00  0.00     0.092 C 
HETATM    5  C13 UNL     1      -4.200  50.437 -20.339  1.00  0.00     0.272 C 
HETATM    6  O1  UNL     1      -3.865  51.431 -19.717  1.00  0.00    -0.264 OA
HETATM    7  O2  UNL     1      -4.499  49.223 -19.745  1.00  0.00    -0.305 OA
HETATM    8  C14 UNL     1      -4.885  48.283 -20.775  1.00  0.00     0.113 C 
HETATM    9  C15 UNL     1      -3.563  47.604 -21.273  1.00  0.00     0.043 C 
HETATM   10  C16 UNL     1      -2.460  48.624 -21.672  1.00  0.00     0.014 C 
HETATM   11  C17 UNL     1      -3.034  49.780 -22.525  1.00  0.00    -0.020 C 
HETATM   12  C18 UNL     1      -3.250  49.253 -23.963  1.00  0.00     0.017 C 
HETATM   13  C19 UNL     1      -5.387  49.217 -21.840  1.00  0.00     0.137 A 
HETATM   14  O3  UNL     1      -6.033  48.742 -23.005  1.00  0.00    -0.364 OA
HETATM   15  C20 UNL     1      -6.865  49.460 -22.072  1.00  0.00     0.162 A 
HETATM   16  C21 UNL     1      -7.880  48.623 -21.352  1.00  0.00     0.042 C 
HETATM   17  C22 UNL     1      -7.310  48.149 -19.999  1.00  0.00     0.014 C 
HETATM   18  C23 UNL     1      -8.357  47.545 -19.003  1.00  0.00     0.018 C 
HETATM   19  C24 UNL     1      -9.460  48.583 -18.697  1.00  0.00     0.023 C 
HETATM   20  C25 UNL     1      -9.036  46.255 -19.482  1.00  0.00     0.023 C 
HETATM   21  C26 UNL     1      -7.652  47.234 -17.673  1.00  0.00     0.135 C 
HETATM   22  O4  UNL     1      -8.280  46.897 -16.668  1.00  0.00    -0.297 OA
HETATM   23  C27 UNL     1      -6.148  47.367 -17.627  1.00  0.00     0.080 C 
HETATM   24  C28 UNL     1      -5.545  46.684 -18.845  1.00  0.00     0.020 C 
HETATM   25  C29 UNL     1      -5.986  47.303 -20.209  1.00  0.00    -0.004 C 
HETATM   26  C30 UNL     1      -6.165  46.124 -21.203  1.00  0.00     0.019 C 
ENDROOT
BRANCH   1  27
HETATM   27  C7  UNL     1      -0.785  51.205 -23.097  1.00  0.00    -0.014 C 
HETATM   28  C8  UNL     1       0.166  51.835 -22.058  1.00  0.00     0.010 C 
BRANCH  27  29
HETATM   29  C6  UNL     1      -0.528  51.854 -24.474  1.00  0.00     0.008 C 
BRANCH  29  30
HETATM   30  C5  UNL     1      -0.472  50.933 -25.694  1.00  0.00     0.028 C 
BRANCH  30  31
HETATM   31  C4  UNL     1       0.869  51.030 -26.375  1.00  0.00    -0.025 C 
HETATM   32  C2  UNL     1       1.212  51.780 -27.440  1.00  0.00    -0.091 C 
HETATM   33  C1  UNL     1       2.623  51.756 -27.968  1.00  0.00     0.042 C 
HETATM   34  C3  UNL     1       0.289  52.693 -28.198  1.00  0.00     0.042 C 
ENDBRANCH  30  31
ENDBRANCH  29  30
ENDBRANCH  27  29
ENDBRANCH   1  27
TORSDOF 4
ENDMDL
MODEL 8
REMARK minimizedAffinity -8.83888435
REMARK  4 active torsions:
REMARK  status: ('A' for Active; 'I' for Inactive)
REMARK    1  A    between atoms: C4_4  and  C5_5 
REMARK    2  A    between atoms: C5_5  and  C6_6 
REMARK    3  A    between atoms: C6_6  and  C7_7 
REMARK    4  A    between atoms: C7_7  and  C9_9 
ROOT
HETATM    1  C9  UNL     1      -2.558  50.616 -22.892  1.00  0.00    -0.001 C 
HETATM    2  C10 UNL     1      -1.647  49.418 -22.526  1.00  0.00     0.007 C 
HETATM    3  C11 UNL     1      -2.577  48.213 -22.259  1.00  0.00     0.024 C 
HETATM    4  C12 UNL     1      -3.966  48.713 -22.600  1.00  0.00     0.092 C 
HETATM    5  C13 UNL     1      -4.311  48.495 -24.100  1.00  0.00     0.272 C 
HETATM    6  O1  UNL     1      -3.538  48.384 -25.036  1.00  0.00    -0.264 OA
HETATM    7  O2  UNL     1      -5.688  48.444 -24.229  1.00  0.00    -0.305 OA
HETATM    8  C14 UNL     1      -6.285  48.581 -22.918  1.00  0.00     0.113 C 
HETATM    9  C15 UNL     1      -6.463  50.118 -22.671  1.00  0.00     0.043 C 
HETATM   10  C16 UNL     1      -5.161  50.934 -22.906  1.00  0.00     0.014 C 
HETATM   11  C17 UNL     1      -3.933  50.244 -22.264  1.00  0.00    -0.020 C 
HETATM   12  C18 UNL     1      -3.978  50.507 -20.741  1.00  0.00     0.017 C 
HETATM   13  C19 UNL     1      -5.174  48.069 -22.045  1.00  0.00     0.137 A 
HETATM   14  O3  UNL     1      -5.354  47.856 -20.657  1.00  0.00    -0.364 OA
HETATM   15  C20 UNL     1      -5.184  46.671 -21.459  1.00  0.00     0.162 A 
HETATM   16  C21 UNL     1      -6.408  45.815 -21.595  1.00  0.00     0.042 C 
HETATM   17  C22 UNL     1      -7.179  46.193 -22.876  1.00  0.00     0.014 C 
HETATM   18  C23 UNL     1      -8.289  45.179 -23.317  1.00  0.00     0.018 C 
HETATM   19  C24 UNL     1      -7.671  43.783 -23.550  1.00  0.00     0.023 C 
HETATM   20  C25 UNL     1      -9.454  45.027 -22.331  1.00  0.00     0.023 C 
HETATM   21  C26 UNL     1      -8.875  45.641 -24.662  1.00  0.00     0.135 C 
HETATM   22  O4  UNL     1      -9.654  44.938 -25.307  1.00  0.00    -0.297 OA
HETATM   23  C27 UNL     1      -8.451  46.994 -25.184  1.00  0.00     0.080 C 
HETATM   24  C28 UNL     1      -8.541  48.017 -24.063  1.00  0.00     0.020 C 
HETATM   25  C29 UNL     1      -7.606  47.719 -22.848  1.00  0.00    -0.004 C 
HETATM   26  C30 UNL     1      -8.392  48.111 -21.568  1.00  0.00     0.019 C 
ENDROOT
BRANCH   1  27
HETATM   27  C7  UNL     1      -1.960  52.046 -22.788  1.00  0.00    -0.014 C 
HETATM   28  C8  UNL     1      -2.283  52.831 -24.076  1.00  0.00     0.010 C 
BRANCH  27  29
HETATM   29  C6  UNL     1      -0.482  52.286 -22.410  1.00  0.00     0.008 C 
BRANCH  29  30
HETATM   30  C5  UNL     1       0.542  52.341 -23.546  1.00  0.00     0.028 C 
BRANCH  30  31
HETATM   31  C4  UNL     1      -0.035  51.762 -24.812  1.00  0.00    -0.025 C 
HETATM   32  C2  UNL     1       0.609  51.432 -25.947  1.00  0.00    -0.091 C 
HETATM   33  C1  UNL     1      -0.147  50.841 -27.109  1.00  0.00     0.042 C 
HETATM   34  C3  UNL     1       2.083  51.593 -26.194  1.00  0.00     0.042 C 
ENDBRANCH  30  31
ENDBRANCH  29  30
ENDBRANCH  27  29
ENDBRANCH   1  27
TORSDOF 4
ENDMDL
MODEL 9
REMARK minimizedAffinity -8.77656937
REMARK  4 active torsions:
REMARK  status: ('A' for Active; 'I' for Inactive)
REMARK    1  A    between atoms: C4_4  and  C5_5 
REMARK    2  A    between atoms: C5_5  and  C6_6 
REMARK    3  A    between atoms: C6_6  and  C7_7 
REMARK    4  A    between atoms: C7_7  and  C9_9 
ROOT
HETATM    1  C9  UNL     1      -1.813  50.431 -22.056  1.00  0.00    -0.001 C 
HETATM    2  C10 UNL     1      -2.176  49.994 -23.497  1.00  0.00     0.007 C 
HETATM    3  C11 UNL     1      -3.384  49.036 -23.383  1.00  0.00     0.024 C 
HETATM    4  C12 UNL     1      -3.756  49.053 -21.915  1.00  0.00     0.092 C 
HETATM    5  C13 UNL     1      -4.771  50.182 -21.584  1.00  0.00     0.272 C 
HETATM    6  O1  UNL     1      -4.960  51.220 -22.196  1.00  0.00    -0.264 OA
HETATM    7  O2  UNL     1      -5.465  49.826 -20.441  1.00  0.00    -0.305 OA
HETATM    8  C14 UNL     1      -5.006  48.525 -20.004  1.00  0.00     0.113 C 
HETATM    9  C15 UNL     1      -3.780  48.782 -19.062  1.00  0.00     0.043 C 
HETATM   10  C16 UNL     1      -2.697  49.699 -19.698  1.00  0.00     0.014 C 
HETATM   11  C17 UNL     1      -2.402  49.299 -21.163  1.00  0.00    -0.020 C 
HETATM   12  C18 UNL     1      -1.509  48.037 -21.145  1.00  0.00     0.017 C 
HETATM   13  C19 UNL     1      -4.515  47.945 -21.300  1.00  0.00     0.137 A 
HETATM   14  O3  UNL     1      -4.111  46.593 -21.407  1.00  0.00    -0.364 OA
HETATM   15  C20 UNL     1      -5.327  46.943 -22.096  1.00  0.00     0.162 A 
HETATM   16  C21 UNL     1      -6.580  46.364 -21.509  1.00  0.00     0.042 C 
HETATM   17  C22 UNL     1      -7.217  47.368 -20.526  1.00  0.00     0.014 C 
HETATM   18  C23 UNL     1      -8.684  47.039 -20.087  1.00  0.00     0.018 C 
HETATM   19  C24 UNL     1      -9.606  46.963 -21.325  1.00  0.00     0.023 C 
HETATM   20  C25 UNL     1      -8.845  45.737 -19.292  1.00  0.00     0.023 C 
HETATM   21  C26 UNL     1      -9.206  48.189 -19.209  1.00  0.00     0.135 C 
HETATM   22  O4  UNL     1     -10.386  48.256 -18.860  1.00  0.00    -0.297 OA
HETATM   23  C27 UNL     1      -8.222  49.256 -18.790  1.00  0.00     0.080 C 
HETATM   24  C28 UNL     1      -6.947  48.595 -18.288  1.00  0.00     0.020 C 
HETATM   25  C29 UNL     1      -6.209  47.731 -19.359  1.00  0.00    -0.004 C 
HETATM   26  C30 UNL     1      -5.649  46.484 -18.623  1.00  0.00     0.019 C 
ENDROOT
BRANCH   1  27
HETATM   27  C7  UNL     1      -0.402  51.032 -21.808  1.00  0.00    -0.014 C 
HETATM   28  C8  UNL     1      -0.146  51.129 -20.290  1.00  0.00     0.010 C 
BRANCH  27  29
HETATM   29  C6  UNL     1       0.054  52.345 -22.481  1.00  0.00     0.008 C 
BRANCH  29  30
HETATM   30  C5  UNL     1      -0.275  52.535 -23.963  1.00  0.00     0.028 C 
BRANCH  30  31
HETATM   31  C4  UNL     1       0.953  52.339 -24.812  1.00  0.00    -0.025 C 
HETATM   32  C2  UNL     1       1.092  51.579 -25.915  1.00  0.00    -0.091 C 
HETATM   33  C1  UNL     1       2.409  51.527 -26.645  1.00  0.00     0.042 C 
HETATM   34  C3  UNL     1       0.014  50.735 -26.536  1.00  0.00     0.042 C 
ENDBRANCH  30  31
ENDBRANCH  29  30
ENDBRANCH  27  29
ENDBRANCH   1  27
TORSDOF 4
ENDMDL
