MODEL 1
REMARK minimizedAffinity -9.94965649
REMARK  7 active torsions:
REMARK  status: ('A' for Active; 'I' for Inactive)
REMARK    1  A    between atoms: C2_2  and  C30_33 
REMARK    2  A    between atoms: C3_3  and  C4_4 
REMARK    3  A    between atoms: C4_4  and  C5_5 
REMARK    4  A    between atoms: C5_5  and  C6_6 
REMARK    5  A    between atoms: C6_6  and  C8_8 
REMARK    6  A    between atoms: C15_15  and  O1_16 
REMARK    7  A    between atoms: C30_33  and  O5_35 
ROOT
HETATM    1  C8  UNL     1      -0.765  52.550 -23.840  1.00  0.00    -0.002 C 
HETATM    2  C9  UNL     1      -0.010  51.806 -24.965  1.00  0.00     0.007 C 
HETATM    3  C10 UNL     1      -0.963  50.701 -25.480  1.00  0.00     0.015 C 
HETATM    4  C11 UNL     1      -2.354  51.064 -24.913  1.00  0.00    -0.005 C 
HETATM    5  C12 UNL     1      -2.968  52.136 -25.867  1.00  0.00     0.021 C 
HETATM    6  C13 UNL     1      -3.455  50.021 -24.767  1.00  0.00     0.002 C 
HETATM    7  C14 UNL     1      -4.381  50.105 -23.767  1.00  0.00    -0.032 C 
HETATM    8  C15 UNL     1      -4.335  51.248 -22.750  1.00  0.00     0.149 C 
HETATM    9  C16 UNL     1      -3.140  52.227 -22.823  1.00  0.00     0.047 C 
HETATM   10  C17 UNL     1      -1.922  51.578 -23.480  1.00  0.00    -0.026 C 
HETATM   11  C18 UNL     1      -1.422  50.424 -22.562  1.00  0.00     0.016 C 
HETATM   12  C19 UNL     1      -5.429  48.976 -23.561  1.00  0.00    -0.012 C 
HETATM   13  C20 UNL     1      -4.670  47.856 -22.799  1.00  0.00     0.021 C 
HETATM   14  C21 UNL     1      -6.682  49.313 -22.696  1.00  0.00     0.021 C 
HETATM   15  C22 UNL     1      -7.870  49.797 -23.513  1.00  0.00     0.080 C 
HETATM   16  C23 UNL     1      -8.334  48.673 -24.417  1.00  0.00     0.135 C 
HETATM   17  O2  UNL     1      -9.536  48.464 -24.584  1.00  0.00    -0.297 OA
HETATM   18  C24 UNL     1      -7.252  47.827 -25.118  1.00  0.00     0.018 C 
HETATM   19  C25 UNL     1      -7.254  46.430 -24.487  1.00  0.00     0.023 C 
HETATM   20  C26 UNL     1      -7.671  47.689 -26.598  1.00  0.00     0.023 C 
HETATM   21  C27 UNL     1      -5.893  48.589 -25.009  1.00  0.00     0.020 C 
HETATM   22  C28 UNL     1      -4.726  47.979 -25.786  1.00  0.00     0.090 C 
HETATM   23  C29 UNL     1      -3.519  48.899 -25.768  1.00  0.00     0.157 C 
HETATM   24  O3  UNL     1      -2.606  48.716 -26.573  1.00  0.00    -0.293 OA
ENDROOT
BRANCH   1  25
HETATM   25  C6  UNL     1       0.073  53.266 -22.746  1.00  0.00    -0.014 C 
HETATM   26  C7  UNL     1       1.198  54.083 -23.409  1.00  0.00     0.010 C 
BRANCH  25  27
HETATM   27  C5  UNL     1       0.599  52.515 -21.499  1.00  0.00     0.008 C 
BRANCH  27  28
HETATM   28  C4  UNL     1      -0.102  52.631 -20.140  1.00  0.00     0.028 C 
BRANCH  28  29
HETATM   29  C3  UNL     1       0.803  52.858 -18.965  1.00  0.00    -0.013 C 
HETATM   30  C2  UNL     1       0.885  52.108 -17.847  1.00  0.00     0.008 C 
HETATM   31  C1  UNL     1       0.042  50.911 -17.534  1.00  0.00     0.055 C 
BRANCH  30  32
HETATM   32  C30 UNL     1       1.889  52.534 -16.836  1.00  0.00     0.171 C 
HETATM   33  O4  UNL     1       3.082  52.289 -16.845  1.00  0.00    -0.646 OA
BRANCH  32  34
HETATM   34  O5  UNL     1       1.339  53.253 -15.845  1.00  0.00    -0.773 OA
HETATM   35  H44 UNL     1       2.101  53.457 -15.264  1.00  0.00     0.167 HD
ENDBRANCH  32  34
ENDBRANCH  30  32
ENDBRANCH  28  29
ENDBRANCH  27  28
ENDBRANCH  25  27
ENDBRANCH   1  25
BRANCH   8  36
HETATM   36  O1  UNL     1      -5.527  52.015 -22.888  1.00  0.00    -0.391 OA
HETATM   37  H22 UNL     1      -5.510  52.426 -23.769  1.00  0.00     0.210 HD
ENDBRANCH   8  36
TORSDOF 7
ENDMDL
MODEL 2
REMARK minimizedAffinity -9.80286407
REMARK  7 active torsions:
REMARK  status: ('A' for Active; 'I' for Inactive)
REMARK    1  A    between atoms: C2_2  and  C30_33 
REMARK    2  A    between atoms: C3_3  and  C4_4 
REMARK    3  A    between atoms: C4_4  and  C5_5 
REMARK    4  A    between atoms: C5_5  and  C6_6 
REMARK    5  A    between atoms: C6_6  and  C8_8 
REMARK    6  A    between atoms: C15_15  and  O1_16 
REMARK    7  A    between atoms: C30_33  and  O5_35 
ROOT
HETATM    1  C8  UNL     1      -5.037  49.223 -24.773  1.00  0.00    -0.002 C 
HETATM    2  C9  UNL     1      -6.108  49.195 -23.659  1.00  0.00     0.007 C 
HETATM    3  C10 UNL     1      -5.455  49.818 -22.403  1.00  0.00     0.015 C 
HETATM    4  C11 UNL     1      -4.176  50.520 -22.913  1.00  0.00    -0.005 C 
HETATM    5  C12 UNL     1      -4.611  51.914 -23.464  1.00  0.00     0.021 C 
HETATM    6  C13 UNL     1      -3.010  50.834 -21.982  1.00  0.00     0.002 C 
HETATM    7  C14 UNL     1      -1.724  50.844 -22.439  1.00  0.00    -0.032 C 
HETATM    8  C15 UNL     1      -1.408  50.527 -23.901  1.00  0.00     0.149 C 
HETATM    9  C16 UNL     1      -2.578  50.079 -24.809  1.00  0.00     0.047 C 
HETATM   10  C17 UNL     1      -3.714  49.460 -23.994  1.00  0.00    -0.026 C 
HETATM   11  C18 UNL     1      -3.198  48.141 -23.348  1.00  0.00     0.016 C 
HETATM   12  C19 UNL     1      -0.537  51.056 -21.457  1.00  0.00    -0.012 C 
HETATM   13  C20 UNL     1      -0.318  49.672 -20.787  1.00  0.00     0.021 C 
HETATM   14  C21 UNL     1       0.837  51.460 -22.072  1.00  0.00     0.021 C 
HETATM   15  C22 UNL     1       1.058  52.964 -22.124  1.00  0.00     0.080 C 
HETATM   16  C23 UNL     1       1.114  53.501 -20.708  1.00  0.00     0.135 C 
HETATM   17  O2  UNL     1       1.938  54.363 -20.400  1.00  0.00    -0.297 OA
HETATM   18  C24 UNL     1       0.101  52.939 -19.692  1.00  0.00     0.018 C 
HETATM   19  C25 UNL     1       0.864  52.070 -18.685  1.00  0.00     0.023 C 
HETATM   20  C26 UNL     1      -0.498  54.144 -18.932  1.00  0.00     0.023 C 
HETATM   21  C27 UNL     1      -1.018  52.189 -20.483  1.00  0.00     0.020 C 
HETATM   22  C28 UNL     1      -2.204  51.696 -19.652  1.00  0.00     0.090 C 
HETATM   23  C29 UNL     1      -3.309  51.161 -20.543  1.00  0.00     0.157 C 
HETATM   24  O3  UNL     1      -4.437  51.001 -20.078  1.00  0.00    -0.293 OA
ENDROOT
BRANCH   1  25
HETATM   25  C6  UNL     1      -5.139  48.173 -25.913  1.00  0.00    -0.014 C 
HETATM   26  C7  UNL     1      -4.160  48.540 -27.043  1.00  0.00     0.010 C 
BRANCH  25  27
HETATM   27  C5  UNL     1      -6.504  47.724 -26.490  1.00  0.00     0.008 C 
BRANCH  27  28
HETATM   28  C4  UNL     1      -6.622  47.132 -27.898  1.00  0.00     0.028 C 
BRANCH  28  29
HETATM   29  C3  UNL     1      -5.866  47.860 -28.970  1.00  0.00    -0.013 C 
HETATM   30  C2  UNL     1      -5.830  47.562 -30.284  1.00  0.00     0.008 C 
HETATM   31  C1  UNL     1      -6.510  46.396 -30.935  1.00  0.00     0.055 C 
BRANCH  30  32
HETATM   32  C30 UNL     1      -5.022  48.463 -31.147  1.00  0.00     0.171 C 
HETATM   33  O4  UNL     1      -4.621  48.229 -32.273  1.00  0.00    -0.646 OA
BRANCH  32  34
HETATM   34  O5  UNL     1      -4.746  49.632 -30.545  1.00  0.00    -0.773 OA
HETATM   35  H44 UNL     1      -4.217  50.111 -31.216  1.00  0.00     0.167 HD
ENDBRANCH  32  34
ENDBRANCH  30  32
ENDBRANCH  28  29
ENDBRANCH  27  28
ENDBRANCH  25  27
ENDBRANCH   1  25
BRANCH   8  36
HETATM   36  O1  UNL     1      -0.826  51.684 -24.493  1.00  0.00    -0.391 OA
HETATM   37  H22 UNL     1      -1.503  52.381 -24.500  1.00  0.00     0.210 HD
ENDBRANCH   8  36
TORSDOF 7
ENDMDL
MODEL 3
REMARK minimizedAffinity -9.77392387
REMARK  7 active torsions:
REMARK  status: ('A' for Active; 'I' for Inactive)
REMARK    1  A    between atoms: C2_2  and  C30_33 
REMARK    2  A    between atoms: C3_3  and  C4_4 
REMARK    3  A    between atoms: C4_4  and  C5_5 
REMARK    4  A    between atoms: C5_5  and  C6_6 
REMARK    5  A    between atoms: C6_6  and  C8_8 
REMARK    6  A    between atoms: C15_15  and  O1_16 
REMARK    7  A    between atoms: C30_33  and  O5_35 
ROOT
HETATM    1  C8  UNL     1      -1.080  49.917 -18.022  1.00  0.00    -0.002 C 
HETATM    2  C9  UNL     1      -2.171  48.822 -18.021  1.00  0.00     0.007 C 
HETATM    3  C10 UNL     1      -2.681  48.706 -19.477  1.00  0.00     0.015 C 
HETATM    4  C11 UNL     1      -1.635  49.451 -20.337  1.00  0.00    -0.005 C 
HETATM    5  C12 UNL     1      -0.462  48.454 -20.593  1.00  0.00     0.021 C 
HETATM    6  C13 UNL     1      -1.975  49.991 -21.721  1.00  0.00     0.002 C 
HETATM    7  C14 UNL     1      -1.376  51.116 -22.209  1.00  0.00    -0.032 C 
HETATM    8  C15 UNL     1      -0.348  51.882 -21.373  1.00  0.00     0.149 C 
HETATM    9  C16 UNL     1      -0.105  51.408 -19.921  1.00  0.00     0.047 C 
HETATM   10  C17 UNL     1      -1.317  50.660 -19.366  1.00  0.00    -0.026 C 
HETATM   11  C18 UNL     1      -2.506  51.659 -19.253  1.00  0.00     0.016 C 
HETATM   12  C19 UNL     1      -1.812  51.717 -23.574  1.00  0.00    -0.012 C 
HETATM   13  C20 UNL     1      -3.111  52.511 -23.267  1.00  0.00     0.021 C 
HETATM   14  C21 UNL     1      -0.840  52.729 -24.254  1.00  0.00     0.021 C 
HETATM   15  C22 UNL     1       0.121  52.078 -25.236  1.00  0.00     0.080 C 
HETATM   16  C23 UNL     1      -0.674  51.497 -26.388  1.00  0.00     0.135 C 
HETATM   17  O2  UNL     1      -0.263  51.602 -27.545  1.00  0.00    -0.297 OA
HETATM   18  C24 UNL     1      -1.990  50.769 -26.051  1.00  0.00     0.018 C 
HETATM   19  C25 UNL     1      -3.155  51.630 -26.551  1.00  0.00     0.023 C 
HETATM   20  C26 UNL     1      -1.993  49.444 -26.847  1.00  0.00     0.023 C 
HETATM   21  C27 UNL     1      -2.006  50.477 -24.516  1.00  0.00     0.020 C 
HETATM   22  C28 UNL     1      -3.166  49.616 -24.016  1.00  0.00     0.090 C 
HETATM   23  C29 UNL     1      -2.975  49.238 -22.558  1.00  0.00     0.157 C 
HETATM   24  O3  UNL     1      -3.641  48.322 -22.079  1.00  0.00    -0.293 OA
ENDROOT
BRANCH   1  25
HETATM   25  C6  UNL     1      -0.812  50.685 -16.698  1.00  0.00    -0.014 C 
HETATM   26  C7  UNL     1       0.702  50.724 -16.421  1.00  0.00     0.010 C 
BRANCH  25  27
HETATM   27  C5  UNL     1      -1.602  50.377 -15.403  1.00  0.00     0.008 C 
BRANCH  27  28
HETATM   28  C4  UNL     1      -1.256  51.058 -14.074  1.00  0.00     0.028 C 
BRANCH  28  29
HETATM   29  C3  UNL     1      -2.285  52.017 -13.553  1.00  0.00    -0.013 C 
HETATM   30  C2  UNL     1      -2.870  52.000 -12.338  1.00  0.00     0.008 C 
HETATM   31  C1  UNL     1      -2.639  50.975 -11.271  1.00  0.00     0.055 C 
BRANCH  30  32
HETATM   32  C30 UNL     1      -3.845  53.086 -12.057  1.00  0.00     0.171 C 
HETATM   33  O4  UNL     1      -4.275  53.416 -10.966  1.00  0.00    -0.646 OA
BRANCH  32  34
HETATM   34  O5  UNL     1      -4.244  53.715 -13.175  1.00  0.00    -0.773 OA
HETATM   35  H44 UNL     1      -4.873  54.388 -12.843  1.00  0.00     0.167 HD
ENDBRANCH  32  34
ENDBRANCH  30  32
ENDBRANCH  28  29
ENDBRANCH  27  28
ENDBRANCH  25  27
ENDBRANCH   1  25
BRANCH   8  36
HETATM   36  O1  UNL     1       0.903  51.836 -22.054  1.00  0.00    -0.391 OA
HETATM   37  H22 UNL     1       1.194  50.909 -22.070  1.00  0.00     0.210 HD
ENDBRANCH   8  36
TORSDOF 7
ENDMDL
MODEL 4
REMARK minimizedAffinity -9.68078899
REMARK  7 active torsions:
REMARK  status: ('A' for Active; 'I' for Inactive)
REMARK    1  A    between atoms: C2_2  and  C30_33 
REMARK    2  A    between atoms: C3_3  and  C4_4 
REMARK    3  A    between atoms: C4_4  and  C5_5 
REMARK    4  A    between atoms: C5_5  and  C6_6 
REMARK    5  A    between atoms: C6_6  and  C8_8 
REMARK    6  A    between atoms: C15_15  and  O1_16 
REMARK    7  A    between atoms: C30_33  and  O5_35 
ROOT
HETATM    1  C8  UNL     1      -0.541  50.380 -21.162  1.00  0.00    -0.002 C 
HETATM    2  C9  UNL     1      -0.573  49.775 -19.740  1.00  0.00     0.007 C 
HETATM    3  C10 UNL     1      -1.887  48.963 -19.636  1.00  0.00     0.015 C 
HETATM    4  C11 UNL     1      -2.389  48.810 -21.089  1.00  0.00    -0.005 C 
HETATM    5  C12 UNL     1      -1.614  47.609 -21.715  1.00  0.00     0.021 C 
HETATM    6  C13 UNL     1      -3.851  48.515 -21.403  1.00  0.00     0.002 C 
HETATM    7  C14 UNL     1      -4.437  48.978 -22.546  1.00  0.00    -0.032 C 
HETATM    8  C15 UNL     1      -3.644  49.821 -23.547  1.00  0.00     0.149 C 
HETATM    9  C16 UNL     1      -2.203  50.230 -23.161  1.00  0.00     0.047 C 
HETATM   10  C17 UNL     1      -2.012  50.243 -21.645  1.00  0.00    -0.026 C 
HETATM   11  C18 UNL     1      -2.907  51.367 -21.044  1.00  0.00     0.016 C 
HETATM   12  C19 UNL     1      -5.955  48.764 -22.801  1.00  0.00    -0.012 C 
HETATM   13  C20 UNL     1      -6.661  49.864 -21.962  1.00  0.00     0.021 C 
HETATM   14  C21 UNL     1      -6.468  48.941 -24.263  1.00  0.00     0.021 C 
HETATM   15  C22 UNL     1      -6.502  47.642 -25.053  1.00  0.00     0.080 C 
HETATM   16  C23 UNL     1      -7.511  46.708 -24.417  1.00  0.00     0.135 C 
HETATM   17  O2  UNL     1      -8.261  46.029 -25.120  1.00  0.00    -0.297 OA
HETATM   18  C24 UNL     1      -7.546  46.635 -22.878  1.00  0.00     0.018 C 
HETATM   19  C25 UNL     1      -8.844  47.292 -22.396  1.00  0.00     0.023 C 
HETATM   20  C26 UNL     1      -7.591  45.139 -22.494  1.00  0.00     0.023 C 
HETATM   21  C27 UNL     1      -6.239  47.294 -22.330  1.00  0.00     0.020 C 
HETATM   22  C28 UNL     1      -6.017  47.176 -20.822  1.00  0.00     0.090 C 
HETATM   23  C29 UNL     1      -4.638  47.674 -20.433  1.00  0.00     0.157 C 
HETATM   24  O3  UNL     1      -4.179  47.386 -19.328  1.00  0.00    -0.293 OA
ENDROOT
BRANCH   1  25
HETATM   25  C6  UNL     1       0.276  51.682 -21.385  1.00  0.00    -0.014 C 
HETATM   26  C7  UNL     1       0.252  52.533 -20.102  1.00  0.00     0.010 C 
BRANCH  25  27
HETATM   27  C5  UNL     1       0.075  52.567 -22.639  1.00  0.00     0.008 C 
BRANCH  27  28
HETATM   28  C4  UNL     1       0.652  52.169 -24.001  1.00  0.00     0.028 C 
BRANCH  28  29
HETATM   29  C3  UNL     1       0.265  53.054 -25.149  1.00  0.00    -0.013 C 
HETATM   30  C2  UNL     1       0.330  52.755 -26.463  1.00  0.00     0.008 C 
HETATM   31  C1  UNL     1       0.854  51.478 -27.044  1.00  0.00     0.055 C 
BRANCH  30  32
HETATM   32  C30 UNL     1      -0.142  53.804 -27.405  1.00  0.00     0.171 C 
HETATM   33  O4  UNL     1      -0.189  55.003 -27.198  1.00  0.00    -0.646 OA
BRANCH  32  34
HETATM   34  O5  UNL     1      -0.543  53.290 -28.579  1.00  0.00    -0.773 OA
HETATM   35  H44 UNL     1      -0.823  54.079 -29.087  1.00  0.00     0.167 HD
ENDBRANCH  32  34
ENDBRANCH  30  32
ENDBRANCH  28  29
ENDBRANCH  27  28
ENDBRANCH  25  27
ENDBRANCH   1  25
BRANCH   8  36
HETATM   36  O1  UNL     1      -3.572  49.104 -24.776  1.00  0.00    -0.391 OA
HETATM   37  H22 UNL     1      -3.050  48.300 -24.615  1.00  0.00     0.210 HD
ENDBRANCH   8  36
TORSDOF 7
ENDMDL
MODEL 5
REMARK minimizedAffinity -9.59538364
REMARK  7 active torsions:
REMARK  status: ('A' for Active; 'I' for Inactive)
REMARK    1  A    between atoms: C2_2  and  C30_33 
REMARK    2  A    between atoms: C3_3  and  C4_4 
REMARK    3  A    between atoms: C4_4  and  C5_5 
REMARK    4  A    between atoms: C5_5  and  C6_6 
REMARK    5  A    between atoms: C6_6  and  C8_8 
REMARK    6  A    between atoms: C15_15  and  O1_16 
REMARK    7  A    between atoms: C30_33  and  O5_35 
ROOT
HETATM    1  C8  UNL     1      -1.502  50.663 -23.459  1.00  0.00    -0.002 C 
HETATM    2  C9  UNL     1      -1.055  52.133 -23.620  1.00  0.00     0.007 C 
HETATM    3  C10 UNL     1      -0.592  52.609 -22.222  1.00  0.00     0.015 C 
HETATM    4  C11 UNL     1      -0.430  51.320 -21.385  1.00  0.00    -0.005 C 
HETATM    5  C12 UNL     1       0.973  50.729 -21.726  1.00  0.00     0.021 C 
HETATM    6  C13 UNL     1      -0.464  51.347 -19.861  1.00  0.00     0.002 C 
HETATM    7  C14 UNL     1      -0.946  50.289 -19.146  1.00  0.00    -0.032 C 
HETATM    8  C15 UNL     1      -1.481  49.043 -19.854  1.00  0.00     0.149 C 
HETATM    9  C16 UNL     1      -1.569  49.074 -21.397  1.00  0.00     0.047 C 
HETATM   10  C17 UNL     1      -1.676  50.505 -21.923  1.00  0.00    -0.026 C 
HETATM   11  C18 UNL     1      -3.030  51.107 -21.446  1.00  0.00     0.016 C 
HETATM   12  C19 UNL     1      -1.077  50.373 -17.599  1.00  0.00    -0.012 C 
HETATM   13  C20 UNL     1      -2.386  51.172 -17.350  1.00  0.00     0.021 C 
HETATM   14  C21 UNL     1      -1.236  49.031 -16.820  1.00  0.00     0.021 C 
HETATM   15  C22 UNL     1       0.084  48.454 -16.334  1.00  0.00     0.080 C 
HETATM   16  C23 UNL     1       0.689  49.402 -15.319  1.00  0.00     0.135 C 
HETATM   17  O2  UNL     1       1.232  48.965 -14.303  1.00  0.00    -0.297 OA
HETATM   18  C24 UNL     1       0.610  50.913 -15.617  1.00  0.00     0.018 C 
HETATM   19  C25 UNL     1      -0.378  51.544 -14.631  1.00  0.00     0.023 C 
HETATM   20  C26 UNL     1       2.011  51.504 -15.342  1.00  0.00     0.023 C 
HETATM   21  C27 UNL     1       0.234  51.093 -17.123  1.00  0.00     0.020 C 
HETATM   22  C28 UNL     1       0.263  52.528 -17.648  1.00  0.00     0.090 C 
HETATM   23  C29 UNL     1       0.073  52.562 -19.153  1.00  0.00     0.157 C 
HETATM   24  O3  UNL     1       0.360  53.583 -19.776  1.00  0.00    -0.293 OA
ENDROOT
BRANCH   1  25
HETATM   25  C6  UNL     1      -2.546  50.102 -24.463  1.00  0.00    -0.014 C 
HETATM   26  C7  UNL     1      -3.316  48.938 -23.811  1.00  0.00     0.010 C 
BRANCH  25  27
HETATM   27  C5  UNL     1      -2.172  49.763 -25.927  1.00  0.00     0.008 C 
BRANCH  27  28
HETATM   28  C4  UNL     1      -1.400  50.755 -26.805  1.00  0.00     0.028 C 
BRANCH  28  29
HETATM   29  C3  UNL     1       0.092  50.721 -26.658  1.00  0.00    -0.013 C 
HETATM   30  C2  UNL     1       0.970  51.662 -27.062  1.00  0.00     0.008 C 
HETATM   31  C1  UNL     1       0.624  52.924 -27.791  1.00  0.00     0.055 C 
BRANCH  30  32
HETATM   32  C30 UNL     1       2.404  51.399 -26.772  1.00  0.00     0.171 C 
HETATM   33  O4  UNL     1       2.851  50.642 -25.929  1.00  0.00    -0.646 OA
BRANCH  32  34
HETATM   34  O5  UNL     1       3.222  52.113 -27.562  1.00  0.00    -0.773 OA
HETATM   35  H44 UNL     1       4.116  51.846 -27.263  1.00  0.00     0.167 HD
ENDBRANCH  32  34
ENDBRANCH  30  32
ENDBRANCH  28  29
ENDBRANCH  27  28
ENDBRANCH  25  27
ENDBRANCH   1  25
BRANCH   8  36
HETATM   36  O1  UNL     1      -0.658  47.937 -19.493  1.00  0.00    -0.391 OA
HETATM   37  H22 UNL     1       0.228  48.102 -19.855  1.00  0.00     0.210 HD
ENDBRANCH   8  36
TORSDOF 7
ENDMDL
MODEL 6
REMARK minimizedAffinity -9.56887722
REMARK  7 active torsions:
REMARK  status: ('A' for Active; 'I' for Inactive)
REMARK    1  A    between atoms: C2_2  and  C30_33 
REMARK    2  A    between atoms: C3_3  and  C4_4 
REMARK    3  A    between atoms: C4_4  and  C5_5 
REMARK    4  A    between atoms: C5_5  and  C6_6 
REMARK    5  A    between atoms: C6_6  and  C8_8 
REMARK    6  A    between atoms: C15_15  and  O1_16 
REMARK    7  A    between atoms: C30_33  and  O5_35 
ROOT
HETATM    1  C8  UNL     1      -2.519  48.759 -18.565  1.00  0.00    -0.002 C 
HETATM    2  C9  UNL     1      -3.428  47.687 -19.208  1.00  0.00     0.007 C 
HETATM    3  C10 UNL     1      -3.395  47.940 -20.735  1.00  0.00     0.015 C 
HETATM    4  C11 UNL     1      -2.200  48.891 -20.966  1.00  0.00    -0.005 C 
HETATM    5  C12 UNL     1      -0.916  48.006 -21.014  1.00  0.00     0.021 C 
HETATM    6  C13 UNL     1      -2.100  49.761 -22.214  1.00  0.00     0.002 C 
HETATM    7  C14 UNL     1      -1.487  50.981 -22.178  1.00  0.00    -0.032 C 
HETATM    8  C15 UNL     1      -0.890  51.521 -20.877  1.00  0.00     0.149 C 
HETATM    9  C16 UNL     1      -1.111  50.696 -19.588  1.00  0.00     0.047 C 
HETATM   10  C17 UNL     1      -2.357  49.816 -19.691  1.00  0.00    -0.026 C 
HETATM   11  C18 UNL     1      -3.607  50.740 -19.779  1.00  0.00     0.016 C 
HETATM   12  C19 UNL     1      -1.490  51.905 -23.428  1.00  0.00    -0.012 C 
HETATM   13  C20 UNL     1      -2.890  52.578 -23.426  1.00  0.00     0.021 C 
HETATM   14  C21 UNL     1      -0.452  53.068 -23.460  1.00  0.00     0.021 C 
HETATM   15  C22 UNL     1       0.847  52.700 -24.159  1.00  0.00     0.080 C 
HETATM   16  C23 UNL     1       0.557  52.422 -25.620  1.00  0.00     0.135 C 
HETATM   17  O2  UNL     1       1.324  52.823 -26.496  1.00  0.00    -0.297 OA
HETATM   18  C24 UNL     1      -0.715  51.616 -25.954  1.00  0.00     0.018 C 
HETATM   19  C25 UNL     1      -1.720  52.562 -26.620  1.00  0.00     0.023 C 
HETATM   20  C26 UNL     1      -0.312  50.538 -26.985  1.00  0.00     0.023 C 
HETATM   21  C27 UNL     1      -1.224  50.943 -24.639  1.00  0.00     0.020 C 
HETATM   22  C28 UNL     1      -2.392  49.969 -24.800  1.00  0.00     0.090 C 
HETATM   23  C29 UNL     1      -2.673  49.235 -23.503  1.00  0.00     0.157 C 
HETATM   24  O3  UNL     1      -3.365  48.219 -23.520  1.00  0.00    -0.293 OA
ENDROOT
BRANCH   1  25
HETATM   25  C6  UNL     1      -2.798  49.167 -17.092  1.00  0.00    -0.014 C 
HETATM   26  C7  UNL     1      -2.979  50.694 -17.005  1.00  0.00     0.010 C 
BRANCH  25  27
HETATM   27  C5  UNL     1      -1.928  48.647 -15.922  1.00  0.00     0.008 C 
BRANCH  27  28
HETATM   28  C4  UNL     1      -0.430  48.956 -15.840  1.00  0.00     0.028 C 
BRANCH  28  29
HETATM   29  C3  UNL     1      -0.010  50.276 -16.416  1.00  0.00    -0.013 C 
HETATM   30  C2  UNL     1       1.043  51.029 -16.040  1.00  0.00     0.008 C 
HETATM   31  C1  UNL     1       1.989  50.712 -14.922  1.00  0.00     0.055 C 
BRANCH  30  32
HETATM   32  C30 UNL     1       1.258  52.292 -16.793  1.00  0.00     0.171 C 
HETATM   33  O4  UNL     1       1.233  52.433 -18.003  1.00  0.00    -0.646 OA
BRANCH  32  34
HETATM   34  O5  UNL     1       1.504  53.333 -15.982  1.00  0.00    -0.773 OA
HETATM   35  H44 UNL     1       1.626  54.080 -16.604  1.00  0.00     0.167 HD
ENDBRANCH  32  34
ENDBRANCH  30  32
ENDBRANCH  28  29
ENDBRANCH  27  28
ENDBRANCH  25  27
ENDBRANCH   1  25
BRANCH   8  36
HETATM   36  O1  UNL     1       0.516  51.665 -21.058  1.00  0.00    -0.391 OA
HETATM   37  H22 UNL     1       0.887  50.776 -21.186  1.00  0.00     0.210 HD
ENDBRANCH   8  36
TORSDOF 7
ENDMDL
MODEL 7
REMARK minimizedAffinity -9.45451641
REMARK  7 active torsions:
REMARK  status: ('A' for Active; 'I' for Inactive)
REMARK    1  A    between atoms: C2_2  and  C30_33 
REMARK    2  A    between atoms: C3_3  and  C4_4 
REMARK    3  A    between atoms: C4_4  and  C5_5 
REMARK    4  A    between atoms: C5_5  and  C6_6 
REMARK    5  A    between atoms: C6_6  and  C8_8 
REMARK    6  A    between atoms: C15_15  and  O1_16 
REMARK    7  A    between atoms: C30_33  and  O5_35 
ROOT
HETATM    1  C8  UNL     1      -1.301  52.159 -24.128  1.00  0.00    -0.002 C 
HETATM    2  C9  UNL     1      -1.228  51.382 -25.463  1.00  0.00     0.007 C 
HETATM    3  C10 UNL     1      -2.326  50.293 -25.399  1.00  0.00     0.015 C 
HETATM    4  C11 UNL     1      -3.234  50.697 -24.216  1.00  0.00    -0.005 C 
HETATM    5  C12 UNL     1      -4.232  51.769 -24.753  1.00  0.00     0.021 C 
HETATM    6  C13 UNL     1      -4.124  49.681 -23.508  1.00  0.00     0.002 C 
HETATM    7  C14 UNL     1      -4.416  49.802 -22.179  1.00  0.00    -0.032 C 
HETATM    8  C15 UNL     1      -3.847  50.957 -21.353  1.00  0.00     0.149 C 
HETATM    9  C16 UNL     1      -2.839  51.906 -22.042  1.00  0.00     0.047 C 
HETATM   10  C17 UNL     1      -2.130  51.219 -23.210  1.00  0.00    -0.026 C 
HETATM   11  C18 UNL     1      -1.250  50.067 -22.643  1.00  0.00     0.016 C 
HETATM   12  C19 UNL     1      -5.232  48.701 -21.445  1.00  0.00    -0.012 C 
HETATM   13  C20 UNL     1      -4.206  47.574 -21.145  1.00  0.00     0.021 C 
HETATM   14  C21 UNL     1      -5.870  49.078 -20.074  1.00  0.00     0.021 C 
HETATM   15  C22 UNL     1      -7.301  49.580 -20.190  1.00  0.00     0.080 C 
HETATM   16  C23 UNL     1      -8.174  48.455 -20.708  1.00  0.00     0.135 C 
HETATM   17  O2  UNL     1      -9.299  48.272 -20.240  1.00  0.00    -0.297 OA
HETATM   18  C24 UNL     1      -7.607  47.574 -21.839  1.00  0.00     0.018 C 
HETATM   19  C25 UNL     1      -7.309  46.186 -21.261  1.00  0.00     0.023 C 
HETATM   20  C26 UNL     1      -8.719  47.425 -22.902  1.00  0.00     0.023 C 
HETATM   21  C27 UNL     1      -6.369  48.305 -22.451  1.00  0.00     0.020 C 
HETATM   22  C28 UNL     1      -5.763  47.657 -23.697  1.00  0.00     0.090 C 
HETATM   23  C29 UNL     1      -4.701  48.547 -24.313  1.00  0.00     0.157 C 
HETATM   24  O3  UNL     1      -4.323  48.332 -25.464  1.00  0.00    -0.293 OA
ENDROOT
BRANCH   1  25
HETATM   25  C6  UNL     1      -0.014  52.870 -23.625  1.00  0.00    -0.014 C 
HETATM   26  C7  UNL     1       1.074  52.798 -24.712  1.00  0.00     0.010 C 
BRANCH  25  27
HETATM   27  C5  UNL     1       0.583  52.582 -22.226  1.00  0.00     0.008 C 
BRANCH  27  28
HETATM   28  C4  UNL     1       0.612  53.655 -21.132  1.00  0.00     0.028 C 
BRANCH  28  29
HETATM   29  C3  UNL     1       1.086  53.191 -19.787  1.00  0.00    -0.013 C 
HETATM   30  C2  UNL     1       0.362  52.551 -18.846  1.00  0.00     0.008 C 
HETATM   31  C1  UNL     1      -1.094  52.214 -18.943  1.00  0.00     0.055 C 
BRANCH  30  32
HETATM   32  C30 UNL     1       1.079  52.174 -17.600  1.00  0.00     0.171 C 
HETATM   33  O4  UNL     1       1.000  51.114 -17.005  1.00  0.00    -0.646 OA
BRANCH  32  34
HETATM   34  O5  UNL     1       1.871  53.160 -17.149  1.00  0.00    -0.773 OA
HETATM   35  H44 UNL     1       2.269  52.779 -16.339  1.00  0.00     0.167 HD
ENDBRANCH  32  34
ENDBRANCH  30  32
ENDBRANCH  28  29
ENDBRANCH  27  28
ENDBRANCH  25  27
ENDBRANCH   1  25
BRANCH   8  36
HETATM   36  O1  UNL     1      -4.934  51.750 -20.887  1.00  0.00    -0.391 OA
HETATM   37  H22 UNL     1      -5.360  52.148 -21.665  1.00  0.00     0.210 HD
ENDBRANCH   8  36
TORSDOF 7
ENDMDL
MODEL 8
REMARK minimizedAffinity -9.26517582
REMARK  7 active torsions:
REMARK  status: ('A' for Active; 'I' for Inactive)
REMARK    1  A    between atoms: C2_2  and  C30_33 
REMARK    2  A    between atoms: C3_3  and  C4_4 
REMARK    3  A    between atoms: C4_4  and  C5_5 
REMARK    4  A    between atoms: C5_5  and  C6_6 
REMARK    5  A    between atoms: C6_6  and  C8_8 
REMARK    6  A    between atoms: C15_15  and  O1_16 
REMARK    7  A    between atoms: C30_33  and  O5_35 
ROOT
HETATM    1  C8  UNL     1      -3.659  50.179 -24.516  1.00  0.00    -0.002 C 
HETATM    2  C9  UNL     1      -5.173  50.029 -24.245  1.00  0.00     0.007 C 
HETATM    3  C10 UNL     1      -5.335  49.896 -22.711  1.00  0.00     0.015 C 
HETATM    4  C11 UNL     1      -3.980  50.340 -22.117  1.00  0.00    -0.005 C 
HETATM    5  C12 UNL     1      -4.000  51.899 -22.055  1.00  0.00     0.021 C 
HETATM    6  C13 UNL     1      -3.542  49.917 -20.720  1.00  0.00     0.002 C 
HETATM    7  C14 UNL     1      -2.223  49.733 -20.418  1.00  0.00    -0.032 C 
HETATM    8  C15 UNL     1      -1.140  49.935 -21.480  1.00  0.00     0.149 C 
HETATM    9  C16 UNL     1      -1.598  50.233 -22.926  1.00  0.00     0.047 C 
HETATM   10  C17 UNL     1      -3.007  49.702 -23.189  1.00  0.00    -0.026 C 
HETATM   11  C18 UNL     1      -2.971  48.147 -23.108  1.00  0.00     0.016 C 
HETATM   12  C19 UNL     1      -1.798  49.194 -19.023  1.00  0.00    -0.012 C 
HETATM   13  C20 UNL     1      -2.022  47.659 -19.101  1.00  0.00     0.021 C 
HETATM   14  C21 UNL     1      -0.309  49.391 -18.603  1.00  0.00     0.021 C 
HETATM   15  C22 UNL     1      -0.070  50.663 -17.804  1.00  0.00     0.080 C 
HETATM   16  C23 UNL     1      -0.816  50.564 -16.489  1.00  0.00     0.135 C 
HETATM   17  O2  UNL     1      -0.296  50.961 -15.446  1.00  0.00    -0.297 OA
HETATM   18  C24 UNL     1      -2.238  49.968 -16.518  1.00  0.00     0.018 C 
HETATM   19  C25 UNL     1      -2.196  48.596 -15.836  1.00  0.00     0.023 C 
HETATM   20  C26 UNL     1      -3.139  50.899 -15.676  1.00  0.00     0.023 C 
HETATM   21  C27 UNL     1      -2.725  49.943 -18.003  1.00  0.00     0.020 C 
HETATM   22  C28 UNL     1      -4.181  49.530 -18.218  1.00  0.00     0.090 C 
HETATM   23  C29 UNL     1      -4.597  49.728 -19.663  1.00  0.00     0.157 C 
HETATM   24  O3  UNL     1      -5.792  49.731 -19.954  1.00  0.00    -0.293 OA
ENDROOT
BRANCH   1  25
HETATM   25  C6  UNL     1      -3.117  49.734 -25.902  1.00  0.00    -0.014 C 
HETATM   26  C7  UNL     1      -3.718  48.367 -26.277  1.00  0.00     0.010 C 
BRANCH  25  27
HETATM   27  C5  UNL     1      -1.608  49.786 -26.242  1.00  0.00     0.008 C 
BRANCH  27  28
HETATM   28  C4  UNL     1      -0.693  50.870 -25.662  1.00  0.00     0.028 C 
BRANCH  28  29
HETATM   29  C3  UNL     1      -0.904  52.251 -26.207  1.00  0.00    -0.013 C 
HETATM   30  C2  UNL     1      -0.371  52.772 -27.330  1.00  0.00     0.008 C 
HETATM   31  C1  UNL     1       0.592  52.078 -28.245  1.00  0.00     0.055 C 
BRANCH  30  32
HETATM   32  C30 UNL     1      -0.762  54.166 -27.666  1.00  0.00     0.171 C 
HETATM   33  O4  UNL     1      -1.695  54.513 -28.368  1.00  0.00    -0.646 OA
BRANCH  32  34
HETATM   34  O5  UNL     1       0.051  55.074 -27.101  1.00  0.00    -0.773 OA
HETATM   35  H44 UNL     1      -0.318  55.929 -27.406  1.00  0.00     0.167 HD
ENDBRANCH  32  34
ENDBRANCH  30  32
ENDBRANCH  28  29
ENDBRANCH  27  28
ENDBRANCH  25  27
ENDBRANCH   1  25
BRANCH   8  36
HETATM   36  O1  UNL     1      -0.303  51.010 -21.064  1.00  0.00    -0.391 OA
HETATM   37  H22 UNL     1      -0.844  51.817 -21.062  1.00  0.00     0.210 HD
ENDBRANCH   8  36
TORSDOF 7
ENDMDL
MODEL 9
REMARK minimizedAffinity -9.26194382
REMARK  7 active torsions:
REMARK  status: ('A' for Active; 'I' for Inactive)
REMARK    1  A    between atoms: C2_2  and  C30_33 
REMARK    2  A    between atoms: C3_3  and  C4_4 
REMARK    3  A    between atoms: C4_4  and  C5_5 
REMARK    4  A    between atoms: C5_5  and  C6_6 
REMARK    5  A    between atoms: C6_6  and  C8_8 
REMARK    6  A    between atoms: C15_15  and  O1_16 
REMARK    7  A    between atoms: C30_33  and  O5_35 
ROOT
HETATM    1  C8  UNL     1      -0.848  50.427 -21.816  1.00  0.00    -0.002 C 
HETATM    2  C9  UNL     1      -0.417  50.032 -20.385  1.00  0.00     0.007 C 
HETATM    3  C10 UNL     1      -1.546  49.140 -19.815  1.00  0.00     0.015 C 
HETATM    4  C11 UNL     1      -2.406  48.740 -21.036  1.00  0.00    -0.005 C 
HETATM    5  C12 UNL     1      -1.695  47.528 -21.715  1.00  0.00     0.021 C 
HETATM    6  C13 UNL     1      -3.852  48.285 -20.880  1.00  0.00     0.002 C 
HETATM    7  C14 UNL     1      -4.779  48.530 -21.853  1.00  0.00    -0.032 C 
HETATM    8  C15 UNL     1      -4.396  49.282 -23.129  1.00  0.00     0.149 C 
HETATM    9  C16 UNL     1      -2.964  49.858 -23.222  1.00  0.00     0.047 C 
HETATM   10  C17 UNL     1      -2.367  50.104 -21.837  1.00  0.00    -0.026 C 
HETATM   11  C18 UNL     1      -3.190  51.227 -21.138  1.00  0.00     0.016 C 
HETATM   12  C19 UNL     1      -6.273  48.160 -21.634  1.00  0.00    -0.012 C 
HETATM   13  C20 UNL     1      -6.847  49.308 -20.760  1.00  0.00     0.021 C 
HETATM   14  C21 UNL     1      -7.183  48.083 -22.898  1.00  0.00     0.021 C 
HETATM   15  C22 UNL     1      -7.279  46.686 -23.490  1.00  0.00     0.080 C 
HETATM   16  C23 UNL     1      -7.957  45.774 -22.489  1.00  0.00     0.135 C 
HETATM   17  O2  UNL     1      -8.785  44.942 -22.863  1.00  0.00    -0.297 OA
HETATM   18  C24 UNL     1      -7.560  45.920 -21.006  1.00  0.00     0.018 C 
HETATM   19  C25 UNL     1      -8.745  46.533 -20.251  1.00  0.00     0.023 C 
HETATM   20  C26 UNL     1      -7.321  44.496 -20.456  1.00  0.00     0.023 C 
HETATM   21  C27 UNL     1      -6.241  46.755 -20.936  1.00  0.00     0.020 C 
HETATM   22  C28 UNL     1      -5.602  46.873 -19.552  1.00  0.00     0.090 C 
HETATM   23  C29 UNL     1      -4.238  47.532 -19.635  1.00  0.00     0.157 C 
HETATM   24  O3  UNL     1      -3.464  47.444 -18.683  1.00  0.00    -0.293 OA
ENDROOT
BRANCH   1  25
HETATM   25  C6  UNL     1      -0.282  51.746 -22.412  1.00  0.00    -0.014 C 
HETATM   26  C7  UNL     1       0.343  52.594 -21.289  1.00  0.00     0.010 C 
BRANCH  25  27
HETATM   27  C5  UNL     1      -1.114  52.629 -23.373  1.00  0.00     0.008 C 
BRANCH  27  28
HETATM   28  C4  UNL     1      -0.616  52.968 -24.782  1.00  0.00     0.028 C 
BRANCH  28  29
HETATM   29  C3  UNL     1       0.666  52.304 -25.190  1.00  0.00    -0.013 C 
HETATM   30  C2  UNL     1       1.172  52.212 -26.436  1.00  0.00     0.008 C 
HETATM   31  C1  UNL     1       0.520  52.722 -27.685  1.00  0.00     0.055 C 
BRANCH  30  32
HETATM   32  C30 UNL     1       2.482  51.522 -26.571  1.00  0.00     0.171 C 
HETATM   33  O4  UNL     1       2.892  50.597 -25.893  1.00  0.00    -0.646 OA
BRANCH  32  34
HETATM   34  O5  UNL     1       3.229  52.035 -27.562  1.00  0.00    -0.773 OA
HETATM   35  H44 UNL     1       4.046  51.496 -27.531  1.00  0.00     0.167 HD
ENDBRANCH  32  34
ENDBRANCH  30  32
ENDBRANCH  28  29
ENDBRANCH  27  28
ENDBRANCH  25  27
ENDBRANCH   1  25
BRANCH   8  36
HETATM   36  O1  UNL     1      -4.579  48.405 -24.236  1.00  0.00    -0.391 OA
HETATM   37  H22 UNL     1      -3.941  47.677 -24.141  1.00  0.00     0.210 HD
ENDBRANCH   8  36
TORSDOF 7
ENDMDL
