MODEL 1
REMARK minimizedAffinity -10.5210285
REMARK  6 active torsions:
REMARK  status: ('A' for Active; 'I' for Inactive)
REMARK    1  A    between atoms: C3_3  and  O1_4 
REMARK    2  A    between atoms: N1_14  and  O2_16 
REMARK    3  A    between atoms: O2_16  and  C13_17 
REMARK    4  A    between atoms: C13_17  and  C14_18 
REMARK       I    between atoms: C14_18  and  N2_20 
REMARK    5  A    between atoms: N2_20  and  C15_21 
REMARK    6  A    between atoms: C15_21  and  C17_23 
ROOT
HETATM    1  C1  UNL     1      -8.730   5.725  12.020  1.00  0.00     0.015 C 
HETATM    2  C2  UNL     1      -8.206   5.885  13.089  1.00  0.00    -0.078 C 
HETATM    3  C3  UNL     1      -7.579   6.083  14.414  1.00  0.00     0.128 C 
HETATM    4  C4  UNL     1      -7.702   7.575  14.831  1.00  0.00     0.052 C 
HETATM    5  C5  UNL     1      -6.347   8.239  14.503  1.00  0.00     0.010 C 
HETATM    6  C6  UNL     1      -5.548   7.161  13.773  1.00  0.00     0.002 C 
HETATM    7  C7  UNL     1      -4.019   7.282  13.734  1.00  0.00    -0.004 C 
HETATM    8  C8  UNL     1      -3.582   8.605  13.092  1.00  0.00     0.010 C 
HETATM    9  C9  UNL     1      -2.065   8.714  13.030  1.00  0.00     0.035 C 
HETATM   10  C10 UNL     1      -1.435   7.534  12.326  1.00  0.00    -0.069 C 
HETATM   11  C11 UNL     1      -0.535   7.748  11.351  1.00  0.00     0.030 C 
HETATM   12  C12 UNL     1       0.221   6.637  10.719  1.00  0.00     0.032 C 
HETATM   13  N1  UNL     1       1.056   6.935   9.765  1.00  0.00    -0.271 N 
ATOM     14  H1  UNL     1       1.187   7.875   9.391  1.00  0.00     0.194 HD
HETATM   15  C23 UNL     1       0.019   5.244  11.278  1.00  0.00     0.060 C 
HETATM   16  C24 UNL     1      -1.409   5.067  11.772  1.00  0.00     0.020 C 
HETATM   17  C25 UNL     1      -1.859   6.141  12.806  1.00  0.00    -0.016 C 
HETATM   18  C26 UNL     1      -1.159   5.860  14.155  1.00  0.00     0.020 C 
HETATM   19  C27 UNL     1      -3.430   6.081  12.931  1.00  0.00     0.002 C 
HETATM   20  C28 UNL     1      -3.968   4.717  13.446  1.00  0.00     0.007 C 
HETATM   21  C29 UNL     1      -5.501   4.674  13.579  1.00  0.00     0.014 C 
HETATM   22  C30 UNL     1      -6.035   5.847  14.421  1.00  0.00     0.003 C 
HETATM   23  C31 UNL     1      -5.543   5.660  15.887  1.00  0.00     0.020 C 
ENDROOT
BRANCH   3  24
HETATM   24  O1  UNL     1      -8.259   5.233  15.325  1.00  0.00    -0.377 OA
HETATM   25  H2  UNL     1      -8.126   5.573  16.224  1.00  0.00     0.211 HD
ENDBRANCH   3  24
BRANCH  13  26
HETATM   26  O2  UNL     1       1.752   5.806   9.316  1.00  0.00    -0.271 OA
BRANCH  26  27
HETATM   27  C13 UNL     1       3.011   6.216   8.789  1.00  0.00     0.303 C 
BRANCH  27  28
HETATM   28  C14 UNL     1       3.865   6.849   9.883  1.00  0.00     0.244 C 
HETATM   29  O3  UNL     1       3.731   8.021  10.225  1.00  0.00    -0.271 OA
HETATM   30  N2  UNL     1       4.758   5.987  10.479  1.00  0.00    -0.351 N 
HETATM   31  H16 UNL     1       4.895   5.086  10.031  1.00  0.00     0.163 HD
BRANCH  30  32
HETATM   32  C15 UNL     1       5.706   6.408  11.494  1.00  0.00     0.113 C 
HETATM   33  C16 UNL     1       7.103   5.837  11.233  1.00  0.00     0.037 C 
BRANCH  32  34
HETATM   34  C17 UNL     1       5.714   7.926  11.577  1.00  0.00    -0.036 A 
HETATM   35  C18 UNL     1       4.911   8.578  12.527  1.00  0.00     0.009 A 
HETATM   36  C19 UNL     1       4.885   9.971  12.602  1.00  0.00     0.001 A 
HETATM   37  C20 UNL     1       5.654  10.732  11.726  1.00  0.00     0.000 A 
HETATM   38  C21 UNL     1       6.449  10.102  10.771  1.00  0.00     0.001 A 
HETATM   39  C22 UNL     1       6.476   8.708  10.694  1.00  0.00     0.009 A 
ENDBRANCH  32  34
ENDBRANCH  30  32
ENDBRANCH  27  28
ENDBRANCH  26  27
ENDBRANCH  13  26
TORSDOF 6
ENDMDL
MODEL 2
REMARK minimizedAffinity -10.3351107
REMARK  6 active torsions:
REMARK  status: ('A' for Active; 'I' for Inactive)
REMARK    1  A    between atoms: C3_3  and  O1_4 
REMARK    2  A    between atoms: N1_14  and  O2_16 
REMARK    3  A    between atoms: O2_16  and  C13_17 
REMARK    4  A    between atoms: C13_17  and  C14_18 
REMARK       I    between atoms: C14_18  and  N2_20 
REMARK    5  A    between atoms: N2_20  and  C15_21 
REMARK    6  A    between atoms: C15_21  and  C17_23 
ROOT
HETATM    1  C1  UNL     1       0.054   8.461   8.777  1.00  0.00     0.015 C 
HETATM    2  C2  UNL     1       0.440   8.017   9.825  1.00  0.00    -0.078 C 
HETATM    3  C3  UNL     1       0.934   7.473  11.108  1.00  0.00     0.128 C 
HETATM    4  C4  UNL     1       1.443   6.021  10.897  1.00  0.00     0.052 C 
HETATM    5  C5  UNL     1       0.309   5.082  11.362  1.00  0.00     0.010 C 
HETATM    6  C6  UNL     1      -0.863   6.009  11.677  1.00  0.00     0.002 C 
HETATM    7  C7  UNL     1      -1.968   5.502  12.612  1.00  0.00    -0.004 C 
HETATM    8  C8  UNL     1      -2.610   4.218  12.070  1.00  0.00     0.010 C 
HETATM    9  C9  UNL     1      -3.725   3.729  12.985  1.00  0.00     0.035 C 
HETATM   10  C10 UNL     1      -4.767   4.793  13.236  1.00  0.00    -0.069 C 
HETATM   11  C11 UNL     1      -6.068   4.497  13.078  1.00  0.00     0.030 C 
HETATM   12  C12 UNL     1      -7.145   5.452  13.442  1.00  0.00     0.032 C 
HETATM   13  N1  UNL     1      -8.378   5.088  13.231  1.00  0.00    -0.271 N 
ATOM     14  H1  UNL     1      -8.649   4.211  12.787  1.00  0.00     0.194 HD
HETATM   15  C23 UNL     1      -6.735   6.754  14.099  1.00  0.00     0.060 C 
HETATM   16  C24 UNL     1      -5.389   7.222  13.565  1.00  0.00     0.020 C 
HETATM   17  C25 UNL     1      -4.254   6.164  13.693  1.00  0.00    -0.016 C 
HETATM   18  C26 UNL     1      -3.837   6.055  15.177  1.00  0.00     0.020 C 
HETATM   19  C27 UNL     1      -3.053   6.612  12.773  1.00  0.00     0.002 C 
HETATM   20  C28 UNL     1      -2.432   7.979  13.171  1.00  0.00     0.007 C 
HETATM   21  C29 UNL     1      -1.251   8.399  12.277  1.00  0.00     0.014 C 
HETATM   22  C30 UNL     1      -0.181   7.296  12.187  1.00  0.00     0.003 C 
HETATM   23  C31 UNL     1       0.473   7.135  13.592  1.00  0.00     0.020 C 
ENDROOT
BRANCH   3  24
HETATM   24  O1  UNL     1       1.978   8.330  11.547  1.00  0.00    -0.377 OA
HETATM   25  H2  UNL     1       2.539   7.841  12.168  1.00  0.00     0.211 HD
ENDBRANCH   3  24
BRANCH  13  26
HETATM   26  O2  UNL     1      -9.286   6.051  13.691  1.00  0.00    -0.271 OA
BRANCH  26  27
HETATM   27  C13 UNL     1      -9.941   6.642  12.571  1.00  0.00     0.303 C 
BRANCH  27  28
HETATM   28  C14 UNL     1     -11.199   7.380  13.020  1.00  0.00     0.244 C 
HETATM   29  O3  UNL     1     -11.625   8.370  12.431  1.00  0.00    -0.271 OA
HETATM   30  N2  UNL     1     -11.834   6.815  14.103  1.00  0.00    -0.351 N 
HETATM   31  H16 UNL     1     -11.328   6.092  14.605  1.00  0.00     0.163 HD
BRANCH  30  32
HETATM   32  C15 UNL     1     -13.008   7.400  14.724  1.00  0.00     0.113 C 
HETATM   33  C16 UNL     1     -12.958   8.931  14.691  1.00  0.00     0.037 C 
BRANCH  32  34
HETATM   34  C17 UNL     1     -14.258   6.852  14.054  1.00  0.00    -0.036 A 
HETATM   35  C18 UNL     1     -14.707   7.414  12.849  1.00  0.00     0.009 A 
HETATM   36  C19 UNL     1     -15.867   6.941  12.232  1.00  0.00     0.001 A 
HETATM   37  C20 UNL     1     -16.596   5.908  12.813  1.00  0.00     0.000 A 
HETATM   38  C21 UNL     1     -16.170   5.346  14.015  1.00  0.00     0.001 A 
HETATM   39  C22 UNL     1     -15.010   5.817  14.634  1.00  0.00     0.009 A 
ENDBRANCH  32  34
ENDBRANCH  30  32
ENDBRANCH  27  28
ENDBRANCH  26  27
ENDBRANCH  13  26
TORSDOF 6
ENDMDL
MODEL 3
REMARK minimizedAffinity -10.1044731
REMARK  6 active torsions:
REMARK  status: ('A' for Active; 'I' for Inactive)
REMARK    1  A    between atoms: C3_3  and  O1_4 
REMARK    2  A    between atoms: N1_14  and  O2_16 
REMARK    3  A    between atoms: O2_16  and  C13_17 
REMARK    4  A    between atoms: C13_17  and  C14_18 
REMARK       I    between atoms: C14_18  and  N2_20 
REMARK    5  A    between atoms: N2_20  and  C15_21 
REMARK    6  A    between atoms: C15_21  and  C17_23 
ROOT
HETATM    1  C1  UNL     1       1.884   8.091   7.642  1.00  0.00     0.015 C 
HETATM    2  C2  UNL     1       2.538   7.764   8.595  1.00  0.00    -0.078 C 
HETATM    3  C3  UNL     1       3.358   7.360   9.758  1.00  0.00     0.128 C 
HETATM    4  C4  UNL     1       3.686   5.844   9.663  1.00  0.00     0.052 C 
HETATM    5  C5  UNL     1       2.686   5.116  10.587  1.00  0.00     0.010 C 
HETATM    6  C6  UNL     1       1.724   6.204  11.059  1.00  0.00     0.002 C 
HETATM    7  C7  UNL     1       0.921   5.966  12.344  1.00  0.00    -0.004 C 
HETATM    8  C8  UNL     1       0.065   4.697  12.236  1.00  0.00     0.010 C 
HETATM    9  C9  UNL     1      -0.753   4.474  13.502  1.00  0.00     0.035 C 
HETATM   10  C10 UNL     1      -1.601   5.673  13.853  1.00  0.00    -0.069 C 
HETATM   11  C11 UNL     1      -2.906   5.505  14.127  1.00  0.00     0.030 C 
HETATM   12  C12 UNL     1      -3.760   6.618  14.613  1.00  0.00     0.032 C 
HETATM   13  N1  UNL     1      -5.021   6.368  14.829  1.00  0.00    -0.271 N 
ATOM     14  H1  UNL     1      -5.468   5.471  14.638  1.00  0.00     0.194 HD
HETATM   15  C23 UNL     1      -3.090   7.947  14.892  1.00  0.00     0.060 C 
HETATM   16  C24 UNL     1      -1.939   8.178  13.923  1.00  0.00     0.020 C 
HETATM   17  C25 UNL     1      -0.888   7.030  13.902  1.00  0.00    -0.016 C 
HETATM   18  C26 UNL     1      -0.053   7.092  15.201  1.00  0.00     0.020 C 
HETATM   19  C27 UNL     1       0.007   7.202  12.614  1.00  0.00     0.002 C 
HETATM   20  C28 UNL     1       0.806   8.535  12.577  1.00  0.00     0.007 C 
HETATM   21  C29 UNL     1       1.688   8.685  11.325  1.00  0.00     0.014 C 
HETATM   22  C30 UNL     1       2.609   7.468  11.124  1.00  0.00     0.003 C 
HETATM   23  C31 UNL     1       3.643   7.440  12.289  1.00  0.00     0.020 C 
ENDROOT
BRANCH   3  24
HETATM   24  O1  UNL     1       4.538   8.149   9.726  1.00  0.00    -0.377 OA
HETATM   25  H2  UNL     1       5.228   7.696  10.236  1.00  0.00     0.211 HD
ENDBRANCH   3  24
BRANCH  13  26
HETATM   26  O2  UNL     1      -5.685   7.482  15.357  1.00  0.00    -0.271 OA
BRANCH  26  27
HETATM   27  C13 UNL     1      -6.887   7.050  15.989  1.00  0.00     0.303 C 
BRANCH  27  28
HETATM   28  C14 UNL     1      -7.810   6.379  14.976  1.00  0.00     0.244 C 
HETATM   29  O3  UNL     1      -8.995   6.681  14.867  1.00  0.00    -0.271 OA
HETATM   30  N2  UNL     1      -7.191   5.449  14.172  1.00  0.00    -0.351 N 
HETATM   31  H16 UNL     1      -6.252   5.167  14.435  1.00  0.00     0.163 HD
BRANCH  30  32
HETATM   32  C15 UNL     1      -7.906   4.653  13.190  1.00  0.00     0.113 C 
HETATM   33  C16 UNL     1      -8.586   5.535  12.139  1.00  0.00     0.037 C 
BRANCH  32  34
HETATM   34  C17 UNL     1      -6.952   3.648  12.565  1.00  0.00    -0.036 A 
HETATM   35  C18 UNL     1      -7.366   2.320  12.372  1.00  0.00     0.009 A 
HETATM   36  C19 UNL     1      -6.497   1.376  11.823  1.00  0.00     0.001 A 
HETATM   37  C20 UNL     1      -5.201   1.743  11.467  1.00  0.00     0.000 A 
HETATM   38  C21 UNL     1      -4.772   3.054  11.661  1.00  0.00     0.001 A 
HETATM   39  C22 UNL     1      -5.640   4.000  12.210  1.00  0.00     0.009 A 
ENDBRANCH  32  34
ENDBRANCH  30  32
ENDBRANCH  27  28
ENDBRANCH  26  27
ENDBRANCH  13  26
TORSDOF 6
ENDMDL
MODEL 4
REMARK minimizedAffinity -9.95772743
REMARK  6 active torsions:
REMARK  status: ('A' for Active; 'I' for Inactive)
REMARK    1  A    between atoms: C3_3  and  O1_4 
REMARK    2  A    between atoms: N1_14  and  O2_16 
REMARK    3  A    between atoms: O2_16  and  C13_17 
REMARK    4  A    between atoms: C13_17  and  C14_18 
REMARK       I    between atoms: C14_18  and  N2_20 
REMARK    5  A    between atoms: N2_20  and  C15_21 
REMARK    6  A    between atoms: C15_21  and  C17_23 
ROOT
HETATM    1  C1  UNL     1      -8.686   5.762  11.779  1.00  0.00     0.015 C 
HETATM    2  C2  UNL     1      -8.193   5.899  12.866  1.00  0.00    -0.078 C 
HETATM    3  C3  UNL     1      -7.604   6.070  14.211  1.00  0.00     0.128 C 
HETATM    4  C4  UNL     1      -7.703   7.560  14.639  1.00  0.00     0.052 C 
HETATM    5  C5  UNL     1      -6.322   8.193  14.361  1.00  0.00     0.010 C 
HETATM    6  C6  UNL     1      -5.527   7.102  13.646  1.00  0.00     0.002 C 
HETATM    7  C7  UNL     1      -3.996   7.185  13.657  1.00  0.00    -0.004 C 
HETATM    8  C8  UNL     1      -3.506   8.502  13.042  1.00  0.00     0.010 C 
HETATM    9  C9  UNL     1      -1.985   8.574  13.028  1.00  0.00     0.035 C 
HETATM   10  C10 UNL     1      -1.363   7.385  12.333  1.00  0.00    -0.069 C 
HETATM   11  C11 UNL     1      -0.427   7.584  11.389  1.00  0.00     0.030 C 
HETATM   12  C12 UNL     1       0.321   6.461  10.770  1.00  0.00     0.032 C 
HETATM   13  N1  UNL     1       1.193   6.747   9.846  1.00  0.00    -0.271 N 
ATOM     14  H1  UNL     1       1.359   7.687   9.486  1.00  0.00     0.194 HD
HETATM   15  C23 UNL     1       0.067   5.068  11.309  1.00  0.00     0.060 C 
HETATM   16  C24 UNL     1      -1.380   4.923  11.756  1.00  0.00     0.020 C 
HETATM   17  C25 UNL     1      -1.836   5.998  12.786  1.00  0.00    -0.016 C 
HETATM   18  C26 UNL     1      -1.186   5.687  14.153  1.00  0.00     0.020 C 
HETATM   19  C27 UNL     1      -3.412   5.976  12.860  1.00  0.00     0.002 C 
HETATM   20  C28 UNL     1      -3.999   4.622  13.344  1.00  0.00     0.007 C 
HETATM   21  C29 UNL     1      -5.536   4.617  13.429  1.00  0.00     0.014 C 
HETATM   22  C30 UNL     1      -6.068   5.795  14.265  1.00  0.00     0.003 C 
HETATM   23  C31 UNL     1      -5.627   5.582  15.744  1.00  0.00     0.020 C 
ENDROOT
BRANCH   3  24
HETATM   24  O1  UNL     1      -8.333   5.228  15.093  1.00  0.00    -0.377 OA
HETATM   25  H2  UNL     1      -8.221   5.556  15.998  1.00  0.00     0.211 HD
ENDBRANCH   3  24
BRANCH  13  26
HETATM   26  O2  UNL     1       1.874   5.604   9.408  1.00  0.00    -0.271 OA
BRANCH  26  27
HETATM   27  C13 UNL     1       3.068   5.455  10.173  1.00  0.00     0.303 C 
BRANCH  27  28
HETATM   28  C14 UNL     1       3.493   6.796  10.763  1.00  0.00     0.244 C 
HETATM   29  O3  UNL     1       3.768   7.766  10.062  1.00  0.00    -0.271 OA
HETATM   30  N2  UNL     1       3.497   6.836  12.140  1.00  0.00    -0.351 N 
HETATM   31  H16 UNL     1       3.398   5.949  12.624  1.00  0.00     0.163 HD
BRANCH  30  32
HETATM   32  C15 UNL     1       3.932   7.996  12.895  1.00  0.00     0.113 C 
HETATM   33  C16 UNL     1       4.193   9.197  11.981  1.00  0.00     0.037 C 
BRANCH  32  34
HETATM   34  C17 UNL     1       2.909   8.308  13.975  1.00  0.00    -0.036 A 
HETATM   35  C18 UNL     1       2.954   7.621  15.198  1.00  0.00     0.009 A 
HETATM   36  C19 UNL     1       2.008   7.875  16.193  1.00  0.00     0.001 A 
HETATM   37  C20 UNL     1       1.001   8.813  15.977  1.00  0.00     0.000 A 
HETATM   38  C21 UNL     1       0.936   9.496  14.764  1.00  0.00     0.001 A 
HETATM   39  C22 UNL     1       1.882   9.243  13.768  1.00  0.00     0.009 A 
ENDBRANCH  32  34
ENDBRANCH  30  32
ENDBRANCH  27  28
ENDBRANCH  26  27
ENDBRANCH  13  26
TORSDOF 6
ENDMDL
MODEL 5
REMARK minimizedAffinity -9.74456215
REMARK  6 active torsions:
REMARK  status: ('A' for Active; 'I' for Inactive)
REMARK    1  A    between atoms: C3_3  and  O1_4 
REMARK    2  A    between atoms: N1_14  and  O2_16 
REMARK    3  A    between atoms: O2_16  and  C13_17 
REMARK    4  A    between atoms: C13_17  and  C14_18 
REMARK       I    between atoms: C14_18  and  N2_20 
REMARK    5  A    between atoms: N2_20  and  C15_21 
REMARK    6  A    between atoms: C15_21  and  C17_23 
ROOT
HETATM    1  C1  UNL     1       0.032   8.526   8.698  1.00  0.00     0.015 C 
HETATM    2  C2  UNL     1       0.368   8.236   9.814  1.00  0.00    -0.078 C 
HETATM    3  C3  UNL     1       0.802   7.882  11.183  1.00  0.00     0.128 C 
HETATM    4  C4  UNL     1       1.393   6.444  11.187  1.00  0.00     0.052 C 
HETATM    5  C5  UNL     1       0.276   5.508  11.697  1.00  0.00     0.010 C 
HETATM    6  C6  UNL     1      -0.957   6.400  11.822  1.00  0.00     0.002 C 
HETATM    7  C7  UNL     1      -2.096   5.950  12.747  1.00  0.00    -0.004 C 
HETATM    8  C8  UNL     1      -2.638   4.576  12.333  1.00  0.00     0.010 C 
HETATM    9  C9  UNL     1      -3.786   4.141  13.234  1.00  0.00     0.035 C 
HETATM   10  C10 UNL     1      -4.892   5.169  13.287  1.00  0.00    -0.069 C 
HETATM   11  C11 UNL     1      -6.165   4.783  13.090  1.00  0.00     0.030 C 
HETATM   12  C12 UNL     1      -7.307   5.715  13.266  1.00  0.00     0.032 C 
HETATM   13  N1  UNL     1      -8.505   5.259  13.030  1.00  0.00    -0.271 N 
ATOM     14  H1  UNL     1      -8.703   4.321  12.684  1.00  0.00     0.194 HD
HETATM   15  C23 UNL     1      -7.005   7.107  13.778  1.00  0.00     0.060 C 
HETATM   16  C24 UNL     1      -5.650   7.581  13.270  1.00  0.00     0.020 C 
HETATM   17  C25 UNL     1      -4.477   6.612  13.598  1.00  0.00    -0.016 C 
HETATM   18  C26 UNL     1      -4.155   6.709  15.106  1.00  0.00     0.020 C 
HETATM   19  C27 UNL     1      -3.241   7.010  12.702  1.00  0.00     0.002 C 
HETATM   20  C28 UNL     1      -2.714   8.448  12.961  1.00  0.00     0.007 C 
HETATM   21  C29 UNL     1      -1.498   8.820  12.094  1.00  0.00     0.014 C 
HETATM   22  C30 UNL     1      -0.372   7.776  12.207  1.00  0.00     0.003 C 
HETATM   23  C31 UNL     1       0.195   7.824  13.658  1.00  0.00     0.020 C 
ENDROOT
BRANCH   3  24
HETATM   24  O1  UNL     1       1.772   8.842  11.572  1.00  0.00    -0.377 OA
HETATM   25  H2  UNL     1       2.314   8.465  12.282  1.00  0.00     0.211 HD
ENDBRANCH   3  24
BRANCH  13  26
HETATM   26  O2  UNL     1      -9.486   6.219  13.310  1.00  0.00    -0.271 OA
BRANCH  26  27
HETATM   27  C13 UNL     1      -9.321   6.673  14.651  1.00  0.00     0.303 C 
BRANCH  27  28
HETATM   28  C14 UNL     1     -10.491   7.562  15.060  1.00  0.00     0.244 C 
HETATM   29  O3  UNL     1     -10.500   8.193  16.114  1.00  0.00    -0.271 OA
HETATM   30  N2  UNL     1     -11.505   7.631  14.131  1.00  0.00    -0.351 N 
HETATM   31  H16 UNL     1     -11.471   6.965  13.365  1.00  0.00     0.163 HD
BRANCH  30  32
HETATM   32  C15 UNL     1     -12.734   8.369  14.356  1.00  0.00     0.113 C 
HETATM   33  C16 UNL     1     -12.795   9.637  13.499  1.00  0.00     0.037 C 
BRANCH  32  34
HETATM   34  C17 UNL     1     -13.923   7.455  14.113  1.00  0.00    -0.036 A 
HETATM   35  C18 UNL     1     -14.986   7.890  13.306  1.00  0.00     0.009 A 
HETATM   36  C19 UNL     1     -16.098   7.075  13.092  1.00  0.00     0.001 A 
HETATM   37  C20 UNL     1     -16.167   5.817  13.685  1.00  0.00     0.000 A 
HETATM   38  C21 UNL     1     -15.126   5.373  14.497  1.00  0.00     0.001 A 
HETATM   39  C22 UNL     1     -14.012   6.188  14.713  1.00  0.00     0.009 A 
ENDBRANCH  32  34
ENDBRANCH  30  32
ENDBRANCH  27  28
ENDBRANCH  26  27
ENDBRANCH  13  26
TORSDOF 6
ENDMDL
MODEL 6
REMARK minimizedAffinity -9.68038654
REMARK  6 active torsions:
REMARK  status: ('A' for Active; 'I' for Inactive)
REMARK    1  A    between atoms: C3_3  and  O1_4 
REMARK    2  A    between atoms: N1_14  and  O2_16 
REMARK    3  A    between atoms: O2_16  and  C13_17 
REMARK    4  A    between atoms: C13_17  and  C14_18 
REMARK       I    between atoms: C14_18  and  N2_20 
REMARK    5  A    between atoms: N2_20  and  C15_21 
REMARK    6  A    between atoms: C15_21  and  C17_23 
ROOT
HETATM    1  C1  UNL     1       6.515   5.359  10.837  1.00  0.00     0.015 C 
HETATM    2  C2  UNL     1       6.515   6.500  11.214  1.00  0.00    -0.078 C 
HETATM    3  C3  UNL     1       6.534   7.905  11.674  1.00  0.00     0.128 C 
HETATM    4  C4  UNL     1       7.297   8.002  13.024  1.00  0.00     0.052 C 
HETATM    5  C5  UNL     1       6.226   8.042  14.135  1.00  0.00     0.010 C 
HETATM    6  C6  UNL     1       4.901   7.813  13.412  1.00  0.00     0.002 C 
HETATM    7  C7  UNL     1       3.605   8.270  14.095  1.00  0.00    -0.004 C 
HETATM    8  C8  UNL     1       3.432   7.600  15.464  1.00  0.00     0.010 C 
HETATM    9  C9  UNL     1       2.133   8.033  16.131  1.00  0.00     0.035 C 
HETATM   10  C10 UNL     1       0.930   7.789  15.250  1.00  0.00    -0.069 C 
HETATM   11  C11 UNL     1      -0.141   7.151  15.754  1.00  0.00     0.030 C 
HETATM   12  C12 UNL     1      -1.404   7.004  14.986  1.00  0.00     0.032 C 
HETATM   13  N1  UNL     1      -2.382   6.349  15.546  1.00  0.00    -0.271 N 
ATOM     14  H1  UNL     1      -2.319   5.890  16.454  1.00  0.00     0.194 HD
HETATM   15  C23 UNL     1      -1.489   7.686  13.637  1.00  0.00     0.060 C 
HETATM   16  C24 UNL     1      -0.129   7.694  12.956  1.00  0.00     0.020 C 
HETATM   17  C25 UNL     1       1.006   8.324  13.815  1.00  0.00    -0.016 C 
HETATM   18  C26 UNL     1       0.810   9.856  13.858  1.00  0.00     0.020 C 
HETATM   19  C27 UNL     1       2.392   7.922  13.176  1.00  0.00     0.002 C 
HETATM   20  C28 UNL     1       2.591   8.446  11.726  1.00  0.00     0.007 C 
HETATM   21  C29 UNL     1       3.952   8.063  11.118  1.00  0.00     0.014 C 
HETATM   22  C30 UNL     1       5.122   8.469  12.032  1.00  0.00     0.003 C 
HETATM   23  C31 UNL     1       5.181  10.025  12.089  1.00  0.00     0.020 C 
ENDROOT
BRANCH   3  24
HETATM   24  O1  UNL     1       7.176   8.664  10.660  1.00  0.00    -0.377 OA
HETATM   25  H2  UNL     1       7.511   9.485  11.053  1.00  0.00     0.211 HD
ENDBRANCH   3  24
BRANCH  13  26
HETATM   26  O2  UNL     1      -3.531   6.355  14.745  1.00  0.00    -0.271 OA
BRANCH  26  27
HETATM   27  C13 UNL     1      -4.590   6.989  15.457  1.00  0.00     0.303 C 
BRANCH  27  28
HETATM   28  C14 UNL     1      -5.901   6.239  15.240  1.00  0.00     0.244 C 
HETATM   29  O3  UNL     1      -6.800   6.232  16.077  1.00  0.00    -0.271 OA
HETATM   30  N2  UNL     1      -6.005   5.618  14.015  1.00  0.00    -0.351 N 
HETATM   31  H16 UNL     1      -5.159   5.560  13.458  1.00  0.00     0.163 HD
BRANCH  30  32
HETATM   32  C15 UNL     1      -7.143   4.800  13.639  1.00  0.00     0.113 C 
HETATM   33  C16 UNL     1      -8.197   5.615  12.883  1.00  0.00     0.037 C 
BRANCH  32  34
HETATM   34  C17 UNL     1      -6.661   3.602  12.838  1.00  0.00    -0.036 A 
HETATM   35  C18 UNL     1      -5.489   3.701  12.071  1.00  0.00     0.009 A 
HETATM   36  C19 UNL     1      -5.043   2.621  11.309  1.00  0.00     0.001 A 
HETATM   37  C20 UNL     1      -5.765   1.430  11.296  1.00  0.00     0.000 A 
HETATM   38  C21 UNL     1      -6.935   1.318  12.043  1.00  0.00     0.001 A 
HETATM   39  C22 UNL     1      -7.383   2.398  12.807  1.00  0.00     0.009 A 
ENDBRANCH  32  34
ENDBRANCH  30  32
ENDBRANCH  27  28
ENDBRANCH  26  27
ENDBRANCH  13  26
TORSDOF 6
ENDMDL
MODEL 7
REMARK minimizedAffinity -9.63211632
REMARK  6 active torsions:
REMARK  status: ('A' for Active; 'I' for Inactive)
REMARK    1  A    between atoms: C3_3  and  O1_4 
REMARK    2  A    between atoms: N1_14  and  O2_16 
REMARK    3  A    between atoms: O2_16  and  C13_17 
REMARK    4  A    between atoms: C13_17  and  C14_18 
REMARK       I    between atoms: C14_18  and  N2_20 
REMARK    5  A    between atoms: N2_20  and  C15_21 
REMARK    6  A    between atoms: C15_21  and  C17_23 
ROOT
HETATM    1  C1  UNL     1      -0.312   8.496   8.966  1.00  0.00     0.015 C 
HETATM    2  C2  UNL     1       0.034   7.976   9.992  1.00  0.00    -0.078 C 
HETATM    3  C3  UNL     1       0.478   7.335  11.248  1.00  0.00     0.128 C 
HETATM    4  C4  UNL     1       0.831   5.846  10.978  1.00  0.00     0.052 C 
HETATM    5  C5  UNL     1      -0.391   5.015  11.422  1.00  0.00     0.010 C 
HETATM    6  C6  UNL     1      -1.458   6.046  11.784  1.00  0.00     0.002 C 
HETATM    7  C7  UNL     1      -2.602   5.621  12.713  1.00  0.00    -0.004 C 
HETATM    8  C8  UNL     1      -3.379   4.433  12.132  1.00  0.00     0.010 C 
HETATM    9  C9  UNL     1      -4.531   4.028  13.042  1.00  0.00     0.035 C 
HETATM   10  C10 UNL     1      -5.454   5.185  13.344  1.00  0.00    -0.069 C 
HETATM   11  C11 UNL     1      -6.781   5.032  13.191  1.00  0.00     0.030 C 
HETATM   12  C12 UNL     1      -7.748   6.080  13.602  1.00  0.00     0.032 C 
HETATM   13  N1  UNL     1      -9.015   5.854  13.393  1.00  0.00    -0.271 N 
ATOM     14  H1  UNL     1      -9.379   5.027  12.920  1.00  0.00     0.194 HD
HETATM   15  C23 UNL     1      -7.200   7.306  14.302  1.00  0.00     0.060 C 
HETATM   16  C24 UNL     1      -5.817   7.651  13.769  1.00  0.00     0.020 C 
HETATM   17  C25 UNL     1      -4.797   6.477  13.845  1.00  0.00    -0.016 C 
HETATM   18  C26 UNL     1      -4.382   6.269  15.319  1.00  0.00     0.020 C 
HETATM   19  C27 UNL     1      -3.564   6.832  12.928  1.00  0.00     0.002 C 
HETATM   20  C28 UNL     1      -2.800   8.111  13.368  1.00  0.00     0.007 C 
HETATM   21  C29 UNL     1      -1.589   8.439  12.476  1.00  0.00     0.014 C 
HETATM   22  C30 UNL     1      -0.641   7.235  12.333  1.00  0.00     0.003 C 
HETATM   23  C31 UNL     1       0.004   6.953  13.723  1.00  0.00     0.020 C 
ENDROOT
BRANCH   3  24
HETATM   24  O1  UNL     1       1.609   8.062  11.706  1.00  0.00    -0.377 OA
HETATM   25  H2  UNL     1       2.121   7.494  12.302  1.00  0.00     0.211 HD
ENDBRANCH   3  24
BRANCH  13  26
HETATM   26  O2  UNL     1      -9.813   6.888  13.898  1.00  0.00    -0.271 OA
BRANCH  26  27
HETATM   27  C13 UNL     1     -10.983   7.007  13.092  1.00  0.00     0.303 C 
BRANCH  27  28
HETATM   28  C14 UNL     1     -11.462   8.455  13.060  1.00  0.00     0.244 C 
HETATM   29  O3  UNL     1     -11.710   9.041  12.010  1.00  0.00    -0.271 OA
HETATM   30  N2  UNL     1     -11.635   9.025  14.301  1.00  0.00    -0.351 N 
HETATM   31  H16 UNL     1     -11.266   8.513  15.096  1.00  0.00     0.163 HD
BRANCH  30  32
HETATM   32  C15 UNL     1     -12.021  10.412  14.486  1.00  0.00     0.113 C 
HETATM   33  C16 UNL     1     -13.532  10.601  14.326  1.00  0.00     0.037 C 
BRANCH  32  34
HETATM   34  C17 UNL     1     -11.521  10.898  15.837  1.00  0.00    -0.036 A 
HETATM   35  C18 UNL     1     -10.945  12.173  15.951  1.00  0.00     0.009 A 
HETATM   36  C19 UNL     1     -10.458  12.628  17.177  1.00  0.00     0.001 A 
HETATM   37  C20 UNL     1     -10.533  11.814  18.304  1.00  0.00     0.000 A 
HETATM   38  C21 UNL     1     -11.092  10.541  18.206  1.00  0.00     0.001 A 
HETATM   39  C22 UNL     1     -11.580  10.085  16.980  1.00  0.00     0.009 A 
ENDBRANCH  32  34
ENDBRANCH  30  32
ENDBRANCH  27  28
ENDBRANCH  26  27
ENDBRANCH  13  26
TORSDOF 6
ENDMDL
MODEL 8
REMARK minimizedAffinity -9.38468361
REMARK  6 active torsions:
REMARK  status: ('A' for Active; 'I' for Inactive)
REMARK    1  A    between atoms: C3_3  and  O1_4 
REMARK    2  A    between atoms: N1_14  and  O2_16 
REMARK    3  A    between atoms: O2_16  and  C13_17 
REMARK    4  A    between atoms: C13_17  and  C14_18 
REMARK       I    between atoms: C14_18  and  N2_20 
REMARK    5  A    between atoms: N2_20  and  C15_21 
REMARK    6  A    between atoms: C15_21  and  C17_23 
ROOT
HETATM    1  C1  UNL     1       6.878   5.798  11.013  1.00  0.00     0.015 C 
HETATM    2  C2  UNL     1       6.730   6.922  11.412  1.00  0.00    -0.078 C 
HETATM    3  C3  UNL     1       6.565   8.308  11.899  1.00  0.00     0.128 C 
HETATM    4  C4  UNL     1       7.221   8.449  13.301  1.00  0.00     0.052 C 
HETATM    5  C5  UNL     1       6.079   8.345  14.335  1.00  0.00     0.010 C 
HETATM    6  C6  UNL     1       4.838   7.996  13.516  1.00  0.00     0.002 C 
HETATM    7  C7  UNL     1       3.457   8.294  14.115  1.00  0.00    -0.004 C 
HETATM    8  C8  UNL     1       3.265   7.573  15.455  1.00  0.00     0.010 C 
HETATM    9  C9  UNL     1       1.885   7.848  16.037  1.00  0.00     0.035 C 
HETATM   10  C10 UNL     1       0.778   7.501  15.070  1.00  0.00    -0.069 C 
HETATM   11  C11 UNL     1      -0.250   6.740  15.485  1.00  0.00     0.030 C 
HETATM   12  C12 UNL     1      -1.435   6.479  14.628  1.00  0.00     0.032 C 
HETATM   13  N1  UNL     1      -2.372   5.709  15.104  1.00  0.00    -0.271 N 
ATOM     14  H1  UNL     1      -2.321   5.235  16.005  1.00  0.00     0.194 HD
HETATM   15  C23 UNL     1      -1.501   7.185  13.290  1.00  0.00     0.060 C 
HETATM   16  C24 UNL     1      -0.107   7.356  12.705  1.00  0.00     0.020 C 
HETATM   17  C25 UNL     1       0.893   8.080  13.654  1.00  0.00    -0.016 C 
HETATM   18  C26 UNL     1       0.531   9.580  13.714  1.00  0.00     0.020 C 
HETATM   19  C27 UNL     1       2.354   7.845  13.106  1.00  0.00     0.002 C 
HETATM   20  C28 UNL     1       2.593   8.426  11.685  1.00  0.00     0.007 C 
HETATM   21  C29 UNL     1       4.025   8.206  11.167  1.00  0.00     0.014 C 
HETATM   22  C30 UNL     1       5.080   8.709  12.168  1.00  0.00     0.003 C 
HETATM   23  C31 UNL     1       4.967  10.260  12.259  1.00  0.00     0.020 C 
ENDROOT
BRANCH   3  24
HETATM   24  O1  UNL     1       7.189   9.158  10.948  1.00  0.00    -0.377 OA
HETATM   25  H2  UNL     1       7.406   9.999  11.379  1.00  0.00     0.211 HD
ENDBRANCH   3  24
BRANCH  13  26
HETATM   26  O2  UNL     1      -3.458   5.615  14.225  1.00  0.00    -0.271 OA
BRANCH  26  27
HETATM   27  C13 UNL     1      -3.257   4.500  13.359  1.00  0.00     0.303 C 
BRANCH  27  28
HETATM   28  C14 UNL     1      -4.530   4.200  12.574  1.00  0.00     0.244 C 
HETATM   29  O3  UNL     1      -4.508   3.812  11.409  1.00  0.00    -0.271 OA
HETATM   30  N2  UNL     1      -5.694   4.357  13.295  1.00  0.00    -0.351 N 
HETATM   31  H16 UNL     1      -5.616   4.817  14.196  1.00  0.00     0.163 HD
BRANCH  30  32
HETATM   32  C15 UNL     1      -7.012   4.185  12.713  1.00  0.00     0.113 C 
HETATM   33  C16 UNL     1      -7.522   2.751  12.887  1.00  0.00     0.037 C 
BRANCH  32  34
HETATM   34  C17 UNL     1      -7.964   5.208  13.309  1.00  0.00    -0.036 A 
HETATM   35  C18 UNL     1      -7.764   5.667  14.621  1.00  0.00     0.009 A 
HETATM   36  C19 UNL     1      -8.641   6.588  15.195  1.00  0.00     0.001 A 
HETATM   37  C20 UNL     1      -9.734   7.058  14.471  1.00  0.00     0.000 A 
HETATM   38  C21 UNL     1      -9.953   6.605  13.172  1.00  0.00     0.001 A 
HETATM   39  C22 UNL     1      -9.076   5.684  12.595  1.00  0.00     0.009 A 
ENDBRANCH  32  34
ENDBRANCH  30  32
ENDBRANCH  27  28
ENDBRANCH  26  27
ENDBRANCH  13  26
TORSDOF 6
ENDMDL
MODEL 9
REMARK minimizedAffinity -9.37401676
REMARK  6 active torsions:
REMARK  status: ('A' for Active; 'I' for Inactive)
REMARK    1  A    between atoms: C3_3  and  O1_4 
REMARK    2  A    between atoms: N1_14  and  O2_16 
REMARK    3  A    between atoms: O2_16  and  C13_17 
REMARK    4  A    between atoms: C13_17  and  C14_18 
REMARK       I    between atoms: C14_18  and  N2_20 
REMARK    5  A    between atoms: N2_20  and  C15_21 
REMARK    6  A    between atoms: C15_21  and  C17_23 
ROOT
HETATM    1  C1  UNL     1      -0.202   8.471  10.143  1.00  0.00     0.015 C 
HETATM    2  C2  UNL     1      -0.043   7.775  11.110  1.00  0.00    -0.078 C 
HETATM    3  C3  UNL     1       0.171   6.918  12.296  1.00  0.00     0.128 C 
HETATM    4  C4  UNL     1       0.408   5.451  11.843  1.00  0.00     0.052 C 
HETATM    5  C5  UNL     1      -0.938   4.713  12.013  1.00  0.00     0.010 C 
HETATM    6  C6  UNL     1      -1.935   5.800  12.406  1.00  0.00     0.002 C 
HETATM    7  C7  UNL     1      -3.226   5.385  13.125  1.00  0.00    -0.004 C 
HETATM    8  C8  UNL     1      -4.034   4.388  12.284  1.00  0.00     0.010 C 
HETATM    9  C9  UNL     1      -5.328   3.996  12.986  1.00  0.00     0.035 C 
HETATM   10  C10 UNL     1      -6.164   5.199  13.355  1.00  0.00    -0.069 C 
HETATM   11  C11 UNL     1      -7.469   5.224  13.031  1.00  0.00     0.030 C 
HETATM   12  C12 UNL     1      -8.374   6.310  13.487  1.00  0.00     0.032 C 
HETATM   13  N1  UNL     1      -9.618   6.264  13.104  1.00  0.00    -0.271 N 
ATOM     14  H1  UNL     1      -9.998   5.559  12.472  1.00  0.00     0.194 HD
HETATM   15  C23 UNL     1      -7.802   7.354  14.422  1.00  0.00     0.060 C 
HETATM   16  C24 UNL     1      -6.335   7.607  14.108  1.00  0.00     0.020 C 
HETATM   17  C25 UNL     1      -5.454   6.324  14.119  1.00  0.00    -0.016 C 
HETATM   18  C26 UNL     1      -5.255   5.865  15.581  1.00  0.00     0.020 C 
HETATM   19  C27 UNL     1      -4.084   6.658  13.411  1.00  0.00     0.002 C 
HETATM   20  C28 UNL     1      -3.261   7.765  14.126  1.00  0.00     0.007 C 
HETATM   21  C29 UNL     1      -1.919   8.072  13.437  1.00  0.00     0.014 C 
HETATM   22  C30 UNL     1      -1.083   6.798  13.219  1.00  0.00     0.003 C 
HETATM   23  C31 UNL     1      -0.653   6.251  14.614  1.00  0.00     0.020 C 
ENDROOT
BRANCH   3  24
HETATM   24  O1  UNL     1       1.299   7.437  12.984  1.00  0.00    -0.377 OA
HETATM   25  H2  UNL     1       1.672   6.736  13.540  1.00  0.00     0.211 HD
ENDBRANCH   3  24
BRANCH  13  26
HETATM   26  O2  UNL     1     -10.370   7.303  13.668  1.00  0.00    -0.271 OA
BRANCH  26  27
HETATM   27  C13 UNL     1     -11.398   6.743  14.481  1.00  0.00     0.303 C 
BRANCH  27  28
HETATM   28  C14 UNL     1     -12.750   7.352  14.125  1.00  0.00     0.244 C 
HETATM   29  O3  UNL     1     -12.926   8.566  14.057  1.00  0.00    -0.271 OA
HETATM   30  N2  UNL     1     -13.733   6.430  13.843  1.00  0.00    -0.351 N 
HETATM   31  H16 UNL     1     -13.531   5.461  14.067  1.00  0.00     0.163 HD
BRANCH  30  32
HETATM   32  C15 UNL     1     -15.104   6.803  13.547  1.00  0.00     0.113 C 
HETATM   33  C16 UNL     1     -15.231   7.413  12.147  1.00  0.00     0.037 C 
BRANCH  32  34
HETATM   34  C17 UNL     1     -16.006   5.594  13.730  1.00  0.00    -0.036 A 
HETATM   35  C18 UNL     1     -17.104   5.405  12.875  1.00  0.00     0.009 A 
HETATM   36  C19 UNL     1     -17.959   4.315  13.043  1.00  0.00     0.001 A 
HETATM   37  C20 UNL     1     -17.734   3.402  14.070  1.00  0.00     0.000 A 
HETATM   38  C21 UNL     1     -16.655   3.580  14.934  1.00  0.00     0.001 A 
HETATM   39  C22 UNL     1     -15.798   4.671  14.767  1.00  0.00     0.009 A 
ENDBRANCH  32  34
ENDBRANCH  30  32
ENDBRANCH  27  28
ENDBRANCH  26  27
ENDBRANCH  13  26
TORSDOF 6
ENDMDL
