MODEL 1
REMARK minimizedAffinity -10.5047026
REMARK  9 active torsions:
REMARK  status: ('A' for Active; 'I' for Inactive)
REMARK    1  A    between atoms: C2_2  and  C3_3 
REMARK    2  A    between atoms: C2_2  and  C27_31 
REMARK    3  A    between atoms: C3_3  and  C4_4 
REMARK    4  A    between atoms: C4_4  and  C5_5 
REMARK    5  A    between atoms: C5_5  and  C7_7 
REMARK    6  A    between atoms: C22_24  and  O3_26 
REMARK    7  A    between atoms: C26_29  and  O4_30 
REMARK    8  A    between atoms: C27_31  and  C29_33 
REMARK    9  A    between atoms: C29_33  and  O6_35 
ROOT
HETATM    1  C7  UNL     1      -1.689   5.745  12.357  1.00  0.00    -0.002 C 
HETATM    2  C8  UNL     1      -2.170   4.434  11.669  1.00  0.00     0.006 C 
HETATM    3  C9  UNL     1      -3.647   4.248  12.033  1.00  0.00     0.010 C 
HETATM    4  C10 UNL     1      -4.056   5.597  12.620  1.00  0.00     0.027 C 
HETATM    5  C11 UNL     1      -5.361   5.795  13.369  1.00  0.00    -0.036 C 
HETATM    6  C12 UNL     1      -5.516   6.828  14.239  1.00  0.00     0.002 C 
HETATM    7  C13 UNL     1      -4.290   7.648  14.599  1.00  0.00     0.157 C 
HETATM    8  O1  UNL     1      -4.313   8.455  15.526  1.00  0.00    -0.293 OA
HETATM    9  C14 UNL     1      -3.007   7.470  13.806  1.00  0.00     0.093 C 
HETATM   10  C15 UNL     1      -2.799   6.007  13.423  1.00  0.00    -0.026 C 
HETATM   11  C16 UNL     1      -2.582   5.146  14.693  1.00  0.00     0.016 C 
HETATM   12  C17 UNL     1      -6.877   7.183  14.896  1.00  0.00    -0.006 C 
HETATM   13  C18 UNL     1      -6.845   6.564  16.313  1.00  0.00     0.021 C 
HETATM   14  C19 UNL     1      -7.123   8.718  14.999  1.00  0.00     0.022 C 
HETATM   15  C20 UNL     1      -8.497   9.099  15.534  1.00  0.00     0.083 C 
HETATM   16  C21 UNL     1      -9.594   8.467  14.721  1.00  0.00     0.161 C 
HETATM   17  O2  UNL     1     -10.574   9.129  14.371  1.00  0.00    -0.295 OA
HETATM   18  C22 UNL     1      -9.481   6.954  14.461  1.00  0.00     0.119 C 
HETATM   19  C23 UNL     1     -10.541   6.541  13.426  1.00  0.00     0.055 C 
HETATM   20  C24 UNL     1      -8.040   6.629  13.975  1.00  0.00     0.043 C 
HETATM   21  C25 UNL     1      -7.825   5.135  13.717  1.00  0.00     0.045 C 
HETATM   22  C26 UNL     1      -6.503   4.879  12.994  1.00  0.00     0.148 C 
ENDROOT
BRANCH   1  23
HETATM   23  C5  UNL     1      -0.201   5.657  12.812  1.00  0.00    -0.014 C 
HETATM   24  C6  UNL     1      -0.036   6.052  14.283  1.00  0.00     0.010 C 
BRANCH  23  25
HETATM   25  C4  UNL     1       0.705   6.566  11.933  1.00  0.00     0.009 C 
BRANCH  25  26
HETATM   26  C3  UNL     1       0.731   6.198  10.437  1.00  0.00     0.034 C 
BRANCH  26  27
HETATM   27  C2  UNL     1       0.944   7.327   9.448  1.00  0.00    -0.075 C 
HETATM   28  C1  UNL     1       0.106   8.382   9.430  1.00  0.00     0.015 C 
BRANCH  27  29
HETATM   29  C27 UNL     1       2.178   7.301   8.548  1.00  0.00     0.107 C 
HETATM   30  C28 UNL     1       1.834   7.247   7.059  1.00  0.00     0.026 C 
BRANCH  29  31
HETATM   31  C29 UNL     1       3.124   6.160   8.931  1.00  0.00     0.147 C 
HETATM   32  O5  UNL     1       3.998   6.162   9.782  1.00  0.00    -0.650 OA
BRANCH  31  33
HETATM   33  O6  UNL     1       2.950   5.060   8.166  1.00  0.00    -0.776 OA
HETATM   34  H42 UNL     1       3.632   4.439   8.498  1.00  0.00     0.167 HD
ENDBRANCH  31  33
ENDBRANCH  29  31
ENDBRANCH  27  29
ENDBRANCH  26  27
ENDBRANCH  25  26
ENDBRANCH  23  25
ENDBRANCH   1  23
BRANCH  22  35
HETATM   35  O4  UNL     1      -6.144   3.528  13.257  1.00  0.00    -0.391 OA
HETATM   36  H37 UNL     1      -5.918   3.467  14.201  1.00  0.00     0.210 HD
ENDBRANCH  22  35
BRANCH  18  37
HETATM   37  O3  UNL     1      -9.768   6.247  15.664  1.00  0.00    -0.382 OA
HETATM   38  H32 UNL     1     -10.700   6.426  15.893  1.00  0.00     0.211 HD
ENDBRANCH  18  37
TORSDOF 9
ENDMDL
MODEL 2
REMARK minimizedAffinity -10.3106594
REMARK  9 active torsions:
REMARK  status: ('A' for Active; 'I' for Inactive)
REMARK    1  A    between atoms: C2_2  and  C3_3 
REMARK    2  A    between atoms: C2_2  and  C27_31 
REMARK    3  A    between atoms: C3_3  and  C4_4 
REMARK    4  A    between atoms: C4_4  and  C5_5 
REMARK    5  A    between atoms: C5_5  and  C7_7 
REMARK    6  A    between atoms: C22_24  and  O3_26 
REMARK    7  A    between atoms: C26_29  and  O4_30 
REMARK    8  A    between atoms: C27_31  and  C29_33 
REMARK    9  A    between atoms: C29_33  and  O6_35 
ROOT
HETATM    1  C7  UNL     1      -0.002   6.882  11.874  1.00  0.00    -0.002 C 
HETATM    2  C8  UNL     1       0.041   5.476  11.209  1.00  0.00     0.006 C 
HETATM    3  C9  UNL     1      -1.279   4.775  11.547  1.00  0.00     0.010 C 
HETATM    4  C10 UNL     1      -2.162   5.893  12.094  1.00  0.00     0.027 C 
HETATM    5  C11 UNL     1      -3.471   5.618  12.813  1.00  0.00    -0.036 C 
HETATM    6  C12 UNL     1      -4.011   6.539  13.655  1.00  0.00     0.002 C 
HETATM    7  C13 UNL     1      -3.173   7.750  14.019  1.00  0.00     0.157 C 
HETATM    8  O1  UNL     1      -3.510   8.509  14.927  1.00  0.00    -0.293 OA
HETATM    9  C14 UNL     1      -1.891   8.036  13.256  1.00  0.00     0.093 C 
HETATM   10  C15 UNL     1      -1.160   6.741  12.912  1.00  0.00    -0.026 C 
HETATM   11  C16 UNL     1      -0.681   6.035  14.206  1.00  0.00     0.016 C 
HETATM   12  C17 UNL     1      -5.425   6.388  14.277  1.00  0.00    -0.006 C 
HETATM   13  C18 UNL     1      -5.211   5.843  15.708  1.00  0.00     0.021 C 
HETATM   14  C19 UNL     1      -6.211   7.733  14.339  1.00  0.00     0.022 C 
HETATM   15  C20 UNL     1      -7.644   7.599  14.838  1.00  0.00     0.083 C 
HETATM   16  C21 UNL     1      -8.417   6.603  14.018  1.00  0.00     0.161 C 
HETATM   17  O2  UNL     1      -9.560   6.861  13.633  1.00  0.00    -0.295 OA
HETATM   18  C22 UNL     1      -7.759   5.229  13.796  1.00  0.00     0.119 C 
HETATM   19  C23 UNL     1      -8.571   4.445  12.750  1.00  0.00     0.055 C 
HETATM   20  C24 UNL     1      -6.285   5.438  13.346  1.00  0.00     0.043 C 
HETATM   21  C25 UNL     1      -5.540   4.118  13.128  1.00  0.00     0.045 C 
HETATM   22  C26 UNL     1      -4.196   4.347  12.437  1.00  0.00     0.148 C 
ENDROOT
BRANCH   1  23
HETATM   23  C5  UNL     1       1.405   7.344  12.360  1.00  0.00    -0.014 C 
HETATM   24  C6  UNL     1       1.664   8.817  12.025  1.00  0.00     0.010 C 
BRANCH  23  25
HETATM   25  C4  UNL     1       2.527   6.470  11.730  1.00  0.00     0.009 C 
BRANCH  25  26
HETATM   26  C3  UNL     1       3.128   7.033  10.428  1.00  0.00     0.034 C 
BRANCH  26  27
HETATM   27  C2  UNL     1       2.942   6.212   9.167  1.00  0.00    -0.075 C 
HETATM   28  C1  UNL     1       3.530   5.006   9.048  1.00  0.00     0.015 C 
BRANCH  27  29
HETATM   29  C27 UNL     1       1.999   6.725   8.079  1.00  0.00     0.107 C 
HETATM   30  C28 UNL     1       2.379   6.244   6.679  1.00  0.00     0.026 C 
BRANCH  29  31
HETATM   31  C29 UNL     1       1.880   8.251   8.119  1.00  0.00     0.147 C 
HETATM   32  O5  UNL     1       0.961   8.922   8.558  1.00  0.00    -0.650 OA
BRANCH  31  33
HETATM   33  O6  UNL     1       2.934   8.871   7.542  1.00  0.00    -0.776 OA
HETATM   34  H42 UNL     1       2.707   9.822   7.612  1.00  0.00     0.167 HD
ENDBRANCH  31  33
ENDBRANCH  29  31
ENDBRANCH  27  29
ENDBRANCH  26  27
ENDBRANCH  25  26
ENDBRANCH  23  25
ENDBRANCH   1  23
BRANCH  22  35
HETATM   35  O4  UNL     1      -3.381   3.220  12.738  1.00  0.00    -0.391 OA
HETATM   36  H37 UNL     1      -3.174   3.259  13.688  1.00  0.00     0.210 HD
ENDBRANCH  22  35
BRANCH  18  37
HETATM   37  O3  UNL     1      -7.804   4.484  15.009  1.00  0.00    -0.382 OA
HETATM   38  H32 UNL     1      -8.744   4.317  15.216  1.00  0.00     0.211 HD
ENDBRANCH  18  37
TORSDOF 9
ENDMDL
MODEL 3
REMARK minimizedAffinity -9.91160774
REMARK  9 active torsions:
REMARK  status: ('A' for Active; 'I' for Inactive)
REMARK    1  A    between atoms: C2_2  and  C3_3 
REMARK    2  A    between atoms: C2_2  and  C27_31 
REMARK    3  A    between atoms: C3_3  and  C4_4 
REMARK    4  A    between atoms: C4_4  and  C5_5 
REMARK    5  A    between atoms: C5_5  and  C7_7 
REMARK    6  A    between atoms: C22_24  and  O3_26 
REMARK    7  A    between atoms: C26_29  and  O4_30 
REMARK    8  A    between atoms: C27_31  and  C29_33 
REMARK    9  A    between atoms: C29_33  and  O6_35 
ROOT
HETATM    1  C7  UNL     1      -0.051   7.027  12.138  1.00  0.00    -0.002 C 
HETATM    2  C8  UNL     1       0.033   5.633  11.451  1.00  0.00     0.006 C 
HETATM    3  C9  UNL     1      -1.286   4.907  11.737  1.00  0.00     0.010 C 
HETATM    4  C10 UNL     1      -2.203   6.004  12.274  1.00  0.00     0.027 C 
HETATM    5  C11 UNL     1      -3.528   5.697  12.947  1.00  0.00    -0.036 C 
HETATM    6  C12 UNL     1      -4.108   6.596  13.787  1.00  0.00     0.002 C 
HETATM    7  C13 UNL     1      -3.300   7.814  14.196  1.00  0.00     0.157 C 
HETATM    8  O1  UNL     1      -3.677   8.552  15.104  1.00  0.00    -0.293 OA
HETATM    9  C14 UNL     1      -2.000   8.131  13.478  1.00  0.00     0.093 C 
HETATM   10  C15 UNL     1      -1.239   6.853  13.136  1.00  0.00    -0.026 C 
HETATM   11  C16 UNL     1      -0.790   6.133  14.433  1.00  0.00     0.016 C 
HETATM   12  C17 UNL     1      -5.539   6.414  14.361  1.00  0.00    -0.006 C 
HETATM   13  C18 UNL     1      -5.360   5.849  15.789  1.00  0.00     0.021 C 
HETATM   14  C19 UNL     1      -6.346   7.745  14.420  1.00  0.00     0.022 C 
HETATM   15  C20 UNL     1      -7.792   7.583  14.872  1.00  0.00     0.083 C 
HETATM   16  C21 UNL     1      -8.524   6.588  14.013  1.00  0.00     0.161 C 
HETATM   17  O2  UNL     1      -9.658   6.836  13.597  1.00  0.00    -0.295 OA
HETATM   18  C22 UNL     1      -7.838   5.228  13.789  1.00  0.00     0.119 C 
HETATM   19  C23 UNL     1      -8.605   4.450  12.707  1.00  0.00     0.055 C 
HETATM   20  C24 UNL     1      -6.355   5.467  13.390  1.00  0.00     0.043 C 
HETATM   21  C25 UNL     1      -5.583   4.162  13.174  1.00  0.00     0.045 C 
HETATM   22  C26 UNL     1      -4.221   4.421  12.529  1.00  0.00     0.148 C 
ENDROOT
BRANCH   1  23
HETATM   23  C5  UNL     1       1.332   7.502  12.674  1.00  0.00    -0.014 C 
HETATM   24  C6  UNL     1       1.224   8.065  14.096  1.00  0.00     0.010 C 
BRANCH  23  25
HETATM   25  C4  UNL     1       1.951   8.581  11.742  1.00  0.00     0.009 C 
BRANCH  25  26
HETATM   26  C3  UNL     1       1.820   8.285  10.235  1.00  0.00     0.034 C 
BRANCH  26  27
HETATM   27  C2  UNL     1       3.044   7.738   9.527  1.00  0.00    -0.075 C 
HETATM   28  C1  UNL     1       4.250   7.773  10.127  1.00  0.00     0.015 C 
BRANCH  27  29
HETATM   29  C27 UNL     1       2.872   7.055   8.171  1.00  0.00     0.107 C 
HETATM   30  C28 UNL     1       1.582   7.456   7.457  1.00  0.00     0.026 C 
BRANCH  29  31
HETATM   31  C29 UNL     1       2.978   5.533   8.295  1.00  0.00     0.147 C 
HETATM   32  O5  UNL     1       3.330   4.732   7.445  1.00  0.00    -0.650 OA
BRANCH  31  33
HETATM   33  O6  UNL     1       2.574   5.080   9.503  1.00  0.00    -0.776 OA
HETATM   34  H42 UNL     1       2.664   4.107   9.425  1.00  0.00     0.167 HD
ENDBRANCH  31  33
ENDBRANCH  29  31
ENDBRANCH  27  29
ENDBRANCH  26  27
ENDBRANCH  25  26
ENDBRANCH  23  25
ENDBRANCH   1  23
BRANCH  22  35
HETATM   35  O4  UNL     1      -3.399   3.302  12.838  1.00  0.00    -0.391 OA
HETATM   36  H37 UNL     1      -3.222   3.329  13.794  1.00  0.00     0.210 HD
ENDBRANCH  22  35
BRANCH  18  37
HETATM   37  O3  UNL     1      -7.910   4.463  14.989  1.00  0.00    -0.382 OA
HETATM   38  H32 UNL     1      -8.852   4.279  15.164  1.00  0.00     0.211 HD
ENDBRANCH  18  37
TORSDOF 9
ENDMDL
MODEL 4
REMARK minimizedAffinity -9.53821945
REMARK  9 active torsions:
REMARK  status: ('A' for Active; 'I' for Inactive)
REMARK    1  A    between atoms: C2_2  and  C3_3 
REMARK    2  A    between atoms: C2_2  and  C27_31 
REMARK    3  A    between atoms: C3_3  and  C4_4 
REMARK    4  A    between atoms: C4_4  and  C5_5 
REMARK    5  A    between atoms: C5_5  and  C7_7 
REMARK    6  A    between atoms: C22_24  and  O3_26 
REMARK    7  A    between atoms: C26_29  and  O4_30 
REMARK    8  A    between atoms: C27_31  and  C29_33 
REMARK    9  A    between atoms: C29_33  and  O6_35 
ROOT
HETATM    1  C7  UNL     1      -0.017   6.916  11.969  1.00  0.00    -0.002 C 
HETATM    2  C8  UNL     1       0.054   5.513  11.300  1.00  0.00     0.006 C 
HETATM    3  C9  UNL     1      -1.263   4.794  11.615  1.00  0.00     0.010 C 
HETATM    4  C10 UNL     1      -2.169   5.901  12.151  1.00  0.00     0.027 C 
HETATM    5  C11 UNL     1      -3.485   5.608  12.847  1.00  0.00    -0.036 C 
HETATM    6  C12 UNL     1      -4.050   6.520  13.683  1.00  0.00     0.002 C 
HETATM    7  C13 UNL     1      -3.232   7.740  14.065  1.00  0.00     0.157 C 
HETATM    8  O1  UNL     1      -3.593   8.492  14.968  1.00  0.00    -0.293 OA
HETATM    9  C14 UNL     1      -1.942   8.044  13.323  1.00  0.00     0.093 C 
HETATM   10  C15 UNL     1      -1.190   6.758  12.987  1.00  0.00    -0.026 C 
HETATM   11  C16 UNL     1      -0.724   6.054  14.287  1.00  0.00     0.016 C 
HETATM   12  C17 UNL     1      -5.472   6.350  14.281  1.00  0.00    -0.006 C 
HETATM   13  C18 UNL     1      -5.275   5.804  15.714  1.00  0.00     0.021 C 
HETATM   14  C19 UNL     1      -6.275   7.685  14.334  1.00  0.00     0.022 C 
HETATM   15  C20 UNL     1      -7.714   7.533  14.809  1.00  0.00     0.083 C 
HETATM   16  C21 UNL     1      -8.461   6.530  13.975  1.00  0.00     0.161 C 
HETATM   17  O2  UNL     1      -9.601   6.776  13.572  1.00  0.00    -0.295 OA
HETATM   18  C22 UNL     1      -7.783   5.164  13.759  1.00  0.00     0.119 C 
HETATM   19  C23 UNL     1      -8.569   4.374  12.698  1.00  0.00     0.055 C 
HETATM   20  C24 UNL     1      -6.306   5.393  13.334  1.00  0.00     0.043 C 
HETATM   21  C25 UNL     1      -5.541   4.083  13.125  1.00  0.00     0.045 C 
HETATM   22  C26 UNL     1      -4.188   4.329  12.456  1.00  0.00     0.148 C 
ENDROOT
BRANCH   1  23
HETATM   23  C5  UNL     1       1.376   7.393  12.479  1.00  0.00    -0.014 C 
HETATM   24  C6  UNL     1       1.457   8.922  12.558  1.00  0.00     0.010 C 
BRANCH  23  25
HETATM   25  C4  UNL     1       2.516   6.867  11.561  1.00  0.00     0.009 C 
BRANCH  25  26
HETATM   26  C3  UNL     1       3.470   7.954  11.029  1.00  0.00     0.034 C 
BRANCH  26  27
HETATM   27  C2  UNL     1       4.786   8.140  11.759  1.00  0.00    -0.075 C 
HETATM   28  C1  UNL     1       5.198   9.372  12.114  1.00  0.00     0.015 C 
BRANCH  27  29
HETATM   29  C27 UNL     1       5.583   6.905  12.176  1.00  0.00     0.107 C 
HETATM   30  C28 UNL     1       6.437   7.135  13.423  1.00  0.00     0.026 C 
BRANCH  29  31
HETATM   31  C29 UNL     1       6.436   6.376  11.020  1.00  0.00     0.147 C 
HETATM   32  O5  UNL     1       7.267   6.980  10.361  1.00  0.00    -0.650 OA
BRANCH  31  33
HETATM   33  O6  UNL     1       6.155   5.091  10.710  1.00  0.00    -0.776 OA
HETATM   34  H42 UNL     1       6.742   4.905   9.948  1.00  0.00     0.167 HD
ENDBRANCH  31  33
ENDBRANCH  29  31
ENDBRANCH  27  29
ENDBRANCH  26  27
ENDBRANCH  25  26
ENDBRANCH  23  25
ENDBRANCH   1  23
BRANCH  22  35
HETATM   35  O4  UNL     1      -3.365   3.212  12.768  1.00  0.00    -0.391 OA
HETATM   36  H37 UNL     1      -3.174   3.250  13.721  1.00  0.00     0.210 HD
ENDBRANCH  22  35
BRANCH  18  37
HETATM   37  O3  UNL     1      -7.840   4.416  14.969  1.00  0.00    -0.382 OA
HETATM   38  H32 UNL     1      -8.780   4.237  15.160  1.00  0.00     0.211 HD
ENDBRANCH  18  37
TORSDOF 9
ENDMDL
MODEL 5
REMARK minimizedAffinity -9.52180004
REMARK  9 active torsions:
REMARK  status: ('A' for Active; 'I' for Inactive)
REMARK    1  A    between atoms: C2_2  and  C3_3 
REMARK    2  A    between atoms: C2_2  and  C27_31 
REMARK    3  A    between atoms: C3_3  and  C4_4 
REMARK    4  A    between atoms: C4_4  and  C5_5 
REMARK    5  A    between atoms: C5_5  and  C7_7 
REMARK    6  A    between atoms: C22_24  and  O3_26 
REMARK    7  A    between atoms: C26_29  and  O4_30 
REMARK    8  A    between atoms: C27_31  and  C29_33 
REMARK    9  A    between atoms: C29_33  and  O6_35 
ROOT
HETATM    1  C7  UNL     1      -6.381   6.748  13.518  1.00  0.00    -0.002 C 
HETATM    2  C8  UNL     1      -6.274   8.206  14.052  1.00  0.00     0.006 C 
HETATM    3  C9  UNL     1      -4.785   8.573  14.070  1.00  0.00     0.010 C 
HETATM    4  C10 UNL     1      -4.123   7.470  13.247  1.00  0.00     0.027 C 
HETATM    5  C11 UNL     1      -2.619   7.268  13.221  1.00  0.00    -0.036 C 
HETATM    6  C12 UNL     1      -2.083   6.070  12.866  1.00  0.00     0.002 C 
HETATM    7  C13 UNL     1      -3.022   4.888  12.702  1.00  0.00     0.157 C 
HETATM    8  O1  UNL     1      -2.590   3.743  12.588  1.00  0.00    -0.293 OA
HETATM    9  C14 UNL     1      -4.523   5.117  12.682  1.00  0.00     0.093 C 
HETATM   10  C15 UNL     1      -4.922   6.214  13.666  1.00  0.00    -0.026 C 
HETATM   11  C16 UNL     1      -4.626   5.763  15.119  1.00  0.00     0.016 C 
HETATM   12  C17 UNL     1      -0.560   5.856  12.651  1.00  0.00    -0.006 C 
HETATM   13  C18 UNL     1      -0.027   5.217  13.954  1.00  0.00     0.021 C 
HETATM   14  C19 UNL     1      -0.240   4.927  11.441  1.00  0.00     0.022 C 
HETATM   15  C20 UNL     1       1.246   4.789  11.133  1.00  0.00     0.083 C 
HETATM   16  C21 UNL     1       1.886   6.133  10.919  1.00  0.00     0.161 C 
HETATM   17  O2  UNL     1       2.657   6.315   9.974  1.00  0.00    -0.295 OA
HETATM   18  C22 UNL     1       1.622   7.206  11.991  1.00  0.00     0.119 C 
HETATM   19  C23 UNL     1       2.146   8.561  11.487  1.00  0.00     0.055 C 
HETATM   20  C24 UNL     1       0.099   7.252  12.299  1.00  0.00     0.043 C 
HETATM   21  C25 UNL     1      -0.256   8.277  13.380  1.00  0.00     0.045 C 
HETATM   22  C26 UNL     1      -1.767   8.490  13.470  1.00  0.00     0.148 C 
ENDROOT
BRANCH   1  23
HETATM   23  C5  UNL     1      -7.551   5.964  14.185  1.00  0.00    -0.014 C 
HETATM   24  C6  UNL     1      -7.976   4.756  13.342  1.00  0.00     0.010 C 
BRANCH  23  25
HETATM   25  C4  UNL     1      -8.782   6.887  14.413  1.00  0.00     0.009 C 
BRANCH  25  26
HETATM   26  C3  UNL     1      -9.954   6.652  13.440  1.00  0.00     0.034 C 
BRANCH  26  27
HETATM   27  C2  UNL     1     -11.286   7.283  13.794  1.00  0.00    -0.075 C 
HETATM   28  C1  UNL     1     -12.281   6.531  14.304  1.00  0.00     0.015 C 
BRANCH  27  29
HETATM   29  C27 UNL     1     -11.448   8.797  13.662  1.00  0.00     0.107 C 
HETATM   30  C28 UNL     1     -12.002   9.454  14.926  1.00  0.00     0.026 C 
BRANCH  29  31
HETATM   31  C29 UNL     1     -12.296   9.162  12.440  1.00  0.00     0.147 C 
HETATM   32  O5  UNL     1     -13.512   9.165  12.343  1.00  0.00    -0.650 OA
BRANCH  31  33
HETATM   33  O6  UNL     1     -11.546   9.464  11.357  1.00  0.00    -0.776 OA
HETATM   34  H42 UNL     1     -12.211   9.640  10.659  1.00  0.00     0.167 HD
ENDBRANCH  31  33
ENDBRANCH  29  31
ENDBRANCH  27  29
ENDBRANCH  26  27
ENDBRANCH  25  26
ENDBRANCH  23  25
ENDBRANCH   1  23
BRANCH  22  35
HETATM   35  O4  UNL     1      -2.033   9.007  14.769  1.00  0.00    -0.391 OA
HETATM   36  H37 UNL     1      -1.852   8.295  15.406  1.00  0.00     0.210 HD
ENDBRANCH  22  35
BRANCH  18  37
HETATM   37  O3  UNL     1       2.355   6.883  13.169  1.00  0.00    -0.382 OA
HETATM   38  H32 UNL     1       3.304   6.933  12.948  1.00  0.00     0.211 HD
ENDBRANCH  18  37
TORSDOF 9
ENDMDL
MODEL 6
REMARK minimizedAffinity -9.5018425
REMARK  9 active torsions:
REMARK  status: ('A' for Active; 'I' for Inactive)
REMARK    1  A    between atoms: C2_2  and  C3_3 
REMARK    2  A    between atoms: C2_2  and  C27_31 
REMARK    3  A    between atoms: C3_3  and  C4_4 
REMARK    4  A    between atoms: C4_4  and  C5_5 
REMARK    5  A    between atoms: C5_5  and  C7_7 
REMARK    6  A    between atoms: C22_24  and  O3_26 
REMARK    7  A    between atoms: C26_29  and  O4_30 
REMARK    8  A    between atoms: C27_31  and  C29_33 
REMARK    9  A    between atoms: C29_33  and  O6_35 
ROOT
HETATM    1  C7  UNL     1      -1.996   5.565  12.659  1.00  0.00    -0.002 C 
HETATM    2  C8  UNL     1      -1.899   5.686  14.208  1.00  0.00     0.006 C 
HETATM    3  C9  UNL     1      -0.490   6.192  14.535  1.00  0.00     0.010 C 
HETATM    4  C10 UNL     1       0.056   6.663  13.188  1.00  0.00     0.027 C 
HETATM    5  C11 UNL     1       1.522   6.991  12.976  1.00  0.00    -0.036 C 
HETATM    6  C12 UNL     1       2.066   6.978  11.730  1.00  0.00     0.002 C 
HETATM    7  C13 UNL     1       1.228   6.424  10.592  1.00  0.00     0.157 C 
HETATM    8  O1  UNL     1       1.724   6.191   9.491  1.00  0.00    -0.293 OA
HETATM    9  C14 UNL     1      -0.249   6.147  10.810  1.00  0.00     0.093 C 
HETATM   10  C15 UNL     1      -0.500   5.599  12.212  1.00  0.00    -0.026 C 
HETATM   11  C16 UNL     1       0.174   4.213  12.376  1.00  0.00     0.016 C 
HETATM   12  C17 UNL     1       3.507   7.474  11.432  1.00  0.00    -0.006 C 
HETATM   13  C18 UNL     1       4.392   6.209  11.360  1.00  0.00     0.021 C 
HETATM   14  C19 UNL     1       3.613   8.267  10.094  1.00  0.00     0.022 C 
HETATM   15  C20 UNL     1       4.989   8.865   9.828  1.00  0.00     0.083 C 
HETATM   16  C21 UNL     1       5.433   9.740  10.968  1.00  0.00     0.161 C 
HETATM   17  O2  UNL     1       5.936  10.845  10.750  1.00  0.00    -0.295 OA
HETATM   18  C22 UNL     1       5.335   9.140  12.382  1.00  0.00     0.119 C 
HETATM   19  C23 UNL     1       5.596  10.247  13.418  1.00  0.00     0.055 C 
HETATM   20  C24 UNL     1       3.931   8.496  12.564  1.00  0.00     0.043 C 
HETATM   21  C25 UNL     1       3.752   7.845  13.939  1.00  0.00     0.045 C 
HETATM   22  C26 UNL     1       2.293   7.463  14.187  1.00  0.00     0.148 C 
ENDROOT
BRANCH   1  23
HETATM   23  C5  UNL     1      -2.896   4.371  12.219  1.00  0.00    -0.014 C 
HETATM   24  C6  UNL     1      -2.776   4.097  10.716  1.00  0.00     0.010 C 
BRANCH  23  25
HETATM   25  C4  UNL     1      -4.386   4.636  12.574  1.00  0.00     0.009 C 
BRANCH  25  26
HETATM   26  C3  UNL     1      -5.311   3.411  12.437  1.00  0.00     0.034 C 
BRANCH  26  27
HETATM   27  C2  UNL     1      -6.754   3.579  12.869  1.00  0.00    -0.075 C 
HETATM   28  C1  UNL     1      -7.598   2.529  12.843  1.00  0.00     0.015 C 
BRANCH  27  29
HETATM   29  C27 UNL     1      -7.208   4.925  13.431  1.00  0.00     0.107 C 
HETATM   30  C28 UNL     1      -7.366   4.919  14.952  1.00  0.00     0.026 C 
BRANCH  29  31
HETATM   31  C29 UNL     1      -8.491   5.409  12.751  1.00  0.00     0.147 C 
HETATM   32  O5  UNL     1      -8.670   5.652  11.569  1.00  0.00    -0.650 OA
BRANCH  31  33
HETATM   33  O6  UNL     1      -9.498   5.617  13.628  1.00  0.00    -0.776 OA
HETATM   34  H42 UNL     1     -10.229   5.949  13.064  1.00  0.00     0.167 HD
ENDBRANCH  31  33
ENDBRANCH  29  31
ENDBRANCH  27  29
ENDBRANCH  26  27
ENDBRANCH  25  26
ENDBRANCH  23  25
ENDBRANCH   1  23
BRANCH  22  35
HETATM   35  O4  UNL     1       2.297   6.445  15.181  1.00  0.00    -0.391 OA
HETATM   36  H37 UNL     1       2.691   5.651  14.781  1.00  0.00     0.210 HD
ENDBRANCH  22  35
BRANCH  18  37
HETATM   37  O3  UNL     1       6.354   8.158  12.548  1.00  0.00    -0.382 OA
HETATM   38  H32 UNL     1       7.214   8.617  12.495  1.00  0.00     0.211 HD
ENDBRANCH  18  37
TORSDOF 9
ENDMDL
MODEL 7
REMARK minimizedAffinity -9.46133232
REMARK  9 active torsions:
REMARK  status: ('A' for Active; 'I' for Inactive)
REMARK    1  A    between atoms: C2_2  and  C3_3 
REMARK    2  A    between atoms: C2_2  and  C27_31 
REMARK    3  A    between atoms: C3_3  and  C4_4 
REMARK    4  A    between atoms: C4_4  and  C5_5 
REMARK    5  A    between atoms: C5_5  and  C7_7 
REMARK    6  A    between atoms: C22_24  and  O3_26 
REMARK    7  A    between atoms: C26_29  and  O4_30 
REMARK    8  A    between atoms: C27_31  and  C29_33 
REMARK    9  A    between atoms: C29_33  and  O6_35 
ROOT
HETATM    1  C7  UNL     1      -1.642   5.482  13.103  1.00  0.00    -0.002 C 
HETATM    2  C8  UNL     1      -1.607   4.630  11.802  1.00  0.00     0.006 C 
HETATM    3  C9  UNL     1      -0.254   4.888  11.127  1.00  0.00     0.010 C 
HETATM    4  C10 UNL     1       0.566   5.596  12.204  1.00  0.00     0.027 C 
HETATM    5  C11 UNL     1       1.881   6.289  11.899  1.00  0.00    -0.036 C 
HETATM    6  C12 UNL     1       2.366   7.257  12.721  1.00  0.00     0.002 C 
HETATM    7  C13 UNL     1       1.464   7.771  13.828  1.00  0.00     0.157 C 
HETATM    8  O1  UNL     1       1.755   8.778  14.470  1.00  0.00    -0.293 OA
HETATM    9  C14 UNL     1       0.175   7.035  14.151  1.00  0.00     0.093 C 
HETATM   10  C15 UNL     1      -0.485   6.507  12.880  1.00  0.00    -0.026 C 
HETATM   11  C16 UNL     1      -0.937   7.686  11.980  1.00  0.00     0.016 C 
HETATM   12  C17 UNL     1       3.782   7.872  12.557  1.00  0.00    -0.006 C 
HETATM   13  C18 UNL     1       3.585   9.212  11.812  1.00  0.00     0.021 C 
HETATM   14  C19 UNL     1       4.497   8.128  13.918  1.00  0.00     0.022 C 
HETATM   15  C20 UNL     1       5.931   8.625  13.790  1.00  0.00     0.083 C 
HETATM   16  C21 UNL     1       6.760   7.689  12.955  1.00  0.00     0.161 C 
HETATM   17  O2  UNL     1       7.891   7.359  13.321  1.00  0.00    -0.295 OA
HETATM   18  C22 UNL     1       6.176   7.271  11.593  1.00  0.00     0.119 C 
HETATM   19  C23 UNL     1       7.035   6.140  11.003  1.00  0.00     0.055 C 
HETATM   20  C24 UNL     1       4.697   6.833  11.788  1.00  0.00     0.043 C 
HETATM   21  C25 UNL     1       4.022   6.426  10.475  1.00  0.00     0.045 C 
HETATM   22  C26 UNL     1       2.673   5.753  10.729  1.00  0.00     0.148 C 
ENDROOT
BRANCH   1  23
HETATM   23  C5  UNL     1      -3.074   6.006  13.423  1.00  0.00    -0.014 C 
HETATM   24  C6  UNL     1      -3.375   5.948  14.925  1.00  0.00     0.010 C 
BRANCH  23  25
HETATM   25  C4  UNL     1      -4.151   5.190  12.653  1.00  0.00     0.009 C 
BRANCH  25  26
HETATM   26  C3  UNL     1      -5.077   4.341  13.545  1.00  0.00     0.034 C 
BRANCH  26  27
HETATM   27  C2  UNL     1      -6.360   3.826  12.921  1.00  0.00    -0.075 C 
HETATM   28  C1  UNL     1      -6.321   2.852  11.991  1.00  0.00     0.015 C 
BRANCH  27  29
HETATM   29  C27 UNL     1      -7.698   4.355  13.435  1.00  0.00     0.107 C 
HETATM   30  C28 UNL     1      -8.453   5.185  12.398  1.00  0.00     0.026 C 
BRANCH  29  31
HETATM   31  C29 UNL     1      -7.525   5.136  14.740  1.00  0.00     0.147 C 
HETATM   32  O5  UNL     1      -7.119   6.277  14.885  1.00  0.00    -0.650 OA
BRANCH  31  33
HETATM   33  O6  UNL     1      -7.833   4.401  15.831  1.00  0.00    -0.776 OA
HETATM   34  H42 UNL     1      -7.647   5.009  16.578  1.00  0.00     0.167 HD
ENDBRANCH  31  33
ENDBRANCH  29  31
ENDBRANCH  27  29
ENDBRANCH  26  27
ENDBRANCH  25  26
ENDBRANCH  23  25
ENDBRANCH   1  23
BRANCH  22  35
HETATM   35  O4  UNL     1       1.915   5.886   9.532  1.00  0.00    -0.391 OA
HETATM   36  H37 UNL     1       1.699   6.830   9.430  1.00  0.00     0.210 HD
ENDBRANCH  22  35
BRANCH  18  37
HETATM   37  O3  UNL     1       6.251   8.372  10.693  1.00  0.00    -0.382 OA
HETATM   38  H32 UNL     1       7.196   8.568  10.546  1.00  0.00     0.211 HD
ENDBRANCH  18  37
TORSDOF 9
ENDMDL
MODEL 8
REMARK minimizedAffinity -9.3309145
REMARK  9 active torsions:
REMARK  status: ('A' for Active; 'I' for Inactive)
REMARK    1  A    between atoms: C2_2  and  C3_3 
REMARK    2  A    between atoms: C2_2  and  C27_31 
REMARK    3  A    between atoms: C3_3  and  C4_4 
REMARK    4  A    between atoms: C4_4  and  C5_5 
REMARK    5  A    between atoms: C5_5  and  C7_7 
REMARK    6  A    between atoms: C22_24  and  O3_26 
REMARK    7  A    between atoms: C26_29  and  O4_30 
REMARK    8  A    between atoms: C27_31  and  C29_33 
REMARK    9  A    between atoms: C29_33  and  O6_35 
ROOT
HETATM    1  C7  UNL     1      -1.938   5.382  12.145  1.00  0.00    -0.002 C 
HETATM    2  C8  UNL     1      -2.512   4.074  11.526  1.00  0.00     0.006 C 
HETATM    3  C9  UNL     1      -3.976   3.968  11.968  1.00  0.00     0.010 C 
HETATM    4  C10 UNL     1      -4.293   5.352  12.530  1.00  0.00     0.027 C 
HETATM    5  C11 UNL     1      -5.548   5.633  13.336  1.00  0.00    -0.036 C 
HETATM    6  C12 UNL     1      -5.611   6.699  14.178  1.00  0.00     0.002 C 
HETATM    7  C13 UNL     1      -4.333   7.471  14.449  1.00  0.00     0.157 C 
HETATM    8  O1  UNL     1      -4.272   8.307  15.349  1.00  0.00    -0.293 OA
HETATM    9  C14 UNL     1      -3.101   7.210  13.599  1.00  0.00     0.093 C 
HETATM   10  C15 UNL     1      -2.980   5.728  13.255  1.00  0.00    -0.026 C 
HETATM   11  C16 UNL     1      -2.736   4.897  14.541  1.00  0.00     0.016 C 
HETATM   12  C17 UNL     1      -6.920   7.136  14.890  1.00  0.00    -0.006 C 
HETATM   13  C18 UNL     1      -6.843   6.561  16.323  1.00  0.00     0.021 C 
HETATM   14  C19 UNL     1      -7.091   8.684  14.954  1.00  0.00     0.022 C 
HETATM   15  C20 UNL     1      -8.418   9.144  15.544  1.00  0.00     0.083 C 
HETATM   16  C21 UNL     1      -9.581   8.540  14.808  1.00  0.00     0.161 C 
HETATM   17  O2  UNL     1     -10.548   9.235  14.485  1.00  0.00    -0.295 OA
HETATM   18  C22 UNL     1      -9.550   7.015  14.593  1.00  0.00     0.119 C 
HETATM   19  C23 UNL     1     -10.679   6.620  13.626  1.00  0.00     0.055 C 
HETATM   20  C24 UNL     1      -8.152   6.609  14.047  1.00  0.00     0.043 C 
HETATM   21  C25 UNL     1      -8.018   5.099  13.828  1.00  0.00     0.045 C 
HETATM   22  C26 UNL     1      -6.747   4.761  13.049  1.00  0.00     0.148 C 
ENDROOT
BRANCH   1  23
HETATM   23  C5  UNL     1      -0.434   5.239  12.527  1.00  0.00    -0.014 C 
HETATM   24  C6  UNL     1      -0.229   5.299  14.045  1.00  0.00     0.010 C 
BRANCH  23  25
HETATM   25  C4  UNL     1       0.421   6.348  11.851  1.00  0.00     0.009 C 
BRANCH  25  26
HETATM   26  C3  UNL     1       0.778   7.535  12.767  1.00  0.00     0.034 C 
BRANCH  26  27
HETATM   27  C2  UNL     1       2.241   7.725  13.116  1.00  0.00    -0.075 C 
HETATM   28  C1  UNL     1       3.201   7.379  12.237  1.00  0.00     0.015 C 
BRANCH  27  29
HETATM   29  C27 UNL     1       2.606   8.408  14.434  1.00  0.00     0.107 C 
HETATM   30  C28 UNL     1       4.049   8.911  14.469  1.00  0.00     0.026 C 
BRANCH  29  31
HETATM   31  C29 UNL     1       2.315   7.500  15.632  1.00  0.00     0.147 C 
HETATM   32  O5  UNL     1       1.423   7.607  16.457  1.00  0.00    -0.650 OA
BRANCH  31  33
HETATM   33  O6  UNL     1       3.219   6.504  15.762  1.00  0.00    -0.776 OA
HETATM   34  H42 UNL     1       2.929   6.035  16.573  1.00  0.00     0.167 HD
ENDBRANCH  31  33
ENDBRANCH  29  31
ENDBRANCH  27  29
ENDBRANCH  26  27
ENDBRANCH  25  26
ENDBRANCH  23  25
ENDBRANCH   1  23
BRANCH  22  35
HETATM   35  O4  UNL     1      -6.436   3.403  13.338  1.00  0.00    -0.391 OA
HETATM   36  H37 UNL     1      -6.165   3.361  14.272  1.00  0.00     0.210 HD
ENDBRANCH  22  35
BRANCH  18  37
HETATM   37  O3  UNL     1      -9.806   6.361  15.831  1.00  0.00    -0.382 OA
HETATM   38  H32 UNL     1     -10.717   6.589  16.101  1.00  0.00     0.211 HD
ENDBRANCH  18  37
TORSDOF 9
ENDMDL
MODEL 9
REMARK minimizedAffinity -9.2650795
REMARK  9 active torsions:
REMARK  status: ('A' for Active; 'I' for Inactive)
REMARK    1  A    between atoms: C2_2  and  C3_3 
REMARK    2  A    between atoms: C2_2  and  C27_31 
REMARK    3  A    between atoms: C3_3  and  C4_4 
REMARK    4  A    between atoms: C4_4  and  C5_5 
REMARK    5  A    between atoms: C5_5  and  C7_7 
REMARK    6  A    between atoms: C22_24  and  O3_26 
REMARK    7  A    between atoms: C26_29  and  O4_30 
REMARK    8  A    between atoms: C27_31  and  C29_33 
REMARK    9  A    between atoms: C29_33  and  O6_35 
ROOT
HETATM    1  C7  UNL     1      -5.464   7.062  13.350  1.00  0.00    -0.002 C 
HETATM    2  C8  UNL     1      -5.352   8.494  13.951  1.00  0.00     0.006 C 
HETATM    3  C9  UNL     1      -3.862   8.855  13.984  1.00  0.00     0.010 C 
HETATM    4  C10 UNL     1      -3.204   7.790  13.110  1.00  0.00     0.027 C 
HETATM    5  C11 UNL     1      -1.701   7.585  13.072  1.00  0.00    -0.036 C 
HETATM    6  C12 UNL     1      -1.169   6.403  12.662  1.00  0.00     0.002 C 
HETATM    7  C13 UNL     1      -2.111   5.233  12.446  1.00  0.00     0.157 C 
HETATM    8  O1  UNL     1      -1.682   4.093  12.278  1.00  0.00    -0.293 OA
HETATM    9  C14 UNL     1      -3.612   5.466  12.438  1.00  0.00     0.093 C 
HETATM   10  C15 UNL     1      -4.006   6.518  13.472  1.00  0.00    -0.026 C 
HETATM   11  C16 UNL     1      -3.710   6.000  14.903  1.00  0.00     0.016 C 
HETATM   12  C17 UNL     1       0.353   6.195  12.435  1.00  0.00    -0.006 C 
HETATM   13  C18 UNL     1       0.886   5.496  13.707  1.00  0.00     0.021 C 
HETATM   14  C19 UNL     1       0.670   5.322  11.184  1.00  0.00     0.022 C 
HETATM   15  C20 UNL     1       2.154   5.194  10.868  1.00  0.00     0.083 C 
HETATM   16  C21 UNL     1       2.798   6.544  10.715  1.00  0.00     0.161 C 
HETATM   17  O2  UNL     1       3.569   6.768   9.778  1.00  0.00    -0.295 OA
HETATM   18  C22 UNL     1       2.539   7.568  11.836  1.00  0.00     0.119 C 
HETATM   19  C23 UNL     1       3.066   8.943  11.393  1.00  0.00     0.055 C 
HETATM   20  C24 UNL     1       1.016   7.604  12.147  1.00  0.00     0.043 C 
HETATM   21  C25 UNL     1       0.666   8.579  13.275  1.00  0.00     0.045 C 
HETATM   22  C26 UNL     1      -0.845   8.792  13.376  1.00  0.00     0.148 C 
ENDROOT
BRANCH   1  23
HETATM   23  C5  UNL     1      -6.636   6.252  13.982  1.00  0.00    -0.014 C 
HETATM   24  C6  UNL     1      -6.797   6.561  15.475  1.00  0.00     0.010 C 
BRANCH  23  25
HETATM   25  C4  UNL     1      -6.420   4.723  13.796  1.00  0.00     0.009 C 
BRANCH  25  26
HETATM   26  C3  UNL     1      -6.479   4.236  12.336  1.00  0.00     0.034 C 
BRANCH  26  27
HETATM   27  C2  UNL     1      -6.502   2.738  12.105  1.00  0.00    -0.075 C 
HETATM   28  C1  UNL     1      -7.477   1.981  12.643  1.00  0.00     0.015 C 
BRANCH  27  29
HETATM   29  C27 UNL     1      -5.464   2.116  11.171  1.00  0.00     0.107 C 
HETATM   30  C28 UNL     1      -4.175   1.717  11.887  1.00  0.00     0.026 C 
BRANCH  29  31
HETATM   31  C29 UNL     1      -5.167   3.030   9.980  1.00  0.00     0.147 C 
HETATM   32  O5  UNL     1      -5.919   3.355   9.075  1.00  0.00    -0.650 OA
BRANCH  31  33
HETATM   33  O6  UNL     1      -3.886   3.461   9.961  1.00  0.00    -0.776 OA
HETATM   34  H42 UNL     1      -3.837   3.997   9.142  1.00  0.00     0.167 HD
ENDBRANCH  31  33
ENDBRANCH  29  31
ENDBRANCH  27  29
ENDBRANCH  26  27
ENDBRANCH  25  26
ENDBRANCH  23  25
ENDBRANCH   1  23
BRANCH  22  35
HETATM   35  O4  UNL     1      -1.108   9.249  14.698  1.00  0.00    -0.391 OA
HETATM   36  H37 UNL     1      -0.928   8.508  15.302  1.00  0.00     0.210 HD
ENDBRANCH  22  35
BRANCH  18  37
HETATM   37  O3  UNL     1       3.272   7.189  12.997  1.00  0.00    -0.382 OA
HETATM   38  H32 UNL     1       4.221   7.247  12.776  1.00  0.00     0.211 HD
ENDBRANCH  18  37
TORSDOF 9
ENDMDL
