MODEL 1
REMARK minimizedAffinity -9.35433483
REMARK  11 active torsions:
REMARK  status: ('A' for Active; 'I' for Inactive)
REMARK    1  A    between atoms: C2_2  and  C3_3 
REMARK    2  A    between atoms: C2_2  and  C4_5 
REMARK    3  A    between atoms: C3_3  and  O1_4 
REMARK    4  A    between atoms: C13_14  and  C14_15 
REMARK    5  A    between atoms: C14_15  and  C16_17 
REMARK    6  A    between atoms: C16_17  and  C17_18 
REMARK    7  A    between atoms: C17_18  and  C18_20 
REMARK    8  A    between atoms: C27_29  and  C28_30 
REMARK    9  A    between atoms: C28_30  and  C29_31 
REMARK   10  A    between atoms: C29_31  and  C30_32 
REMARK   11  A    between atoms: C30_32  and  O4_34 
ROOT
HETATM    1  C4  UNL     1      -2.376  50.065 -25.107  1.00  0.00     0.025 C 
HETATM    2  C5  UNL     1      -3.466  49.225 -24.421  1.00  0.00     0.010 C 
HETATM    3  C6  UNL     1      -2.896  48.488 -23.214  1.00  0.00     0.007 C 
HETATM    4  C7  UNL     1      -2.558  49.483 -22.098  1.00  0.00     0.004 C 
HETATM    5  C8  UNL     1      -1.594  50.595 -22.588  1.00  0.00    -0.027 A 
HETATM    6  C9  UNL     1      -0.332  50.854 -21.748  1.00  0.00     0.011 C 
HETATM    7  C10 UNL     1      -0.404  50.608 -20.227  1.00  0.00     0.011 C 
HETATM    8  C11 UNL     1      -1.696  49.936 -19.757  1.00  0.00    -0.032 C 
HETATM    9  C12 UNL     1      -2.768  51.051 -19.600  1.00  0.00     0.016 C 
HETATM   10  C13 UNL     1      -1.573  49.121 -18.431  1.00  0.00    -0.002 C 
HETATM   11  C22 UNL     1      -2.720  48.085 -18.531  1.00  0.00     0.006 C 
HETATM   12  C23 UNL     1      -3.168  48.054 -20.006  1.00  0.00     0.011 C 
HETATM   13  C24 UNL     1      -2.076  48.815 -20.784  1.00  0.00    -0.032 C 
HETATM   14  C25 UNL     1      -0.942  47.786 -21.085  1.00  0.00     0.016 C 
HETATM   15  C26 UNL     1      -2.285  51.827 -23.145  1.00  0.00     0.022 A 
HETATM   16  C27 UNL     1      -1.554  50.931 -24.116  1.00  0.00    -0.024 A 
ENDROOT
BRANCH  10  17
HETATM   17  C14 UNL     1      -1.456  49.900 -17.089  1.00  0.00    -0.007 C 
HETATM   18  C15 UNL     1      -2.857  50.367 -16.647  1.00  0.00     0.011 C 
BRANCH  17  19
HETATM   19  C16 UNL     1      -0.524  51.130 -17.110  1.00  0.00     0.087 C 
BRANCH  19  20
HETATM   20  C17 UNL     1       0.720  50.931 -16.255  1.00  0.00     0.149 C 
HETATM   21  O2  UNL     1       0.782  50.051 -15.400  1.00  0.00    -0.293 OA
BRANCH  20  22
HETATM   22  C18 UNL     1       1.873  51.846 -16.536  1.00  0.00     0.052 C 
HETATM   23  C19 UNL     1       2.935  52.048 -15.733  1.00  0.00    -0.084 C 
HETATM   24  C20 UNL     1       3.162  51.343 -14.422  1.00  0.00     0.043 C 
HETATM   25  C21 UNL     1       4.010  53.030 -16.116  1.00  0.00     0.043 C 
ENDBRANCH  20  22
ENDBRANCH  19  20
ENDBRANCH  17  19
ENDBRANCH  10  17
BRANCH  16  26
HETATM   26  C28 UNL     1      -0.282  51.527 -24.738  1.00  0.00     0.021 C 
BRANCH  26  27
HETATM   27  C29 UNL     1      -0.200  53.048 -24.622  1.00  0.00     0.111 C 
BRANCH  27  28
HETATM   28  C30 UNL     1       0.406  53.660 -25.855  1.00  0.00     0.139 C 
HETATM   29  O3  UNL     1       0.086  54.698 -26.406  1.00  0.00    -0.650 OA
BRANCH  28  30
HETATM   30  O4  UNL     1       1.395  52.894 -26.358  1.00  0.00    -0.776 OA
HETATM   31  H46 UNL     1       1.694  53.382 -27.155  1.00  0.00     0.167 HD
ENDBRANCH  28  30
ENDBRANCH  27  28
ENDBRANCH  26  27
ENDBRANCH  16  26
BRANCH   1  32
HETATM   32  C2  UNL     1      -2.965  50.773 -26.335  1.00  0.00    -0.061 C 
HETATM   33  C1  UNL     1      -3.103  52.110 -26.427  1.00  0.00     0.017 C 
BRANCH  32  34
HETATM   34  C3  UNL     1      -3.389  49.834 -27.448  1.00  0.00     0.198 C 
BRANCH  34  35
HETATM   35  O1  UNL     1      -3.462  50.490 -28.705  1.00  0.00    -0.397 OA
HETATM   36  H5  UNL     1      -2.573  50.845 -28.880  1.00  0.00     0.209 HD
ENDBRANCH  34  35
ENDBRANCH  32  34
ENDBRANCH   1  32
TORSDOF 11
ENDMDL
MODEL 2
REMARK minimizedAffinity -9.21401978
REMARK  11 active torsions:
REMARK  status: ('A' for Active; 'I' for Inactive)
REMARK    1  A    between atoms: C2_2  and  C3_3 
REMARK    2  A    between atoms: C2_2  and  C4_5 
REMARK    3  A    between atoms: C3_3  and  O1_4 
REMARK    4  A    between atoms: C13_14  and  C14_15 
REMARK    5  A    between atoms: C14_15  and  C16_17 
REMARK    6  A    between atoms: C16_17  and  C17_18 
REMARK    7  A    between atoms: C17_18  and  C18_20 
REMARK    8  A    between atoms: C27_29  and  C28_30 
REMARK    9  A    between atoms: C28_30  and  C29_31 
REMARK   10  A    between atoms: C29_31  and  C30_32 
REMARK   11  A    between atoms: C30_32  and  O4_34 
ROOT
HETATM    1  C4  UNL     1      -1.792  51.244 -18.483  1.00  0.00     0.025 C 
HETATM    2  C5  UNL     1      -3.208  50.650 -18.570  1.00  0.00     0.010 C 
HETATM    3  C6  UNL     1      -3.908  51.115 -19.842  1.00  0.00     0.007 C 
HETATM    4  C7  UNL     1      -3.254  50.472 -21.071  1.00  0.00     0.004 C 
HETATM    5  C8  UNL     1      -1.730  50.757 -21.128  1.00  0.00    -0.027 A 
HETATM    6  C9  UNL     1      -1.167  51.322 -22.444  1.00  0.00     0.011 C 
HETATM    7  C10 UNL     1      -1.856  50.921 -23.764  1.00  0.00     0.011 C 
HETATM    8  C11 UNL     1      -3.164  50.146 -23.584  1.00  0.00    -0.032 C 
HETATM    9  C12 UNL     1      -2.792  48.654 -23.356  1.00  0.00     0.016 C 
HETATM   10  C13 UNL     1      -4.175  50.272 -24.767  1.00  0.00    -0.002 C 
HETATM   11  C22 UNL     1      -5.548  49.990 -24.106  1.00  0.00     0.006 C 
HETATM   12  C23 UNL     1      -5.348  50.130 -22.584  1.00  0.00     0.011 C 
HETATM   13  C24 UNL     1      -3.969  50.798 -22.408  1.00  0.00    -0.032 C 
HETATM   14  C25 UNL     1      -4.199  52.335 -22.539  1.00  0.00     0.016 C 
HETATM   15  C26 UNL     1      -0.869  49.720 -20.429  1.00  0.00     0.022 A 
HETATM   16  C27 UNL     1      -0.980  51.086 -19.795  1.00  0.00    -0.024 A 
ENDROOT
BRANCH  10  17
HETATM   17  C14 UNL     1      -3.871  49.507 -26.087  1.00  0.00    -0.007 C 
HETATM   18  C15 UNL     1      -4.615  48.158 -26.078  1.00  0.00     0.011 C 
BRANCH  17  19
HETATM   19  C16 UNL     1      -2.380  49.231 -26.370  1.00  0.00     0.087 C 
BRANCH  19  20
HETATM   20  C17 UNL     1      -1.664  50.445 -26.948  1.00  0.00     0.149 C 
HETATM   21  O2  UNL     1      -2.235  51.238 -27.692  1.00  0.00    -0.293 OA
BRANCH  20  22
HETATM   22  C18 UNL     1      -0.236  50.633 -26.535  1.00  0.00     0.052 C 
HETATM   23  C19 UNL     1       0.675  51.398 -27.167  1.00  0.00    -0.084 C 
HETATM   24  C20 UNL     1       0.391  52.235 -28.386  1.00  0.00     0.043 C 
HETATM   25  C21 UNL     1       2.094  51.469 -26.669  1.00  0.00     0.043 C 
ENDBRANCH  20  22
ENDBRANCH  19  20
ENDBRANCH  17  19
ENDBRANCH  10  17
BRANCH  16  26
HETATM   26  C28 UNL     1       0.301  51.935 -19.824  1.00  0.00     0.021 C 
BRANCH  26  27
HETATM   27  C29 UNL     1       0.205  53.156 -20.738  1.00  0.00     0.111 C 
BRANCH  27  28
HETATM   28  C30 UNL     1       1.399  54.055 -20.576  1.00  0.00     0.139 C 
HETATM   29  O3  UNL     1       1.893  54.794 -21.410  1.00  0.00    -0.650 OA
BRANCH  28  30
HETATM   30  O4  UNL     1       1.938  53.955 -19.344  1.00  0.00    -0.776 OA
HETATM   31  H46 UNL     1       2.705  54.566 -19.368  1.00  0.00     0.167 HD
ENDBRANCH  28  30
ENDBRANCH  27  28
ENDBRANCH  26  27
ENDBRANCH  16  26
BRANCH   1  32
HETATM   32  C2  UNL     1      -1.119  50.787 -17.181  1.00  0.00    -0.061 C 
HETATM   33  C1  UNL     1      -1.789  50.232 -16.153  1.00  0.00     0.017 C 
BRANCH  32  34
HETATM   34  C3  UNL     1       0.379  51.018 -17.145  1.00  0.00     0.198 C 
BRANCH  34  35
HETATM   35  O1  UNL     1       0.755  51.950 -16.142  1.00  0.00    -0.397 OA
HETATM   36  H5  UNL     1       0.447  51.580 -15.296  1.00  0.00     0.209 HD
ENDBRANCH  34  35
ENDBRANCH  32  34
ENDBRANCH   1  32
TORSDOF 11
ENDMDL
MODEL 3
REMARK minimizedAffinity -8.94498825
REMARK  11 active torsions:
REMARK  status: ('A' for Active; 'I' for Inactive)
REMARK    1  A    between atoms: C2_2  and  C3_3 
REMARK    2  A    between atoms: C2_2  and  C4_5 
REMARK    3  A    between atoms: C3_3  and  O1_4 
REMARK    4  A    between atoms: C13_14  and  C14_15 
REMARK    5  A    between atoms: C14_15  and  C16_17 
REMARK    6  A    between atoms: C16_17  and  C17_18 
REMARK    7  A    between atoms: C17_18  and  C18_20 
REMARK    8  A    between atoms: C27_29  and  C28_30 
REMARK    9  A    between atoms: C28_30  and  C29_31 
REMARK   10  A    between atoms: C29_31  and  C30_32 
REMARK   11  A    between atoms: C30_32  and  O4_34 
ROOT
HETATM    1  C4  UNL     1      -0.929  51.536 -19.471  1.00  0.00     0.025 C 
HETATM    2  C5  UNL     1      -2.362  51.095 -19.124  1.00  0.00     0.010 C 
HETATM    3  C6  UNL     1      -3.298  51.335 -20.304  1.00  0.00     0.007 C 
HETATM    4  C7  UNL     1      -2.969  50.366 -21.446  1.00  0.00     0.004 C 
HETATM    5  C8  UNL     1      -1.481  50.463 -21.876  1.00  0.00    -0.027 A 
HETATM    6  C9  UNL     1      -1.192  50.653 -23.375  1.00  0.00     0.011 C 
HETATM    7  C10 UNL     1      -2.177  50.042 -24.392  1.00  0.00     0.011 C 
HETATM    8  C11 UNL     1      -3.456  49.475 -23.769  1.00  0.00    -0.032 C 
HETATM    9  C12 UNL     1      -3.129  48.041 -23.266  1.00  0.00     0.016 C 
HETATM   10  C13 UNL     1      -4.695  49.440 -24.719  1.00  0.00    -0.002 C 
HETATM   11  C22 UNL     1      -5.901  49.466 -23.747  1.00  0.00     0.006 C 
HETATM   12  C23 UNL     1      -5.362  49.921 -22.377  1.00  0.00     0.011 C 
HETATM   13  C24 UNL     1      -3.942  50.458 -22.649  1.00  0.00    -0.032 C 
HETATM   14  C25 UNL     1      -4.106  51.942 -23.101  1.00  0.00     0.016 C 
HETATM   15  C26 UNL     1      -0.549  49.523 -21.134  1.00  0.00     0.022 A 
HETATM   16  C27 UNL     1      -0.437  51.000 -20.841  1.00  0.00    -0.024 A 
ENDROOT
BRANCH  10  17
HETATM   17  C14 UNL     1      -4.735  48.369 -25.847  1.00  0.00    -0.007 C 
HETATM   18  C15 UNL     1      -4.009  48.913 -27.093  1.00  0.00     0.011 C 
BRANCH  17  19
HETATM   19  C16 UNL     1      -6.142  47.904 -26.276  1.00  0.00     0.087 C 
BRANCH  19  20
HETATM   20  C17 UNL     1      -6.230  47.621 -27.770  1.00  0.00     0.149 C 
HETATM   21  O2  UNL     1      -5.672  48.337 -28.598  1.00  0.00    -0.293 OA
BRANCH  20  22
HETATM   22  C18 UNL     1      -7.007  46.405 -28.171  1.00  0.00     0.052 C 
HETATM   23  C19 UNL     1      -6.969  45.803 -29.376  1.00  0.00    -0.084 C 
HETATM   24  C20 UNL     1      -6.091  46.237 -30.520  1.00  0.00     0.043 C 
HETATM   25  C21 UNL     1      -7.835  44.606 -29.663  1.00  0.00     0.043 C 
ENDBRANCH  20  22
ENDBRANCH  19  20
ENDBRANCH  17  19
ENDBRANCH  10  17
BRANCH  16  26
HETATM   26  C28 UNL     1       0.852  51.676 -21.332  1.00  0.00     0.021 C 
BRANCH  26  27
HETATM   27  C29 UNL     1       0.614  53.021 -22.018  1.00  0.00     0.111 C 
BRANCH  27  28
HETATM   28  C30 UNL     1       1.426  54.113 -21.377  1.00  0.00     0.139 C 
HETATM   29  O3  UNL     1       1.653  54.274 -20.191  1.00  0.00    -0.650 OA
BRANCH  28  30
HETATM   30  O4  UNL     1       1.903  54.983 -22.291  1.00  0.00    -0.776 OA
HETATM   31  H46 UNL     1       2.393  55.645 -21.757  1.00  0.00     0.167 HD
ENDBRANCH  28  30
ENDBRANCH  27  28
ENDBRANCH  26  27
ENDBRANCH  16  26
BRANCH   1  32
HETATM   32  C2  UNL     1      -0.013  51.313 -18.260  1.00  0.00    -0.061 C 
HETATM   33  C1  UNL     1      -0.171  50.302 -17.384  1.00  0.00     0.017 C 
BRANCH  32  34
HETATM   34  C3  UNL     1       1.097  52.338 -18.126  1.00  0.00     0.198 C 
BRANCH  34  35
HETATM   35  O1  UNL     1       0.789  53.342 -17.170  1.00  0.00    -0.397 OA
HETATM   36  H5  UNL     1       0.649  52.880 -16.325  1.00  0.00     0.209 HD
ENDBRANCH  34  35
ENDBRANCH  32  34
ENDBRANCH   1  32
TORSDOF 11
ENDMDL
MODEL 4
REMARK minimizedAffinity -8.68766975
REMARK  11 active torsions:
REMARK  status: ('A' for Active; 'I' for Inactive)
REMARK    1  A    between atoms: C2_2  and  C3_3 
REMARK    2  A    between atoms: C2_2  and  C4_5 
REMARK    3  A    between atoms: C3_3  and  O1_4 
REMARK    4  A    between atoms: C13_14  and  C14_15 
REMARK    5  A    between atoms: C14_15  and  C16_17 
REMARK    6  A    between atoms: C16_17  and  C17_18 
REMARK    7  A    between atoms: C17_18  and  C18_20 
REMARK    8  A    between atoms: C27_29  and  C28_30 
REMARK    9  A    between atoms: C28_30  and  C29_31 
REMARK   10  A    between atoms: C29_31  and  C30_32 
REMARK   11  A    between atoms: C30_32  and  O4_34 
ROOT
HETATM    1  C4  UNL     1       0.124  51.125 -25.949  1.00  0.00     0.025 C 
HETATM    2  C5  UNL     1      -0.943  50.408 -26.792  1.00  0.00     0.010 C 
HETATM    3  C6  UNL     1      -1.760  49.453 -25.927  1.00  0.00     0.007 C 
HETATM    4  C7  UNL     1      -2.646  50.245 -24.957  1.00  0.00     0.004 C 
HETATM    5  C8  UNL     1      -1.817  51.227 -24.089  1.00  0.00    -0.027 A 
HETATM    6  C9  UNL     1      -2.030  51.174 -22.566  1.00  0.00     0.011 C 
HETATM    7  C10 UNL     1      -3.423  50.773 -22.038  1.00  0.00     0.011 C 
HETATM    8  C11 UNL     1      -4.389  50.279 -23.117  1.00  0.00    -0.032 C 
HETATM    9  C12 UNL     1      -5.029  51.534 -23.775  1.00  0.00     0.016 C 
HETATM   10  C13 UNL     1      -5.505  49.310 -22.613  1.00  0.00    -0.002 C 
HETATM   11  C22 UNL     1      -5.885  48.500 -23.877  1.00  0.00     0.006 C 
HETATM   12  C23 UNL     1      -4.752  48.712 -24.901  1.00  0.00     0.011 C 
HETATM   13  C24 UNL     1      -3.598  49.362 -24.111  1.00  0.00    -0.032 C 
HETATM   14  C25 UNL     1      -2.804  48.197 -23.442  1.00  0.00     0.016 C 
HETATM   15  C26 UNL     1      -1.652  52.613 -24.687  1.00  0.00     0.022 A 
HETATM   16  C27 UNL     1      -0.435  51.722 -24.630  1.00  0.00    -0.024 A 
ENDROOT
BRANCH  10  17
HETATM   17  C14 UNL     1      -6.684  49.902 -21.788  1.00  0.00    -0.007 C 
HETATM   18  C15 UNL     1      -6.277  49.985 -20.304  1.00  0.00     0.011 C 
BRANCH  17  19
HETATM   19  C16 UNL     1      -8.016  49.129 -21.878  1.00  0.00     0.087 C 
BRANCH  19  20
HETATM   20  C17 UNL     1      -8.055  47.927 -20.944  1.00  0.00     0.149 C 
HETATM   21  O2  UNL     1      -7.055  47.248 -20.722  1.00  0.00    -0.293 OA
BRANCH  20  22
HETATM   22  C18 UNL     1      -9.370  47.638 -20.287  1.00  0.00     0.052 C 
HETATM   23  C19 UNL     1      -9.787  48.127 -19.102  1.00  0.00    -0.084 C 
HETATM   24  C20 UNL     1      -9.003  49.091 -18.253  1.00  0.00     0.043 C 
HETATM   25  C21 UNL     1     -11.121  47.723 -18.533  1.00  0.00     0.043 C 
ENDBRANCH  20  22
ENDBRANCH  19  20
ENDBRANCH  17  19
ENDBRANCH  10  17
BRANCH  16  26
HETATM   26  C28 UNL     1       0.662  52.162 -23.648  1.00  0.00     0.021 C 
BRANCH  26  27
HETATM   27  C29 UNL     1       0.773  53.679 -23.496  1.00  0.00     0.111 C 
BRANCH  27  28
HETATM   28  C30 UNL     1       1.217  54.058 -22.110  1.00  0.00     0.139 C 
HETATM   29  O3  UNL     1       0.902  53.533 -21.057  1.00  0.00    -0.650 OA
BRANCH  28  30
HETATM   30  O4  UNL     1       2.040  55.127 -22.124  1.00  0.00    -0.776 OA
HETATM   31  H46 UNL     1       2.244  55.283 -21.177  1.00  0.00     0.167 HD
ENDBRANCH  28  30
ENDBRANCH  27  28
ENDBRANCH  26  27
ENDBRANCH  16  26
BRANCH   1  32
HETATM   32  C2  UNL     1       0.952  52.056 -26.845  1.00  0.00    -0.061 C 
HETATM   33  C1  UNL     1       2.237  51.822 -27.175  1.00  0.00     0.017 C 
BRANCH  32  34
HETATM   34  C3  UNL     1       0.198  53.279 -27.331  1.00  0.00     0.198 C 
BRANCH  34  35
HETATM   35  O1  UNL     1      -0.238  53.142 -28.675  1.00  0.00    -0.397 OA
HETATM   36  H5  UNL     1      -0.813  52.357 -28.697  1.00  0.00     0.209 HD
ENDBRANCH  34  35
ENDBRANCH  32  34
ENDBRANCH   1  32
TORSDOF 11
ENDMDL
MODEL 5
REMARK minimizedAffinity -8.63083839
REMARK  11 active torsions:
REMARK  status: ('A' for Active; 'I' for Inactive)
REMARK    1  A    between atoms: C2_2  and  C3_3 
REMARK    2  A    between atoms: C2_2  and  C4_5 
REMARK    3  A    between atoms: C3_3  and  O1_4 
REMARK    4  A    between atoms: C13_14  and  C14_15 
REMARK    5  A    between atoms: C14_15  and  C16_17 
REMARK    6  A    between atoms: C16_17  and  C17_18 
REMARK    7  A    between atoms: C17_18  and  C18_20 
REMARK    8  A    between atoms: C27_29  and  C28_30 
REMARK    9  A    between atoms: C28_30  and  C29_31 
REMARK   10  A    between atoms: C29_31  and  C30_32 
REMARK   11  A    between atoms: C30_32  and  O4_34 
ROOT
HETATM    1  C4  UNL     1      -2.214  50.232 -25.086  1.00  0.00     0.025 C 
HETATM    2  C5  UNL     1      -3.287  49.421 -24.339  1.00  0.00     0.010 C 
HETATM    3  C6  UNL     1      -2.686  48.732 -23.119  1.00  0.00     0.007 C 
HETATM    4  C7  UNL     1      -2.318  49.770 -22.052  1.00  0.00     0.004 C 
HETATM    5  C8  UNL     1      -1.366  50.860 -22.612  1.00  0.00    -0.027 A 
HETATM    6  C9  UNL     1      -0.082  51.150 -21.815  1.00  0.00     0.011 C 
HETATM    7  C10 UNL     1      -0.114  50.965 -20.285  1.00  0.00     0.011 C 
HETATM    8  C11 UNL     1      -1.395  50.314 -19.755  1.00  0.00    -0.032 C 
HETATM    9  C12 UNL     1      -2.461  51.437 -19.614  1.00  0.00     0.016 C 
HETATM   10  C13 UNL     1      -1.237  49.552 -18.401  1.00  0.00    -0.002 C 
HETATM   11  C22 UNL     1      -2.388  48.515 -18.429  1.00  0.00     0.006 C 
HETATM   12  C23 UNL     1      -2.873  48.426 -19.890  1.00  0.00     0.011 C 
HETATM   13  C24 UNL     1      -1.802  49.154 -20.726  1.00  0.00    -0.032 C 
HETATM   14  C25 UNL     1      -0.678  48.111 -21.015  1.00  0.00     0.016 C 
HETATM   15  C26 UNL     1      -2.070  52.070 -23.198  1.00  0.00     0.022 A 
HETATM   16  C27 UNL     1      -1.366  51.135 -24.152  1.00  0.00    -0.024 A 
ENDROOT
BRANCH  10  17
HETATM   17  C14 UNL     1      -1.085  50.384 -17.095  1.00  0.00    -0.007 C 
HETATM   18  C15 UNL     1       0.411  50.607 -16.803  1.00  0.00     0.011 C 
BRANCH  17  19
HETATM   19  C16 UNL     1      -1.735  49.773 -15.835  1.00  0.00     0.087 C 
BRANCH  19  20
HETATM   20  C17 UNL     1      -2.606  50.774 -15.087  1.00  0.00     0.149 C 
HETATM   21  O2  UNL     1      -3.436  51.469 -15.668  1.00  0.00    -0.293 OA
BRANCH  20  22
HETATM   22  C18 UNL     1      -2.416  50.841 -13.603  1.00  0.00     0.052 C 
HETATM   23  C19 UNL     1      -2.923  51.783 -12.782  1.00  0.00    -0.084 C 
HETATM   24  C20 UNL     1      -3.812  52.913 -13.226  1.00  0.00     0.043 C 
HETATM   25  C21 UNL     1      -2.620  51.757 -11.308  1.00  0.00     0.043 C 
ENDBRANCH  20  22
ENDBRANCH  19  20
ENDBRANCH  17  19
ENDBRANCH  10  17
BRANCH  16  26
HETATM   26  C28 UNL     1      -0.110  51.704 -24.830  1.00  0.00     0.021 C 
BRANCH  26  27
HETATM   27  C29 UNL     1       0.415  50.835 -25.972  1.00  0.00     0.111 C 
BRANCH  27  28
HETATM   28  C30 UNL     1       1.023  51.673 -27.063  1.00  0.00     0.139 C 
HETATM   29  O3  UNL     1       0.583  51.873 -28.181  1.00  0.00    -0.650 OA
BRANCH  28  30
HETATM   30  O4  UNL     1       2.199  52.211 -26.682  1.00  0.00    -0.776 OA
HETATM   31  H46 UNL     1       2.498  52.713 -27.470  1.00  0.00     0.167 HD
ENDBRANCH  28  30
ENDBRANCH  27  28
ENDBRANCH  26  27
ENDBRANCH  16  26
BRANCH   1  32
HETATM   32  C2  UNL     1      -2.835  50.892 -26.325  1.00  0.00    -0.061 C 
HETATM   33  C1  UNL     1      -3.039  52.219 -26.437  1.00  0.00     0.017 C 
BRANCH  32  34
HETATM   34  C3  UNL     1      -3.208  49.917 -27.425  1.00  0.00     0.198 C 
BRANCH  34  35
HETATM   35  O1  UNL     1      -3.346  50.556 -28.686  1.00  0.00    -0.397 OA
HETATM   36  H5  UNL     1      -2.487  50.971 -28.877  1.00  0.00     0.209 HD
ENDBRANCH  34  35
ENDBRANCH  32  34
ENDBRANCH   1  32
TORSDOF 11
ENDMDL
MODEL 6
REMARK minimizedAffinity -8.41223526
REMARK  11 active torsions:
REMARK  status: ('A' for Active; 'I' for Inactive)
REMARK    1  A    between atoms: C2_2  and  C3_3 
REMARK    2  A    between atoms: C2_2  and  C4_5 
REMARK    3  A    between atoms: C3_3  and  O1_4 
REMARK    4  A    between atoms: C13_14  and  C14_15 
REMARK    5  A    between atoms: C14_15  and  C16_17 
REMARK    6  A    between atoms: C16_17  and  C17_18 
REMARK    7  A    between atoms: C17_18  and  C18_20 
REMARK    8  A    between atoms: C27_29  and  C28_30 
REMARK    9  A    between atoms: C28_30  and  C29_31 
REMARK   10  A    between atoms: C29_31  and  C30_32 
REMARK   11  A    between atoms: C30_32  and  O4_34 
ROOT
HETATM    1  C4  UNL     1      -0.143  51.366 -26.326  1.00  0.00     0.025 C 
HETATM    2  C5  UNL     1      -1.296  50.704 -27.100  1.00  0.00     0.010 C 
HETATM    3  C6  UNL     1      -2.025  49.695 -26.219  1.00  0.00     0.007 C 
HETATM    4  C7  UNL     1      -2.802  50.421 -25.114  1.00  0.00     0.004 C 
HETATM    5  C8  UNL     1      -1.882  51.345 -24.273  1.00  0.00    -0.027 A 
HETATM    6  C9  UNL     1      -1.939  51.192 -22.743  1.00  0.00     0.011 C 
HETATM    7  C10 UNL     1      -3.272  50.757 -22.102  1.00  0.00     0.011 C 
HETATM    8  C11 UNL     1      -4.347  50.334 -23.107  1.00  0.00    -0.032 C 
HETATM    9  C12 UNL     1      -5.044  51.629 -23.612  1.00  0.00     0.016 C 
HETATM   10  C13 UNL     1      -5.411  49.334 -22.554  1.00  0.00    -0.002 C 
HETATM   11  C22 UNL     1      -5.924  48.608 -23.823  1.00  0.00     0.006 C 
HETATM   12  C23 UNL     1      -4.901  48.887 -24.941  1.00  0.00     0.011 C 
HETATM   13  C24 UNL     1      -3.668  49.484 -24.234  1.00  0.00    -0.032 C 
HETATM   14  C25 UNL     1      -2.817  48.278 -23.727  1.00  0.00     0.016 C 
HETATM   15  C26 UNL     1      -1.772  52.767 -24.794  1.00  0.00     0.022 A 
HETATM   16  C27 UNL     1      -0.560  51.875 -24.921  1.00  0.00    -0.024 A 
ENDROOT
BRANCH  10  17
HETATM   17  C14 UNL     1      -6.496  49.870 -21.575  1.00  0.00    -0.007 C 
HETATM   18  C15 UNL     1      -5.850  50.160 -20.207  1.00  0.00     0.011 C 
BRANCH  17  19
HETATM   19  C16 UNL     1      -7.708  48.942 -21.348  1.00  0.00     0.087 C 
BRANCH  19  20
HETATM   20  C17 UNL     1      -7.462  47.928 -20.239  1.00  0.00     0.149 C 
HETATM   21  O2  UNL     1      -8.278  47.743 -19.339  1.00  0.00    -0.293 OA
BRANCH  20  22
HETATM   22  C18 UNL     1      -6.186  47.147 -20.323  1.00  0.00     0.052 C 
HETATM   23  C19 UNL     1      -5.988  46.033 -21.055  1.00  0.00    -0.084 C 
HETATM   24  C20 UNL     1      -7.020  45.407 -21.955  1.00  0.00     0.043 C 
HETATM   25  C21 UNL     1      -4.663  45.318 -21.019  1.00  0.00     0.043 C 
ENDBRANCH  20  22
ENDBRANCH  19  20
ENDBRANCH  17  19
ENDBRANCH  10  17
BRANCH  16  26
HETATM   26  C28 UNL     1       0.634  52.251 -24.030  1.00  0.00     0.021 C 
BRANCH  26  27
HETATM   27  C29 UNL     1       0.716  53.743 -23.715  1.00  0.00     0.111 C 
BRANCH  27  28
HETATM   28  C30 UNL     1       1.080  53.979 -22.274  1.00  0.00     0.139 C 
HETATM   29  O3  UNL     1       0.675  53.377 -21.296  1.00  0.00    -0.650 OA
BRANCH  28  30
HETATM   30  O4  UNL     1       1.942  55.008 -22.139  1.00  0.00    -0.776 OA
HETATM   31  H46 UNL     1       2.088  55.071 -21.171  1.00  0.00     0.167 HD
ENDBRANCH  28  30
ENDBRANCH  27  28
ENDBRANCH  26  27
ENDBRANCH  16  26
BRANCH   1  32
HETATM   32  C2  UNL     1       0.594  52.354 -27.240  1.00  0.00    -0.061 C 
HETATM   33  C1  UNL     1       0.067  53.525 -27.646  1.00  0.00     0.017 C 
BRANCH  32  34
HETATM   34  C3  UNL     1       1.978  51.897 -27.658  1.00  0.00     0.198 C 
BRANCH  34  35
HETATM   35  O1  UNL     1       2.916  51.983 -26.595  1.00  0.00    -0.397 OA
HETATM   36  H5  UNL     1       2.572  51.418 -25.881  1.00  0.00     0.209 HD
ENDBRANCH  34  35
ENDBRANCH  32  34
ENDBRANCH   1  32
TORSDOF 11
ENDMDL
MODEL 7
REMARK minimizedAffinity -8.35104656
REMARK  11 active torsions:
REMARK  status: ('A' for Active; 'I' for Inactive)
REMARK    1  A    between atoms: C2_2  and  C3_3 
REMARK    2  A    between atoms: C2_2  and  C4_5 
REMARK    3  A    between atoms: C3_3  and  O1_4 
REMARK    4  A    between atoms: C13_14  and  C14_15 
REMARK    5  A    between atoms: C14_15  and  C16_17 
REMARK    6  A    between atoms: C16_17  and  C17_18 
REMARK    7  A    between atoms: C17_18  and  C18_20 
REMARK    8  A    between atoms: C27_29  and  C28_30 
REMARK    9  A    between atoms: C28_30  and  C29_31 
REMARK   10  A    between atoms: C29_31  and  C30_32 
REMARK   11  A    between atoms: C30_32  and  O4_34 
ROOT
HETATM    1  C4  UNL     1      -6.131  47.616 -24.811  1.00  0.00     0.025 C 
HETATM    2  C5  UNL     1      -6.600  47.709 -23.349  1.00  0.00     0.010 C 
HETATM    3  C6  UNL     1      -5.422  47.545 -22.395  1.00  0.00     0.007 C 
HETATM    4  C7  UNL     1      -4.501  48.769 -22.477  1.00  0.00     0.004 C 
HETATM    5  C8  UNL     1      -4.021  49.034 -23.929  1.00  0.00    -0.027 A 
HETATM    6  C9  UNL     1      -2.509  49.207 -24.150  1.00  0.00     0.011 C 
HETATM    7  C10 UNL     1      -1.669  49.820 -23.011  1.00  0.00     0.011 C 
HETATM    8  C11 UNL     1      -2.431  50.006 -21.696  1.00  0.00    -0.032 C 
HETATM    9  C12 UNL     1      -3.216  51.344 -21.801  1.00  0.00     0.016 C 
HETATM   10  C13 UNL     1      -1.543  50.005 -20.412  1.00  0.00    -0.002 C 
HETATM   11  C22 UNL     1      -2.519  49.564 -19.293  1.00  0.00     0.006 C 
HETATM   12  C23 UNL     1      -3.748  48.947 -19.989  1.00  0.00     0.011 C 
HETATM   13  C24 UNL     1      -3.331  48.746 -21.460  1.00  0.00    -0.032 C 
HETATM   14  C25 UNL     1      -2.582  47.379 -21.527  1.00  0.00     0.016 C 
HETATM   15  C26 UNL     1      -4.919  49.959 -24.730  1.00  0.00     0.022 A 
HETATM   16  C27 UNL     1      -4.892  48.499 -25.114  1.00  0.00    -0.024 A 
ENDROOT
BRANCH  10  17
HETATM   17  C14 UNL     1      -0.666  51.256 -20.115  1.00  0.00    -0.007 C 
HETATM   18  C15 UNL     1       0.485  51.326 -21.136  1.00  0.00     0.011 C 
BRANCH  17  19
HETATM   19  C16 UNL     1      -0.058  51.324 -18.698  1.00  0.00     0.087 C 
BRANCH  19  20
HETATM   20  C17 UNL     1       0.585  52.673 -18.406  1.00  0.00     0.149 C 
HETATM   21  O2  UNL     1       0.009  53.730 -18.654  1.00  0.00    -0.293 OA
BRANCH  20  22
HETATM   22  C18 UNL     1       1.942  52.639 -17.773  1.00  0.00     0.052 C 
HETATM   23  C19 UNL     1       2.200  52.448 -16.464  1.00  0.00    -0.084 C 
HETATM   24  C20 UNL     1       1.150  52.190 -15.416  1.00  0.00     0.043 C 
HETATM   25  C21 UNL     1       3.614  52.477 -15.950  1.00  0.00     0.043 C 
ENDBRANCH  20  22
ENDBRANCH  19  20
ENDBRANCH  17  19
ENDBRANCH  10  17
BRANCH  16  26
HETATM   26  C28 UNL     1      -4.235  48.183 -26.467  1.00  0.00     0.021 C 
BRANCH  26  27
HETATM   27  C29 UNL     1      -3.947  49.424 -27.311  1.00  0.00     0.111 C 
BRANCH  27  28
HETATM   28  C30 UNL     1      -4.197  49.163 -28.771  1.00  0.00     0.139 C 
HETATM   29  O3  UNL     1      -4.615  48.140 -29.283  1.00  0.00    -0.650 OA
BRANCH  28  30
HETATM   30  O4  UNL     1      -3.873  50.228 -29.531  1.00  0.00    -0.776 OA
HETATM   31  H46 UNL     1      -4.062  49.934 -30.448  1.00  0.00     0.167 HD
ENDBRANCH  28  30
ENDBRANCH  27  28
ENDBRANCH  26  27
ENDBRANCH  16  26
BRANCH   1  32
HETATM   32  C2  UNL     1      -7.337  47.754 -25.751  1.00  0.00    -0.061 C 
HETATM   33  C1  UNL     1      -7.325  47.355 -27.037  1.00  0.00     0.017 C 
BRANCH  32  34
HETATM   34  C3  UNL     1      -8.555  48.386 -25.107  1.00  0.00     0.198 C 
BRANCH  34  35
HETATM   35  O1  UNL     1      -8.700  49.754 -25.460  1.00  0.00    -0.397 OA
HETATM   36  H5  UNL     1      -8.776  49.779 -26.429  1.00  0.00     0.209 HD
ENDBRANCH  34  35
ENDBRANCH  32  34
ENDBRANCH   1  32
TORSDOF 11
ENDMDL
MODEL 8
REMARK minimizedAffinity -8.18721199
REMARK  11 active torsions:
REMARK  status: ('A' for Active; 'I' for Inactive)
REMARK    1  A    between atoms: C2_2  and  C3_3 
REMARK    2  A    between atoms: C2_2  and  C4_5 
REMARK    3  A    between atoms: C3_3  and  O1_4 
REMARK    4  A    between atoms: C13_14  and  C14_15 
REMARK    5  A    between atoms: C14_15  and  C16_17 
REMARK    6  A    between atoms: C16_17  and  C17_18 
REMARK    7  A    between atoms: C17_18  and  C18_20 
REMARK    8  A    between atoms: C27_29  and  C28_30 
REMARK    9  A    between atoms: C28_30  and  C29_31 
REMARK   10  A    between atoms: C29_31  and  C30_32 
REMARK   11  A    between atoms: C30_32  and  O4_34 
ROOT
HETATM    1  C4  UNL     1      -3.476  50.247 -25.261  1.00  0.00     0.025 C 
HETATM    2  C5  UNL     1      -2.364  51.279 -25.005  1.00  0.00     0.010 C 
HETATM    3  C6  UNL     1      -2.463  51.835 -23.589  1.00  0.00     0.007 C 
HETATM    4  C7  UNL     1      -2.090  50.753 -22.568  1.00  0.00     0.004 C 
HETATM    5  C8  UNL     1      -2.957  49.477 -22.737  1.00  0.00    -0.027 A 
HETATM    6  C9  UNL     1      -3.650  48.925 -21.479  1.00  0.00     0.011 C 
HETATM    7  C10 UNL     1      -2.959  49.129 -20.115  1.00  0.00     0.011 C 
HETATM    8  C11 UNL     1      -1.734  50.047 -20.160  1.00  0.00    -0.032 C 
HETATM    9  C12 UNL     1      -0.524  49.182 -20.614  1.00  0.00     0.016 C 
HETATM   10  C13 UNL     1      -1.401  50.770 -18.817  1.00  0.00    -0.002 C 
HETATM   11  C22 UNL     1      -0.620  52.031 -19.265  1.00  0.00     0.006 C 
HETATM   12  C23 UNL     1      -0.884  52.207 -20.774  1.00  0.00     0.011 C 
HETATM   13  C24 UNL     1      -2.053  51.256 -21.102  1.00  0.00    -0.032 C 
HETATM   14  C25 UNL     1      -3.365  52.029 -20.762  1.00  0.00     0.016 C 
HETATM   15  C26 UNL     1      -2.377  48.441 -23.683  1.00  0.00     0.022 A 
HETATM   16  C27 UNL     1      -3.607  49.193 -24.131  1.00  0.00    -0.024 A 
ENDROOT
BRANCH  10  17
HETATM   17  C14 UNL     1      -0.772  49.939 -17.662  1.00  0.00    -0.007 C 
HETATM   18  C15 UNL     1      -1.640  48.693 -17.399  1.00  0.00     0.011 C 
BRANCH  17  19
HETATM   19  C16 UNL     1      -0.588  50.687 -16.325  1.00  0.00     0.087 C 
BRANCH  19  20
HETATM   20  C17 UNL     1       0.827  50.555 -15.776  1.00  0.00     0.149 C 
HETATM   21  O2  UNL     1       1.145  49.638 -15.023  1.00  0.00    -0.293 OA
BRANCH  20  22
HETATM   22  C18 UNL     1       1.814  51.586 -16.229  1.00  0.00     0.052 C 
HETATM   23  C19 UNL     1       2.987  51.874 -15.631  1.00  0.00    -0.084 C 
HETATM   24  C20 UNL     1       3.524  51.166 -14.416  1.00  0.00     0.043 C 
HETATM   25  C21 UNL     1       3.873  52.968 -16.168  1.00  0.00     0.043 C 
ENDBRANCH  20  22
ENDBRANCH  19  20
ENDBRANCH  17  19
ENDBRANCH  10  17
BRANCH  16  26
HETATM   26  C28 UNL     1      -4.895  48.359 -24.222  1.00  0.00     0.021 C 
BRANCH  26  27
HETATM   27  C29 UNL     1      -6.155  49.200 -24.423  1.00  0.00     0.111 C 
BRANCH  27  28
HETATM   28  C30 UNL     1      -6.811  49.524 -23.109  1.00  0.00     0.139 C 
HETATM   29  O3  UNL     1      -7.278  48.744 -22.297  1.00  0.00    -0.650 OA
BRANCH  28  30
HETATM   30  O4  UNL     1      -6.868  50.854 -22.893  1.00  0.00    -0.776 OA
HETATM   31  H46 UNL     1      -7.324  50.936 -22.028  1.00  0.00     0.167 HD
ENDBRANCH  28  30
ENDBRANCH  27  28
ENDBRANCH  26  27
ENDBRANCH  16  26
BRANCH   1  32
HETATM   32  C2  UNL     1      -3.375  49.724 -26.701  1.00  0.00    -0.061 C 
HETATM   33  C1  UNL     1      -3.468  48.420 -27.026  1.00  0.00     0.017 C 
BRANCH  32  34
HETATM   34  C3  UNL     1      -3.155  50.807 -27.739  1.00  0.00     0.198 C 
BRANCH  34  35
HETATM   35  O1  UNL     1      -3.583  50.406 -29.033  1.00  0.00    -0.397 OA
HETATM   36  H5  UNL     1      -4.530  50.197 -28.955  1.00  0.00     0.209 HD
ENDBRANCH  34  35
ENDBRANCH  32  34
ENDBRANCH   1  32
TORSDOF 11
ENDMDL
MODEL 9
REMARK minimizedAffinity -8.17916775
REMARK  11 active torsions:
REMARK  status: ('A' for Active; 'I' for Inactive)
REMARK    1  A    between atoms: C2_2  and  C3_3 
REMARK    2  A    between atoms: C2_2  and  C4_5 
REMARK    3  A    between atoms: C3_3  and  O1_4 
REMARK    4  A    between atoms: C13_14  and  C14_15 
REMARK    5  A    between atoms: C14_15  and  C16_17 
REMARK    6  A    between atoms: C16_17  and  C17_18 
REMARK    7  A    between atoms: C17_18  and  C18_20 
REMARK    8  A    between atoms: C27_29  and  C28_30 
REMARK    9  A    between atoms: C28_30  and  C29_31 
REMARK   10  A    between atoms: C29_31  and  C30_32 
REMARK   11  A    between atoms: C30_32  and  O4_34 
ROOT
HETATM    1  C4  UNL     1      -6.335  47.498 -24.568  1.00  0.00     0.025 C 
HETATM    2  C5  UNL     1      -7.057  47.326 -23.221  1.00  0.00     0.010 C 
HETATM    3  C6  UNL     1      -6.075  46.901 -22.135  1.00  0.00     0.007 C 
HETATM    4  C7  UNL     1      -5.121  48.055 -21.803  1.00  0.00     0.004 C 
HETATM    5  C8  UNL     1      -4.380  48.573 -23.064  1.00  0.00    -0.027 A 
HETATM    6  C9  UNL     1      -2.848  48.690 -22.983  1.00  0.00     0.011 C 
HETATM    7  C10 UNL     1      -2.212  49.008 -21.615  1.00  0.00     0.011 C 
HETATM    8  C11 UNL     1      -3.192  48.976 -20.439  1.00  0.00    -0.032 C 
HETATM    9  C12 UNL     1      -3.908  50.355 -20.396  1.00  0.00     0.016 C 
HETATM   10  C13 UNL     1      -2.551  48.662 -19.051  1.00  0.00    -0.002 C 
HETATM   11  C22 UNL     1      -3.724  48.070 -18.232  1.00  0.00     0.006 C 
HETATM   12  C23 UNL     1      -4.824  47.685 -19.240  1.00  0.00     0.011 C 
HETATM   13  C24 UNL     1      -4.155  47.754 -20.628  1.00  0.00    -0.032 C 
HETATM   14  C25 UNL     1      -3.444  46.383 -20.849  1.00  0.00     0.016 C 
HETATM   15  C26 UNL     1      -5.093  49.695 -23.797  1.00  0.00     0.022 A 
HETATM   16  C27 UNL     1      -5.037  48.342 -24.465  1.00  0.00    -0.024 A 
ENDROOT
BRANCH  10  17
HETATM   17  C14 UNL     1      -1.708  49.770 -18.355  1.00  0.00    -0.007 C 
HETATM   18  C15 UNL     1      -2.654  50.822 -17.744  1.00  0.00     0.011 C 
BRANCH  17  19
HETATM   19  C16 UNL     1      -0.694  50.503 -19.258  1.00  0.00     0.087 C 
BRANCH  19  20
HETATM   20  C17 UNL     1       0.146  51.513 -18.487  1.00  0.00     0.149 C 
HETATM   21  O2  UNL     1       0.577  51.270 -17.362  1.00  0.00    -0.293 OA
BRANCH  20  22
HETATM   22  C18 UNL     1       0.442  52.803 -19.188  1.00  0.00     0.052 C 
HETATM   23  C19 UNL     1       0.792  52.937 -20.483  1.00  0.00    -0.084 C 
HETATM   24  C20 UNL     1       0.902  51.798 -21.461  1.00  0.00     0.043 C 
HETATM   25  C21 UNL     1       1.104  54.295 -21.055  1.00  0.00     0.043 C 
ENDBRANCH  20  22
ENDBRANCH  19  20
ENDBRANCH  17  19
ENDBRANCH  10  17
BRANCH  16  26
HETATM   26  C28 UNL     1      -4.156  48.261 -25.722  1.00  0.00     0.021 C 
BRANCH  26  27
HETATM   27  C29 UNL     1      -3.757  49.628 -26.277  1.00  0.00     0.111 C 
BRANCH  27  28
HETATM   28  C30 UNL     1      -3.629  49.593 -27.775  1.00  0.00     0.139 C 
HETATM   29  O3  UNL     1      -3.864  48.659 -28.521  1.00  0.00    -0.650 OA
BRANCH  28  30
HETATM   30  O4  UNL     1      -3.173  50.764 -28.265  1.00  0.00    -0.776 OA
HETATM   31  H46 UNL     1      -3.117  50.613 -29.233  1.00  0.00     0.167 HD
ENDBRANCH  28  30
ENDBRANCH  27  28
ENDBRANCH  26  27
ENDBRANCH  16  26
BRANCH   1  32
HETATM   32  C2  UNL     1      -7.347  47.897 -25.651  1.00  0.00    -0.061 C 
HETATM   33  C1  UNL     1      -7.203  47.586 -26.954  1.00  0.00     0.017 C 
BRANCH  32  34
HETATM   34  C3  UNL     1      -8.534  48.683 -25.129  1.00  0.00     0.198 C 
BRANCH  34  35
HETATM   35  O1  UNL     1      -8.983  49.658 -26.058  1.00  0.00    -0.397 OA
HETATM   36  H5  UNL     1      -9.224  49.175 -26.867  1.00  0.00     0.209 HD
ENDBRANCH  34  35
ENDBRANCH  32  34
ENDBRANCH   1  32
TORSDOF 11
ENDMDL
