MODEL 1
REMARK minimizedAffinity -7.43821621
REMARK CNNscore 0.629013717
REMARK CNNaffinity 6.81770658
REMARK  4 active torsions:
REMARK  status: ('A' for Active; 'I' for Inactive)
REMARK    1  A    between atoms: C2_2  and  C3_3 
REMARK    2  A    between atoms: C2_2  and  C9_9 
REMARK    3  A    between atoms: C3_3  and  C4_4 
REMARK    4  A    between atoms: C4_4  and  C5_5 
ROOT
HETATM    1  C9  UNL     1       2.759  54.724  -9.657  1.00  0.00     0.018 C 
HETATM    2  C10 UNL     1       2.236  55.340  -8.341  1.00  0.00     0.010 C 
HETATM    3  C11 UNL     1       0.721  55.068  -8.288  1.00  0.00     0.011 C 
HETATM    4  C12 UNL     1       0.450  53.955  -9.333  1.00  0.00    -0.032 C 
HETATM    5  C13 UNL     1       0.832  52.611  -8.647  1.00  0.00     0.016 C 
HETATM    6  C14 UNL     1       1.458  54.388 -10.421  1.00  0.00     0.002 C 
HETATM    7  C15 UNL     1       1.597  53.385 -11.549  1.00  0.00     0.006 C 
HETATM    8  C16 UNL     1       0.342  52.551 -11.804  1.00  0.00     0.006 C 
HETATM    9  C17 UNL     1      -1.035  53.135 -11.363  1.00  0.00     0.003 C 
HETATM   10  C18 UNL     1      -2.208  52.063 -11.491  1.00  0.00    -0.035 C 
HETATM   11  C19 UNL     1      -3.569  52.802 -11.639  1.00  0.00     0.016 C 
HETATM   12  C20 UNL     1      -2.034  51.178 -12.755  1.00  0.00     0.017 C 
HETATM   13  C21 UNL     1      -3.160  50.175 -12.960  1.00  0.00     0.080 C 
HETATM   14  C22 UNL     1      -3.735  49.653 -11.662  1.00  0.00     0.135 C 
HETATM   15  O1  UNL     1      -4.846  49.116 -11.670  1.00  0.00    -0.297 OA
HETATM   16  C23 UNL     1      -2.875  49.731 -10.392  1.00  0.00     0.017 C 
HETATM   17  C24 UNL     1      -1.813  48.611 -10.523  1.00  0.00     0.023 C 
HETATM   18  C25 UNL     1      -3.755  49.353  -9.183  1.00  0.00     0.023 C 
HETATM   19  C26 UNL     1      -2.155  51.135 -10.241  1.00  0.00     0.009 C 
HETATM   20  C27 UNL     1      -2.474  51.912  -8.955  1.00  0.00     0.007 C 
HETATM   21  C28 UNL     1      -2.047  53.381  -8.913  1.00  0.00     0.011 C 
HETATM   22  C29 UNL     1      -1.016  53.910  -9.961  1.00  0.00    -0.032 C 
HETATM   23  C30 UNL     1      -1.517  55.366 -10.280  1.00  0.00     0.016 C 
ENDROOT
BRANCH   1  24
HETATM   24  C2  UNL     1       3.815  55.579 -10.345  1.00  0.00    -0.084 C 
HETATM   25  C1  UNL     1       3.551  56.668 -11.090  1.00  0.00     0.014 C 
BRANCH  24  26
HETATM   26  C3  UNL     1       5.255  55.102 -10.217  1.00  0.00     0.037 C 
BRANCH  26  27
HETATM   27  C4  UNL     1       5.480  54.154  -9.033  1.00  0.00     0.031 C 
BRANCH  27  28
HETATM   28  C5  UNL     1       6.647  54.595  -8.191  1.00  0.00    -0.024 C 
HETATM   29  C6  UNL     1       6.652  55.547  -7.237  1.00  0.00    -0.091 C 
HETATM   30  C7  UNL     1       5.470  56.402  -6.868  1.00  0.00     0.042 C 
HETATM   31  C8  UNL     1       7.905  55.847  -6.454  1.00  0.00     0.042 C 
ENDBRANCH  27  28
ENDBRANCH  26  27
ENDBRANCH  24  26
ENDBRANCH   1  24
TORSDOF 4
ENDMDL
MODEL 2
REMARK minimizedAffinity -7.03675747
REMARK CNNscore 0.597171485
REMARK CNNaffinity 6.87445879
REMARK  4 active torsions:
REMARK  status: ('A' for Active; 'I' for Inactive)
REMARK    1  A    between atoms: C2_2  and  C3_3 
REMARK    2  A    between atoms: C2_2  and  C9_9 
REMARK    3  A    between atoms: C3_3  and  C4_4 
REMARK    4  A    between atoms: C4_4  and  C5_5 
ROOT
HETATM    1  C9  UNL     1      -2.614  52.831 -11.673  1.00  0.00     0.018 C 
HETATM    2  C10 UNL     1      -3.515  53.362 -10.537  1.00  0.00     0.010 C 
HETATM    3  C11 UNL     1      -2.593  53.683  -9.345  1.00  0.00     0.011 C 
HETATM    4  C12 UNL     1      -1.154  53.742  -9.921  1.00  0.00    -0.032 C 
HETATM    5  C13 UNL     1      -1.000  55.150 -10.568  1.00  0.00     0.016 C 
HETATM    6  C14 UNL     1      -1.260  52.606 -10.963  1.00  0.00     0.002 C 
HETATM    7  C15 UNL     1      -0.049  52.502 -11.869  1.00  0.00     0.006 C 
HETATM    8  C16 UNL     1       1.254  52.985 -11.232  1.00  0.00     0.006 C 
HETATM    9  C17 UNL     1       1.364  52.971  -9.676  1.00  0.00     0.003 C 
HETATM   10  C18 UNL     1       2.683  53.705  -9.163  1.00  0.00    -0.035 C 
HETATM   11  C19 UNL     1       3.061  53.164  -7.755  1.00  0.00     0.016 C 
HETATM   12  C20 UNL     1       3.892  53.421 -10.096  1.00  0.00     0.017 C 
HETATM   13  C21 UNL     1       5.193  54.050  -9.621  1.00  0.00     0.080 C 
HETATM   14  C22 UNL     1       4.991  55.371  -8.914  1.00  0.00     0.135 C 
HETATM   15  O1  UNL     1       5.892  55.811  -8.194  1.00  0.00    -0.297 OA
HETATM   16  C23 UNL     1       3.705  56.164  -9.188  1.00  0.00     0.017 C 
HETATM   17  C24 UNL     1       3.879  56.794 -10.592  1.00  0.00     0.023 C 
HETATM   18  C25 UNL     1       3.636  57.341  -8.191  1.00  0.00     0.023 C 
HETATM   19  C26 UNL     1       2.417  55.240  -9.171  1.00  0.00     0.009 C 
HETATM   20  C27 UNL     1       1.334  55.624  -8.152  1.00  0.00     0.007 C 
HETATM   21  C28 UNL     1       0.230  54.595  -7.898  1.00  0.00     0.011 C 
HETATM   22  C29 UNL     1       0.032  53.418  -8.905  1.00  0.00    -0.032 C 
HETATM   23  C30 UNL     1      -0.351  52.199  -7.990  1.00  0.00     0.016 C 
ENDROOT
BRANCH   1  24
HETATM   24  C2  UNL     1      -3.238  51.678 -12.448  1.00  0.00    -0.084 C 
HETATM   25  C1  UNL     1      -3.480  51.690 -13.772  1.00  0.00     0.014 C 
BRANCH  24  26
HETATM   26  C3  UNL     1      -3.669  50.470 -11.628  1.00  0.00     0.037 C 
BRANCH  26  27
HETATM   27  C4  UNL     1      -4.833  50.766 -10.675  1.00  0.00     0.031 C 
BRANCH  27  28
HETATM   28  C5  UNL     1      -5.227  49.540  -9.894  1.00  0.00    -0.024 C 
HETATM   29  C6  UNL     1      -6.432  48.937  -9.873  1.00  0.00    -0.091 C 
HETATM   30  C7  UNL     1      -7.651  49.426 -10.608  1.00  0.00     0.042 C 
HETATM   31  C8  UNL     1      -6.655  47.687  -9.061  1.00  0.00     0.042 C 
ENDBRANCH  27  28
ENDBRANCH  26  27
ENDBRANCH  24  26
ENDBRANCH   1  24
TORSDOF 4
ENDMDL
MODEL 3
REMARK minimizedAffinity -6.7443738
REMARK CNNscore 0.575195789
REMARK CNNaffinity 6.76255846
REMARK  4 active torsions:
REMARK  status: ('A' for Active; 'I' for Inactive)
REMARK    1  A    between atoms: C2_2  and  C3_3 
REMARK    2  A    between atoms: C2_2  and  C9_9 
REMARK    3  A    between atoms: C3_3  and  C4_4 
REMARK    4  A    between atoms: C4_4  and  C5_5 
ROOT
HETATM    1  C9  UNL     1       1.033  54.614  -8.201  1.00  0.00     0.018 C 
HETATM    2  C10 UNL     1      -0.012  54.344  -7.097  1.00  0.00     0.010 C 
HETATM    3  C11 UNL     1      -1.211  53.650  -7.772  1.00  0.00     0.011 C 
HETATM    4  C12 UNL     1      -0.695  53.147  -9.146  1.00  0.00    -0.032 C 
HETATM    5  C13 UNL     1       0.064  51.817  -8.865  1.00  0.00     0.016 C 
HETATM    6  C14 UNL     1       0.248  54.319  -9.499  1.00  0.00     0.002 C 
HETATM    7  C15 UNL     1       1.089  54.067 -10.735  1.00  0.00     0.006 C 
HETATM    8  C16 UNL     1       0.440  53.130 -11.754  1.00  0.00     0.006 C 
HETATM    9  C17 UNL     1      -1.115  53.001 -11.753  1.00  0.00     0.003 C 
HETATM   10  C18 UNL     1      -1.618  51.832 -12.712  1.00  0.00    -0.035 C 
HETATM   11  C19 UNL     1      -3.083  52.117 -13.149  1.00  0.00     0.016 C 
HETATM   12  C20 UNL     1      -0.766  51.751 -14.008  1.00  0.00     0.017 C 
HETATM   13  C21 UNL     1      -1.241  50.689 -14.988  1.00  0.00     0.080 C 
HETATM   14  C22 UNL     1      -1.821  49.470 -14.308  1.00  0.00     0.135 C 
HETATM   15  O1  UNL     1      -2.539  48.703 -14.957  1.00  0.00    -0.297 OA
HETATM   16  C23 UNL     1      -1.425  49.179 -12.853  1.00  0.00     0.017 C 
HETATM   17  C24 UNL     1       0.020  48.623 -12.904  1.00  0.00     0.023 C 
HETATM   18  C25 UNL     1      -2.312  48.032 -12.325  1.00  0.00     0.023 C 
HETATM   19  C26 UNL     1      -1.466  50.481 -11.950  1.00  0.00     0.009 C 
HETATM   20  C27 UNL     1      -2.400  50.419 -10.732  1.00  0.00     0.007 C 
HETATM   21  C28 UNL     1      -2.694  51.742 -10.021  1.00  0.00     0.011 C 
HETATM   22  C29 UNL     1      -1.785  52.981 -10.298  1.00  0.00    -0.032 C 
HETATM   23  C30 UNL     1      -2.785  54.194 -10.281  1.00  0.00     0.016 C 
ENDROOT
BRANCH   1  24
HETATM   24  C2  UNL     1       1.732  55.958  -8.053  1.00  0.00    -0.084 C 
HETATM   25  C1  UNL     1       1.238  57.005  -7.367  1.00  0.00     0.014 C 
BRANCH  24  26
HETATM   26  C3  UNL     1       3.047  56.120  -8.803  1.00  0.00     0.037 C 
BRANCH  26  27
HETATM   27  C4  UNL     1       3.932  57.241  -8.245  1.00  0.00     0.031 C 
BRANCH  27  28
HETATM   28  C5  UNL     1       5.053  56.688  -7.406  1.00  0.00    -0.024 C 
HETATM   29  C6  UNL     1       6.045  55.869  -7.806  1.00  0.00    -0.091 C 
HETATM   30  C7  UNL     1       6.186  55.301  -9.192  1.00  0.00     0.042 C 
HETATM   31  C8  UNL     1       7.119  55.431  -6.843  1.00  0.00     0.042 C 
ENDBRANCH  27  28
ENDBRANCH  26  27
ENDBRANCH  24  26
ENDBRANCH   1  24
TORSDOF 4
ENDMDL
MODEL 4
REMARK minimizedAffinity -6.70252228
REMARK CNNscore 0.489798874
REMARK CNNaffinity 6.56576395
REMARK  4 active torsions:
REMARK  status: ('A' for Active; 'I' for Inactive)
REMARK    1  A    between atoms: C2_2  and  C3_3 
REMARK    2  A    between atoms: C2_2  and  C9_9 
REMARK    3  A    between atoms: C3_3  and  C4_4 
REMARK    4  A    between atoms: C4_4  and  C5_5 
ROOT
HETATM    1  C9  UNL     1       3.377  56.154  -8.874  1.00  0.00     0.018 C 
HETATM    2  C10 UNL     1       4.179  55.972 -10.181  1.00  0.00     0.010 C 
HETATM    3  C11 UNL     1       3.601  54.736 -10.896  1.00  0.00     0.011 C 
HETATM    4  C12 UNL     1       2.225  54.464 -10.233  1.00  0.00    -0.032 C 
HETATM    5  C13 UNL     1       1.221  55.456 -10.891  1.00  0.00     0.016 C 
HETATM    6  C14 UNL     1       2.576  54.836  -8.775  1.00  0.00     0.002 C 
HETATM    7  C15 UNL     1       1.373  54.863  -7.852  1.00  0.00     0.006 C 
HETATM    8  C16 UNL     1       0.245  53.919  -8.265  1.00  0.00     0.006 C 
HETATM    9  C17 UNL     1       0.603  52.681  -9.145  1.00  0.00     0.003 C 
HETATM   10  C18 UNL     1      -0.698  51.926  -9.673  1.00  0.00    -0.035 C 
HETATM   11  C19 UNL     1      -0.343  50.446  -9.993  1.00  0.00     0.016 C 
HETATM   12  C20 UNL     1      -1.818  51.900  -8.596  1.00  0.00     0.017 C 
HETATM   13  C21 UNL     1      -3.063  51.139  -9.026  1.00  0.00     0.080 C 
HETATM   14  C22 UNL     1      -3.347  51.253 -10.507  1.00  0.00     0.135 C 
HETATM   15  O1  UNL     1      -4.101  50.432 -11.039  1.00  0.00    -0.297 OA
HETATM   16  C23 UNL     1      -2.758  52.441 -11.281  1.00  0.00     0.017 C 
HETATM   17  C24 UNL     1      -3.610  53.674 -10.890  1.00  0.00     0.023 C 
HETATM   18  C25 UNL     1      -2.998  52.208 -12.788  1.00  0.00     0.023 C 
HETATM   19  C26 UNL     1      -1.239  52.701 -10.912  1.00  0.00     0.009 C 
HETATM   20  C27 UNL     1      -0.247  52.640 -12.084  1.00  0.00     0.007 C 
HETATM   21  C28 UNL     1       1.240  52.584 -11.727  1.00  0.00     0.011 C 
HETATM   22  C29 UNL     1       1.697  52.960 -10.281  1.00  0.00    -0.032 C 
HETATM   23  C30 UNL     1       2.873  51.959  -9.986  1.00  0.00     0.016 C 
ENDROOT
BRANCH   1  24
HETATM   24  C2  UNL     1       4.238  56.581  -7.693  1.00  0.00    -0.084 C 
HETATM   25  C1  UNL     1       3.830  57.399  -6.706  1.00  0.00     0.014 C 
BRANCH  24  26
HETATM   26  C3  UNL     1       5.678  56.087  -7.696  1.00  0.00     0.037 C 
BRANCH  26  27
HETATM   27  C4  UNL     1       6.111  55.468  -6.361  1.00  0.00     0.031 C 
BRANCH  27  28
HETATM   28  C5  UNL     1       7.574  55.707  -6.096  1.00  0.00    -0.024 C 
HETATM   29  C6  UNL     1       8.130  56.770  -5.482  1.00  0.00    -0.091 C 
HETATM   30  C7  UNL     1       7.371  57.970  -4.984  1.00  0.00     0.042 C 
HETATM   31  C8  UNL     1       9.619  56.841  -5.261  1.00  0.00     0.042 C 
ENDBRANCH  27  28
ENDBRANCH  26  27
ENDBRANCH  24  26
ENDBRANCH   1  24
TORSDOF 4
ENDMDL
MODEL 5
REMARK minimizedAffinity -7.19485521
REMARK CNNscore 0.449616373
REMARK CNNaffinity 6.91741371
REMARK  4 active torsions:
REMARK  status: ('A' for Active; 'I' for Inactive)
REMARK    1  A    between atoms: C2_2  and  C3_3 
REMARK    2  A    between atoms: C2_2  and  C9_9 
REMARK    3  A    between atoms: C3_3  and  C4_4 
REMARK    4  A    between atoms: C4_4  and  C5_5 
ROOT
HETATM    1  C9  UNL     1      -2.626  52.390 -11.924  1.00  0.00     0.018 C 
HETATM    2  C10 UNL     1      -3.579  52.836 -10.793  1.00  0.00     0.010 C 
HETATM    3  C11 UNL     1      -2.701  53.173  -9.572  1.00  0.00     0.011 C 
HETATM    4  C12 UNL     1      -1.257  53.330 -10.115  1.00  0.00    -0.032 C 
HETATM    5  C13 UNL     1      -1.171  54.763 -10.718  1.00  0.00     0.016 C 
HETATM    6  C14 UNL     1      -1.276  52.221 -11.190  1.00  0.00     0.002 C 
HETATM    7  C15 UNL     1      -0.043  52.213 -12.073  1.00  0.00     0.006 C 
HETATM    8  C16 UNL     1       1.216  52.750 -11.394  1.00  0.00     0.006 C 
HETATM    9  C17 UNL     1       1.296  52.697  -9.837  1.00  0.00     0.003 C 
HETATM   10  C18 UNL     1       2.560  53.489  -9.275  1.00  0.00    -0.035 C 
HETATM   11  C19 UNL     1       2.940  52.929  -7.875  1.00  0.00     0.016 C 
HETATM   12  C20 UNL     1       3.801  53.302 -10.189  1.00  0.00     0.017 C 
HETATM   13  C21 UNL     1       5.055  53.989  -9.669  1.00  0.00     0.080 C 
HETATM   14  C22 UNL     1       4.764  55.275  -8.929  1.00  0.00     0.135 C 
HETATM   15  O1  UNL     1       5.623  55.744  -8.177  1.00  0.00    -0.297 OA
HETATM   16  C23 UNL     1       3.440  56.002  -9.208  1.00  0.00     0.017 C 
HETATM   17  C24 UNL     1       3.606  56.681 -10.590  1.00  0.00     0.023 C 
HETATM   18  C25 UNL     1       3.283  57.142  -8.181  1.00  0.00     0.023 C 
HETATM   19  C26 UNL     1       2.207  55.006  -9.246  1.00  0.00     0.009 C 
HETATM   20  C27 UNL     1       1.083  55.298  -8.240  1.00  0.00     0.007 C 
HETATM   21  C28 UNL     1       0.035  54.201  -8.039  1.00  0.00     0.011 C 
HETATM   22  C29 UNL     1      -0.074  53.044  -9.083  1.00  0.00    -0.032 C 
HETATM   23  C30 UNL     1      -0.406  51.779  -8.211  1.00  0.00     0.016 C 
ENDROOT
BRANCH   1  24
HETATM   24  C2  UNL     1      -3.167  51.227 -12.745  1.00  0.00    -0.084 C 
HETATM   25  C1  UNL     1      -3.557  50.046 -12.232  1.00  0.00     0.014 C 
BRANCH  24  26
HETATM   26  C3  UNL     1      -3.192  51.422 -14.254  1.00  0.00     0.037 C 
BRANCH  26  27
HETATM   27  C4  UNL     1      -2.311  50.421 -15.011  1.00  0.00     0.031 C 
BRANCH  27  28
HETATM   28  C5  UNL     1      -0.898  50.927 -15.146  1.00  0.00    -0.024 C 
HETATM   29  C6  UNL     1      -0.051  50.720 -16.173  1.00  0.00    -0.091 C 
HETATM   30  C7  UNL     1      -0.355  49.878 -17.383  1.00  0.00     0.042 C 
HETATM   31  C8  UNL     1       1.327  51.329 -16.171  1.00  0.00     0.042 C 
ENDBRANCH  27  28
ENDBRANCH  26  27
ENDBRANCH  24  26
ENDBRANCH   1  24
TORSDOF 4
ENDMDL
MODEL 6
REMARK minimizedAffinity -7.06555462
REMARK CNNscore 0.338827431
REMARK CNNaffinity 5.63822126
REMARK  4 active torsions:
REMARK  status: ('A' for Active; 'I' for Inactive)
REMARK    1  A    between atoms: C2_2  and  C3_3 
REMARK    2  A    between atoms: C2_2  and  C9_9 
REMARK    3  A    between atoms: C3_3  and  C4_4 
REMARK    4  A    between atoms: C4_4  and  C5_5 
ROOT
HETATM    1  C9  UNL     1      -7.635  47.526 -29.398  1.00  0.00     0.018 C 
HETATM    2  C10 UNL     1      -8.320  48.651 -30.205  1.00  0.00     0.010 C 
HETATM    3  C11 UNL     1      -9.835  48.374 -30.167  1.00  0.00     0.011 C 
HETATM    4  C12 UNL     1     -10.055  47.360 -29.014  1.00  0.00    -0.032 C 
HETATM    5  C13 UNL     1     -10.058  48.191 -27.697  1.00  0.00     0.016 C 
HETATM    6  C14 UNL     1      -8.779  46.508 -29.189  1.00  0.00     0.002 C 
HETATM    7  C15 UNL     1      -8.568  45.500 -28.076  1.00  0.00     0.006 C 
HETATM    8  C16 UNL     1      -9.858  45.015 -27.417  1.00  0.00     0.006 C 
HETATM    9  C17 UNL     1     -11.183  45.097 -28.238  1.00  0.00     0.003 C 
HETATM   10  C18 UNL     1     -12.461  44.768 -27.344  1.00  0.00    -0.035 C 
HETATM   11  C19 UNL     1     -13.617  44.272 -28.260  1.00  0.00     0.016 C 
HETATM   12  C20 UNL     1     -12.168  43.629 -26.329  1.00  0.00     0.017 C 
HETATM   13  C21 UNL     1     -13.373  43.232 -25.489  1.00  0.00     0.080 C 
HETATM   14  C22 UNL     1     -14.292  44.393 -25.182  1.00  0.00     0.135 C 
HETATM   15  O1  UNL     1     -15.449  44.164 -24.817  1.00  0.00    -0.297 OA
HETATM   16  C23 UNL     1     -13.725  45.819 -25.249  1.00  0.00     0.017 C 
HETATM   17  C24 UNL     1     -12.860  45.997 -23.977  1.00  0.00     0.023 C 
HETATM   18  C25 UNL     1     -14.896  46.816 -25.120  1.00  0.00     0.023 C 
HETATM   19  C26 UNL     1     -12.833  46.048 -26.539  1.00  0.00     0.009 C 
HETATM   20  C27 UNL     1     -13.288  47.181 -27.471  1.00  0.00     0.007 C 
HETATM   21  C28 UNL     1     -12.643  47.234 -28.858  1.00  0.00     0.011 C 
HETATM   22  C29 UNL     1     -11.338  46.419 -29.128  1.00  0.00    -0.032 C 
HETATM   23  C30 UNL     1     -11.510  45.911 -30.606  1.00  0.00     0.016 C 
ENDROOT
BRANCH   1  24
HETATM   24  C2  UNL     1      -6.330  47.049 -30.019  1.00  0.00    -0.084 C 
HETATM   25  C1  UNL     1      -6.228  46.041 -30.904  1.00  0.00     0.014 C 
BRANCH  24  26
HETATM   26  C3  UNL     1      -5.061  47.736 -29.531  1.00  0.00     0.037 C 
BRANCH  26  27
HETATM   27  C4  UNL     1      -5.094  48.085 -28.039  1.00  0.00     0.031 C 
BRANCH  27  28
HETATM   28  C5  UNL     1      -3.844  48.812 -27.618  1.00  0.00    -0.024 C 
HETATM   29  C6  UNL     1      -3.366  48.958 -26.367  1.00  0.00    -0.091 C 
HETATM   30  C7  UNL     1      -4.043  48.451 -25.122  1.00  0.00     0.042 C 
HETATM   31  C8  UNL     1      -2.072  49.689 -26.116  1.00  0.00     0.042 C 
ENDBRANCH  27  28
ENDBRANCH  26  27
ENDBRANCH  24  26
ENDBRANCH   1  24
TORSDOF 4
ENDMDL
MODEL 7
REMARK minimizedAffinity -7.02430773
REMARK CNNscore 0.317978919
REMARK CNNaffinity 5.5555501
REMARK  4 active torsions:
REMARK  status: ('A' for Active; 'I' for Inactive)
REMARK    1  A    between atoms: C2_2  and  C3_3 
REMARK    2  A    between atoms: C2_2  and  C9_9 
REMARK    3  A    between atoms: C3_3  and  C4_4 
REMARK    4  A    between atoms: C4_4  and  C5_5 
ROOT
HETATM    1  C9  UNL     1     -13.975  46.066 -25.743  1.00  0.00     0.018 C 
HETATM    2  C10 UNL     1     -14.957  45.784 -26.901  1.00  0.00     0.010 C 
HETATM    3  C11 UNL     1     -14.220  46.129 -28.210  1.00  0.00     0.011 C 
HETATM    4  C12 UNL     1     -12.714  46.198 -27.847  1.00  0.00    -0.032 C 
HETATM    5  C13 UNL     1     -12.205  44.727 -27.813  1.00  0.00     0.016 C 
HETATM    6  C14 UNL     1     -12.828  46.832 -26.442  1.00  0.00     0.002 C 
HETATM    7  C15 UNL     1     -11.513  46.878 -25.691  1.00  0.00     0.006 C 
HETATM    8  C16 UNL     1     -10.280  46.965 -26.591  1.00  0.00     0.006 C 
HETATM    9  C17 UNL     1     -10.452  47.558 -28.023  1.00  0.00     0.003 C 
HETATM   10  C18 UNL     1      -9.139  47.377 -28.907  1.00  0.00    -0.035 C 
HETATM   11  C19 UNL     1      -9.117  48.456 -30.028  1.00  0.00     0.016 C 
HETATM   12  C20 UNL     1      -7.851  47.577 -28.062  1.00  0.00     0.017 C 
HETATM   13  C21 UNL     1      -6.565  47.473 -28.869  1.00  0.00     0.080 C 
HETATM   14  C22 UNL     1      -6.657  46.483 -30.008  1.00  0.00     0.135 C 
HETATM   15  O1  UNL     1      -5.836  46.546 -30.927  1.00  0.00    -0.297 OA
HETATM   16  C23 UNL     1      -7.717  45.373 -29.936  1.00  0.00     0.017 C 
HETATM   17  C24 UNL     1      -7.189  44.342 -28.908  1.00  0.00     0.023 C 
HETATM   18  C25 UNL     1      -7.756  44.648 -31.297  1.00  0.00     0.023 C 
HETATM   19  C26 UNL     1      -9.128  45.923 -29.467  1.00  0.00     0.009 C 
HETATM   20  C27 UNL     1     -10.291  45.692 -30.442  1.00  0.00     0.007 C 
HETATM   21  C28 UNL     1     -11.584  46.463 -30.169  1.00  0.00     0.011 C 
HETATM   22  C29 UNL     1     -11.801  47.125 -28.771  1.00  0.00    -0.032 C 
HETATM   23  C30 UNL     1     -12.548  48.469 -29.101  1.00  0.00     0.016 C 
ENDROOT
BRANCH   1  24
HETATM   24  C2  UNL     1     -14.641  46.691 -24.526  1.00  0.00    -0.084 C 
HETATM   25  C1  UNL     1     -14.013  46.968 -23.369  1.00  0.00     0.014 C 
BRANCH  24  26
HETATM   26  C3  UNL     1     -16.139  46.943 -24.633  1.00  0.00     0.037 C 
BRANCH  26  27
HETATM   27  C4  UNL     1     -16.987  45.902 -23.894  1.00  0.00     0.031 C 
BRANCH  27  28
HETATM   28  C5  UNL     1     -17.420  46.407 -22.543  1.00  0.00    -0.024 C 
HETATM   29  C6  UNL     1     -18.517  46.045 -21.849  1.00  0.00    -0.091 C 
HETATM   30  C7  UNL     1     -19.564  45.080 -22.336  1.00  0.00     0.042 C 
HETATM   31  C8  UNL     1     -18.791  46.621 -20.484  1.00  0.00     0.042 C 
ENDBRANCH  27  28
ENDBRANCH  26  27
ENDBRANCH  24  26
ENDBRANCH   1  24
TORSDOF 4
ENDMDL
MODEL 8
REMARK minimizedAffinity -7.76918316
REMARK CNNscore 0.256044447
REMARK CNNaffinity 5.68952227
REMARK  4 active torsions:
REMARK  status: ('A' for Active; 'I' for Inactive)
REMARK    1  A    between atoms: C2_2  and  C3_3 
REMARK    2  A    between atoms: C2_2  and  C9_9 
REMARK    3  A    between atoms: C3_3  and  C4_4 
REMARK    4  A    between atoms: C4_4  and  C5_5 
ROOT
HETATM    1  C9  UNL     1      -5.200  47.735 -27.642  1.00  0.00     0.018 C 
HETATM    2  C10 UNL     1      -6.246  47.863 -26.513  1.00  0.00     0.010 C 
HETATM    3  C11 UNL     1      -7.631  47.653 -27.155  1.00  0.00     0.011 C 
HETATM    4  C12 UNL     1      -7.365  46.997 -28.536  1.00  0.00    -0.032 C 
HETATM    5  C13 UNL     1      -7.135  45.482 -28.262  1.00  0.00     0.016 C 
HETATM    6  C14 UNL     1      -6.070  47.747 -28.920  1.00  0.00     0.002 C 
HETATM    7  C15 UNL     1      -5.408  47.207 -30.172  1.00  0.00     0.006 C 
HETATM    8  C16 UNL     1      -6.377  46.571 -31.168  1.00  0.00     0.006 C 
HETATM    9  C17 UNL     1      -7.872  47.016 -31.132  1.00  0.00     0.003 C 
HETATM   10  C18 UNL     1      -8.789  46.110 -32.069  1.00  0.00    -0.035 C 
HETATM   11  C19 UNL     1     -10.060  46.908 -32.476  1.00  0.00     0.016 C 
HETATM   12  C20 UNL     1      -8.056  45.726 -33.383  1.00  0.00     0.017 C 
HETATM   13  C21 UNL     1      -8.907  44.909 -34.344  1.00  0.00     0.080 C 
HETATM   14  C22 UNL     1      -9.875  43.984 -33.641  1.00  0.00     0.135 C 
HETATM   15  O1  UNL     1     -10.837  43.531 -34.267  1.00  0.00    -0.297 OA
HETATM   16  C23 UNL     1      -9.576  43.568 -32.193  1.00  0.00     0.017 C 
HETATM   17  C24 UNL     1      -8.433  42.526 -32.272  1.00  0.00     0.023 C 
HETATM   18  C25 UNL     1     -10.806  42.821 -31.636  1.00  0.00     0.023 C 
HETATM   19  C26 UNL     1      -9.119  44.796 -31.300  1.00  0.00     0.009 C 
HETATM   20  C27 UNL     1      -9.983  45.077 -30.061  1.00  0.00     0.007 C 
HETATM   21  C28 UNL     1      -9.759  46.415 -29.354  1.00  0.00     0.011 C 
HETATM   22  C29 UNL     1      -8.469  47.240 -29.662  1.00  0.00    -0.032 C 
HETATM   23  C30 UNL     1      -8.960  48.733 -29.632  1.00  0.00     0.016 C 
ENDROOT
BRANCH   1  24
HETATM   24  C2  UNL     1      -4.058  48.734 -27.521  1.00  0.00    -0.084 C 
HETATM   25  C1  UNL     1      -3.823  49.735 -28.389  1.00  0.00     0.014 C 
BRANCH  24  26
HETATM   26  C3  UNL     1      -3.092  48.517 -26.365  1.00  0.00     0.037 C 
BRANCH  26  27
HETATM   27  C4  UNL     1      -2.595  49.823 -25.733  1.00  0.00     0.031 C 
BRANCH  27  28
HETATM   28  C5  UNL     1      -1.242  50.210 -26.270  1.00  0.00    -0.024 C 
HETATM   29  C6  UNL     1      -0.316  50.982 -25.669  1.00  0.00    -0.091 C 
HETATM   30  C7  UNL     1      -0.492  51.659 -24.336  1.00  0.00     0.042 C 
HETATM   31  C8  UNL     1       1.013  51.248 -26.329  1.00  0.00     0.042 C 
ENDBRANCH  27  28
ENDBRANCH  26  27
ENDBRANCH  24  26
ENDBRANCH   1  24
TORSDOF 4
ENDMDL
MODEL 9
REMARK minimizedAffinity -7.05623913
REMARK CNNscore 0.233794391
REMARK CNNaffinity 5.51531553
REMARK  4 active torsions:
REMARK  status: ('A' for Active; 'I' for Inactive)
REMARK    1  A    between atoms: C2_2  and  C3_3 
REMARK    2  A    between atoms: C2_2  and  C9_9 
REMARK    3  A    between atoms: C3_3  and  C4_4 
REMARK    4  A    between atoms: C4_4  and  C5_5 
ROOT
HETATM    1  C9  UNL     1      -7.852  47.011 -28.223  1.00  0.00     0.018 C 
HETATM    2  C10 UNL     1      -9.070  47.960 -28.241  1.00  0.00     0.010 C 
HETATM    3  C11 UNL     1      -9.705  47.853 -29.641  1.00  0.00     0.011 C 
HETATM    4  C12 UNL     1      -9.127  46.559 -30.273  1.00  0.00    -0.032 C 
HETATM    5  C13 UNL     1      -9.952  45.379 -29.682  1.00  0.00     0.016 C 
HETATM    6  C14 UNL     1      -7.689  46.632 -29.713  1.00  0.00     0.002 C 
HETATM    7  C15 UNL     1      -6.868  45.388 -29.990  1.00  0.00     0.006 C 
HETATM    8  C16 UNL     1      -7.274  44.640 -31.259  1.00  0.00     0.006 C 
HETATM    9  C17 UNL     1      -8.000  45.438 -32.387  1.00  0.00     0.003 C 
HETATM   10  C18 UNL     1      -8.551  44.481 -33.536  1.00  0.00    -0.035 C 
HETATM   11  C19 UNL     1      -8.699  45.291 -34.856  1.00  0.00     0.016 C 
HETATM   12  C20 UNL     1      -7.567  43.316 -33.828  1.00  0.00     0.017 C 
HETATM   13  C21 UNL     1      -8.016  42.403 -34.960  1.00  0.00     0.080 C 
HETATM   14  C22 UNL     1      -9.518  42.252 -35.041  1.00  0.00     0.135 C 
HETATM   15  O1  UNL     1     -10.025  41.835 -36.086  1.00  0.00    -0.297 OA
HETATM   16  C23 UNL     1     -10.356  42.538 -33.785  1.00  0.00     0.017 C 
HETATM   17  C24 UNL     1     -10.152  41.323 -32.847  1.00  0.00     0.023 C 
HETATM   18  C25 UNL     1     -11.847  42.534 -34.183  1.00  0.00     0.023 C 
HETATM   19  C26 UNL     1      -9.897  43.865 -33.050  1.00  0.00     0.009 C 
HETATM   20  C27 UNL     1     -10.978  44.944 -32.886  1.00  0.00     0.007 C 
HETATM   21  C28 UNL     1     -10.504  46.336 -32.462  1.00  0.00     0.011 C 
HETATM   22  C29 UNL     1      -9.070  46.510 -31.866  1.00  0.00    -0.032 C 
HETATM   23  C30 UNL     1      -8.590  47.893 -32.438  1.00  0.00     0.016 C 
ENDROOT
BRANCH   1  24
HETATM   24  C2  UNL     1      -6.655  47.581 -27.474  1.00  0.00    -0.084 C 
HETATM   25  C1  UNL     1      -6.495  47.532 -26.139  1.00  0.00     0.014 C 
BRANCH  24  26
HETATM   26  C3  UNL     1      -5.618  48.310 -28.316  1.00  0.00     0.037 C 
BRANCH  26  27
HETATM   27  C4  UNL     1      -4.175  48.035 -27.878  1.00  0.00     0.031 C 
BRANCH  27  28
HETATM   28  C5  UNL     1      -3.992  48.283 -26.404  1.00  0.00    -0.024 C 
HETATM   29  C6  UNL     1      -3.065  49.065 -25.817  1.00  0.00    -0.091 C 
HETATM   30  C7  UNL     1      -1.981  49.812 -26.547  1.00  0.00     0.042 C 
HETATM   31  C8  UNL     1      -3.039  49.238 -24.320  1.00  0.00     0.042 C 
ENDBRANCH  27  28
ENDBRANCH  26  27
ENDBRANCH  24  26
ENDBRANCH   1  24
TORSDOF 4
ENDMDL
