MODEL 1
REMARK minimizedAffinity -9.71055984
REMARK  8 active torsions:
REMARK  status: ('A' for Active; 'I' for Inactive)
REMARK    1  A    between atoms: C2_2  and  C3_3 
REMARK    2  A    between atoms: C2_2  and  C9_11 
REMARK    3  A    between atoms: C3_3  and  C4_4 
REMARK    4  A    between atoms: C4_4  and  O1_5 
REMARK    5  A    between atoms: C4_4  and  C5_6 
REMARK    6  A    between atoms: C20_22  and  O3_23 
REMARK    7  A    between atoms: C23_27  and  C25_29 
REMARK    8  A    between atoms: C25_29  and  O5_30 
ROOT
HETATM    1  C9  UNL     1      -0.747  52.113 -20.915  1.00  0.00    -0.002 C 
HETATM    2  C10 UNL     1      -0.109  51.124 -19.896  1.00  0.00     0.007 C 
HETATM    3  C11 UNL     1      -1.125  49.985 -19.680  1.00  0.00     0.015 C 
HETATM    4  C12 UNL     1      -2.451  50.524 -20.257  1.00  0.00    -0.013 C 
HETATM    5  C13 UNL     1      -3.077  51.421 -19.140  1.00  0.00     0.021 C 
HETATM    6  C14 UNL     1      -3.537  49.523 -20.638  1.00  0.00    -0.070 C 
HETATM    7  C15 UNL     1      -3.696  48.356 -19.992  1.00  0.00    -0.022 C 
HETATM    8  C16 UNL     1      -4.821  47.398 -20.230  1.00  0.00     0.034 C 
HETATM    9  C17 UNL     1      -5.699  47.706 -21.467  1.00  0.00     0.018 C 
HETATM   10  C18 UNL     1      -5.920  49.256 -21.672  1.00  0.00    -0.005 C 
HETATM   11  C19 UNL     1      -6.719  49.861 -20.490  1.00  0.00     0.019 C 
HETATM   12  C20 UNL     1      -6.664  49.507 -23.035  1.00  0.00     0.134 C 
HETATM   13  C21 UNL     1      -7.501  48.348 -23.559  1.00  0.00     0.111 C 
HETATM   14  C22 UNL     1      -8.036  47.497 -22.443  1.00  0.00     0.140 C 
HETATM   15  O4  UNL     1      -9.243  47.273 -22.359  1.00  0.00    -0.297 OA
HETATM   16  C23 UNL     1      -7.009  46.828 -21.526  1.00  0.00     0.043 C 
HETATM   17  C24 UNL     1      -6.671  45.469 -22.183  1.00  0.00     0.026 C 
HETATM   18  C26 UNL     1      -4.481  49.925 -21.773  1.00  0.00     0.026 C 
HETATM   19  C27 UNL     1      -4.481  51.452 -22.042  1.00  0.00     0.011 C 
HETATM   20  C28 UNL     1      -3.089  52.127 -22.114  1.00  0.00     0.011 C 
HETATM   21  C29 UNL     1      -1.931  51.294 -21.525  1.00  0.00    -0.029 C 
HETATM   22  C30 UNL     1      -1.381  50.348 -22.632  1.00  0.00     0.016 C 
ENDROOT
BRANCH   1  23
HETATM   23  C2  UNL     1       0.292  52.886 -21.786  1.00  0.00    -0.011 C 
HETATM   24  C1  UNL     1       1.577  53.341 -21.086  1.00  0.00     0.010 C 
BRANCH  23  25
HETATM   25  C3  UNL     1       0.597  52.124 -23.101  1.00  0.00     0.039 C 
BRANCH  25  26
HETATM   26  C4  UNL     1       0.418  52.958 -24.382  1.00  0.00     0.150 C 
BRANCH  26  27
HETATM   27  O1  UNL     1       1.255  54.112 -24.328  1.00  0.00    -0.393 OA
HETATM   28  H8  UNL     1       2.150  53.855 -24.600  1.00  0.00     0.210 HD
ENDBRANCH  26  27
BRANCH  26  29
HETATM   29  C5  UNL     1       0.785  52.141 -25.589  1.00  0.00     0.185 A 
HETATM   30  O2  UNL     1       1.805  52.710 -26.423  1.00  0.00    -0.367 OA
HETATM   31  C6  UNL     1       0.505  52.578 -27.020  1.00  0.00     0.083 A 
HETATM   32  C7  UNL     1       0.434  51.527 -28.085  1.00  0.00     0.048 C 
HETATM   33  C8  UNL     1      -0.157  53.884 -27.330  1.00  0.00     0.048 C 
ENDBRANCH  26  29
ENDBRANCH  25  26
ENDBRANCH  23  25
ENDBRANCH   1  23
BRANCH  12  34
HETATM   34  O3  UNL     1      -7.473  50.681 -22.952  1.00  0.00    -0.394 OA
HETATM   35  H32 UNL     1      -7.867  50.850 -23.826  1.00  0.00     0.210 HD
ENDBRANCH  12  34
BRANCH  16  36
HETATM   36  C25 UNL     1      -7.697  46.560 -20.161  1.00  0.00     0.181 C 
BRANCH  36  37
HETATM   37  O5  UNL     1      -8.560  47.629 -19.774  1.00  0.00    -0.400 OA
HETATM   38  H40 UNL     1      -8.035  48.244 -19.231  1.00  0.00     0.209 HD
ENDBRANCH  36  37
ENDBRANCH  16  36
TORSDOF 8
ENDMDL
MODEL 2
REMARK minimizedAffinity -9.1116581
REMARK  8 active torsions:
REMARK  status: ('A' for Active; 'I' for Inactive)
REMARK    1  A    between atoms: C2_2  and  C3_3 
REMARK    2  A    between atoms: C2_2  and  C9_11 
REMARK    3  A    between atoms: C3_3  and  C4_4 
REMARK    4  A    between atoms: C4_4  and  O1_5 
REMARK    5  A    between atoms: C4_4  and  C5_6 
REMARK    6  A    between atoms: C20_22  and  O3_23 
REMARK    7  A    between atoms: C23_27  and  C25_29 
REMARK    8  A    between atoms: C25_29  and  O5_30 
ROOT
HETATM    1  C9  UNL     1      -4.254  47.685 -20.467  1.00  0.00    -0.002 C 
HETATM    2  C10 UNL     1      -5.158  47.046 -21.562  1.00  0.00     0.007 C 
HETATM    3  C11 UNL     1      -4.797  47.727 -22.897  1.00  0.00     0.015 C 
HETATM    4  C12 UNL     1      -3.997  48.984 -22.494  1.00  0.00    -0.013 C 
HETATM    5  C13 UNL     1      -5.057  50.071 -22.118  1.00  0.00     0.021 C 
HETATM    6  C14 UNL     1      -3.093  49.635 -23.537  1.00  0.00    -0.070 C 
HETATM    7  C15 UNL     1      -3.377  49.606 -24.850  1.00  0.00    -0.022 C 
HETATM    8  C16 UNL     1      -2.604  50.337 -25.903  1.00  0.00     0.034 C 
HETATM    9  C17 UNL     1      -1.270  50.962 -25.428  1.00  0.00     0.018 C 
HETATM   10  C18 UNL     1      -1.373  51.551 -23.967  1.00  0.00    -0.005 C 
HETATM   11  C19 UNL     1      -2.375  52.733 -23.917  1.00  0.00     0.019 C 
HETATM   12  C20 UNL     1       0.052  52.007 -23.481  1.00  0.00     0.134 C 
HETATM   13  C21 UNL     1       1.052  52.348 -24.576  1.00  0.00     0.111 C 
HETATM   14  C22 UNL     1       0.370  52.865 -25.811  1.00  0.00     0.140 C 
HETATM   15  O4  UNL     1       0.698  53.948 -26.293  1.00  0.00    -0.297 OA
HETATM   16  C23 UNL     1      -0.627  51.928 -26.498  1.00  0.00     0.043 C 
HETATM   17  C24 UNL     1       0.197  51.086 -27.501  1.00  0.00     0.026 C 
HETATM   18  C26 UNL     1      -1.856  50.370 -23.018  1.00  0.00     0.026 C 
HETATM   19  C27 UNL     1      -1.960  50.732 -21.514  1.00  0.00     0.011 C 
HETATM   20  C28 UNL     1      -2.457  49.604 -20.578  1.00  0.00     0.011 C 
HETATM   21  C29 UNL     1      -3.151  48.426 -21.293  1.00  0.00    -0.029 C 
HETATM   22  C30 UNL     1      -2.068  47.398 -21.733  1.00  0.00     0.016 C 
ENDROOT
BRANCH   1  23
HETATM   23  C2  UNL     1      -3.930  46.732 -19.275  1.00  0.00    -0.011 C 
HETATM   24  C1  UNL     1      -3.859  45.233 -19.589  1.00  0.00     0.010 C 
BRANCH  23  25
HETATM   25  C3  UNL     1      -2.678  47.213 -18.499  1.00  0.00     0.039 C 
BRANCH  25  26
HETATM   26  C4  UNL     1      -2.960  48.276 -17.422  1.00  0.00     0.150 C 
BRANCH  26  27
HETATM   27  O1  UNL     1      -4.231  48.030 -16.822  1.00  0.00    -0.393 OA
HETATM   28  H8  UNL     1      -4.123  47.345 -16.142  1.00  0.00     0.210 HD
ENDBRANCH  26  27
BRANCH  26  29
HETATM   29  C5  UNL     1      -1.899  48.232 -16.359  1.00  0.00     0.185 A 
HETATM   30  O2  UNL     1      -1.737  49.445 -15.608  1.00  0.00    -0.367 OA
HETATM   31  C6  UNL     1      -0.615  49.048 -16.414  1.00  0.00     0.083 A 
HETATM   32  C7  UNL     1       0.564  48.579 -15.617  1.00  0.00     0.048 C 
HETATM   33  C8  UNL     1      -0.322  49.980 -17.547  1.00  0.00     0.048 C 
ENDBRANCH  26  29
ENDBRANCH  25  26
ENDBRANCH  23  25
ENDBRANCH   1  23
BRANCH  12  34
HETATM   34  O3  UNL     1      -0.059  53.107 -22.576  1.00  0.00    -0.394 OA
HETATM   35  H32 UNL     1       0.828  53.323 -22.239  1.00  0.00     0.210 HD
ENDBRANCH  12  34
BRANCH  16  36
HETATM   36  C25 UNL     1      -1.629  52.806 -27.294  1.00  0.00     0.181 C 
BRANCH  36  37
HETATM   37  O5  UNL     1      -2.844  53.021 -26.578  1.00  0.00    -0.400 OA
HETATM   38  H40 UNL     1      -3.465  52.319 -26.841  1.00  0.00     0.209 HD
ENDBRANCH  36  37
ENDBRANCH  16  36
TORSDOF 8
ENDMDL
MODEL 3
REMARK minimizedAffinity -8.99491405
REMARK  8 active torsions:
REMARK  status: ('A' for Active; 'I' for Inactive)
REMARK    1  A    between atoms: C2_2  and  C3_3 
REMARK    2  A    between atoms: C2_2  and  C9_11 
REMARK    3  A    between atoms: C3_3  and  C4_4 
REMARK    4  A    between atoms: C4_4  and  O1_5 
REMARK    5  A    between atoms: C4_4  and  C5_6 
REMARK    6  A    between atoms: C20_22  and  O3_23 
REMARK    7  A    between atoms: C23_27  and  C25_29 
REMARK    8  A    between atoms: C25_29  and  O5_30 
ROOT
HETATM    1  C9  UNL     1      -2.304  50.965 -21.975  1.00  0.00    -0.002 C 
HETATM    2  C10 UNL     1      -1.755  49.898 -20.983  1.00  0.00     0.007 C 
HETATM    3  C11 UNL     1      -2.772  48.740 -20.961  1.00  0.00     0.015 C 
HETATM    4  C12 UNL     1      -4.043  49.319 -21.617  1.00  0.00    -0.013 C 
HETATM    5  C13 UNL     1      -4.785  50.118 -20.496  1.00  0.00     0.021 C 
HETATM    6  C14 UNL     1      -5.076  48.348 -22.183  1.00  0.00    -0.070 C 
HETATM    7  C15 UNL     1      -5.281  47.131 -21.652  1.00  0.00    -0.022 C 
HETATM    8  C16 UNL     1      -6.366  46.191 -22.076  1.00  0.00     0.034 C 
HETATM    9  C17 UNL     1      -7.125  46.596 -23.363  1.00  0.00     0.018 C 
HETATM   10  C18 UNL     1      -7.345  48.157 -23.461  1.00  0.00    -0.005 C 
HETATM   11  C19 UNL     1      -8.261  48.659 -22.316  1.00  0.00     0.019 C 
HETATM   12  C20 UNL     1      -7.957  48.516 -24.864  1.00  0.00     0.134 C 
HETATM   13  C21 UNL     1      -8.725  47.401 -25.560  1.00  0.00     0.111 C 
HETATM   14  C22 UNL     1      -9.354  46.459 -24.574  1.00  0.00     0.140 C 
HETATM   15  O4  UNL     1     -10.561  46.223 -24.626  1.00  0.00    -0.297 OA
HETATM   16  C23 UNL     1      -8.412  45.720 -23.620  1.00  0.00     0.043 C 
HETATM   17  C24 UNL     1      -7.995  44.422 -24.351  1.00  0.00     0.026 C 
HETATM   18  C26 UNL     1      -5.910  48.839 -23.367  1.00  0.00     0.026 C 
HETATM   19  C27 UNL     1      -5.904  50.382 -23.508  1.00  0.00     0.011 C 
HETATM   20  C28 UNL     1      -4.520  51.067 -23.390  1.00  0.00     0.011 C 
HETATM   21  C29 UNL     1      -3.414  50.194 -22.762  1.00  0.00    -0.029 C 
HETATM   22  C30 UNL     1      -2.748  49.345 -23.884  1.00  0.00     0.016 C 
ENDROOT
BRANCH   1  23
HETATM   23  C2  UNL     1      -1.196  51.812 -22.675  1.00  0.00    -0.011 C 
HETATM   24  C1  UNL     1       0.004  52.225 -21.814  1.00  0.00     0.010 C 
BRANCH  23  25
HETATM   25  C3  UNL     1      -0.746  51.155 -24.004  1.00  0.00     0.039 C 
BRANCH  25  26
HETATM   26  C4  UNL     1      -0.660  52.120 -25.200  1.00  0.00     0.150 C 
BRANCH  26  27
HETATM   27  O1  UNL     1      -1.163  53.402 -24.823  1.00  0.00    -0.393 OA
HETATM   28  H8  UNL     1      -0.459  53.884 -24.361  1.00  0.00     0.210 HD
ENDBRANCH  26  27
BRANCH  26  29
HETATM   29  C5  UNL     1       0.767  52.266 -25.649  1.00  0.00     0.185 A 
HETATM   30  O2  UNL     1       1.016  53.358 -26.546  1.00  0.00    -0.367 OA
HETATM   31  C6  UNL     1       1.227  52.042 -27.083  1.00  0.00     0.083 A 
HETATM   32  C7  UNL     1       2.668  51.714 -27.326  1.00  0.00     0.048 C 
HETATM   33  C8  UNL     1       0.268  51.669 -28.169  1.00  0.00     0.048 C 
ENDBRANCH  26  29
ENDBRANCH  25  26
ENDBRANCH  23  25
ENDBRANCH   1  23
BRANCH  12  34
HETATM   34  O3  UNL     1      -8.785  49.676 -24.763  1.00  0.00    -0.394 OA
HETATM   35  H32 UNL     1      -9.095  49.916 -25.654  1.00  0.00     0.210 HD
ENDBRANCH  12  34
BRANCH  16  36
HETATM   36  C25 UNL     1      -9.225  45.338 -22.355  1.00  0.00     0.181 C 
BRANCH  36  37
HETATM   37  O5  UNL     1      -8.428  45.369 -21.172  1.00  0.00    -0.400 OA
HETATM   38  H40 UNL     1      -8.067  44.474 -21.041  1.00  0.00     0.209 HD
ENDBRANCH  36  37
ENDBRANCH  16  36
TORSDOF 8
ENDMDL
MODEL 4
REMARK minimizedAffinity -8.96852684
REMARK  8 active torsions:
REMARK  status: ('A' for Active; 'I' for Inactive)
REMARK    1  A    between atoms: C2_2  and  C3_3 
REMARK    2  A    between atoms: C2_2  and  C9_11 
REMARK    3  A    between atoms: C3_3  and  C4_4 
REMARK    4  A    between atoms: C4_4  and  O1_5 
REMARK    5  A    between atoms: C4_4  and  C5_6 
REMARK    6  A    between atoms: C20_22  and  O3_23 
REMARK    7  A    between atoms: C23_27  and  C25_29 
REMARK    8  A    between atoms: C25_29  and  O5_30 
ROOT
HETATM    1  C9  UNL     1      -1.471  51.696 -21.433  1.00  0.00    -0.002 C 
HETATM    2  C10 UNL     1      -1.090  50.942 -20.125  1.00  0.00     0.007 C 
HETATM    3  C11 UNL     1      -2.136  49.826 -19.929  1.00  0.00     0.015 C 
HETATM    4  C12 UNL     1      -3.292  50.197 -20.884  1.00  0.00    -0.013 C 
HETATM    5  C13 UNL     1      -4.150  51.265 -20.131  1.00  0.00     0.021 C 
HETATM    6  C14 UNL     1      -4.269  49.102 -21.301  1.00  0.00    -0.070 C 
HETATM    7  C15 UNL     1      -4.580  48.073 -20.496  1.00  0.00    -0.022 C 
HETATM    8  C16 UNL     1      -5.627  47.046 -20.793  1.00  0.00     0.034 C 
HETATM    9  C17 UNL     1      -6.196  47.082 -22.232  1.00  0.00     0.018 C 
HETATM   10  C18 UNL     1      -6.354  48.556 -22.776  1.00  0.00    -0.005 C 
HETATM   11  C19 UNL     1      -7.398  49.344 -21.944  1.00  0.00     0.019 C 
HETATM   12  C20 UNL     1      -6.764  48.518 -24.293  1.00  0.00     0.134 C 
HETATM   13  C21 UNL     1      -7.466  47.250 -24.761  1.00  0.00     0.111 C 
HETATM   14  C22 UNL     1      -8.249  46.606 -23.652  1.00  0.00     0.140 C 
HETATM   15  O4  UNL     1      -9.444  46.357 -23.802  1.00  0.00    -0.297 OA
HETATM   16  C23 UNL     1      -7.464  46.160 -22.416  1.00  0.00     0.043 C 
HETATM   17  C24 UNL     1      -6.994  44.715 -22.706  1.00  0.00     0.026 C 
HETATM   18  C26 UNL     1      -4.924  49.248 -22.676  1.00  0.00     0.026 C 
HETATM   19  C27 UNL     1      -4.852  50.695 -23.226  1.00  0.00     0.011 C 
HETATM   20  C28 UNL     1      -3.477  51.396 -23.110  1.00  0.00     0.011 C 
HETATM   21  C29 UNL     1      -2.490  50.733 -22.125  1.00  0.00    -0.029 C 
HETATM   22  C30 UNL     1      -1.707  49.616 -22.876  1.00  0.00     0.016 C 
ENDROOT
BRANCH   1  23
HETATM   23  C2  UNL     1      -0.255  52.329 -22.178  1.00  0.00    -0.011 C 
HETATM   24  C1  UNL     1       1.124  52.137 -21.536  1.00  0.00     0.010 C 
BRANCH  23  25
HETATM   25  C3  UNL     1      -0.248  51.931 -23.676  1.00  0.00     0.039 C 
BRANCH  25  26
HETATM   26  C4  UNL     1      -0.399  53.110 -24.653  1.00  0.00     0.150 C 
BRANCH  26  27
HETATM   27  O1  UNL     1       0.761  53.939 -24.595  1.00  0.00    -0.393 OA
HETATM   28  H8  UNL     1       1.450  53.542 -25.152  1.00  0.00     0.210 HD
ENDBRANCH  26  27
BRANCH  26  29
HETATM   29  C5  UNL     1      -0.569  52.602 -26.058  1.00  0.00     0.185 A 
HETATM   30  O2  UNL     1      -0.617  51.173 -26.188  1.00  0.00    -0.367 OA
HETATM   31  C6  UNL     1       0.503  51.824 -26.809  1.00  0.00     0.083 A 
HETATM   32  C7  UNL     1       0.456  51.809 -28.306  1.00  0.00     0.048 C 
HETATM   33  C8  UNL     1       1.821  51.493 -26.182  1.00  0.00     0.048 C 
ENDBRANCH  26  29
ENDBRANCH  25  26
ENDBRANCH  23  25
ENDBRANCH   1  23
BRANCH  12  34
HETATM   34  O3  UNL     1      -7.562  49.656 -24.623  1.00  0.00    -0.394 OA
HETATM   35  H32 UNL     1      -7.744  49.642 -25.579  1.00  0.00     0.210 HD
ENDBRANCH  12  34
BRANCH  16  36
HETATM   36  C25 UNL     1      -8.448  46.130 -21.217  1.00  0.00     0.181 C 
BRANCH  36  37
HETATM   37  O5  UNL     1      -9.362  47.226 -21.241  1.00  0.00    -0.400 OA
HETATM   38  H40 UNL     1      -8.966  47.945 -20.718  1.00  0.00     0.209 HD
ENDBRANCH  36  37
ENDBRANCH  16  36
TORSDOF 8
ENDMDL
MODEL 5
REMARK minimizedAffinity -8.88167858
REMARK  8 active torsions:
REMARK  status: ('A' for Active; 'I' for Inactive)
REMARK    1  A    between atoms: C2_2  and  C3_3 
REMARK    2  A    between atoms: C2_2  and  C9_11 
REMARK    3  A    between atoms: C3_3  and  C4_4 
REMARK    4  A    between atoms: C4_4  and  O1_5 
REMARK    5  A    between atoms: C4_4  and  C5_6 
REMARK    6  A    between atoms: C20_22  and  O3_23 
REMARK    7  A    between atoms: C23_27  and  C25_29 
REMARK    8  A    between atoms: C25_29  and  O5_30 
ROOT
HETATM    1  C9  UNL     1      -1.806  50.709 -21.775  1.00  0.00    -0.002 C 
HETATM    2  C10 UNL     1      -1.235  52.140 -22.003  1.00  0.00     0.007 C 
HETATM    3  C11 UNL     1      -0.500  52.542 -20.709  1.00  0.00     0.015 C 
HETATM    4  C12 UNL     1      -0.983  51.529 -19.650  1.00  0.00    -0.013 C 
HETATM    5  C13 UNL     1      -2.364  52.057 -19.142  1.00  0.00     0.021 C 
HETATM    6  C14 UNL     1      -0.133  51.325 -18.399  1.00  0.00    -0.070 C 
HETATM    7  C15 UNL     1       0.604  52.313 -17.865  1.00  0.00    -0.022 C 
HETATM    8  C16 UNL     1       1.347  52.213 -16.570  1.00  0.00     0.034 C 
HETATM    9  C17 UNL     1       1.429  50.792 -15.963  1.00  0.00     0.018 C 
HETATM   10  C18 UNL     1       0.096  49.974 -16.176  1.00  0.00    -0.005 C 
HETATM   11  C19 UNL     1      -1.085  50.633 -15.419  1.00  0.00     0.019 C 
HETATM   12  C20 UNL     1       0.306  48.490 -15.699  1.00  0.00     0.134 C 
HETATM   13  C21 UNL     1       1.401  48.272 -14.665  1.00  0.00     0.111 C 
HETATM   14  C22 UNL     1       1.591  49.480 -13.793  1.00  0.00     0.140 C 
HETATM   15  O4  UNL     1       1.533  49.376 -12.568  1.00  0.00    -0.297 OA
HETATM   16  C23 UNL     1       1.993  50.783 -14.488  1.00  0.00     0.043 C 
HETATM   17  C24 UNL     1       3.539  50.779 -14.545  1.00  0.00     0.026 C 
HETATM   18  C26 UNL     1      -0.191  49.945 -17.741  1.00  0.00     0.026 C 
HETATM   19  C27 UNL     1      -1.436  49.127 -18.169  1.00  0.00     0.011 C 
HETATM   20  C28 UNL     1      -1.749  49.112 -19.684  1.00  0.00     0.011 C 
HETATM   21  C29 UNL     1      -1.041  50.211 -20.505  1.00  0.00    -0.029 C 
HETATM   22  C30 UNL     1       0.365  49.693 -20.927  1.00  0.00     0.016 C 
ENDROOT
BRANCH   1  23
HETATM   23  C2  UNL     1      -1.937  49.862 -23.079  1.00  0.00    -0.011 C 
HETATM   24  C1  UNL     1      -2.834  48.621 -23.008  1.00  0.00     0.010 C 
BRANCH  23  25
HETATM   25  C3  UNL     1      -2.292  50.756 -24.293  1.00  0.00     0.039 C 
BRANCH  25  26
HETATM   26  C4  UNL     1      -1.555  50.393 -25.594  1.00  0.00     0.150 C 
BRANCH  26  27
HETATM   27  O1  UNL     1      -2.329  49.459 -26.344  1.00  0.00    -0.393 OA
HETATM   28  H8  UNL     1      -3.004  49.948 -26.843  1.00  0.00     0.210 HD
ENDBRANCH  26  27
BRANCH  26  29
HETATM   29  C5  UNL     1      -1.333  51.625 -26.426  1.00  0.00     0.185 A 
HETATM   30  O2  UNL     1      -0.370  51.484 -27.481  1.00  0.00    -0.367 OA
HETATM   31  C6  UNL     1      -0.029  52.411 -26.439  1.00  0.00     0.083 A 
HETATM   32  C7  UNL     1      -0.064  53.845 -26.871  1.00  0.00     0.048 C 
HETATM   33  C8  UNL     1       1.151  51.994 -25.617  1.00  0.00     0.048 C 
ENDBRANCH  26  29
ENDBRANCH  25  26
ENDBRANCH  23  25
ENDBRANCH   1  23
BRANCH  12  34
HETATM   34  O3  UNL     1      -0.923  47.943 -15.217  1.00  0.00    -0.394 OA
HETATM   35  H32 UNL     1      -0.780  47.007 -14.993  1.00  0.00     0.210 HD
ENDBRANCH  12  34
BRANCH  16  36
HETATM   36  C25 UNL     1       1.532  51.961 -13.589  1.00  0.00     0.181 C 
BRANCH  36  37
HETATM   37  O5  UNL     1       0.687  52.874 -14.288  1.00  0.00    -0.400 OA
HETATM   38  H40 UNL     1       1.257  53.567 -14.665  1.00  0.00     0.209 HD
ENDBRANCH  36  37
ENDBRANCH  16  36
TORSDOF 8
ENDMDL
MODEL 6
REMARK minimizedAffinity -8.85756016
REMARK  8 active torsions:
REMARK  status: ('A' for Active; 'I' for Inactive)
REMARK    1  A    between atoms: C2_2  and  C3_3 
REMARK    2  A    between atoms: C2_2  and  C9_11 
REMARK    3  A    between atoms: C3_3  and  C4_4 
REMARK    4  A    between atoms: C4_4  and  O1_5 
REMARK    5  A    between atoms: C4_4  and  C5_6 
REMARK    6  A    between atoms: C20_22  and  O3_23 
REMARK    7  A    between atoms: C23_27  and  C25_29 
REMARK    8  A    between atoms: C25_29  and  O5_30 
ROOT
HETATM    1  C9  UNL     1      -1.871  50.704 -23.071  1.00  0.00    -0.002 C 
HETATM    2  C10 UNL     1      -2.218  50.053 -24.442  1.00  0.00     0.007 C 
HETATM    3  C11 UNL     1      -3.398  49.091 -24.197  1.00  0.00     0.015 C 
HETATM    4  C12 UNL     1      -3.450  48.914 -22.664  1.00  0.00    -0.013 C 
HETATM    5  C13 UNL     1      -2.373  47.834 -22.316  1.00  0.00     0.021 C 
HETATM    6  C14 UNL     1      -4.749  48.419 -22.034  1.00  0.00    -0.070 C 
HETATM    7  C15 UNL     1      -5.585  47.587 -22.675  1.00  0.00    -0.022 C 
HETATM    8  C16 UNL     1      -6.800  46.964 -22.062  1.00  0.00     0.034 C 
HETATM    9  C17 UNL     1      -7.202  47.525 -20.677  1.00  0.00     0.018 C 
HETATM   10  C18 UNL     1      -5.946  47.862 -19.781  1.00  0.00    -0.005 C 
HETATM   11  C19 UNL     1      -5.147  46.577 -19.444  1.00  0.00     0.019 C 
HETATM   12  C20 UNL     1      -6.414  48.589 -18.468  1.00  0.00     0.134 C 
HETATM   13  C21 UNL     1      -7.849  48.321 -18.034  1.00  0.00     0.111 C 
HETATM   14  C22 UNL     1      -8.314  46.958 -18.464  1.00  0.00     0.140 C 
HETATM   15  O4  UNL     1      -8.771  46.170 -17.637  1.00  0.00    -0.297 OA
HETATM   16  C23 UNL     1      -8.322  46.669 -19.967  1.00  0.00     0.043 C 
HETATM   17  C24 UNL     1      -9.706  47.129 -20.484  1.00  0.00     0.026 C 
HETATM   18  C26 UNL     1      -5.042  48.880 -20.605  1.00  0.00     0.026 C 
HETATM   19  C27 UNL     1      -3.779  49.388 -19.865  1.00  0.00     0.011 C 
HETATM   20  C28 UNL     1      -2.871  50.356 -20.662  1.00  0.00     0.011 C 
HETATM   21  C29 UNL     1      -3.117  50.373 -22.185  1.00  0.00    -0.029 C 
HETATM   22  C30 UNL     1      -4.251  51.393 -22.498  1.00  0.00     0.016 C 
ENDROOT
BRANCH   1  23
HETATM   23  C2  UNL     1      -1.262  52.137 -23.184  1.00  0.00    -0.011 C 
HETATM   24  C1  UNL     1       0.265  52.246 -23.105  1.00  0.00     0.010 C 
BRANCH  23  25
HETATM   25  C3  UNL     1      -1.826  52.888 -24.416  1.00  0.00     0.039 C 
BRANCH  25  26
HETATM   26  C4  UNL     1      -1.260  52.418 -25.768  1.00  0.00     0.150 C 
BRANCH  26  27
HETATM   27  O1  UNL     1      -1.738  53.265 -26.812  1.00  0.00    -0.393 OA
HETATM   28  H8  UNL     1      -1.184  54.063 -26.838  1.00  0.00     0.210 HD
ENDBRANCH  26  27
BRANCH  26  29
HETATM   29  C5  UNL     1       0.242  52.465 -25.747  1.00  0.00     0.185 A 
HETATM   30  O2  UNL     1       0.836  53.398 -26.660  1.00  0.00    -0.367 OA
HETATM   31  C6  UNL     1       1.117  52.011 -26.907  1.00  0.00     0.083 A 
HETATM   32  C7  UNL     1       2.535  51.622 -26.622  1.00  0.00     0.048 C 
HETATM   33  C8  UNL     1       0.528  51.490 -28.181  1.00  0.00     0.048 C 
ENDBRANCH  26  29
ENDBRANCH  25  26
ENDBRANCH  23  25
ENDBRANCH   1  23
BRANCH  12  34
HETATM   34  O3  UNL     1      -5.525  48.292 -17.390  1.00  0.00    -0.394 OA
HETATM   35  H32 UNL     1      -5.798  48.807 -16.611  1.00  0.00     0.210 HD
ENDBRANCH  12  34
BRANCH  16  36
HETATM   36  C25 UNL     1      -8.208  45.133 -20.153  1.00  0.00     0.181 C 
BRANCH  36  37
HETATM   37  O5  UNL     1      -7.304  44.782 -21.199  1.00  0.00    -0.400 OA
HETATM   38  H40 UNL     1      -7.823  44.703 -22.018  1.00  0.00     0.209 HD
ENDBRANCH  36  37
ENDBRANCH  16  36
TORSDOF 8
ENDMDL
MODEL 7
REMARK minimizedAffinity -8.78251839
REMARK  8 active torsions:
REMARK  status: ('A' for Active; 'I' for Inactive)
REMARK    1  A    between atoms: C2_2  and  C3_3 
REMARK    2  A    between atoms: C2_2  and  C9_11 
REMARK    3  A    between atoms: C3_3  and  C4_4 
REMARK    4  A    between atoms: C4_4  and  O1_5 
REMARK    5  A    between atoms: C4_4  and  C5_6 
REMARK    6  A    between atoms: C20_22  and  O3_23 
REMARK    7  A    between atoms: C23_27  and  C25_29 
REMARK    8  A    between atoms: C25_29  and  O5_30 
ROOT
HETATM    1  C9  UNL     1      -2.042  51.529 -23.150  1.00  0.00    -0.002 C 
HETATM    2  C10 UNL     1      -3.105  52.568 -23.613  1.00  0.00     0.007 C 
HETATM    3  C11 UNL     1      -4.488  51.978 -23.273  1.00  0.00     0.015 C 
HETATM    4  C12 UNL     1      -4.221  50.484 -22.990  1.00  0.00    -0.013 C 
HETATM    5  C13 UNL     1      -4.159  49.783 -24.386  1.00  0.00     0.021 C 
HETATM    6  C14 UNL     1      -5.251  49.702 -22.181  1.00  0.00    -0.070 C 
HETATM    7  C15 UNL     1      -6.562  49.989 -22.222  1.00  0.00    -0.022 C 
HETATM    8  C16 UNL     1      -7.631  49.178 -21.559  1.00  0.00     0.034 C 
HETATM    9  C17 UNL     1      -7.123  48.084 -20.589  1.00  0.00     0.018 C 
HETATM   10  C18 UNL     1      -5.807  47.386 -21.111  1.00  0.00    -0.005 C 
HETATM   11  C19 UNL     1      -6.076  46.617 -22.430  1.00  0.00     0.019 C 
HETATM   12  C20 UNL     1      -5.248  46.418 -20.005  1.00  0.00     0.134 C 
HETATM   13  C21 UNL     1      -6.266  45.898 -18.999  1.00  0.00     0.111 C 
HETATM   14  C22 UNL     1      -7.641  45.802 -19.598  1.00  0.00     0.140 C 
HETATM   15  O4  UNL     1      -8.262  44.740 -19.556  1.00  0.00    -0.297 OA
HETATM   16  C23 UNL     1      -8.264  47.099 -20.120  1.00  0.00     0.043 C 
HETATM   17  C24 UNL     1      -9.007  47.730 -18.918  1.00  0.00     0.026 C 
HETATM   18  C26 UNL     1      -4.729  48.532 -21.344  1.00  0.00     0.026 C 
HETATM   19  C27 UNL     1      -3.332  48.041 -21.802  1.00  0.00     0.011 C 
HETATM   20  C28 UNL     1      -2.278  49.145 -22.063  1.00  0.00     0.011 C 
HETATM   21  C29 UNL     1      -2.853  50.568 -22.220  1.00  0.00    -0.029 C 
HETATM   22  C30 UNL     1      -2.984  51.214 -20.810  1.00  0.00     0.016 C 
ENDROOT
BRANCH   1  23
HETATM   23  C2  UNL     1      -0.674  52.159 -22.741  1.00  0.00    -0.011 C 
HETATM   24  C1  UNL     1       0.067  51.500 -21.571  1.00  0.00     0.010 C 
BRANCH  23  25
HETATM   25  C3  UNL     1       0.249  52.340 -23.972  1.00  0.00     0.039 C 
BRANCH  25  26
HETATM   26  C4  UNL     1       0.190  53.737 -24.617  1.00  0.00     0.150 C 
BRANCH  26  27
HETATM   27  O1  UNL     1       1.389  54.454 -24.326  1.00  0.00    -0.393 OA
HETATM   28  H8  UNL     1       2.075  54.174 -24.953  1.00  0.00     0.210 HD
ENDBRANCH  26  27
BRANCH  26  29
HETATM   29  C5  UNL     1       0.041  53.615 -26.107  1.00  0.00     0.185 A 
HETATM   30  O2  UNL     1      -1.182  53.010 -26.551  1.00  0.00    -0.367 OA
HETATM   31  C6  UNL     1       0.022  52.285 -26.848  1.00  0.00     0.083 A 
HETATM   32  C7  UNL     1       0.376  52.273 -28.303  1.00  0.00     0.048 C 
HETATM   33  C8  UNL     1       0.138  50.980 -26.125  1.00  0.00     0.048 C 
ENDBRANCH  26  29
ENDBRANCH  25  26
ENDBRANCH  23  25
ENDBRANCH   1  23
BRANCH  12  34
HETATM   34  O3  UNL     1      -4.565  45.316 -20.606  1.00  0.00    -0.394 OA
HETATM   35  H32 UNL     1      -4.172  44.772 -19.901  1.00  0.00     0.210 HD
ENDBRANCH  12  34
BRANCH  16  36
HETATM   36  C25 UNL     1      -9.308  46.719 -21.203  1.00  0.00     0.181 C 
BRANCH  36  37
HETATM   37  O5  UNL     1     -10.633  47.090 -20.828  1.00  0.00    -0.400 OA
HETATM   38  H40 UNL     1     -11.032  46.326 -20.376  1.00  0.00     0.209 HD
ENDBRANCH  36  37
ENDBRANCH  16  36
TORSDOF 8
ENDMDL
MODEL 8
REMARK minimizedAffinity -8.66893387
REMARK  8 active torsions:
REMARK  status: ('A' for Active; 'I' for Inactive)
REMARK    1  A    between atoms: C2_2  and  C3_3 
REMARK    2  A    between atoms: C2_2  and  C9_11 
REMARK    3  A    between atoms: C3_3  and  C4_4 
REMARK    4  A    between atoms: C4_4  and  O1_5 
REMARK    5  A    between atoms: C4_4  and  C5_6 
REMARK    6  A    between atoms: C20_22  and  O3_23 
REMARK    7  A    between atoms: C23_27  and  C25_29 
REMARK    8  A    between atoms: C25_29  and  O5_30 
ROOT
HETATM    1  C9  UNL     1       6.649  63.540 -34.229  1.00  0.00    -0.002 C 
HETATM    2  C10 UNL     1       5.396  63.090 -33.420  1.00  0.00     0.007 C 
HETATM    3  C11 UNL     1       4.187  63.846 -34.008  1.00  0.00     0.015 C 
HETATM    4  C12 UNL     1       4.805  64.978 -34.856  1.00  0.00    -0.013 C 
HETATM    5  C13 UNL     1       5.156  66.127 -33.856  1.00  0.00     0.021 C 
HETATM    6  C14 UNL     1       3.947  65.624 -35.941  1.00  0.00    -0.070 C 
HETATM    7  C15 UNL     1       2.614  65.737 -35.827  1.00  0.00    -0.022 C 
HETATM    8  C16 UNL     1       1.738  66.477 -36.789  1.00  0.00     0.034 C 
HETATM    9  C17 UNL     1       2.428  66.923 -38.100  1.00  0.00     0.018 C 
HETATM   10  C18 UNL     1       3.917  67.392 -37.862  1.00  0.00    -0.005 C 
HETATM   11  C19 UNL     1       3.962  68.658 -36.969  1.00  0.00     0.019 C 
HETATM   12  C20 UNL     1       4.614  67.660 -39.246  1.00  0.00     0.134 C 
HETATM   13  C21 UNL     1       3.685  67.995 -40.405  1.00  0.00     0.111 C 
HETATM   14  C22 UNL     1       2.433  68.681 -39.935  1.00  0.00     0.140 C 
HETATM   15  O4  UNL     1       2.104  69.765 -40.416  1.00  0.00    -0.297 OA
HETATM   16  C23 UNL     1       1.543  67.911 -38.957  1.00  0.00     0.043 C 
HETATM   17  C24 UNL     1       0.569  67.082 -39.827  1.00  0.00     0.026 C 
HETATM   18  C26 UNL     1       4.681  66.186 -37.159  1.00  0.00     0.026 C 
HETATM   19  C27 UNL     1       6.190  66.425 -36.895  1.00  0.00     0.011 C 
HETATM   20  C28 UNL     1       6.943  65.275 -36.185  1.00  0.00     0.011 C 
HETATM   21  C29 UNL     1       6.038  64.237 -35.489  1.00  0.00    -0.029 C 
HETATM   22  C30 UNL     1       5.633  63.149 -36.526  1.00  0.00     0.016 C 
ENDROOT
BRANCH   1  23
HETATM   23  C2  UNL     1       7.772  62.460 -34.312  1.00  0.00    -0.011 C 
HETATM   24  C1  UNL     1       7.335  61.035 -34.674  1.00  0.00     0.010 C 
BRANCH  23  25
HETATM   25  C3  UNL     1       8.945  62.941 -35.203  1.00  0.00     0.039 C 
BRANCH  25  26
HETATM   26  C4  UNL     1      10.162  63.476 -34.427  1.00  0.00     0.150 C 
BRANCH  26  27
HETATM   27  O1  UNL     1       9.961  63.292 -33.026  1.00  0.00    -0.393 OA
HETATM   28  H8  UNL     1      10.196  62.378 -32.799  1.00  0.00     0.210 HD
ENDBRANCH  26  27
BRANCH  26  29
HETATM   29  C5  UNL     1      11.406  62.743 -34.843  1.00  0.00     0.185 A 
HETATM   30  O2  UNL     1      12.640  63.370 -34.461  1.00  0.00    -0.367 OA
HETATM   31  C6  UNL     1      12.394  63.274 -35.874  1.00  0.00     0.083 A 
HETATM   32  C7  UNL     1      13.285  62.298 -36.577  1.00  0.00     0.048 C 
HETATM   33  C8  UNL     1      12.195  64.597 -36.545  1.00  0.00     0.048 C 
ENDBRANCH  26  29
ENDBRANCH  25  26
ENDBRANCH  23  25
ENDBRANCH   1  23
BRANCH  12  34
HETATM   34  O3  UNL     1       5.602  68.683 -39.116  1.00  0.00    -0.394 OA
HETATM   35  H32 UNL     1       6.063  68.781 -39.968  1.00  0.00     0.210 HD
ENDBRANCH  12  34
BRANCH  16  36
HETATM   36  C25 UNL     1       0.723  68.948 -38.146  1.00  0.00     0.181 C 
BRANCH  36  37
HETATM   37  O5  UNL     1      -0.678  68.682 -38.191  1.00  0.00    -0.400 OA
HETATM   38  H40 UNL     1      -1.045  69.184 -38.940  1.00  0.00     0.209 HD
ENDBRANCH  36  37
ENDBRANCH  16  36
TORSDOF 8
ENDMDL
MODEL 9
REMARK minimizedAffinity -8.65849209
REMARK  8 active torsions:
REMARK  status: ('A' for Active; 'I' for Inactive)
REMARK    1  A    between atoms: C2_2  and  C3_3 
REMARK    2  A    between atoms: C2_2  and  C9_11 
REMARK    3  A    between atoms: C3_3  and  C4_4 
REMARK    4  A    between atoms: C4_4  and  O1_5 
REMARK    5  A    between atoms: C4_4  and  C5_6 
REMARK    6  A    between atoms: C20_22  and  O3_23 
REMARK    7  A    between atoms: C23_27  and  C25_29 
REMARK    8  A    between atoms: C25_29  and  O5_30 
ROOT
HETATM    1  C9  UNL     1      -5.124  47.683 -20.490  1.00  0.00    -0.002 C 
HETATM    2  C10 UNL     1      -5.930  47.067 -21.671  1.00  0.00     0.007 C 
HETATM    3  C11 UNL     1      -5.403  47.721 -22.964  1.00  0.00     0.015 C 
HETATM    4  C12 UNL     1      -4.604  48.952 -22.485  1.00  0.00    -0.013 C 
HETATM    5  C13 UNL     1      -5.656  50.080 -22.230  1.00  0.00     0.021 C 
HETATM    6  C14 UNL     1      -3.570  49.558 -23.429  1.00  0.00    -0.070 C 
HETATM    7  C15 UNL     1      -3.713  49.527 -24.764  1.00  0.00    -0.022 C 
HETATM    8  C16 UNL     1      -2.805  50.219 -25.733  1.00  0.00     0.034 C 
HETATM    9  C17 UNL     1      -1.507  50.799 -25.122  1.00  0.00     0.018 C 
HETATM   10  C18 UNL     1      -1.742  51.406 -23.684  1.00  0.00    -0.005 C 
HETATM   11  C19 UNL     1      -2.699  52.624 -23.748  1.00  0.00     0.019 C 
HETATM   12  C20 UNL     1      -0.362  51.813 -23.050  1.00  0.00     0.134 C 
HETATM   13  C21 UNL     1       0.762  52.106 -24.035  1.00  0.00     0.111 C 
HETATM   14  C22 UNL     1       0.235  52.636 -25.339  1.00  0.00     0.140 C 
HETATM   15  O4  UNL     1       0.653  53.702 -25.788  1.00  0.00    -0.297 OA
HETATM   16  C23 UNL     1      -0.718  51.730 -26.123  1.00  0.00     0.043 C 
HETATM   17  C24 UNL     1       0.176  50.849 -27.027  1.00  0.00     0.026 C 
HETATM   18  C26 UNL     1      -2.369  50.252 -22.785  1.00  0.00     0.026 C 
HETATM   19  C27 UNL     1      -2.618  50.633 -21.303  1.00  0.00     0.011 C 
HETATM   20  C28 UNL     1      -3.255  49.533 -20.419  1.00  0.00     0.011 C 
HETATM   21  C29 UNL     1      -3.913  48.374 -21.197  1.00  0.00    -0.029 C 
HETATM   22  C30 UNL     1      -2.828  47.303 -21.513  1.00  0.00     0.016 C 
ENDROOT
BRANCH   1  23
HETATM   23  C2  UNL     1      -4.965  46.730 -19.264  1.00  0.00    -0.011 C 
HETATM   24  C1  UNL     1      -4.122  47.246 -18.093  1.00  0.00     0.010 C 
BRANCH  23  25
HETATM   25  C3  UNL     1      -6.340  46.198 -18.788  1.00  0.00     0.039 C 
BRANCH  25  26
HETATM   26  C4  UNL     1      -7.184  47.216 -18.001  1.00  0.00     0.150 C 
BRANCH  26  27
HETATM   27  O1  UNL     1      -6.363  48.309 -17.589  1.00  0.00    -0.393 OA
HETATM   28  H8  UNL     1      -6.280  48.927 -18.333  1.00  0.00     0.210 HD
ENDBRANCH  26  27
BRANCH  26  29
HETATM   29  C5  UNL     1      -8.302  47.738 -18.859  1.00  0.00     0.185 A 
HETATM   30  O2  UNL     1      -8.769  49.052 -18.519  1.00  0.00    -0.367 OA
HETATM   31  C6  UNL     1      -9.715  47.984 -18.348  1.00  0.00     0.083 A 
HETATM   32  C7  UNL     1     -10.838  48.007 -19.339  1.00  0.00     0.048 C 
HETATM   33  C8  UNL     1     -10.091  47.730 -16.922  1.00  0.00     0.048 C 
ENDBRANCH  26  29
ENDBRANCH  25  26
ENDBRANCH  23  25
ENDBRANCH   1  23
BRANCH  12  34
HETATM   34  O3  UNL     1      -0.527  52.925 -22.169  1.00  0.00    -0.394 OA
HETATM   35  H32 UNL     1       0.327  53.112 -21.740  1.00  0.00     0.210 HD
ENDBRANCH  12  34
BRANCH  16  36
HETATM   36  C25 UNL     1      -1.596  52.636 -27.026  1.00  0.00     0.181 C 
BRANCH  36  37
HETATM   37  O5  UNL     1      -0.911  53.042 -28.210  1.00  0.00    -0.400 OA
HETATM   38  H40 UNL     1      -0.476  53.892 -28.018  1.00  0.00     0.209 HD
ENDBRANCH  36  37
ENDBRANCH  16  36
TORSDOF 8
ENDMDL
