MODEL 1
REMARK minimizedAffinity -9.296422
REMARK  11 active torsions:
REMARK  status: ('A' for Active; 'I' for Inactive)
REMARK    1  A    between atoms: C6_6  and  C8_8 
REMARK    2  A    between atoms: C8_8  and  O1_9 
REMARK    3  A    between atoms: O1_9  and  C9_10 
REMARK    4  A    between atoms: C10_12  and  C11_13 
REMARK    5  A    between atoms: C11_13  and  O3_14 
REMARK    6  A    between atoms: C12_15  and  O4_16 
REMARK    7  A    between atoms: C13_17  and  O5_18 
REMARK    8  A    between atoms: C14_19  and  O6_20 
REMARK    9  A    between atoms: C20_26  and  C21_27 
REMARK   10  A    between atoms: C21_27  and  C22_28 
REMARK   11  A    between atoms: C26_34  and  O9_35 
ROOT
HETATM    1  C1  UNL     1       2.208   8.869  13.037  1.00  0.00     0.015 C 
HETATM    2  C2  UNL     1       0.964   8.536  12.651  1.00  0.00    -0.084 C 
HETATM    3  C3  UNL     1      -0.249   9.290  13.132  1.00  0.00     0.034 C 
HETATM    4  C4  UNL     1      -1.281   8.357  13.769  1.00  0.00     0.010 C 
HETATM    5  C5  UNL     1      -1.596   7.116  12.895  1.00  0.00     0.005 C 
HETATM    6  C6  UNL     1      -2.775   6.228  13.459  1.00  0.00    -0.018 C 
HETATM    7  C7  UNL     1      -2.776   6.101  14.999  1.00  0.00     0.018 C 
HETATM    8  C15 UNL     1      -2.729   4.793  12.863  1.00  0.00     0.012 C 
HETATM    9  C16 UNL     1      -2.093   4.766  11.481  1.00  0.00     0.002 C 
HETATM   10  C17 UNL     1      -0.608   5.105  11.575  1.00  0.00     0.010 C 
HETATM   11  C18 UNL     1      -0.289   6.342  12.477  1.00  0.00    -0.032 C 
HETATM   12  C19 UNL     1       0.460   5.784  13.723  1.00  0.00     0.016 C 
HETATM   13  C20 UNL     1       0.687   7.346  11.733  1.00  0.00     0.025 C 
ENDROOT
BRANCH   6  14
HETATM   14  C8  UNL     1      -4.116   6.911  13.039  1.00  0.00     0.180 C 
BRANCH  14  15
HETATM   15  O1  UNL     1      -4.819   7.411  14.179  1.00  0.00    -0.358 OA
BRANCH  15  16
HETATM   16  C9  UNL     1      -6.239   7.299  14.029  1.00  0.00     0.291 C 
HETATM   17  O2  UNL     1      -6.586   5.946  13.748  1.00  0.00    -0.348 OA
HETATM   18  C10 UNL     1      -8.002   5.769  13.593  1.00  0.00     0.179 C 
HETATM   19  C12 UNL     1      -8.734   6.075  14.909  1.00  0.00     0.180 C 
HETATM   20  C13 UNL     1      -8.379   7.499  15.375  1.00  0.00     0.183 C 
HETATM   21  C14 UNL     1      -6.871   7.772  15.353  1.00  0.00     0.204 C 
BRANCH  18  22
HETATM   22  C11 UNL     1      -8.257   4.340  13.108  1.00  0.00     0.198 C 
BRANCH  22  23
HETATM   23  O3  UNL     1      -7.043   3.596  13.115  1.00  0.00    -0.398 OA
HETATM   24  H17 UNL     1      -7.266   2.693  12.826  1.00  0.00     0.209 HD
ENDBRANCH  22  23
ENDBRANCH  18  22
BRANCH  19  25
HETATM   25  O4  UNL     1      -8.376   5.125  15.923  1.00  0.00    -0.390 OA
HETATM   26  H19 UNL     1      -8.729   5.491  16.757  1.00  0.00     0.210 HD
ENDBRANCH  19  25
BRANCH  20  27
HETATM   27  O5  UNL     1      -8.877   7.697  16.709  1.00  0.00    -0.390 OA
HETATM   28  H21 UNL     1      -8.103   7.517  17.287  1.00  0.00     0.210 HD
ENDBRANCH  20  27
BRANCH  21  29
HETATM   29  O6  UNL     1      -6.280   7.113  16.497  1.00  0.00    -0.388 OA
HETATM   30  H23 UNL     1      -5.409   6.790  16.184  1.00  0.00     0.210 HD
ENDBRANCH  21  29
ENDBRANCH  15  16
ENDBRANCH  14  15
ENDBRANCH   6  14
BRANCH  13  31
HETATM   31  C21 UNL     1       0.186   7.847  10.345  1.00  0.00     0.037 C 
BRANCH  31  32
HETATM   32  C22 UNL     1       0.984   7.308   9.186  1.00  0.00    -0.010 C 
HETATM   33  C23 UNL     1       1.975   6.402   9.257  1.00  0.00     0.044 C 
HETATM   34  C24 UNL     1       2.672   5.930   8.036  1.00  0.00     0.291 C 
HETATM   35  C26 UNL     1       2.610   5.719  10.411  1.00  0.00     0.181 C 
HETATM   36  O7  UNL     1       2.320   6.106   6.885  1.00  0.00    -0.260 OA
HETATM   37  O8  UNL     1       3.771   5.221   8.422  1.00  0.00    -0.315 OA
HETATM   38  C25 UNL     1       3.965   5.385   9.825  1.00  0.00     0.215 C 
BRANCH  35  39
HETATM   39  O9  UNL     1       2.714   6.550  11.554  1.00  0.00    -0.389 OA
HETATM   40  H40 UNL     1       3.232   6.075  12.226  1.00  0.00     0.210 HD
ENDBRANCH  35  39
ENDBRANCH  31  32
ENDBRANCH  13  31
TORSDOF 11
ENDMDL
MODEL 2
REMARK minimizedAffinity -9.2494421
REMARK  11 active torsions:
REMARK  status: ('A' for Active; 'I' for Inactive)
REMARK    1  A    between atoms: C6_6  and  C8_8 
REMARK    2  A    between atoms: C8_8  and  O1_9 
REMARK    3  A    between atoms: O1_9  and  C9_10 
REMARK    4  A    between atoms: C10_12  and  C11_13 
REMARK    5  A    between atoms: C11_13  and  O3_14 
REMARK    6  A    between atoms: C12_15  and  O4_16 
REMARK    7  A    between atoms: C13_17  and  O5_18 
REMARK    8  A    between atoms: C14_19  and  O6_20 
REMARK    9  A    between atoms: C20_26  and  C21_27 
REMARK   10  A    between atoms: C21_27  and  C22_28 
REMARK   11  A    between atoms: C26_34  and  O9_35 
ROOT
HETATM    1  C1  UNL     1       1.520   7.899  10.422  1.00  0.00     0.015 C 
HETATM    2  C2  UNL     1       0.311   7.731  10.987  1.00  0.00    -0.084 C 
HETATM    3  C3  UNL     1      -0.764   8.782  10.896  1.00  0.00     0.034 C 
HETATM    4  C4  UNL     1      -1.290   9.177  12.278  1.00  0.00     0.010 C 
HETATM    5  C5  UNL     1      -1.654   7.954  13.159  1.00  0.00     0.005 C 
HETATM    6  C6  UNL     1      -2.349   8.342  14.524  1.00  0.00    -0.018 C 
HETATM    7  C7  UNL     1      -1.764   9.612  15.181  1.00  0.00     0.018 C 
HETATM    8  C15 UNL     1      -2.246   7.182  15.554  1.00  0.00     0.012 C 
HETATM    9  C16 UNL     1      -2.165   5.821  14.878  1.00  0.00     0.002 C 
HETATM   10  C17 UNL     1      -0.846   5.680  14.126  1.00  0.00     0.010 C 
HETATM   11  C18 UNL     1      -0.466   6.924  13.258  1.00  0.00    -0.032 C 
HETATM   12  C19 UNL     1       0.779   7.562  13.941  1.00  0.00     0.016 C 
HETATM   13  C20 UNL     1      -0.045   6.484  11.794  1.00  0.00     0.025 C 
ENDROOT
BRANCH   6  14
HETATM   14  C8  UNL     1      -3.857   8.618  14.219  1.00  0.00     0.180 C 
BRANCH  14  15
HETATM   15  O1  UNL     1      -4.533   7.419  13.837  1.00  0.00    -0.358 OA
BRANCH  15  16
HETATM   16  C9  UNL     1      -5.933   7.470  14.138  1.00  0.00     0.291 C 
HETATM   17  O2  UNL     1      -6.592   6.354  13.546  1.00  0.00    -0.348 OA
HETATM   18  C10 UNL     1      -8.001   6.347  13.819  1.00  0.00     0.179 C 
HETATM   19  C12 UNL     1      -8.261   6.177  15.324  1.00  0.00     0.180 C 
HETATM   20  C13 UNL     1      -7.529   7.287  16.100  1.00  0.00     0.183 C 
HETATM   21  C14 UNL     1      -6.065   7.443  15.674  1.00  0.00     0.204 C 
BRANCH  18  22
HETATM   22  C11 UNL     1      -8.646   5.233  12.991  1.00  0.00     0.198 C 
BRANCH  22  23
HETATM   23  O3  UNL     1      -8.625   5.576  11.609  1.00  0.00    -0.398 OA
HETATM   24  H17 UNL     1      -9.020   4.826  11.129  1.00  0.00     0.209 HD
ENDBRANCH  22  23
ENDBRANCH  18  22
BRANCH  19  25
HETATM   25  O4  UNL     1      -7.816   4.889  15.775  1.00  0.00    -0.390 OA
HETATM   26  H19 UNL     1      -7.844   4.932  16.750  1.00  0.00     0.210 HD
ENDBRANCH  19  25
BRANCH  20  27
HETATM   27  O5  UNL     1      -7.584   6.994  17.507  1.00  0.00    -0.390 OA
HETATM   28  H21 UNL     1      -6.726   6.554  17.697  1.00  0.00     0.210 HD
ENDBRANCH  20  27
BRANCH  21  29
HETATM   29  O6  UNL     1      -5.309   6.359  16.260  1.00  0.00    -0.388 OA
HETATM   30  H23 UNL     1      -4.639   6.120  15.585  1.00  0.00     0.210 HD
ENDBRANCH  21  29
ENDBRANCH  15  16
ENDBRANCH  14  15
ENDBRANCH   6  14
BRANCH  13  31
HETATM   31  C21 UNL     1      -1.105   5.636  11.029  1.00  0.00     0.037 C 
BRANCH  31  32
HETATM   32  C22 UNL     1      -0.844   4.152  11.084  1.00  0.00    -0.010 C 
HETATM   33  C23 UNL     1      -1.773   3.181  11.086  1.00  0.00     0.044 C 
HETATM   34  C24 UNL     1      -1.387   1.749  11.118  1.00  0.00     0.291 C 
HETATM   35  C26 UNL     1      -3.256   3.231  11.092  1.00  0.00     0.181 C 
HETATM   36  O7  UNL     1      -0.275   1.293  10.929  1.00  0.00    -0.260 OA
HETATM   37  O8  UNL     1      -2.508   1.013  11.361  1.00  0.00    -0.315 OA
HETATM   38  C25 UNL     1      -3.577   1.889  11.714  1.00  0.00     0.215 C 
BRANCH  35  39
HETATM   39  O9  UNL     1      -3.768   4.309  11.856  1.00  0.00    -0.389 OA
HETATM   40  H40 UNL     1      -4.735   4.212  11.902  1.00  0.00     0.210 HD
ENDBRANCH  35  39
ENDBRANCH  31  32
ENDBRANCH  13  31
TORSDOF 11
ENDMDL
MODEL 3
REMARK minimizedAffinity -9.19447136
REMARK  11 active torsions:
REMARK  status: ('A' for Active; 'I' for Inactive)
REMARK    1  A    between atoms: C6_6  and  C8_8 
REMARK    2  A    between atoms: C8_8  and  O1_9 
REMARK    3  A    between atoms: O1_9  and  C9_10 
REMARK    4  A    between atoms: C10_12  and  C11_13 
REMARK    5  A    between atoms: C11_13  and  O3_14 
REMARK    6  A    between atoms: C12_15  and  O4_16 
REMARK    7  A    between atoms: C13_17  and  O5_18 
REMARK    8  A    between atoms: C14_19  and  O6_20 
REMARK    9  A    between atoms: C20_26  and  C21_27 
REMARK   10  A    between atoms: C21_27  and  C22_28 
REMARK   11  A    between atoms: C26_34  and  O9_35 
ROOT
HETATM    1  C1  UNL     1      -4.903   8.052  15.833  1.00  0.00     0.015 C 
HETATM    2  C2  UNL     1      -3.839   7.571  15.167  1.00  0.00    -0.084 C 
HETATM    3  C3  UNL     1      -2.750   6.793  15.858  1.00  0.00     0.034 C 
HETATM    4  C4  UNL     1      -1.368   7.398  15.601  1.00  0.00     0.010 C 
HETATM    5  C5  UNL     1      -1.104   7.687  14.101  1.00  0.00     0.005 C 
HETATM    6  C6  UNL     1       0.373   8.160  13.799  1.00  0.00    -0.018 C 
HETATM    7  C7  UNL     1       0.957   9.102  14.874  1.00  0.00     0.018 C 
HETATM    8  C15 UNL     1       0.457   8.890  12.428  1.00  0.00     0.012 C 
HETATM    9  C16 UNL     1      -0.607   8.407  11.454  1.00  0.00     0.002 C 
HETATM   10  C17 UNL     1      -1.994   8.821  11.937  1.00  0.00     0.010 C 
HETATM   11  C18 UNL     1      -2.251   8.553  13.455  1.00  0.00    -0.032 C 
HETATM   12  C19 UNL     1      -2.349   9.954  14.129  1.00  0.00     0.016 C 
HETATM   13  C20 UNL     1      -3.636   7.813  13.671  1.00  0.00     0.025 C 
ENDROOT
BRANCH   6  14
HETATM   14  C8  UNL     1       1.272   6.883  13.750  1.00  0.00     0.180 C 
BRANCH  14  15
HETATM   15  O1  UNL     1       1.174   6.232  12.481  1.00  0.00    -0.358 OA
BRANCH  15  16
HETATM   16  C9  UNL     1       2.132   6.734  11.542  1.00  0.00     0.291 C 
HETATM   17  O2  UNL     1       3.430   6.721  12.127  1.00  0.00    -0.348 OA
HETATM   18  C10 UNL     1       4.437   7.210  11.229  1.00  0.00     0.179 C 
HETATM   19  C12 UNL     1       4.570   6.285  10.009  1.00  0.00     0.180 C 
HETATM   20  C13 UNL     1       3.200   6.145   9.319  1.00  0.00     0.183 C 
HETATM   21  C14 UNL     1       2.071   5.820  10.303  1.00  0.00     0.204 C 
BRANCH  18  22
HETATM   22  C11 UNL     1       5.751   7.339  12.002  1.00  0.00     0.198 C 
BRANCH  22  23
HETATM   23  O3  UNL     1       6.031   6.127  12.696  1.00  0.00    -0.398 OA
HETATM   24  H17 UNL     1       6.886   6.253  13.147  1.00  0.00     0.209 HD
ENDBRANCH  22  23
ENDBRANCH  18  22
BRANCH  19  25
HETATM   25  O4  UNL     1       5.055   4.993  10.400  1.00  0.00    -0.390 OA
HETATM   26  H19 UNL     1       4.936   4.423   9.616  1.00  0.00     0.210 HD
ENDBRANCH  19  25
BRANCH  20  27
HETATM   27  O5  UNL     1       3.276   5.110   8.325  1.00  0.00    -0.390 OA
HETATM   28  H21 UNL     1       2.920   4.312   8.777  1.00  0.00     0.210 HD
ENDBRANCH  20  27
BRANCH  21  29
HETATM   29  O6  UNL     1       2.176   4.422  10.660  1.00  0.00    -0.388 OA
HETATM   30  H23 UNL     1       1.922   4.380  11.605  1.00  0.00     0.210 HD
ENDBRANCH  21  29
ENDBRANCH  15  16
ENDBRANCH  14  15
ENDBRANCH   6  14
BRANCH  13  31
HETATM   31  C21 UNL     1      -3.801   6.477  12.886  1.00  0.00     0.037 C 
BRANCH  31  32
HETATM   32  C22 UNL     1      -5.095   5.762  13.179  1.00  0.00    -0.010 C 
HETATM   33  C23 UNL     1      -5.383   4.484  12.878  1.00  0.00     0.044 C 
HETATM   34  C24 UNL     1      -6.690   3.885  13.243  1.00  0.00     0.291 C 
HETATM   35  C26 UNL     1      -4.611   3.438  12.162  1.00  0.00     0.181 C 
HETATM   36  O7  UNL     1      -7.518   4.354  14.001  1.00  0.00    -0.260 OA
HETATM   37  O8  UNL     1      -6.799   2.683  12.607  1.00  0.00    -0.315 OA
HETATM   38  C25 UNL     1      -5.735   2.554  11.666  1.00  0.00     0.215 C 
BRANCH  35  39
HETATM   39  O9  UNL     1      -3.833   3.959  11.098  1.00  0.00    -0.389 OA
HETATM   40  H40 UNL     1      -3.447   3.210  10.613  1.00  0.00     0.210 HD
ENDBRANCH  35  39
ENDBRANCH  31  32
ENDBRANCH  13  31
TORSDOF 11
ENDMDL
MODEL 4
REMARK minimizedAffinity -9.03230286
REMARK  11 active torsions:
REMARK  status: ('A' for Active; 'I' for Inactive)
REMARK    1  A    between atoms: C6_6  and  C8_8 
REMARK    2  A    between atoms: C8_8  and  O1_9 
REMARK    3  A    between atoms: O1_9  and  C9_10 
REMARK    4  A    between atoms: C10_12  and  C11_13 
REMARK    5  A    between atoms: C11_13  and  O3_14 
REMARK    6  A    between atoms: C12_15  and  O4_16 
REMARK    7  A    between atoms: C13_17  and  O5_18 
REMARK    8  A    between atoms: C14_19  and  O6_20 
REMARK    9  A    between atoms: C20_26  and  C21_27 
REMARK   10  A    between atoms: C21_27  and  C22_28 
REMARK   11  A    between atoms: C26_34  and  O9_35 
ROOT
HETATM    1  C1  UNL     1      -4.732   8.416  14.093  1.00  0.00     0.015 C 
HETATM    2  C2  UNL     1      -3.531   7.858  14.321  1.00  0.00    -0.084 C 
HETATM    3  C3  UNL     1      -2.746   8.139  15.576  1.00  0.00     0.034 C 
HETATM    4  C4  UNL     1      -1.332   8.635  15.263  1.00  0.00     0.010 C 
HETATM    5  C5  UNL     1      -0.596   7.749  14.225  1.00  0.00     0.005 C 
HETATM    6  C6  UNL     1       0.917   8.150  14.011  1.00  0.00    -0.018 C 
HETATM    7  C7  UNL     1       1.165   9.674  14.029  1.00  0.00     0.018 C 
HETATM    8  C15 UNL     1       1.458   7.595  12.663  1.00  0.00     0.012 C 
HETATM    9  C16 UNL     1       0.739   6.323  12.237  1.00  0.00     0.002 C 
HETATM   10  C17 UNL     1      -0.713   6.629  11.882  1.00  0.00     0.010 C 
HETATM   11  C18 UNL     1      -1.447   7.544  12.915  1.00  0.00    -0.032 C 
HETATM   12  C19 UNL     1      -1.701   8.897  12.189  1.00  0.00     0.016 C 
HETATM   13  C20 UNL     1      -2.856   6.932  13.309  1.00  0.00     0.025 C 
ENDROOT
BRANCH   6  14
HETATM   14  C8  UNL     1       1.737   7.523  15.184  1.00  0.00     0.180 C 
BRANCH  14  15
HETATM   15  O1  UNL     1       2.463   8.525  15.899  1.00  0.00    -0.358 OA
BRANCH  15  16
HETATM   16  C9  UNL     1       3.726   8.815  15.289  1.00  0.00     0.291 C 
HETATM   17  O2  UNL     1       4.549   9.531  16.205  1.00  0.00    -0.348 OA
HETATM   18  C10 UNL     1       5.834   9.846  15.651  1.00  0.00     0.179 C 
HETATM   19  C12 UNL     1       6.629   8.563  15.362  1.00  0.00     0.180 C 
HETATM   20  C13 UNL     1       5.809   7.649  14.433  1.00  0.00     0.183 C 
HETATM   21  C14 UNL     1       4.363   7.464  14.907  1.00  0.00     0.204 C 
BRANCH  18  22
HETATM   22  C11 UNL     1       6.566  10.771  16.626  1.00  0.00     0.198 C 
BRANCH  22  23
HETATM   23  O3  UNL     1       6.904  10.062  17.814  1.00  0.00    -0.398 OA
HETATM   24  H17 UNL     1       7.388  10.686  18.385  1.00  0.00     0.209 HD
ENDBRANCH  22  23
ENDBRANCH  18  22
BRANCH  19  25
HETATM   25  O4  UNL     1       6.939   7.871  16.580  1.00  0.00    -0.390 OA
HETATM   26  H19 UNL     1       7.272   6.996  16.304  1.00  0.00     0.210 HD
ENDBRANCH  19  25
BRANCH  20  27
HETATM   27  O5  UNL     1       6.448   6.364  14.350  1.00  0.00    -0.390 OA
HETATM   28  H21 UNL     1       5.969   5.811  15.007  1.00  0.00     0.210 HD
ENDBRANCH  20  27
BRANCH  21  29
HETATM   29  O6  UNL     1       4.371   6.540  16.020  1.00  0.00    -0.388 OA
HETATM   30  H23 UNL     1       3.678   6.869  16.630  1.00  0.00     0.210 HD
ENDBRANCH  21  29
ENDBRANCH  15  16
ENDBRANCH  14  15
ENDBRANCH   6  14
BRANCH  13  31
HETATM   31  C21 UNL     1      -2.813   5.476  13.862  1.00  0.00     0.037 C 
BRANCH  31  32
HETATM   32  C22 UNL     1      -3.495   4.472  12.968  1.00  0.00    -0.010 C 
HETATM   33  C23 UNL     1      -4.821   4.321  12.809  1.00  0.00     0.044 C 
HETATM   34  C24 UNL     1      -5.372   3.309  11.875  1.00  0.00     0.291 C 
HETATM   35  C26 UNL     1      -5.977   4.996  13.448  1.00  0.00     0.181 C 
HETATM   36  O7  UNL     1      -4.755   2.690  11.028  1.00  0.00    -0.260 OA
HETATM   37  O8  UNL     1      -6.713   3.210  12.099  1.00  0.00    -0.315 OA
HETATM   38  C25 UNL     1      -7.045   3.938  13.280  1.00  0.00     0.215 C 
BRANCH  35  39
HETATM   39  O9  UNL     1      -5.747   5.310  14.811  1.00  0.00    -0.389 OA
HETATM   40  H40 UNL     1      -6.578   5.647  15.187  1.00  0.00     0.210 HD
ENDBRANCH  35  39
ENDBRANCH  31  32
ENDBRANCH  13  31
TORSDOF 11
ENDMDL
MODEL 5
REMARK minimizedAffinity -8.94513702
REMARK  11 active torsions:
REMARK  status: ('A' for Active; 'I' for Inactive)
REMARK    1  A    between atoms: C6_6  and  C8_8 
REMARK    2  A    between atoms: C8_8  and  O1_9 
REMARK    3  A    between atoms: O1_9  and  C9_10 
REMARK    4  A    between atoms: C10_12  and  C11_13 
REMARK    5  A    between atoms: C11_13  and  O3_14 
REMARK    6  A    between atoms: C12_15  and  O4_16 
REMARK    7  A    between atoms: C13_17  and  O5_18 
REMARK    8  A    between atoms: C14_19  and  O6_20 
REMARK    9  A    between atoms: C20_26  and  C21_27 
REMARK   10  A    between atoms: C21_27  and  C22_28 
REMARK   11  A    between atoms: C26_34  and  O9_35 
ROOT
HETATM    1  C1  UNL     1       5.465  14.715  23.173  1.00  0.00     0.015 C 
HETATM    2  C2  UNL     1       6.468  13.901  22.799  1.00  0.00    -0.084 C 
HETATM    3  C3  UNL     1       7.872  14.075  23.316  1.00  0.00     0.034 C 
HETATM    4  C4  UNL     1       8.888  14.191  22.177  1.00  0.00     0.010 C 
HETATM    5  C5  UNL     1       8.725  13.079  21.108  1.00  0.00     0.005 C 
HETATM    6  C6  UNL     1       9.864  13.086  20.012  1.00  0.00    -0.018 C 
HETATM    7  C7  UNL     1      10.305  14.502  19.583  1.00  0.00     0.018 C 
HETATM    8  C15 UNL     1       9.416  12.319  18.736  1.00  0.00     0.012 C 
HETATM    9  C16 UNL     1       8.399  11.231  19.048  1.00  0.00     0.002 C 
HETATM   10  C17 UNL     1       7.084  11.851  19.510  1.00  0.00     0.010 C 
HETATM   11  C18 UNL     1       7.249  12.990  20.568  1.00  0.00    -0.032 C 
HETATM   12  C19 UNL     1       6.828  14.307  19.853  1.00  0.00     0.016 C 
HETATM   13  C20 UNL     1       6.267  12.768  21.793  1.00  0.00     0.025 C 
ENDROOT
BRANCH   6  14
HETATM   14  C8  UNL     1      11.108  12.367  20.626  1.00  0.00     0.180 C 
BRANCH  14  15
HETATM   15  O1  UNL     1      11.922  11.785  19.606  1.00  0.00    -0.358 OA
BRANCH  15  16
HETATM   16  C9  UNL     1      13.099  12.560  19.347  1.00  0.00     0.291 C 
HETATM   17  O2  UNL     1      14.039  12.371  20.400  1.00  0.00    -0.348 OA
HETATM   18  C10 UNL     1      15.246  13.120  20.194  1.00  0.00     0.179 C 
HETATM   19  C12 UNL     1      15.985  12.623  18.942  1.00  0.00     0.180 C 
HETATM   20  C13 UNL     1      15.044  12.699  17.726  1.00  0.00     0.183 C 
HETATM   21  C14 UNL     1      13.670  12.077  17.999  1.00  0.00     0.204 C 
BRANCH  18  22
HETATM   22  C11 UNL     1      16.104  13.008  21.455  1.00  0.00     0.198 C 
BRANCH  22  23
HETATM   23  O3  UNL     1      16.107  14.247  22.157  1.00  0.00    -0.398 OA
HETATM   24  H17 UNL     1      16.642  14.113  22.960  1.00  0.00     0.209 HD
ENDBRANCH  22  23
ENDBRANCH  18  22
BRANCH  19  25
HETATM   25  O4  UNL     1      16.443  11.275  19.124  1.00  0.00    -0.390 OA
HETATM   26  H19 UNL     1      16.730  10.978  18.239  1.00  0.00     0.210 HD
ENDBRANCH  19  25
BRANCH  20  27
HETATM   27  O5  UNL     1      15.656  12.025  16.613  1.00  0.00    -0.390 OA
HETATM   28  H21 UNL     1      15.261  11.125  16.626  1.00  0.00     0.210 HD
ENDBRANCH  20  27
BRANCH  21  29
HETATM   29  O6  UNL     1      13.813  10.639  17.960  1.00  0.00    -0.388 OA
HETATM   30  H23 UNL     1      13.207  10.303  18.653  1.00  0.00     0.210 HD
ENDBRANCH  21  29
ENDBRANCH  15  16
ENDBRANCH  14  15
ENDBRANCH   6  14
BRANCH  13  31
HETATM   31  C21 UNL     1       6.402  11.389  22.507  1.00  0.00     0.037 C 
BRANCH  31  32
HETATM   32  C22 UNL     1       5.155  10.966  23.241  1.00  0.00    -0.010 C 
HETATM   33  C23 UNL     1       4.163  10.205  22.748  1.00  0.00     0.044 C 
HETATM   34  C24 UNL     1       2.994   9.833  23.581  1.00  0.00     0.291 C 
HETATM   35  C26 UNL     1       3.944   9.613  21.405  1.00  0.00     0.181 C 
HETATM   36  O7  UNL     1       2.891   9.961  24.787  1.00  0.00    -0.260 OA
HETATM   37  O8  UNL     1       2.049   9.282  22.766  1.00  0.00    -0.315 OA
HETATM   38  C25 UNL     1       2.437   9.469  21.406  1.00  0.00     0.215 C 
BRANCH  35  39
HETATM   39  O9  UNL     1       4.398  10.449  20.354  1.00  0.00    -0.389 OA
HETATM   40  H40 UNL     1       4.124  10.049  19.511  1.00  0.00     0.210 HD
ENDBRANCH  35  39
ENDBRANCH  31  32
ENDBRANCH  13  31
TORSDOF 11
ENDMDL
MODEL 6
REMARK minimizedAffinity -8.8324213
REMARK  11 active torsions:
REMARK  status: ('A' for Active; 'I' for Inactive)
REMARK    1  A    between atoms: C6_6  and  C8_8 
REMARK    2  A    between atoms: C8_8  and  O1_9 
REMARK    3  A    between atoms: O1_9  and  C9_10 
REMARK    4  A    between atoms: C10_12  and  C11_13 
REMARK    5  A    between atoms: C11_13  and  O3_14 
REMARK    6  A    between atoms: C12_15  and  O4_16 
REMARK    7  A    between atoms: C13_17  and  O5_18 
REMARK    8  A    between atoms: C14_19  and  O6_20 
REMARK    9  A    between atoms: C20_26  and  C21_27 
REMARK   10  A    between atoms: C21_27  and  C22_28 
REMARK   11  A    between atoms: C26_34  and  O9_35 
ROOT
HETATM    1  C1  UNL     1      -4.394   3.385  12.968  1.00  0.00     0.015 C 
HETATM    2  C2  UNL     1      -3.820   4.594  12.845  1.00  0.00    -0.084 C 
HETATM    3  C3  UNL     1      -2.947   4.947  11.668  1.00  0.00     0.034 C 
HETATM    4  C4  UNL     1      -1.574   5.456  12.112  1.00  0.00     0.010 C 
HETATM    5  C5  UNL     1      -1.660   6.552  13.205  1.00  0.00     0.005 C 
HETATM    6  C6  UNL     1      -0.264   7.204  13.558  1.00  0.00    -0.018 C 
HETATM    7  C7  UNL     1       0.906   6.195  13.574  1.00  0.00     0.018 C 
HETATM    8  C15 UNL     1      -0.309   7.905  14.945  1.00  0.00     0.012 C 
HETATM    9  C16 UNL     1      -1.706   8.396  15.294  1.00  0.00     0.002 C 
HETATM   10  C17 UNL     1      -2.643   7.213  15.519  1.00  0.00     0.010 C 
HETATM   11  C18 UNL     1      -2.538   6.096  14.431  1.00  0.00    -0.032 C 
HETATM   12  C19 UNL     1      -1.915   4.859  15.142  1.00  0.00     0.016 C 
HETATM   13  C20 UNL     1      -3.976   5.682  13.906  1.00  0.00     0.025 C 
ENDROOT
BRANCH   6  14
HETATM   14  C8  UNL     1       0.046   8.270  12.459  1.00  0.00     0.180 C 
BRANCH  14  15
HETATM   15  O1  UNL     1       0.075   7.677  11.159  1.00  0.00    -0.358 OA
BRANCH  15  16
HETATM   16  C9  UNL     1       1.330   7.885  10.500  1.00  0.00     0.291 C 
HETATM   17  O2  UNL     1       2.378   7.924  11.464  1.00  0.00    -0.348 OA
HETATM   18  C10 UNL     1       3.665   8.124  10.862  1.00  0.00     0.179 C 
HETATM   19  C12 UNL     1       4.033   6.935   9.960  1.00  0.00     0.180 C 
HETATM   20  C13 UNL     1       2.929   6.728   8.907  1.00  0.00     0.183 C 
HETATM   21  C14 UNL     1       1.522   6.713   9.516  1.00  0.00     0.204 C 
BRANCH  18  22
HETATM   22  C11 UNL     1       4.689   8.343  11.977  1.00  0.00     0.198 C 
BRANCH  22  23
HETATM   23  O3  UNL     1       4.494   7.388  13.015  1.00  0.00    -0.398 OA
HETATM   24  H17 UNL     1       5.185   7.554  13.682  1.00  0.00     0.209 HD
ENDBRANCH  22  23
ENDBRANCH  18  22
BRANCH  19  25
HETATM   25  O4  UNL     1       4.198   5.740  10.737  1.00  0.00    -0.390 OA
HETATM   26  H19 UNL     1       4.244   5.012  10.087  1.00  0.00     0.210 HD
ENDBRANCH  19  25
BRANCH  20  27
HETATM   27  O5  UNL     1       3.159   5.487   8.219  1.00  0.00    -0.390 OA
HETATM   28  H21 UNL     1       2.580   4.841   8.680  1.00  0.00     0.210 HD
ENDBRANCH  20  27
BRANCH  21  29
HETATM   29  O6  UNL     1       1.325   5.433  10.159  1.00  0.00    -0.388 OA
HETATM   30  H23 UNL     1       0.795   5.628  10.960  1.00  0.00     0.210 HD
ENDBRANCH  21  29
ENDBRANCH  15  16
ENDBRANCH  14  15
ENDBRANCH   6  14
BRANCH  13  31
HETATM   31  C21 UNL     1      -4.838   6.854  13.348  1.00  0.00     0.037 C 
BRANCH  31  32
HETATM   32  C22 UNL     1      -6.311   6.542  13.288  1.00  0.00    -0.010 C 
HETATM   33  C23 UNL     1      -7.234   6.883  14.204  1.00  0.00     0.044 C 
HETATM   34  C24 UNL     1      -8.665   6.538  14.018  1.00  0.00     0.291 C 
HETATM   35  C26 UNL     1      -7.122   7.576  15.510  1.00  0.00     0.181 C 
HETATM   36  O7  UNL     1      -9.188   6.141  12.994  1.00  0.00    -0.260 OA
HETATM   37  O8  UNL     1      -9.316   6.779  15.191  1.00  0.00    -0.315 OA
HETATM   38  C25 UNL     1      -8.357   7.053  16.211  1.00  0.00     0.215 C 
BRANCH  35  39
HETATM   39  O9  UNL     1      -5.933   7.247  16.209  1.00  0.00    -0.389 OA
HETATM   40  H40 UNL     1      -5.982   7.650  17.093  1.00  0.00     0.210 HD
ENDBRANCH  35  39
ENDBRANCH  31  32
ENDBRANCH  13  31
TORSDOF 11
ENDMDL
MODEL 7
REMARK minimizedAffinity -8.7967968
REMARK  11 active torsions:
REMARK  status: ('A' for Active; 'I' for Inactive)
REMARK    1  A    between atoms: C6_6  and  C8_8 
REMARK    2  A    between atoms: C8_8  and  O1_9 
REMARK    3  A    between atoms: O1_9  and  C9_10 
REMARK    4  A    between atoms: C10_12  and  C11_13 
REMARK    5  A    between atoms: C11_13  and  O3_14 
REMARK    6  A    between atoms: C12_15  and  O4_16 
REMARK    7  A    between atoms: C13_17  and  O5_18 
REMARK    8  A    between atoms: C14_19  and  O6_20 
REMARK    9  A    between atoms: C20_26  and  C21_27 
REMARK   10  A    between atoms: C21_27  and  C22_28 
REMARK   11  A    between atoms: C26_34  and  O9_35 
ROOT
HETATM    1  C1  UNL     1      -4.301   8.759  13.374  1.00  0.00     0.015 C 
HETATM    2  C2  UNL     1      -3.170   8.112  13.704  1.00  0.00    -0.084 C 
HETATM    3  C3  UNL     1      -2.417   8.417  14.974  1.00  0.00     0.034 C 
HETATM    4  C4  UNL     1      -0.951   8.756  14.698  1.00  0.00     0.010 C 
HETATM    5  C5  UNL     1      -0.258   7.728  13.766  1.00  0.00     0.005 C 
HETATM    6  C6  UNL     1       1.295   7.971  13.601  1.00  0.00    -0.018 C 
HETATM    7  C7  UNL     1       1.686   9.463  13.520  1.00  0.00     0.018 C 
HETATM    8  C15 UNL     1       1.839   7.265  12.327  1.00  0.00     0.012 C 
HETATM    9  C16 UNL     1       1.022   6.035  11.959  1.00  0.00     0.002 C 
HETATM   10  C17 UNL     1      -0.377   6.444  11.509  1.00  0.00     0.010 C 
HETATM   11  C18 UNL     1      -1.066   7.500  12.433  1.00  0.00    -0.032 C 
HETATM   12  C19 UNL     1      -1.157   8.810  11.598  1.00  0.00     0.016 C 
HETATM   13  C20 UNL     1      -2.543   7.053  12.799  1.00  0.00     0.025 C 
ENDROOT
BRANCH   6  14
HETATM   14  C8  UNL     1       1.999   7.364  14.857  1.00  0.00     0.180 C 
BRANCH  14  15
HETATM   15  O1  UNL     1       2.626   8.384  15.639  1.00  0.00    -0.358 OA
BRANCH  15  16
HETATM   16  C9  UNL     1       3.918   8.736  15.130  1.00  0.00     0.291 C 
HETATM   17  O2  UNL     1       4.617   9.516  16.095  1.00  0.00    -0.348 OA
HETATM   18  C10 UNL     1       5.925   9.896  15.644  1.00  0.00     0.179 C 
HETATM   19  C12 UNL     1       6.814   8.656  15.453  1.00  0.00     0.180 C 
HETATM   20  C13 UNL     1       6.130   7.678  14.481  1.00  0.00     0.183 C 
HETATM   21  C14 UNL     1       4.661   7.418  14.836  1.00  0.00     0.204 C 
BRANCH  18  22
HETATM   22  C11 UNL     1       6.517  10.881  16.654  1.00  0.00     0.198 C 
BRANCH  22  23
HETATM   23  O3  UNL     1       7.935  10.918  16.529  1.00  0.00    -0.398 OA
HETATM   24  H17 UNL     1       8.256  11.575  17.173  1.00  0.00     0.209 HD
ENDBRANCH  22  23
ENDBRANCH  18  22
BRANCH  19  25
HETATM   25  O4  UNL     1       7.058   8.007  16.709  1.00  0.00    -0.390 OA
HETATM   26  H19 UNL     1       7.462   7.148  16.483  1.00  0.00     0.210 HD
ENDBRANCH  19  25
BRANCH  20  27
HETATM   27  O5  UNL     1       6.846   6.432  14.482  1.00  0.00    -0.390 OA
HETATM   28  H21 UNL     1       6.345   5.864  15.110  1.00  0.00     0.210 HD
ENDBRANCH  20  27
BRANCH  21  29
HETATM   29  O6  UNL     1       4.627   6.517  15.967  1.00  0.00    -0.388 OA
HETATM   30  H23 UNL     1       3.867   6.816  16.509  1.00  0.00     0.210 HD
ENDBRANCH  21  29
ENDBRANCH  15  16
ENDBRANCH  14  15
ENDBRANCH   6  14
BRANCH  13  31
HETATM   31  C21 UNL     1      -2.663   5.646  13.459  1.00  0.00     0.037 C 
BRANCH  31  32
HETATM   32  C22 UNL     1      -4.074   5.117  13.495  1.00  0.00    -0.010 C 
HETATM   33  C23 UNL     1      -4.569   4.122  12.740  1.00  0.00     0.044 C 
HETATM   34  C24 UNL     1      -5.975   3.672  12.888  1.00  0.00     0.291 C 
HETATM   35  C26 UNL     1      -3.964   3.305  11.659  1.00  0.00     0.181 C 
HETATM   36  O7  UNL     1      -6.738   3.959  13.791  1.00  0.00    -0.260 OA
HETATM   37  O8  UNL     1      -6.266   2.841  11.847  1.00  0.00    -0.315 OA
HETATM   38  C25 UNL     1      -5.204   2.889  10.897  1.00  0.00     0.215 C 
BRANCH  35  39
HETATM   39  O9  UNL     1      -3.063   4.042  10.850  1.00  0.00    -0.389 OA
HETATM   40  H40 UNL     1      -2.794   3.476  10.107  1.00  0.00     0.210 HD
ENDBRANCH  35  39
ENDBRANCH  31  32
ENDBRANCH  13  31
TORSDOF 11
ENDMDL
MODEL 8
REMARK minimizedAffinity -8.73905468
REMARK  11 active torsions:
REMARK  status: ('A' for Active; 'I' for Inactive)
REMARK    1  A    between atoms: C6_6  and  C8_8 
REMARK    2  A    between atoms: C8_8  and  O1_9 
REMARK    3  A    between atoms: O1_9  and  C9_10 
REMARK    4  A    between atoms: C10_12  and  C11_13 
REMARK    5  A    between atoms: C11_13  and  O3_14 
REMARK    6  A    between atoms: C12_15  and  O4_16 
REMARK    7  A    between atoms: C13_17  and  O5_18 
REMARK    8  A    between atoms: C14_19  and  O6_20 
REMARK    9  A    between atoms: C20_26  and  C21_27 
REMARK   10  A    between atoms: C21_27  and  C22_28 
REMARK   11  A    between atoms: C26_34  and  O9_35 
ROOT
HETATM    1  C1  UNL     1       1.570  10.527  15.210  1.00  0.00     0.015 C 
HETATM    2  C2  UNL     1       0.670   9.840  14.485  1.00  0.00    -0.084 C 
HETATM    3  C3  UNL     1      -0.753  10.309  14.328  1.00  0.00     0.034 C 
HETATM    4  C4  UNL     1      -1.756   9.228  14.736  1.00  0.00     0.010 C 
HETATM    5  C5  UNL     1      -1.454   7.850  14.092  1.00  0.00     0.005 C 
HETATM    6  C6  UNL     1      -2.569   6.764  14.372  1.00  0.00    -0.018 C 
HETATM    7  C7  UNL     1      -3.157   6.831  15.798  1.00  0.00     0.018 C 
HETATM    8  C15 UNL     1      -2.017   5.327  14.150  1.00  0.00     0.012 C 
HETATM    9  C16 UNL     1      -0.891   5.296  13.127  1.00  0.00     0.002 C 
HETATM   10  C17 UNL     1       0.339   6.015  13.672  1.00  0.00     0.010 C 
HETATM   11  C18 UNL     1       0.032   7.393  14.344  1.00  0.00    -0.032 C 
HETATM   12  C19 UNL     1       0.315   7.204  15.863  1.00  0.00     0.016 C 
HETATM   13  C20 UNL     1       1.012   8.516  13.803  1.00  0.00     0.025 C 
ENDROOT
BRANCH   6  14
HETATM   14  C8  UNL     1      -3.735   7.022  13.365  1.00  0.00     0.180 C 
BRANCH  14  15
HETATM   15  O1  UNL     1      -5.007   6.850  13.995  1.00  0.00    -0.358 OA
BRANCH  15  16
HETATM   16  C9  UNL     1      -5.949   6.194  13.137  1.00  0.00     0.291 C 
HETATM   17  O2  UNL     1      -5.678   4.796  13.106  1.00  0.00    -0.348 OA
HETATM   18  C10 UNL     1      -6.595   4.082  12.266  1.00  0.00     0.179 C 
HETATM   19  C12 UNL     1      -8.024   4.172  12.824  1.00  0.00     0.180 C 
HETATM   20  C13 UNL     1      -8.421   5.650  12.985  1.00  0.00     0.183 C 
HETATM   21  C14 UNL     1      -7.352   6.476  13.710  1.00  0.00     0.204 C 
BRANCH  18  22
HETATM   22  C11 UNL     1      -6.111   2.636  12.144  1.00  0.00     0.198 C 
BRANCH  22  23
HETATM   23  O3  UNL     1      -7.225   1.749  12.103  1.00  0.00    -0.398 OA
HETATM   24  H17 UNL     1      -6.864   0.850  11.999  1.00  0.00     0.209 HD
ENDBRANCH  22  23
ENDBRANCH  18  22
BRANCH  19  25
HETATM   25  O4  UNL     1      -8.120   3.499  14.088  1.00  0.00    -0.390 OA
HETATM   26  H19 UNL     1      -8.988   3.756  14.454  1.00  0.00     0.210 HD
ENDBRANCH  19  25
BRANCH  20  27
HETATM   27  O5  UNL     1      -9.657   5.731  13.715  1.00  0.00    -0.390 OA
HETATM   28  H21 UNL     1      -9.381   5.898  14.644  1.00  0.00     0.210 HD
ENDBRANCH  20  27
BRANCH  21  29
HETATM   29  O6  UNL     1      -7.429   6.170  15.121  1.00  0.00    -0.388 OA
HETATM   30  H23 UNL     1      -6.501   6.183  15.436  1.00  0.00     0.210 HD
ENDBRANCH  21  29
ENDBRANCH  15  16
ENDBRANCH  14  15
ENDBRANCH   6  14
BRANCH  13  31
HETATM   31  C21 UNL     1       1.019   8.697  12.255  1.00  0.00     0.037 C 
BRANCH  31  32
HETATM   32  C22 UNL     1       2.257   8.151  11.591  1.00  0.00    -0.010 C 
HETATM   33  C23 UNL     1       2.372   7.788  10.302  1.00  0.00     0.044 C 
HETATM   34  C24 UNL     1       3.657   7.285   9.758  1.00  0.00     0.291 C 
HETATM   35  C26 UNL     1       1.387   7.749   9.193  1.00  0.00     0.181 C 
HETATM   36  O7  UNL     1       4.747   7.345  10.296  1.00  0.00    -0.260 OA
HETATM   37  O8  UNL     1       3.420   6.768   8.518  1.00  0.00    -0.315 OA
HETATM   38  C25 UNL     1       2.012   6.699   8.301  1.00  0.00     0.215 C 
BRANCH  35  39
HETATM   39  O9  UNL     1       0.088   7.379   9.622  1.00  0.00    -0.389 OA
HETATM   40  H40 UNL     1      -0.470   7.271   8.834  1.00  0.00     0.210 HD
ENDBRANCH  35  39
ENDBRANCH  31  32
ENDBRANCH  13  31
TORSDOF 11
ENDMDL
MODEL 9
REMARK minimizedAffinity -8.7175951
REMARK  11 active torsions:
REMARK  status: ('A' for Active; 'I' for Inactive)
REMARK    1  A    between atoms: C6_6  and  C8_8 
REMARK    2  A    between atoms: C8_8  and  O1_9 
REMARK    3  A    between atoms: O1_9  and  C9_10 
REMARK    4  A    between atoms: C10_12  and  C11_13 
REMARK    5  A    between atoms: C11_13  and  O3_14 
REMARK    6  A    between atoms: C12_15  and  O4_16 
REMARK    7  A    between atoms: C13_17  and  O5_18 
REMARK    8  A    between atoms: C14_19  and  O6_20 
REMARK    9  A    between atoms: C20_26  and  C21_27 
REMARK   10  A    between atoms: C21_27  and  C22_28 
REMARK   11  A    between atoms: C26_34  and  O9_35 
ROOT
HETATM    1  C1  UNL     1      -6.637   8.339  15.094  1.00  0.00     0.015 C 
HETATM    2  C2  UNL     1      -5.395   8.425  14.587  1.00  0.00    -0.084 C 
HETATM    3  C3  UNL     1      -5.106   8.160  13.132  1.00  0.00     0.034 C 
HETATM    4  C4  UNL     1      -4.020   7.098  12.952  1.00  0.00     0.010 C 
HETATM    5  C5  UNL     1      -2.764   7.364  13.822  1.00  0.00     0.005 C 
HETATM    6  C6  UNL     1      -1.570   6.370  13.530  1.00  0.00    -0.018 C 
HETATM    7  C7  UNL     1      -2.022   4.918  13.261  1.00  0.00     0.018 C 
HETATM    8  C15 UNL     1      -0.562   6.345  14.713  1.00  0.00     0.012 C 
HETATM    9  C16 UNL     1      -0.542   7.660  15.479  1.00  0.00     0.002 C 
HETATM   10  C17 UNL     1      -1.865   7.867  16.209  1.00  0.00     0.010 C 
HETATM   11  C18 UNL     1      -3.131   7.574  15.340  1.00  0.00    -0.032 C 
HETATM   12  C19 UNL     1      -3.783   6.296  15.945  1.00  0.00     0.016 C 
HETATM   13  C20 UNL     1      -4.181   8.756  15.455  1.00  0.00     0.025 C 
ENDROOT
BRANCH   6  14
HETATM   14  C8  UNL     1      -0.838   6.884  12.249  1.00  0.00     0.180 C 
BRANCH  14  15
HETATM   15  O1  UNL     1       0.553   6.556  12.283  1.00  0.00    -0.358 OA
BRANCH  15  16
HETATM   16  C9  UNL     1       1.068   6.251  10.982  1.00  0.00     0.291 C 
HETATM   17  O2  UNL     1       1.122   7.439  10.197  1.00  0.00    -0.348 OA
HETATM   18  C10 UNL     1       1.637   7.197   8.880  1.00  0.00     0.179 C 
HETATM   19  C12 UNL     1       3.099   6.728   8.946  1.00  0.00     0.180 C 
HETATM   20  C13 UNL     1       3.197   5.479   9.841  1.00  0.00     0.183 C 
HETATM   21  C14 UNL     1       2.474   5.651  11.182  1.00  0.00     0.204 C 
BRANCH  18  22
HETATM   22  C11 UNL     1       1.478   8.479   8.058  1.00  0.00     0.198 C 
BRANCH  22  23
HETATM   23  O3  UNL     1       2.731   8.861   7.501  1.00  0.00    -0.398 OA
HETATM   24  H17 UNL     1       2.569   9.661   6.969  1.00  0.00     0.209 HD
ENDBRANCH  22  23
ENDBRANCH  18  22
BRANCH  19  25
HETATM   25  O4  UNL     1       3.943   7.768   9.462  1.00  0.00    -0.390 OA
HETATM   26  H19 UNL     1       4.801   7.338   9.644  1.00  0.00     0.210 HD
ENDBRANCH  19  25
BRANCH  20  27
HETATM   27  O5  UNL     1       4.582   5.181  10.086  1.00  0.00    -0.390 OA
HETATM   28  H21 UNL     1       4.769   5.592  10.959  1.00  0.00     0.210 HD
ENDBRANCH  20  27
BRANCH  21  29
HETATM   29  O6  UNL     1       3.297   6.482  12.032  1.00  0.00    -0.388 OA
HETATM   30  H23 UNL     1       2.665   7.034  12.539  1.00  0.00     0.210 HD
ENDBRANCH  21  29
ENDBRANCH  15  16
ENDBRANCH  14  15
ENDBRANCH   6  14
BRANCH  13  31
HETATM   31  C21 UNL     1      -3.630  10.167  15.089  1.00  0.00     0.037 C 
BRANCH  31  32
HETATM   32  C22 UNL     1      -2.934  10.858  16.234  1.00  0.00    -0.010 C 
HETATM   33  C23 UNL     1      -2.192  11.975  16.155  1.00  0.00     0.044 C 
HETATM   34  C24 UNL     1      -1.576  12.575  17.363  1.00  0.00     0.291 C 
HETATM   35  C26 UNL     1      -1.787  12.815  15.000  1.00  0.00     0.181 C 
HETATM   36  O7  UNL     1      -1.827  12.296  18.521  1.00  0.00    -0.260 OA
HETATM   37  O8  UNL     1      -0.695  13.534  16.960  1.00  0.00    -0.315 OA
HETATM   38  C25 UNL     1      -0.527  13.451  15.546  1.00  0.00     0.215 C 
BRANCH  35  39
HETATM   39  O9  UNL     1      -1.537  12.057  13.828  1.00  0.00    -0.389 OA
HETATM   40  H40 UNL     1      -1.176  12.656  13.154  1.00  0.00     0.210 HD
ENDBRANCH  35  39
ENDBRANCH  31  32
ENDBRANCH  13  31
TORSDOF 11
ENDMDL
