MODEL 1
REMARK minimizedAffinity -7.96616364
REMARK CNNscore 0.336595803
REMARK CNNaffinity 6.13175392
REMARK  11 active torsions:
REMARK  status: ('A' for Active; 'I' for Inactive)
REMARK    1  A    between atoms: C11_11  and  C13_13 
REMARK    2  A    between atoms: C13_13  and  O2_15 
REMARK    3  A    between atoms: O2_15  and  C14_16 
REMARK    4  A    between atoms: C15_18  and  C16_19 
REMARK    5  A    between atoms: C16_19  and  O4_20 
REMARK    6  A    between atoms: C17_21  and  O5_22 
REMARK    7  A    between atoms: C18_23  and  O6_24 
REMARK    8  A    between atoms: C19_25  and  O7_26 
REMARK    9  A    between atoms: C20_27  and  C21_28 
REMARK   10  A    between atoms: C21_28  and  C22_29 
REMARK   11  A    between atoms: C26_35  and  O10_36 
ROOT
HETATM    1  C1  UNL     1      -9.027   9.629  15.156  1.00  0.00     0.015 C 
HETATM    2  C2  UNL     1      -8.506   8.399  15.314  1.00  0.00    -0.084 C 
HETATM    3  C3  UNL     1      -7.550   8.094  16.435  1.00  0.00     0.034 C 
HETATM    4  C4  UNL     1      -6.218   7.506  15.944  1.00  0.00     0.011 C 
HETATM    5  C5  UNL     1      -6.267   6.942  14.503  1.00  0.00     0.012 C 
HETATM    6  C6  UNL     1      -7.618   6.188  14.246  1.00  0.00    -0.032 C 
HETATM    7  C7  UNL     1      -7.853   5.038  15.249  1.00  0.00     0.016 C 
HETATM    8  C8  UNL     1      -7.569   5.607  12.809  1.00  0.00     0.010 C 
HETATM    9  C9  UNL     1      -6.417   4.644  12.534  1.00  0.00     0.002 C 
HETATM   10  C10 UNL     1      -5.203   4.795  13.446  1.00  0.00     0.020 C 
HETATM   11  C11 UNL     1      -4.957   6.220  13.997  1.00  0.00     0.049 C 
HETATM   12  C12 UNL     1      -4.365   7.052  12.825  1.00  0.00     0.026 C 
HETATM   13  C20 UNL     1      -8.781   7.275  14.310  1.00  0.00     0.025 C 
ENDROOT
BRANCH  11  14
HETATM   14  C13 UNL     1      -3.864   6.163  15.083  1.00  0.00     0.270 C 
HETATM   15  O1  UNL     1      -4.053   5.778  16.230  1.00  0.00    -0.264 OA
BRANCH  14  16
HETATM   16  O2  UNL     1      -2.660   6.546  14.586  1.00  0.00    -0.286 OA
BRANCH  16  17
HETATM   17  C14 UNL     1      -1.619   5.560  14.578  1.00  0.00     0.301 C 
HETATM   18  O3  UNL     1      -1.619   4.856  13.326  1.00  0.00    -0.348 OA
HETATM   19  C15 UNL     1      -0.990   5.519  12.218  1.00  0.00     0.179 C 
HETATM   20  C17 UNL     1      -0.711   7.013  12.458  1.00  0.00     0.180 C 
HETATM   21  C18 UNL     1       0.116   7.228  13.729  1.00  0.00     0.183 C 
HETATM   22  C19 UNL     1      -0.263   6.245  14.849  1.00  0.00     0.205 C 
BRANCH  19  23
HETATM   23  C16 UNL     1       0.256   4.705  11.824  1.00  0.00     0.198 C 
BRANCH  23  24
HETATM   24  O4  UNL     1      -0.077   3.643  10.938  1.00  0.00    -0.398 OA
HETATM   25  H24 UNL     1       0.727   3.097  10.839  1.00  0.00     0.209 HD
ENDBRANCH  23  24
ENDBRANCH  19  23
BRANCH  20  26
HETATM   26  O5  UNL     1      -0.069   7.686  11.371  1.00  0.00    -0.390 OA
HETATM   27  H26 UNL     1       0.442   7.010  10.869  1.00  0.00     0.210 HD
ENDBRANCH  20  26
BRANCH  21  28
HETATM   28  O6  UNL     1      -0.059   8.585  14.187  1.00  0.00    -0.390 OA
HETATM   29  H28 UNL     1       0.048   9.141  13.388  1.00  0.00     0.210 HD
ENDBRANCH  21  28
BRANCH  22  30
HETATM   30  O7  UNL     1      -0.233   6.902  16.121  1.00  0.00    -0.388 OA
HETATM   31  H30 UNL     1      -0.277   7.860  15.909  1.00  0.00     0.210 HD
ENDBRANCH  22  30
ENDBRANCH  16  17
ENDBRANCH  14  16
ENDBRANCH  11  14
BRANCH  13  32
HETATM   32  C21 UNL     1     -10.239   6.734  14.387  1.00  0.00     0.037 C 
BRANCH  32  33
HETATM   33  C22 UNL     1     -11.294   7.516  13.648  1.00  0.00    -0.010 C 
HETATM   34  C23 UNL     1     -12.365   8.128  14.180  1.00  0.00     0.044 C 
HETATM   35  C24 UNL     1     -13.343   8.831  13.312  1.00  0.00     0.291 C 
HETATM   36  C26 UNL     1     -12.855   8.258  15.574  1.00  0.00     0.181 C 
HETATM   37  O8  UNL     1     -13.378   8.805  12.095  1.00  0.00    -0.260 OA
HETATM   38  O9  UNL     1     -14.228   9.494  14.105  1.00  0.00    -0.315 OA
HETATM   39  C25 UNL     1     -13.762   9.464  15.452  1.00  0.00     0.215 C 
BRANCH  36  40
HETATM   40  O10 UNL     1     -11.820   8.488  16.514  1.00  0.00    -0.389 OA
HETATM   41  H38 UNL     1     -12.219   8.469  17.400  1.00  0.00     0.210 HD
ENDBRANCH  36  40
ENDBRANCH  32  33
ENDBRANCH  13  32
TORSDOF 11
ENDMDL
MODEL 2
REMARK minimizedAffinity -7.23543644
REMARK CNNscore 0.31123656
REMARK CNNaffinity 5.11128092
REMARK  11 active torsions:
REMARK  status: ('A' for Active; 'I' for Inactive)
REMARK    1  A    between atoms: C11_11  and  C13_13 
REMARK    2  A    between atoms: C13_13  and  O2_15 
REMARK    3  A    between atoms: O2_15  and  C14_16 
REMARK    4  A    between atoms: C15_18  and  C16_19 
REMARK    5  A    between atoms: C16_19  and  O4_20 
REMARK    6  A    between atoms: C17_21  and  O5_22 
REMARK    7  A    between atoms: C18_23  and  O6_24 
REMARK    8  A    between atoms: C19_25  and  O7_26 
REMARK    9  A    between atoms: C20_27  and  C21_28 
REMARK   10  A    between atoms: C21_28  and  C22_29 
REMARK   11  A    between atoms: C26_35  and  O10_36 
ROOT
HETATM    1  C1  UNL     1      11.752  -5.645   9.466  1.00  0.00     0.015 C 
HETATM    2  C2  UNL     1      12.548  -5.610   8.383  1.00  0.00    -0.084 C 
HETATM    3  C3  UNL     1      11.979  -5.453   7.000  1.00  0.00     0.034 C 
HETATM    4  C4  UNL     1      12.409  -6.576   6.042  1.00  0.00     0.011 C 
HETATM    5  C5  UNL     1      13.645  -7.377   6.520  1.00  0.00     0.012 C 
HETATM    6  C6  UNL     1      14.710  -6.423   7.164  1.00  0.00    -0.032 C 
HETATM    7  C7  UNL     1      15.168  -5.310   6.199  1.00  0.00     0.016 C 
HETATM    8  C8  UNL     1      15.936  -7.286   7.564  1.00  0.00     0.010 C 
HETATM    9  C9  UNL     1      16.598  -8.048   6.420  1.00  0.00     0.002 C 
HETATM   10  C10 UNL     1      15.708  -8.320   5.210  1.00  0.00     0.020 C 
HETATM   11  C11 UNL     1      14.197  -8.462   5.515  1.00  0.00     0.049 C 
HETATM   12  C12 UNL     1      14.004  -9.864   6.158  1.00  0.00     0.026 C 
HETATM   13  C20 UNL     1      14.061  -5.826   8.491  1.00  0.00     0.025 C 
ENDROOT
BRANCH  11  14
HETATM   14  C13 UNL     1      13.412  -8.483   4.187  1.00  0.00     0.270 C 
HETATM   15  O1  UNL     1      13.142  -7.485   3.532  1.00  0.00    -0.264 OA
BRANCH  14  16
HETATM   16  O2  UNL     1      13.107  -9.753   3.820  1.00  0.00    -0.286 OA
BRANCH  16  17
HETATM   17  C14 UNL     1      11.898  -9.938   3.069  1.00  0.00     0.301 C 
HETATM   18  O3  UNL     1      12.193  -9.962   1.663  1.00  0.00    -0.348 OA
HETATM   19  C15 UNL     1      12.700 -11.197   1.136  1.00  0.00     0.179 C 
HETATM   20  C17 UNL     1      13.165 -12.194   2.212  1.00  0.00     0.180 C 
HETATM   21  C18 UNL     1      12.052 -12.480   3.223  1.00  0.00     0.183 C 
HETATM   22  C19 UNL     1      11.203 -11.236   3.529  1.00  0.00     0.205 C 
BRANCH  19  23
HETATM   23  C16 UNL     1      11.648 -11.766   0.167  1.00  0.00     0.198 C 
BRANCH  23  24
HETATM   24  O4  UNL     1      10.608 -10.827  -0.079  1.00  0.00    -0.398 OA
HETATM   25  H24 UNL     1       9.919 -11.298  -0.587  1.00  0.00     0.209 HD
ENDBRANCH  23  24
ENDBRANCH  19  23
BRANCH  20  26
HETATM   26  O5  UNL     1      13.658 -13.438   1.704  1.00  0.00    -0.390 OA
HETATM   27  H26 UNL     1      13.229 -13.589   0.832  1.00  0.00     0.210 HD
ENDBRANCH  20  26
BRANCH  21  28
HETATM   28  O6  UNL     1      12.634 -12.990   4.441  1.00  0.00    -0.390 OA
HETATM   29  H28 UNL     1      13.273 -13.673   4.153  1.00  0.00     0.210 HD
ENDBRANCH  21  28
BRANCH  22  30
HETATM   30  O7  UNL     1      10.853 -11.200   4.918  1.00  0.00    -0.388 OA
HETATM   31  H30 UNL     1      11.494 -11.804   5.353  1.00  0.00     0.210 HD
ENDBRANCH  22  30
ENDBRANCH  16  17
ENDBRANCH  14  16
ENDBRANCH  11  14
BRANCH  13  32
HETATM   32  C21 UNL     1      14.800  -4.623   9.150  1.00  0.00     0.037 C 
BRANCH  32  33
HETATM   33  C22 UNL     1      16.055  -4.938   9.923  1.00  0.00    -0.010 C 
HETATM   34  C23 UNL     1      17.170  -4.192   9.990  1.00  0.00     0.044 C 
HETATM   35  C24 UNL     1      18.346  -4.659  10.767  1.00  0.00     0.291 C 
HETATM   36  C26 UNL     1      17.541  -2.889   9.387  1.00  0.00     0.181 C 
HETATM   37  O8  UNL     1      18.491  -5.759  11.267  1.00  0.00    -0.260 OA
HETATM   38  O9  UNL     1      19.265  -3.655  10.805  1.00  0.00    -0.315 OA
HETATM   39  C25 UNL     1      18.675  -2.462  10.294  1.00  0.00     0.215 C 
BRANCH  36  40
HETATM   40  O10 UNL     1      16.487  -1.942   9.405  1.00  0.00    -0.389 OA
HETATM   41  H38 UNL     1      16.788  -1.159   8.914  1.00  0.00     0.210 HD
ENDBRANCH  36  40
ENDBRANCH  32  33
ENDBRANCH  13  32
TORSDOF 11
ENDMDL
MODEL 3
REMARK minimizedAffinity -8.55331612
REMARK CNNscore 0.282128334
REMARK CNNaffinity 5.73834372
REMARK  11 active torsions:
REMARK  status: ('A' for Active; 'I' for Inactive)
REMARK    1  A    between atoms: C11_11  and  C13_13 
REMARK    2  A    between atoms: C13_13  and  O2_15 
REMARK    3  A    between atoms: O2_15  and  C14_16 
REMARK    4  A    between atoms: C15_18  and  C16_19 
REMARK    5  A    between atoms: C16_19  and  O4_20 
REMARK    6  A    between atoms: C17_21  and  O5_22 
REMARK    7  A    between atoms: C18_23  and  O6_24 
REMARK    8  A    between atoms: C19_25  and  O7_26 
REMARK    9  A    between atoms: C20_27  and  C21_28 
REMARK   10  A    between atoms: C21_28  and  C22_29 
REMARK   11  A    between atoms: C26_35  and  O10_36 
ROOT
HETATM    1  C1  UNL     1      -1.446   7.334  15.784  1.00  0.00     0.015 C 
HETATM    2  C2  UNL     1      -1.080   6.888  14.570  1.00  0.00    -0.084 C 
HETATM    3  C3  UNL     1      -0.015   5.837  14.413  1.00  0.00     0.034 C 
HETATM    4  C4  UNL     1       1.135   6.279  13.494  1.00  0.00     0.011 C 
HETATM    5  C5  UNL     1       0.791   7.485  12.585  1.00  0.00     0.012 C 
HETATM    6  C6  UNL     1      -0.672   7.368  12.035  1.00  0.00    -0.032 C 
HETATM    7  C7  UNL     1      -0.907   6.059  11.252  1.00  0.00     0.016 C 
HETATM    8  C8  UNL     1      -0.921   8.575  11.094  1.00  0.00     0.010 C 
HETATM    9  C9  UNL     1       0.034   8.686   9.908  1.00  0.00     0.002 C 
HETATM   10  C10 UNL     1       1.381   7.991  10.084  1.00  0.00     0.020 C 
HETATM   11  C11 UNL     1       1.899   7.901  11.540  1.00  0.00     0.049 C 
HETATM   12  C12 UNL     1       2.414   9.318  11.915  1.00  0.00     0.026 C 
HETATM   13  C20 UNL     1      -1.653   7.493  13.285  1.00  0.00     0.025 C 
ENDROOT
BRANCH  11  14
HETATM   14  C13 UNL     1       3.126   6.968  11.584  1.00  0.00     0.270 C 
HETATM   15  O1  UNL     1       3.179   5.874  11.036  1.00  0.00    -0.264 OA
BRANCH  14  16
HETATM   16  O2  UNL     1       4.150   7.540  12.267  1.00  0.00    -0.286 OA
BRANCH  16  17
HETATM   17  C14 UNL     1       5.360   7.784  11.535  1.00  0.00     0.301 C 
HETATM   18  O3  UNL     1       5.690   9.181  11.586  1.00  0.00    -0.348 OA
HETATM   19  C15 UNL     1       6.330   9.645  12.785  1.00  0.00     0.179 C 
HETATM   20  C17 UNL     1       6.260   8.652  13.958  1.00  0.00     0.180 C 
HETATM   21  C18 UNL     1       6.826   7.284  13.564  1.00  0.00     0.183 C 
HETATM   22  C19 UNL     1       6.492   6.908  12.111  1.00  0.00     0.205 C 
BRANCH  19  23
HETATM   23  C16 UNL     1       7.761  10.083  12.419  1.00  0.00     0.198 C 
BRANCH  23  24
HETATM   24  O4  UNL     1       7.877  10.364  11.030  1.00  0.00    -0.398 OA
HETATM   25  H24 UNL     1       8.828  10.504  10.850  1.00  0.00     0.209 HD
ENDBRANCH  23  24
ENDBRANCH  19  23
BRANCH  20  26
HETATM   26  O5  UNL     1       6.908   9.090  15.156  1.00  0.00    -0.390 OA
HETATM   27  H26 UNL     1       7.614   9.723  14.892  1.00  0.00     0.210 HD
ENDBRANCH  20  26
BRANCH  21  28
HETATM   28  O6  UNL     1       6.312   6.279  14.462  1.00  0.00    -0.390 OA
HETATM   29  H28 UNL     1       6.423   6.657  15.359  1.00  0.00     0.210 HD
ENDBRANCH  21  28
BRANCH  22  30
HETATM   30  O7  UNL     1       6.197   5.510  12.013  1.00  0.00    -0.388 OA
HETATM   31  H30 UNL     1       5.991   5.233  12.933  1.00  0.00     0.210 HD
ENDBRANCH  22  30
ENDBRANCH  16  17
ENDBRANCH  14  16
ENDBRANCH  11  14
BRANCH  13  32
HETATM   32  C21 UNL     1      -3.143   7.108  13.044  1.00  0.00     0.037 C 
BRANCH  32  33
HETATM   33  C22 UNL     1      -3.427   5.665  12.716  1.00  0.00    -0.010 C 
HETATM   34  C23 UNL     1      -4.563   4.991  12.960  1.00  0.00     0.044 C 
HETATM   35  C24 UNL     1      -4.678   3.552  12.612  1.00  0.00     0.291 C 
HETATM   36  C26 UNL     1      -5.851   5.388  13.581  1.00  0.00     0.181 C 
HETATM   37  O8  UNL     1      -3.776   2.825  12.238  1.00  0.00    -0.260 OA
HETATM   38  O9  UNL     1      -5.967   3.161  12.810  1.00  0.00    -0.315 OA
HETATM   39  C25 UNL     1      -6.773   4.312  13.051  1.00  0.00     0.215 C 
BRANCH  36  40
HETATM   40  O10 UNL     1      -6.288   6.677  13.188  1.00  0.00    -0.389 OA
HETATM   41  H38 UNL     1      -7.082   6.888  13.707  1.00  0.00     0.210 HD
ENDBRANCH  36  40
ENDBRANCH  32  33
ENDBRANCH  13  32
TORSDOF 11
ENDMDL
MODEL 4
REMARK minimizedAffinity -9.08154678
REMARK CNNscore 0.268590152
REMARK CNNaffinity 5.82893372
REMARK  11 active torsions:
REMARK  status: ('A' for Active; 'I' for Inactive)
REMARK    1  A    between atoms: C11_11  and  C13_13 
REMARK    2  A    between atoms: C13_13  and  O2_15 
REMARK    3  A    between atoms: O2_15  and  C14_16 
REMARK    4  A    between atoms: C15_18  and  C16_19 
REMARK    5  A    between atoms: C16_19  and  O4_20 
REMARK    6  A    between atoms: C17_21  and  O5_22 
REMARK    7  A    between atoms: C18_23  and  O6_24 
REMARK    8  A    between atoms: C19_25  and  O7_26 
REMARK    9  A    between atoms: C20_27  and  C21_28 
REMARK   10  A    between atoms: C21_28  and  C22_29 
REMARK   11  A    between atoms: C26_35  and  O10_36 
ROOT
HETATM    1  C1  UNL     1      -3.817   7.005  14.091  1.00  0.00     0.015 C 
HETATM    2  C2  UNL     1      -2.608   6.433  13.964  1.00  0.00    -0.084 C 
HETATM    3  C3  UNL     1      -1.591   6.503  15.071  1.00  0.00     0.034 C 
HETATM    4  C4  UNL     1      -0.249   7.100  14.617  1.00  0.00     0.011 C 
HETATM    5  C5  UNL     1      -0.045   7.103  13.082  1.00  0.00     0.012 C 
HETATM    6  C6  UNL     1      -0.587   5.776  12.446  1.00  0.00    -0.032 C 
HETATM    7  C7  UNL     1       0.079   4.518  13.044  1.00  0.00     0.016 C 
HETATM    8  C8  UNL     1      -0.297   5.830  10.923  1.00  0.00     0.010 C 
HETATM    9  C9  UNL     1       1.174   5.982  10.544  1.00  0.00     0.002 C 
HETATM   10  C10 UNL     1       2.067   6.601  11.616  1.00  0.00     0.020 C 
HETATM   11  C11 UNL     1       1.366   7.595  12.572  1.00  0.00     0.049 C 
HETATM   12  C12 UNL     1       1.162   8.912  11.772  1.00  0.00     0.026 C 
HETATM   13  C20 UNL     1      -2.166   5.767  12.657  1.00  0.00     0.025 C 
ENDROOT
BRANCH  11  14
HETATM   14  C13 UNL     1       2.321   7.938  13.735  1.00  0.00     0.270 C 
HETATM   15  O1  UNL     1       1.988   8.555  14.739  1.00  0.00    -0.264 OA
BRANCH  14  16
HETATM   16  O2  UNL     1       3.559   7.426  13.518  1.00  0.00    -0.286 OA
BRANCH  16  17
HETATM   17  C14 UNL     1       4.469   8.230  12.755  1.00  0.00     0.301 C 
HETATM   18  O3  UNL     1       4.625   9.516  13.377  1.00  0.00    -0.348 OA
HETATM   19  C15 UNL     1       5.519   9.582  14.498  1.00  0.00     0.179 C 
HETATM   20  C17 UNL     1       5.910   8.207  15.069  1.00  0.00     0.180 C 
HETATM   21  C18 UNL     1       6.504   7.303  13.985  1.00  0.00     0.183 C 
HETATM   22  C19 UNL     1       5.817   7.492  12.623  1.00  0.00     0.205 C 
BRANCH  19  23
HETATM   23  C16 UNL     1       6.720  10.458  14.097  1.00  0.00     0.198 C 
BRANCH  23  24
HETATM   24  O4  UNL     1       7.167  11.254  15.188  1.00  0.00    -0.398 OA
HETATM   25  H24 UNL     1       7.834  11.872  14.830  1.00  0.00     0.209 HD
ENDBRANCH  23  24
ENDBRANCH  19  23
BRANCH  20  26
HETATM   26  O5  UNL     1       6.814   8.253  16.177  1.00  0.00    -0.390 OA
HETATM   27  H26 UNL     1       7.332   9.086  16.099  1.00  0.00     0.210 HD
ENDBRANCH  20  26
BRANCH  21  28
HETATM   28  O6  UNL     1       6.396   5.926  14.402  1.00  0.00    -0.390 OA
HETATM   29  H28 UNL     1       6.711   5.914  15.329  1.00  0.00     0.210 HD
ENDBRANCH  21  28
BRANCH  22  30
HETATM   30  O7  UNL     1       5.681   6.233  11.953  1.00  0.00    -0.388 OA
HETATM   31  H30 UNL     1       5.783   5.561  12.662  1.00  0.00     0.210 HD
ENDBRANCH  22  30
ENDBRANCH  16  17
ENDBRANCH  14  16
ENDBRANCH  11  14
BRANCH  13  32
HETATM   32  C21 UNL     1      -2.899   4.421  12.384  1.00  0.00     0.037 C 
BRANCH  32  33
HETATM   33  C22 UNL     1      -4.322   4.310  12.869  1.00  0.00    -0.010 C 
HETATM   34  C23 UNL     1      -5.273   3.488  12.398  1.00  0.00     0.044 C 
HETATM   35  C24 UNL     1      -6.648   3.524  12.957  1.00  0.00     0.291 C 
HETATM   36  C26 UNL     1      -5.271   2.464  11.324  1.00  0.00     0.181 C 
HETATM   37  O8  UNL     1      -7.090   4.347  13.738  1.00  0.00    -0.260 OA
HETATM   38  O9  UNL     1      -7.359   2.492  12.425  1.00  0.00    -0.315 OA
HETATM   39  C25 UNL     1      -6.472   1.630  11.717  1.00  0.00     0.215 C 
BRANCH  36  40
HETATM   40  O10 UNL     1      -4.091   1.682  11.297  1.00  0.00    -0.389 OA
HETATM   41  H38 UNL     1      -4.138   1.107  10.516  1.00  0.00     0.210 HD
ENDBRANCH  36  40
ENDBRANCH  32  33
ENDBRANCH  13  32
TORSDOF 11
ENDMDL
MODEL 5
REMARK minimizedAffinity -9.27830791
REMARK CNNscore 0.246926993
REMARK CNNaffinity 6.04618263
REMARK  11 active torsions:
REMARK  status: ('A' for Active; 'I' for Inactive)
REMARK    1  A    between atoms: C11_11  and  C13_13 
REMARK    2  A    between atoms: C13_13  and  O2_15 
REMARK    3  A    between atoms: O2_15  and  C14_16 
REMARK    4  A    between atoms: C15_18  and  C16_19 
REMARK    5  A    between atoms: C16_19  and  O4_20 
REMARK    6  A    between atoms: C17_21  and  O5_22 
REMARK    7  A    between atoms: C18_23  and  O6_24 
REMARK    8  A    between atoms: C19_25  and  O7_26 
REMARK    9  A    between atoms: C20_27  and  C21_28 
REMARK   10  A    between atoms: C21_28  and  C22_29 
REMARK   11  A    between atoms: C26_35  and  O10_36 
ROOT
HETATM    1  C1  UNL     1      -4.820   8.285  12.944  1.00  0.00     0.015 C 
HETATM    2  C2  UNL     1      -3.673   7.731  13.372  1.00  0.00    -0.084 C 
HETATM    3  C3  UNL     1      -2.638   8.544  14.101  1.00  0.00     0.034 C 
HETATM    4  C4  UNL     1      -1.252   8.485  13.439  1.00  0.00     0.011 C 
HETATM    5  C5  UNL     1      -1.071   7.305  12.453  1.00  0.00     0.012 C 
HETATM    6  C6  UNL     1      -1.746   6.005  13.012  1.00  0.00    -0.032 C 
HETATM    7  C7  UNL     1      -1.196   5.600  14.395  1.00  0.00     0.016 C 
HETATM    8  C8  UNL     1      -1.475   4.860  12.001  1.00  0.00     0.010 C 
HETATM    9  C9  UNL     1      -0.002   4.563  11.732  1.00  0.00     0.002 C 
HETATM   10  C10 UNL     1       0.962   5.712  12.015  1.00  0.00     0.020 C 
HETATM   11  C11 UNL     1       0.373   7.132  11.838  1.00  0.00     0.049 C 
HETATM   12  C12 UNL     1       0.284   7.388  10.308  1.00  0.00     0.026 C 
HETATM   13  C20 UNL     1      -3.316   6.276  13.056  1.00  0.00     0.025 C 
ENDROOT
BRANCH  11  14
HETATM   14  C13 UNL     1       1.373   8.168  12.393  1.00  0.00     0.270 C 
HETATM   15  O1  UNL     1       2.048   8.914  11.695  1.00  0.00    -0.264 OA
BRANCH  14  16
HETATM   16  O2  UNL     1       1.367   8.175  13.750  1.00  0.00    -0.286 OA
BRANCH  16  17
HETATM   17  C14 UNL     1       2.428   7.465  14.406  1.00  0.00     0.301 C 
HETATM   18  O3  UNL     1       3.699   7.944  13.940  1.00  0.00    -0.348 OA
HETATM   19  C15 UNL     1       4.174   9.170  14.517  1.00  0.00     0.179 C 
HETATM   20  C17 UNL     1       3.100   9.954  15.292  1.00  0.00     0.180 C 
HETATM   21  C18 UNL     1       2.452   9.088  16.376  1.00  0.00     0.183 C 
HETATM   22  C19 UNL     1       2.281   7.625  15.934  1.00  0.00     0.205 C 
BRANCH  19  23
HETATM   23  C16 UNL     1       5.434   8.850  15.342  1.00  0.00     0.198 C 
BRANCH  23  24
HETATM   24  O4  UNL     1       5.579   7.449  15.543  1.00  0.00    -0.398 OA
HETATM   25  H24 UNL     1       6.313   7.332  16.177  1.00  0.00     0.209 HD
ENDBRANCH  23  24
ENDBRANCH  19  23
BRANCH  20  26
HETATM   26  O5  UNL     1       3.559  11.171  15.889  1.00  0.00    -0.390 OA
HETATM   27  H26 UNL     1       4.524  11.071  16.052  1.00  0.00     0.210 HD
ENDBRANCH  20  26
BRANCH  21  28
HETATM   28  O6  UNL     1       1.170   9.647  16.729  1.00  0.00    -0.390 OA
HETATM   29  H28 UNL     1       1.332  10.605  16.848  1.00  0.00     0.210 HD
ENDBRANCH  21  28
BRANCH  22  30
HETATM   30  O7  UNL     1       1.039   7.099  16.416  1.00  0.00    -0.388 OA
HETATM   31  H30 UNL     1       0.501   7.891  16.635  1.00  0.00     0.210 HD
ENDBRANCH  22  30
ENDBRANCH  16  17
ENDBRANCH  14  16
ENDBRANCH  11  14
BRANCH  13  32
HETATM   32  C21 UNL     1      -4.179   5.252  13.853  1.00  0.00     0.037 C 
BRANCH  32  33
HETATM   33  C22 UNL     1      -4.897   4.199  13.050  1.00  0.00    -0.010 C 
HETATM   34  C23 UNL     1      -6.199   3.876  13.124  1.00  0.00     0.044 C 
HETATM   35  C24 UNL     1      -6.755   2.780  12.291  1.00  0.00     0.291 C 
HETATM   36  C26 UNL     1      -7.316   4.402  13.946  1.00  0.00     0.181 C 
HETATM   37  O8  UNL     1      -6.119   1.996  11.610  1.00  0.00    -0.260 OA
HETATM   38  O9  UNL     1      -8.108   2.771  12.436  1.00  0.00    -0.315 OA
HETATM   39  C25 UNL     1      -8.511   3.943  13.138  1.00  0.00     0.215 C 
BRANCH  36  40
HETATM   40  O10 UNL     1      -7.299   5.812  14.080  1.00  0.00    -0.389 OA
HETATM   41  H38 UNL     1      -8.005   6.056  14.702  1.00  0.00     0.210 HD
ENDBRANCH  36  40
ENDBRANCH  32  33
ENDBRANCH  13  32
TORSDOF 11
ENDMDL
MODEL 6
REMARK minimizedAffinity -7.78586578
REMARK CNNscore 0.231290862
REMARK CNNaffinity 5.64427233
REMARK  11 active torsions:
REMARK  status: ('A' for Active; 'I' for Inactive)
REMARK    1  A    between atoms: C11_11  and  C13_13 
REMARK    2  A    between atoms: C13_13  and  O2_15 
REMARK    3  A    between atoms: O2_15  and  C14_16 
REMARK    4  A    between atoms: C15_18  and  C16_19 
REMARK    5  A    between atoms: C16_19  and  O4_20 
REMARK    6  A    between atoms: C17_21  and  O5_22 
REMARK    7  A    between atoms: C18_23  and  O6_24 
REMARK    8  A    between atoms: C19_25  and  O7_26 
REMARK    9  A    between atoms: C20_27  and  C21_28 
REMARK   10  A    between atoms: C21_28  and  C22_29 
REMARK   11  A    between atoms: C26_35  and  O10_36 
ROOT
HETATM    1  C1  UNL     1      -9.524   9.780  14.948  1.00  0.00     0.015 C 
HETATM    2  C2  UNL     1      -8.943   8.592  15.191  1.00  0.00    -0.084 C 
HETATM    3  C3  UNL     1      -8.004   8.405  16.352  1.00  0.00     0.034 C 
HETATM    4  C4  UNL     1      -6.629   7.863  15.930  1.00  0.00     0.011 C 
HETATM    5  C5  UNL     1      -6.608   7.215  14.524  1.00  0.00     0.012 C 
HETATM    6  C6  UNL     1      -7.909   6.375  14.279  1.00  0.00    -0.032 C 
HETATM    7  C7  UNL     1      -8.111   5.274  15.342  1.00  0.00     0.016 C 
HETATM    8  C8  UNL     1      -7.789   5.715  12.880  1.00  0.00     0.010 C 
HETATM    9  C9  UNL     1      -6.580   4.802  12.691  1.00  0.00     0.002 C 
HETATM   10  C10 UNL     1      -5.402   5.072  13.623  1.00  0.00     0.020 C 
HETATM   11  C11 UNL     1      -5.248   6.538  14.094  1.00  0.00     0.049 C 
HETATM   12  C12 UNL     1      -4.667   7.332  12.891  1.00  0.00     0.026 C 
HETATM   13  C20 UNL     1      -9.129   7.399  14.249  1.00  0.00     0.025 C 
ENDROOT
BRANCH  11  14
HETATM   14  C13 UNL     1      -4.184   6.603  15.209  1.00  0.00     0.270 C 
HETATM   15  O1  UNL     1      -4.058   5.761  16.090  1.00  0.00    -0.264 OA
BRANCH  14  16
HETATM   16  O2  UNL     1      -3.380   7.685  15.055  1.00  0.00    -0.286 OA
BRANCH  16  17
HETATM   17  C14 UNL     1      -2.068   7.605  15.631  1.00  0.00     0.301 C 
HETATM   18  O3  UNL     1      -1.082   7.497  14.592  1.00  0.00    -0.348 OA
HETATM   19  C15 UNL     1      -0.710   8.716  13.932  1.00  0.00     0.179 C 
HETATM   20  C17 UNL     1      -1.662   9.893  14.206  1.00  0.00     0.180 C 
HETATM   21  C18 UNL     1      -1.820  10.144  15.708  1.00  0.00     0.183 C 
HETATM   22  C19 UNL     1      -1.825   8.840  16.523  1.00  0.00     0.205 C 
BRANCH  19  23
HETATM   23  C16 UNL     1       0.763   9.009  14.273  1.00  0.00     0.198 C 
BRANCH  23  24
HETATM   24  O4  UNL     1       1.358   9.865  13.305  1.00  0.00    -0.398 OA
HETATM   25  H24 UNL     1       2.313   9.899  13.510  1.00  0.00     0.209 HD
ENDBRANCH  23  24
ENDBRANCH  19  23
BRANCH  20  26
HETATM   26  O5  UNL     1      -1.297  11.122  13.569  1.00  0.00    -0.390 OA
HETATM   27  H26 UNL     1      -0.322  11.103  13.434  1.00  0.00     0.210 HD
ENDBRANCH  20  26
BRANCH  21  28
HETATM   28  O6  UNL     1      -3.040  10.875  15.944  1.00  0.00    -0.390 OA
HETATM   29  H28 UNL     1      -3.035  11.600  15.286  1.00  0.00     0.210 HD
ENDBRANCH  21  28
BRANCH  22  30
HETATM   30  O7  UNL     1      -2.769   8.927  17.597  1.00  0.00    -0.388 OA
HETATM   31  H30 UNL     1      -3.367   9.663  17.344  1.00  0.00     0.210 HD
ENDBRANCH  22  30
ENDBRANCH  16  17
ENDBRANCH  14  16
ENDBRANCH  11  14
BRANCH  13  32
HETATM   32  C21 UNL     1     -10.558   6.784  14.322  1.00  0.00     0.037 C 
BRANCH  32  33
HETATM   33  C22 UNL     1     -11.653   7.524  13.598  1.00  0.00    -0.010 C 
HETATM   34  C23 UNL     1     -12.749   8.078  14.143  1.00  0.00     0.044 C 
HETATM   35  C24 UNL     1     -13.764   8.744  13.289  1.00  0.00     0.291 C 
HETATM   36  C26 UNL     1     -13.237   8.168  15.541  1.00  0.00     0.181 C 
HETATM   37  O8  UNL     1     -13.806   8.731  12.072  1.00  0.00    -0.260 OA
HETATM   38  O9  UNL     1     -14.675   9.355  14.095  1.00  0.00    -0.315 OA
HETATM   39  C25 UNL     1     -14.200   9.331  15.438  1.00  0.00     0.215 C 
BRANCH  36  40
HETATM   40  O10 UNL     1     -12.208   8.436  16.478  1.00  0.00    -0.389 OA
HETATM   41  H38 UNL     1     -12.601   8.387  17.366  1.00  0.00     0.210 HD
ENDBRANCH  36  40
ENDBRANCH  32  33
ENDBRANCH  13  32
TORSDOF 11
ENDMDL
MODEL 7
REMARK minimizedAffinity -9.8667593
REMARK CNNscore 0.229739845
REMARK CNNaffinity 6.45615339
REMARK  11 active torsions:
REMARK  status: ('A' for Active; 'I' for Inactive)
REMARK    1  A    between atoms: C11_11  and  C13_13 
REMARK    2  A    between atoms: C13_13  and  O2_15 
REMARK    3  A    between atoms: O2_15  and  C14_16 
REMARK    4  A    between atoms: C15_18  and  C16_19 
REMARK    5  A    between atoms: C16_19  and  O4_20 
REMARK    6  A    between atoms: C17_21  and  O5_22 
REMARK    7  A    between atoms: C18_23  and  O6_24 
REMARK    8  A    between atoms: C19_25  and  O7_26 
REMARK    9  A    between atoms: C20_27  and  C21_28 
REMARK   10  A    between atoms: C21_28  and  C22_29 
REMARK   11  A    between atoms: C26_35  and  O10_36 
ROOT
HETATM    1  C1  UNL     1      -5.088   8.104  13.260  1.00  0.00     0.015 C 
HETATM    2  C2  UNL     1      -4.221   7.115  13.538  1.00  0.00    -0.084 C 
HETATM    3  C3  UNL     1      -3.040   7.343  14.442  1.00  0.00     0.034 C 
HETATM    4  C4  UNL     1      -1.701   6.978  13.783  1.00  0.00     0.011 C 
HETATM    5  C5  UNL     1      -1.834   6.067  12.539  1.00  0.00     0.012 C 
HETATM    6  C6  UNL     1      -2.938   4.976  12.764  1.00  0.00    -0.032 C 
HETATM    7  C7  UNL     1      -2.662   4.102  14.006  1.00  0.00     0.016 C 
HETATM    8  C8  UNL     1      -2.974   4.073  11.503  1.00  0.00     0.010 C 
HETATM    9  C9  UNL     1      -1.661   3.370  11.168  1.00  0.00     0.002 C 
HETATM   10  C10 UNL     1      -0.402   4.032  11.721  1.00  0.00     0.020 C 
HETATM   11  C11 UNL     1      -0.481   5.567  11.898  1.00  0.00     0.049 C 
HETATM   12  C12 UNL     1      -0.358   6.184  10.476  1.00  0.00     0.026 C 
HETATM   13  C20 UNL     1      -4.333   5.739  12.876  1.00  0.00     0.025 C 
ENDROOT
BRANCH  11  14
HETATM   14  C13 UNL     1       0.754   6.050  12.687  1.00  0.00     0.270 C 
HETATM   15  O1  UNL     1       0.824   6.072  13.909  1.00  0.00    -0.264 OA
BRANCH  14  16
HETATM   16  O2  UNL     1       1.764   6.399  11.849  1.00  0.00    -0.286 OA
BRANCH  16  17
HETATM   17  C14 UNL     1       1.520   6.250  10.443  1.00  0.00     0.301 C 
HETATM   18  O3  UNL     1       1.381   7.542   9.831  1.00  0.00    -0.348 OA
HETATM   19  C15 UNL     1       2.597   8.247   9.537  1.00  0.00     0.179 C 
HETATM   20  C17 UNL     1       3.842   7.661  10.226  1.00  0.00     0.180 C 
HETATM   21  C18 UNL     1       4.012   6.175   9.900  1.00  0.00     0.183 C 
HETATM   22  C19 UNL     1       2.666   5.437   9.808  1.00  0.00     0.205 C 
BRANCH  19  23
HETATM   23  C16 UNL     1       2.723   8.359   8.007  1.00  0.00     0.198 C 
BRANCH  23  24
HETATM   24  O4  UNL     1       3.527   9.472   7.633  1.00  0.00    -0.398 OA
HETATM   25  H24 UNL     1       3.453   9.558   6.663  1.00  0.00     0.209 HD
ENDBRANCH  23  24
ENDBRANCH  19  23
BRANCH  20  26
HETATM   26  O5  UNL     1       5.067   8.340   9.932  1.00  0.00    -0.390 OA
HETATM   27  H26 UNL     1       4.961   8.765   9.050  1.00  0.00     0.210 HD
ENDBRANCH  20  26
BRANCH  21  28
HETATM   28  O6  UNL     1       4.843   5.558  10.905  1.00  0.00    -0.390 OA
HETATM   29  H28 UNL     1       5.604   6.164  11.014  1.00  0.00     0.210 HD
ENDBRANCH  21  28
BRANCH  22  30
HETATM   30  O7  UNL     1       2.777   4.125  10.373  1.00  0.00    -0.388 OA
HETATM   31  H30 UNL     1       3.583   4.162  10.933  1.00  0.00     0.210 HD
ENDBRANCH  22  30
ENDBRANCH  16  17
ENDBRANCH  14  16
ENDBRANCH  11  14
BRANCH  13  32
HETATM   32  C21 UNL     1      -5.542   4.909  13.400  1.00  0.00     0.037 C 
BRANCH  32  33
HETATM   33  C22 UNL     1      -6.903   5.547  13.290  1.00  0.00    -0.010 C 
HETATM   34  C23 UNL     1      -7.716   5.892  14.302  1.00  0.00     0.044 C 
HETATM   35  C24 UNL     1      -9.052   6.479  14.031  1.00  0.00     0.291 C 
HETATM   36  C26 UNL     1      -7.580   5.792  15.776  1.00  0.00     0.181 C 
HETATM   37  O8  UNL     1      -9.598   6.565  12.946  1.00  0.00    -0.260 OA
HETATM   38  O9  UNL     1      -9.594   6.885  15.212  1.00  0.00    -0.315 OA
HETATM   39  C25 UNL     1      -8.600   6.813  16.231  1.00  0.00     0.215 C 
BRANCH  36  40
HETATM   40  O10 UNL     1      -6.283   6.121  16.242  1.00  0.00    -0.389 OA
HETATM   41  H38 UNL     1      -6.261   5.941  17.197  1.00  0.00     0.210 HD
ENDBRANCH  36  40
ENDBRANCH  32  33
ENDBRANCH  13  32
TORSDOF 11
ENDMDL
MODEL 8
REMARK minimizedAffinity -9.5135498
REMARK CNNscore 0.226520017
REMARK CNNaffinity 6.29374313
REMARK  11 active torsions:
REMARK  status: ('A' for Active; 'I' for Inactive)
REMARK    1  A    between atoms: C11_11  and  C13_13 
REMARK    2  A    between atoms: C13_13  and  O2_15 
REMARK    3  A    between atoms: O2_15  and  C14_16 
REMARK    4  A    between atoms: C15_18  and  C16_19 
REMARK    5  A    between atoms: C16_19  and  O4_20 
REMARK    6  A    between atoms: C17_21  and  O5_22 
REMARK    7  A    between atoms: C18_23  and  O6_24 
REMARK    8  A    between atoms: C19_25  and  O7_26 
REMARK    9  A    between atoms: C20_27  and  C21_28 
REMARK   10  A    between atoms: C21_28  and  C22_29 
REMARK   11  A    between atoms: C26_35  and  O10_36 
ROOT
HETATM    1  C1  UNL     1      -4.651   8.498  12.994  1.00  0.00     0.015 C 
HETATM    2  C2  UNL     1      -3.579   7.794  13.397  1.00  0.00    -0.084 C 
HETATM    3  C3  UNL     1      -2.434   8.457  14.113  1.00  0.00     0.034 C 
HETATM    4  C4  UNL     1      -1.079   8.222  13.426  1.00  0.00     0.011 C 
HETATM    5  C5  UNL     1      -1.072   7.038  12.428  1.00  0.00     0.012 C 
HETATM    6  C6  UNL     1      -1.903   5.833  12.990  1.00  0.00    -0.032 C 
HETATM    7  C7  UNL     1      -1.387   5.346  14.361  1.00  0.00     0.016 C 
HETATM    8  C8  UNL     1      -1.802   4.672  11.966  1.00  0.00     0.010 C 
HETATM    9  C9  UNL     1      -0.386   4.186  11.669  1.00  0.00     0.002 C 
HETATM   10  C10 UNL     1       0.725   5.195  11.942  1.00  0.00     0.020 C 
HETATM   11  C11 UNL     1       0.326   6.682  11.786  1.00  0.00     0.049 C 
HETATM   12  C12 UNL     1       0.245   6.962  10.259  1.00  0.00     0.026 C 
HETATM   13  C20 UNL     1      -3.423   6.307  13.065  1.00  0.00     0.025 C 
ENDROOT
BRANCH  11  14
HETATM   14  C13 UNL     1       1.463   7.572  12.330  1.00  0.00     0.270 C 
HETATM   15  O1  UNL     1       1.316   8.421  13.200  1.00  0.00    -0.264 OA
BRANCH  14  16
HETATM   16  O2  UNL     1       2.650   7.255  11.753  1.00  0.00    -0.286 OA
BRANCH  16  17
HETATM   17  C14 UNL     1       3.318   8.299  11.030  1.00  0.00     0.301 C 
HETATM   18  O3  UNL     1       3.971   9.191  11.948  1.00  0.00    -0.348 OA
HETATM   19  C15 UNL     1       5.234   8.757  12.474  1.00  0.00     0.179 C 
HETATM   20  C17 UNL     1       5.533   7.266  12.238  1.00  0.00     0.180 C 
HETATM   21  C18 UNL     1       5.440   6.908  10.752  1.00  0.00     0.183 C 
HETATM   22  C19 UNL     1       4.316   7.673  10.033  1.00  0.00     0.205 C 
BRANCH  19  23
HETATM   23  C16 UNL     1       6.322   9.706  11.939  1.00  0.00     0.198 C 
BRANCH  23  24
HETATM   24  O4  UNL     1       5.767  10.701  11.087  1.00  0.00    -0.398 OA
HETATM   25  H24 UNL     1       6.520  11.177  10.685  1.00  0.00     0.209 HD
ENDBRANCH  23  24
ENDBRANCH  19  23
BRANCH  20  26
HETATM   26  O5  UNL     1       6.796   6.819  12.741  1.00  0.00    -0.390 OA
HETATM   27  H26 UNL     1       7.396   7.600  12.759  1.00  0.00     0.210 HD
ENDBRANCH  20  26
BRANCH  21  28
HETATM   28  O6  UNL     1       5.231   5.487  10.616  1.00  0.00    -0.390 OA
HETATM   29  H28 UNL     1       5.884   5.074  11.218  1.00  0.00     0.210 HD
ENDBRANCH  21  28
BRANCH  22  30
HETATM   30  O7  UNL     1       3.668   6.826   9.078  1.00  0.00    -0.388 OA
HETATM   31  H30 UNL     1       3.907   5.913   9.350  1.00  0.00     0.210 HD
ENDBRANCH  22  30
ENDBRANCH  16  17
ENDBRANCH  14  16
ENDBRANCH  11  14
BRANCH  13  32
HETATM   32  C21 UNL     1      -4.398   5.399  13.870  1.00  0.00     0.037 C 
BRANCH  32  33
HETATM   33  C22 UNL     1      -5.860   5.487  13.512  1.00  0.00    -0.010 C 
HETATM   34  C23 UNL     1      -6.870   5.832  14.328  1.00  0.00     0.044 C 
HETATM   35  C24 UNL     1      -8.271   5.834  13.836  1.00  0.00     0.291 C 
HETATM   36  C26 UNL     1      -6.914   6.231  15.756  1.00  0.00     0.181 C 
HETATM   37  O8  UNL     1      -8.662   5.404  12.766  1.00  0.00    -0.260 OA
HETATM   38  O9  UNL     1      -9.067   6.373  14.800  1.00  0.00    -0.315 OA
HETATM   39  C25 UNL     1      -8.248   6.944  15.817  1.00  0.00     0.215 C 
BRANCH  36  40
HETATM   40  O10 UNL     1      -5.854   7.093  16.130  1.00  0.00    -0.389 OA
HETATM   41  H38 UNL     1      -5.911   7.227  17.091  1.00  0.00     0.210 HD
ENDBRANCH  36  40
ENDBRANCH  32  33
ENDBRANCH  13  32
TORSDOF 11
ENDMDL
MODEL 9
REMARK minimizedAffinity -7.62969255
REMARK CNNscore 0.220379844
REMARK CNNaffinity 5.41303492
REMARK  11 active torsions:
REMARK  status: ('A' for Active; 'I' for Inactive)
REMARK    1  A    between atoms: C11_11  and  C13_13 
REMARK    2  A    between atoms: C13_13  and  O2_15 
REMARK    3  A    between atoms: O2_15  and  C14_16 
REMARK    4  A    between atoms: C15_18  and  C16_19 
REMARK    5  A    between atoms: C16_19  and  O4_20 
REMARK    6  A    between atoms: C17_21  and  O5_22 
REMARK    7  A    between atoms: C18_23  and  O6_24 
REMARK    8  A    between atoms: C19_25  and  O7_26 
REMARK    9  A    between atoms: C20_27  and  C21_28 
REMARK   10  A    between atoms: C21_28  and  C22_29 
REMARK   11  A    between atoms: C26_35  and  O10_36 
ROOT
HETATM    1  C1  UNL     1       3.255  11.917  17.963  1.00  0.00     0.015 C 
HETATM    2  C2  UNL     1       2.016  11.397  17.943  1.00  0.00    -0.084 C 
HETATM    3  C3  UNL     1       1.718  10.117  17.210  1.00  0.00     0.034 C 
HETATM    4  C4  UNL     1       0.592  10.266  16.175  1.00  0.00     0.011 C 
HETATM    5  C5  UNL     1      -0.293  11.521  16.376  1.00  0.00     0.012 C 
HETATM    6  C6  UNL     1      -0.569  11.767  17.900  1.00  0.00    -0.032 C 
HETATM    7  C7  UNL     1      -1.242  10.557  18.582  1.00  0.00     0.016 C 
HETATM    8  C8  UNL     1      -1.502  13.001  18.017  1.00  0.00     0.010 C 
HETATM    9  C9  UNL     1      -2.842  12.876  17.296  1.00  0.00     0.002 C 
HETATM   10  C10 UNL     1      -2.878  11.872  16.147  1.00  0.00     0.020 C 
HETATM   11  C11 UNL     1      -1.534  11.655  15.411  1.00  0.00     0.049 C 
HETATM   12  C12 UNL     1      -1.317  12.902  14.508  1.00  0.00     0.026 C 
HETATM   13  C20 UNL     1       0.828  12.127  18.577  1.00  0.00     0.025 C 
ENDROOT
BRANCH  11  14
HETATM   14  C13 UNL     1      -1.668  10.449  14.458  1.00  0.00     0.270 C 
HETATM   15  O1  UNL     1      -1.658  10.534  13.236  1.00  0.00    -0.264 OA
BRANCH  14  16
HETATM   16  O2  UNL     1      -1.746   9.285  15.150  1.00  0.00    -0.286 OA
BRANCH  16  17
HETATM   17  C14 UNL     1      -3.036   8.660  15.223  1.00  0.00     0.301 C 
HETATM   18  O3  UNL     1      -3.595   8.535  13.906  1.00  0.00    -0.348 OA
HETATM   19  C15 UNL     1      -3.118   7.441  13.108  1.00  0.00     0.179 C 
HETATM   20  C17 UNL     1      -1.844   6.774  13.657  1.00  0.00     0.180 C 
HETATM   21  C18 UNL     1      -2.036   6.315  15.105  1.00  0.00     0.183 C 
HETATM   22  C19 UNL     1      -2.902   7.290  15.920  1.00  0.00     0.205 C 
BRANCH  19  23
HETATM   23  C16 UNL     1      -4.290   6.467  12.890  1.00  0.00     0.198 C 
BRANCH  23  24
HETATM   24  O4  UNL     1      -5.532   7.063  13.246  1.00  0.00    -0.398 OA
HETATM   25  H24 UNL     1      -6.204   6.355  13.209  1.00  0.00     0.209 HD
ENDBRANCH  23  24
ENDBRANCH  19  23
BRANCH  20  26
HETATM   26  O5  UNL     1      -1.364   5.670  12.884  1.00  0.00    -0.390 OA
HETATM   27  H26 UNL     1      -2.137   5.286  12.411  1.00  0.00     0.210 HD
ENDBRANCH  20  26
BRANCH  21  28
HETATM   28  O6  UNL     1      -0.745   6.164  15.732  1.00  0.00    -0.390 OA
HETATM   29  H28 UNL     1      -0.205   5.663  15.087  1.00  0.00     0.210 HD
ENDBRANCH  21  28
BRANCH  22  30
HETATM   30  O7  UNL     1      -2.398   7.409  17.255  1.00  0.00    -0.388 OA
HETATM   31  H30 UNL     1      -1.474   7.080  17.204  1.00  0.00     0.210 HD
ENDBRANCH  22  30
ENDBRANCH  16  17
ENDBRANCH  14  16
ENDBRANCH  11  14
BRANCH  13  32
HETATM   32  C21 UNL     1       0.871  12.119  20.134  1.00  0.00     0.037 C 
BRANCH  32  33
HETATM   33  C22 UNL     1       1.219  10.812  20.798  1.00  0.00    -0.010 C 
HETATM   34  C23 UNL     1       2.380  10.494  21.395  1.00  0.00     0.044 C 
HETATM   35  C24 UNL     1       2.587   9.143  21.973  1.00  0.00     0.291 C 
HETATM   36  C26 UNL     1       3.635  11.254  21.613  1.00  0.00     0.181 C 
HETATM   37  O8  UNL     1       1.851   8.181  21.846  1.00  0.00    -0.260 OA
HETATM   38  O9  UNL     1       3.767   9.139  22.652  1.00  0.00    -0.315 OA
HETATM   39  C25 UNL     1       4.250  10.476  22.756  1.00  0.00     0.215 C 
BRANCH  36  40
HETATM   40  O10 UNL     1       3.417  12.607  21.972  1.00  0.00    -0.389 OA
HETATM   41  H38 UNL     1       4.284  13.045  22.005  1.00  0.00     0.210 HD
ENDBRANCH  36  40
ENDBRANCH  32  33
ENDBRANCH  13  32
TORSDOF 11
ENDMDL
