MODEL 1
REMARK minimizedAffinity -0.918468058
REMARK CNNscore 0.910730362
REMARK CNNaffinity 2.51150417
REMARK  12 active torsions:
REMARK  status: ('A' for Active; 'I' for Inactive)
REMARK    1  A    between atoms: C2_2  and  C3_3 
REMARK    2  A    between atoms: C4_4  and  C18_19 
REMARK    3  A    between atoms: C19_20  and  O1_21 
REMARK    4  A    between atoms: N2_22  and  C20_23 
REMARK    5  A    between atoms: C20_23  and  C21_24 
REMARK    6  A    between atoms: C21_24  and  O3_26 
REMARK    7  A    between atoms: O3_26  and  C22_27 
REMARK    8  A    between atoms: C25_30  and  C26_31 
REMARK    9  A    between atoms: C32_38  and  C33_39 
REMARK   10  A    between atoms: C39_47  and  O7_48 
REMARK   11  A    between atoms: C43_52  and  O8_53 
REMARK   12  A    between atoms: C45_55  and  O9_56 
ROOT
HETATM    1 BR1  UNL     1     -23.175  71.152 -23.012  1.00  0.00    -0.237 Br
ENDROOT
TORSDOF 12
ENDMDL
MODEL 2
REMARK minimizedAffinity -0.871038258
REMARK CNNscore 0.878596723
REMARK CNNaffinity 2.88288283
REMARK  12 active torsions:
REMARK  status: ('A' for Active; 'I' for Inactive)
REMARK    1  A    between atoms: C2_2  and  C3_3 
REMARK    2  A    between atoms: C4_4  and  C18_19 
REMARK    3  A    between atoms: C19_20  and  O1_21 
REMARK    4  A    between atoms: N2_22  and  C20_23 
REMARK    5  A    between atoms: C20_23  and  C21_24 
REMARK    6  A    between atoms: C21_24  and  O3_26 
REMARK    7  A    between atoms: O3_26  and  C22_27 
REMARK    8  A    between atoms: C25_30  and  C26_31 
REMARK    9  A    between atoms: C32_38  and  C33_39 
REMARK   10  A    between atoms: C39_47  and  O7_48 
REMARK   11  A    between atoms: C43_52  and  O8_53 
REMARK   12  A    between atoms: C45_55  and  O9_56 
ROOT
HETATM    1 BR1  UNL     1       2.408  51.464 -26.580  1.00  0.00    -0.237 Br
ENDROOT
TORSDOF 12
ENDMDL
MODEL 3
REMARK minimizedAffinity -0.637480021
REMARK CNNscore 0.876045942
REMARK CNNaffinity 2.83688617
REMARK  12 active torsions:
REMARK  status: ('A' for Active; 'I' for Inactive)
REMARK    1  A    between atoms: C2_2  and  C3_3 
REMARK    2  A    between atoms: C4_4  and  C18_19 
REMARK    3  A    between atoms: C19_20  and  O1_21 
REMARK    4  A    between atoms: N2_22  and  C20_23 
REMARK    5  A    between atoms: C20_23  and  C21_24 
REMARK    6  A    between atoms: C21_24  and  O3_26 
REMARK    7  A    between atoms: O3_26  and  C22_27 
REMARK    8  A    between atoms: C25_30  and  C26_31 
REMARK    9  A    between atoms: C32_38  and  C33_39 
REMARK   10  A    between atoms: C39_47  and  O7_48 
REMARK   11  A    between atoms: C43_52  and  O8_53 
REMARK   12  A    between atoms: C45_55  and  O9_56 
ROOT
HETATM    1 BR1  UNL     1       3.195  54.527 -40.975  1.00  0.00    -0.237 Br
ENDROOT
TORSDOF 12
ENDMDL
MODEL 4
REMARK minimizedAffinity -0.953346908
REMARK CNNscore 0.863431215
REMARK CNNaffinity 2.49427772
REMARK  12 active torsions:
REMARK  status: ('A' for Active; 'I' for Inactive)
REMARK    1  A    between atoms: C2_2  and  C3_3 
REMARK    2  A    between atoms: C4_4  and  C18_19 
REMARK    3  A    between atoms: C19_20  and  O1_21 
REMARK    4  A    between atoms: N2_22  and  C20_23 
REMARK    5  A    between atoms: C20_23  and  C21_24 
REMARK    6  A    between atoms: C21_24  and  O3_26 
REMARK    7  A    between atoms: O3_26  and  C22_27 
REMARK    8  A    between atoms: C25_30  and  C26_31 
REMARK    9  A    between atoms: C32_38  and  C33_39 
REMARK   10  A    between atoms: C39_47  and  O7_48 
REMARK   11  A    between atoms: C43_52  and  O8_53 
REMARK   12  A    between atoms: C45_55  and  O9_56 
ROOT
HETATM    1 BR1  UNL     1       4.003  52.504 -16.025  1.00  0.00    -0.237 Br
ENDROOT
TORSDOF 12
ENDMDL
MODEL 5
REMARK minimizedAffinity -0.885552585
REMARK CNNscore 0.840236187
REMARK CNNaffinity 2.62359071
REMARK  12 active torsions:
REMARK  status: ('A' for Active; 'I' for Inactive)
REMARK    1  A    between atoms: C2_2  and  C3_3 
REMARK    2  A    between atoms: C4_4  and  C18_19 
REMARK    3  A    between atoms: C19_20  and  O1_21 
REMARK    4  A    between atoms: N2_22  and  C20_23 
REMARK    5  A    between atoms: C20_23  and  C21_24 
REMARK    6  A    between atoms: C21_24  and  O3_26 
REMARK    7  A    between atoms: O3_26  and  C22_27 
REMARK    8  A    between atoms: C25_30  and  C26_31 
REMARK    9  A    between atoms: C32_38  and  C33_39 
REMARK   10  A    between atoms: C39_47  and  O7_48 
REMARK   11  A    between atoms: C43_52  and  O8_53 
REMARK   12  A    between atoms: C45_55  and  O9_56 
ROOT
HETATM    1 BR1  UNL     1       7.192  59.620 -34.919  1.00  0.00    -0.237 Br
ENDROOT
TORSDOF 12
ENDMDL
MODEL 6
REMARK minimizedAffinity -0.552057087
REMARK CNNscore 0.837315261
REMARK CNNaffinity 2.44080806
REMARK  12 active torsions:
REMARK  status: ('A' for Active; 'I' for Inactive)
REMARK    1  A    between atoms: C2_2  and  C3_3 
REMARK    2  A    between atoms: C4_4  and  C18_19 
REMARK    3  A    between atoms: C19_20  and  O1_21 
REMARK    4  A    between atoms: N2_22  and  C20_23 
REMARK    5  A    between atoms: C20_23  and  C21_24 
REMARK    6  A    between atoms: C21_24  and  O3_26 
REMARK    7  A    between atoms: O3_26  and  C22_27 
REMARK    8  A    between atoms: C25_30  and  C26_31 
REMARK    9  A    between atoms: C32_38  and  C33_39 
REMARK   10  A    between atoms: C39_47  and  O7_48 
REMARK   11  A    between atoms: C43_52  and  O8_53 
REMARK   12  A    between atoms: C45_55  and  O9_56 
ROOT
HETATM    1 BR1  UNL     1       8.603  51.977 -42.010  1.00  0.00    -0.237 Br
ENDROOT
TORSDOF 12
ENDMDL
MODEL 7
REMARK minimizedAffinity -0.83409059
REMARK CNNscore 0.83727318
REMARK CNNaffinity 2.48791122
REMARK  12 active torsions:
REMARK  status: ('A' for Active; 'I' for Inactive)
REMARK    1  A    between atoms: C2_2  and  C3_3 
REMARK    2  A    between atoms: C4_4  and  C18_19 
REMARK    3  A    between atoms: C19_20  and  O1_21 
REMARK    4  A    between atoms: N2_22  and  C20_23 
REMARK    5  A    between atoms: C20_23  and  C21_24 
REMARK    6  A    between atoms: C21_24  and  O3_26 
REMARK    7  A    between atoms: O3_26  and  C22_27 
REMARK    8  A    between atoms: C25_30  and  C26_31 
REMARK    9  A    between atoms: C32_38  and  C33_39 
REMARK   10  A    between atoms: C39_47  and  O7_48 
REMARK   11  A    between atoms: C43_52  and  O8_53 
REMARK   12  A    between atoms: C45_55  and  O9_56 
ROOT
HETATM    1 BR1  UNL     1       3.463  56.230 -10.806  1.00  0.00    -0.237 Br
ENDROOT
TORSDOF 12
ENDMDL
MODEL 8
REMARK minimizedAffinity -0.673066676
REMARK CNNscore 0.834761977
REMARK CNNaffinity 2.5979197
REMARK  12 active torsions:
REMARK  status: ('A' for Active; 'I' for Inactive)
REMARK    1  A    between atoms: C2_2  and  C3_3 
REMARK    2  A    between atoms: C4_4  and  C18_19 
REMARK    3  A    between atoms: C19_20  and  O1_21 
REMARK    4  A    between atoms: N2_22  and  C20_23 
REMARK    5  A    between atoms: C20_23  and  C21_24 
REMARK    6  A    between atoms: C21_24  and  O3_26 
REMARK    7  A    between atoms: O3_26  and  C22_27 
REMARK    8  A    between atoms: C25_30  and  C26_31 
REMARK    9  A    between atoms: C32_38  and  C33_39 
REMARK   10  A    between atoms: C39_47  and  O7_48 
REMARK   11  A    between atoms: C43_52  and  O8_53 
REMARK   12  A    between atoms: C45_55  and  O9_56 
ROOT
HETATM    1 BR1  UNL     1      10.134  42.952 -20.205  1.00  0.00    -0.237 Br
ENDROOT
TORSDOF 12
ENDMDL
MODEL 9
REMARK minimizedAffinity -0.831211388
REMARK CNNscore 0.819168925
REMARK CNNaffinity 2.48846316
REMARK  12 active torsions:
REMARK  status: ('A' for Active; 'I' for Inactive)
REMARK    1  A    between atoms: C2_2  and  C3_3 
REMARK    2  A    between atoms: C4_4  and  C18_19 
REMARK    3  A    between atoms: C19_20  and  O1_21 
REMARK    4  A    between atoms: N2_22  and  C20_23 
REMARK    5  A    between atoms: C20_23  and  C21_24 
REMARK    6  A    between atoms: C21_24  and  O3_26 
REMARK    7  A    between atoms: O3_26  and  C22_27 
REMARK    8  A    between atoms: C25_30  and  C26_31 
REMARK    9  A    between atoms: C32_38  and  C33_39 
REMARK   10  A    between atoms: C39_47  and  O7_48 
REMARK   11  A    between atoms: C43_52  and  O8_53 
REMARK   12  A    between atoms: C45_55  and  O9_56 
ROOT
HETATM    1 BR1  UNL     1       3.573  57.721 -40.851  1.00  0.00    -0.237 Br
ENDROOT
TORSDOF 12
ENDMDL
