MODEL 1
REMARK minimizedAffinity -7.00222826
REMARK CNNscore 0.666545033
REMARK CNNaffinity 7.08967543
REMARK  4 active torsions:
REMARK  status: ('A' for Active; 'I' for Inactive)
REMARK    1  A    between atoms: C2_2  and  C3_3 
REMARK    2  A    between atoms: C2_2  and  C9_9 
REMARK    3  A    between atoms: C3_3  and  C4_4 
REMARK    4  A    between atoms: C4_4  and  C5_5 
ROOT
HETATM    1  C9  UNL     1       1.927  53.708 -11.051  1.00  0.00     0.018 C 
HETATM    2  C10 UNL     1       0.808  54.762 -10.852  1.00  0.00     0.010 C 
HETATM    3  C11 UNL     1       1.158  55.535  -9.560  1.00  0.00     0.011 C 
HETATM    4  C12 UNL     1       2.677  55.323  -9.363  1.00  0.00    -0.032 C 
HETATM    5  C13 UNL     1       3.387  56.263 -10.395  1.00  0.00     0.016 C 
HETATM    6  C14 UNL     1       2.767  53.827  -9.765  1.00  0.00     0.002 C 
HETATM    7  C15 UNL     1       4.202  53.323  -9.809  1.00  0.00     0.006 C 
HETATM    8  C16 UNL     1       4.874  53.518  -8.439  1.00  0.00     0.006 C 
HETATM    9  C17 UNL     1       4.772  54.975  -7.907  1.00  0.00     0.003 C 
HETATM   10  C18 UNL     1       5.660  55.277  -6.625  1.00  0.00    -0.035 C 
HETATM   11  C19 UNL     1       5.332  54.339  -5.442  1.00  0.00     0.016 C 
HETATM   12  C20 UNL     1       7.162  55.010  -6.998  1.00  0.00     0.017 C 
HETATM   13  C21 UNL     1       8.187  55.920  -6.329  1.00  0.00     0.080 C 
HETATM   14  C22 UNL     1       7.700  56.463  -5.010  1.00  0.00     0.135 C 
HETATM   15  O1  UNL     1       8.372  56.322  -3.988  1.00  0.00    -0.297 OA
HETATM   16  C23 UNL     1       6.394  57.265  -5.035  1.00  0.00     0.017 C 
HETATM   17  C24 UNL     1       6.793  58.746  -5.215  1.00  0.00     0.023 C 
HETATM   18  C25 UNL     1       5.697  57.141  -3.666  1.00  0.00     0.023 C 
HETATM   19  C26 UNL     1       5.516  56.800  -6.253  1.00  0.00     0.009 C 
HETATM   20  C27 UNL     1       4.046  57.250  -6.151  1.00  0.00     0.007 C 
HETATM   21  C28 UNL     1       3.274  56.986  -7.447  1.00  0.00     0.011 C 
HETATM   22  C29 UNL     1       3.275  55.499  -7.885  1.00  0.00    -0.032 C 
HETATM   23  C30 UNL     1       2.405  54.721  -6.854  1.00  0.00     0.016 C 
ENDROOT
BRANCH   1  24
HETATM   24  C2  UNL     1       1.440  52.299 -11.391  1.00  0.00    -0.084 C 
HETATM   25  C1  UNL     1       1.440  51.360 -10.425  1.00  0.00     0.014 C 
BRANCH  24  26
HETATM   26  C3  UNL     1       0.989  52.031 -12.824  1.00  0.00     0.037 C 
BRANCH  26  27
HETATM   27  C4  UNL     1       1.716  50.953 -13.654  1.00  0.00     0.031 C 
BRANCH  27  28
HETATM   28  C5  UNL     1       2.952  51.464 -14.352  1.00  0.00    -0.024 C 
HETATM   29  C6  UNL     1       3.036  51.997 -15.586  1.00  0.00    -0.091 C 
HETATM   30  C7  UNL     1       4.361  52.472 -16.127  1.00  0.00     0.042 C 
HETATM   31  C8  UNL     1       1.886  52.169 -16.539  1.00  0.00     0.042 C 
ENDBRANCH  27  28
ENDBRANCH  26  27
ENDBRANCH  24  26
ENDBRANCH   1  24
TORSDOF 4
ENDMDL
MODEL 2
REMARK minimizedAffinity -7.56394958
REMARK CNNscore 0.625296772
REMARK CNNaffinity 6.77419901
REMARK  4 active torsions:
REMARK  status: ('A' for Active; 'I' for Inactive)
REMARK    1  A    between atoms: C2_2  and  C3_3 
REMARK    2  A    between atoms: C2_2  and  C9_9 
REMARK    3  A    between atoms: C3_3  and  C4_4 
REMARK    4  A    between atoms: C4_4  and  C5_5 
ROOT
HETATM    1  C9  UNL     1       5.863  56.106  -8.052  1.00  0.00     0.018 C 
HETATM    2  C10 UNL     1       6.713  55.016  -8.755  1.00  0.00     0.010 C 
HETATM    3  C11 UNL     1       5.723  53.936  -9.247  1.00  0.00     0.011 C 
HETATM    4  C12 UNL     1       4.355  54.653  -9.332  1.00  0.00    -0.032 C 
HETATM    5  C13 UNL     1       4.402  55.532 -10.627  1.00  0.00     0.016 C 
HETATM    6  C14 UNL     1       4.446  55.502  -8.036  1.00  0.00     0.002 C 
HETATM    7  C15 UNL     1       3.272  56.458  -7.885  1.00  0.00     0.006 C 
HETATM    8  C16 UNL     1       1.948  55.675  -7.883  1.00  0.00     0.006 C 
HETATM    9  C17 UNL     1       1.791  54.731  -9.109  1.00  0.00     0.003 C 
HETATM   10  C18 UNL     1       0.345  54.096  -9.276  1.00  0.00    -0.035 C 
HETATM   11  C19 UNL     1      -0.101  53.299  -8.029  1.00  0.00     0.016 C 
HETATM   12  C20 UNL     1      -0.686  55.269  -9.443  1.00  0.00     0.017 C 
HETATM   13  C21 UNL     1      -1.868  54.991 -10.365  1.00  0.00     0.080 C 
HETATM   14  C22 UNL     1      -2.198  53.522 -10.450  1.00  0.00     0.135 C 
HETATM   15  O1  UNL     1      -3.338  53.121 -10.216  1.00  0.00    -0.297 OA
HETATM   16  C23 UNL     1      -1.078  52.591 -10.928  1.00  0.00     0.017 C 
HETATM   17  C24 UNL     1      -1.239  52.463 -12.458  1.00  0.00     0.023 C 
HETATM   18  C25 UNL     1      -1.293  51.189 -10.325  1.00  0.00     0.023 C 
HETATM   19  C26 UNL     1       0.317  53.234 -10.592  1.00  0.00     0.009 C 
HETATM   20  C27 UNL     1       1.484  52.231 -10.670  1.00  0.00     0.007 C 
HETATM   21  C28 UNL     1       2.845  52.926 -10.567  1.00  0.00     0.011 C 
HETATM   22  C29 UNL     1       3.029  53.752  -9.269  1.00  0.00    -0.032 C 
HETATM   23  C30 UNL     1       3.121  52.737  -8.093  1.00  0.00     0.016 C 
ENDROOT
BRANCH   1  24
HETATM   24  C2  UNL     1       6.396  56.572  -6.697  1.00  0.00    -0.084 C 
HETATM   25  C1  UNL     1       5.775  57.589  -6.069  1.00  0.00     0.014 C 
BRANCH  24  26
HETATM   26  C3  UNL     1       7.623  55.860  -6.135  1.00  0.00     0.037 C 
BRANCH  26  27
HETATM   27  C4  UNL     1       8.756  56.695  -5.503  1.00  0.00     0.031 C 
BRANCH  27  28
HETATM   28  C5  UNL     1      10.032  55.919  -5.295  1.00  0.00    -0.024 C 
HETATM   29  C6  UNL     1      11.214  56.387  -4.850  1.00  0.00    -0.091 C 
HETATM   30  C7  UNL     1      12.392  55.461  -4.687  1.00  0.00     0.042 C 
HETATM   31  C8  UNL     1      11.501  57.819  -4.489  1.00  0.00     0.042 C 
ENDBRANCH  27  28
ENDBRANCH  26  27
ENDBRANCH  24  26
ENDBRANCH   1  24
TORSDOF 4
ENDMDL
MODEL 3
REMARK minimizedAffinity -7.52896833
REMARK CNNscore 0.622933447
REMARK CNNaffinity 6.26671982
REMARK  4 active torsions:
REMARK  status: ('A' for Active; 'I' for Inactive)
REMARK    1  A    between atoms: C2_2  and  C3_3 
REMARK    2  A    between atoms: C2_2  and  C9_9 
REMARK    3  A    between atoms: C3_3  and  C4_4 
REMARK    4  A    between atoms: C4_4  and  C5_5 
ROOT
HETATM    1  C9  UNL     1      -5.713  48.277 -27.330  1.00  0.00     0.018 C 
HETATM    2  C10 UNL     1      -5.395  47.715 -28.739  1.00  0.00     0.010 C 
HETATM    3  C11 UNL     1      -6.543  46.744 -29.095  1.00  0.00     0.011 C 
HETATM    4  C12 UNL     1      -7.726  47.173 -28.195  1.00  0.00    -0.032 C 
HETATM    5  C13 UNL     1      -8.315  48.472 -28.839  1.00  0.00     0.016 C 
HETATM    6  C14 UNL     1      -6.944  47.462 -26.887  1.00  0.00     0.002 C 
HETATM    7  C15 UNL     1      -7.829  48.053 -25.800  1.00  0.00     0.006 C 
HETATM    8  C16 UNL     1      -8.994  47.099 -25.489  1.00  0.00     0.006 C 
HETATM    9  C17 UNL     1      -9.801  46.684 -26.752  1.00  0.00     0.003 C 
HETATM   10  C18 UNL     1     -11.153  45.905 -26.448  1.00  0.00    -0.035 C 
HETATM   11  C19 UNL     1     -10.926  44.625 -25.614  1.00  0.00     0.016 C 
HETATM   12  C20 UNL     1     -12.070  46.841 -25.583  1.00  0.00     0.017 C 
HETATM   13  C21 UNL     1     -13.569  46.723 -25.836  1.00  0.00     0.080 C 
HETATM   14  C22 UNL     1     -13.959  45.365 -26.362  1.00  0.00     0.135 C 
HETATM   15  O1  UNL     1     -14.831  44.702 -25.800  1.00  0.00    -0.297 OA
HETATM   16  C23 UNL     1     -13.287  44.911 -27.663  1.00  0.00     0.017 C 
HETATM   17  C24 UNL     1     -14.219  45.351 -28.813  1.00  0.00     0.023 C 
HETATM   18  C25 UNL     1     -13.220  43.372 -27.689  1.00  0.00     0.023 C 
HETATM   19  C26 UNL     1     -11.893  45.623 -27.809  1.00  0.00     0.009 C 
HETATM   20  C27 UNL     1     -10.977  44.960 -28.857  1.00  0.00     0.007 C 
HETATM   21  C28 UNL     1      -9.730  45.801 -29.142  1.00  0.00     0.011 C 
HETATM   22  C29 UNL     1      -8.867  46.088 -27.887  1.00  0.00    -0.032 C 
HETATM   23  C30 UNL     1      -8.226  44.735 -27.458  1.00  0.00     0.016 C 
ENDROOT
BRANCH   1  24
HETATM   24  C2  UNL     1      -4.538  48.279 -26.351  1.00  0.00    -0.084 C 
HETATM   25  C1  UNL     1      -3.284  48.256 -26.841  1.00  0.00     0.014 C 
BRANCH  24  26
HETATM   26  C3  UNL     1      -4.859  48.294 -24.860  1.00  0.00     0.037 C 
BRANCH  26  27
HETATM   27  C4  UNL     1      -4.135  49.303 -23.943  1.00  0.00     0.031 C 
BRANCH  27  28
HETATM   28  C5  UNL     1      -2.922  48.727 -23.254  1.00  0.00    -0.024 C 
HETATM   29  C6  UNL     1      -2.896  47.948 -22.156  1.00  0.00    -0.091 C 
HETATM   30  C7  UNL     1      -1.586  47.445 -21.604  1.00  0.00     0.042 C 
HETATM   31  C8  UNL     1      -4.102  47.509 -21.372  1.00  0.00     0.042 C 
ENDBRANCH  27  28
ENDBRANCH  26  27
ENDBRANCH  24  26
ENDBRANCH   1  24
TORSDOF 4
ENDMDL
MODEL 4
REMARK minimizedAffinity -6.63945055
REMARK CNNscore 0.546251297
REMARK CNNaffinity 6.72128534
REMARK  4 active torsions:
REMARK  status: ('A' for Active; 'I' for Inactive)
REMARK    1  A    between atoms: C2_2  and  C3_3 
REMARK    2  A    between atoms: C2_2  and  C9_9 
REMARK    3  A    between atoms: C3_3  and  C4_4 
REMARK    4  A    between atoms: C4_4  and  C5_5 
ROOT
HETATM    1  C9  UNL     1      -2.437  52.909 -11.293  1.00  0.00     0.018 C 
HETATM    2  C10 UNL     1      -3.237  53.343 -10.038  1.00  0.00     0.010 C 
HETATM    3  C11 UNL     1      -2.195  53.702  -8.955  1.00  0.00     0.011 C 
HETATM    4  C12 UNL     1      -0.894  54.010  -9.734  1.00  0.00    -0.032 C 
HETATM    5  C13 UNL     1      -1.084  55.435 -10.354  1.00  0.00     0.016 C 
HETATM    6  C14 UNL     1      -0.978  52.884 -10.799  1.00  0.00     0.002 C 
HETATM    7  C15 UNL     1       0.124  52.990 -11.842  1.00  0.00     0.006 C 
HETATM    8  C16 UNL     1       1.503  52.941 -11.164  1.00  0.00     0.006 C 
HETATM    9  C17 UNL     1       1.664  53.984 -10.023  1.00  0.00     0.003 C 
HETATM   10  C18 UNL     1       3.144  54.136  -9.466  1.00  0.00    -0.035 C 
HETATM   11  C19 UNL     1       3.721  52.801  -8.944  1.00  0.00     0.016 C 
HETATM   12  C20 UNL     1       4.068  54.583 -10.655  1.00  0.00     0.017 C 
HETATM   13  C21 UNL     1       5.215  55.520 -10.291  1.00  0.00     0.080 C 
HETATM   14  C22 UNL     1       5.653  55.364  -8.857  1.00  0.00     0.135 C 
HETATM   15  O1  UNL     1       6.833  55.142  -8.583  1.00  0.00    -0.297 OA
HETATM   16  C23 UNL     1       4.584  55.587  -7.781  1.00  0.00     0.017 C 
HETATM   17  C24 UNL     1       4.667  57.077  -7.384  1.00  0.00     0.023 C 
HETATM   18  C25 UNL     1       4.943  54.758  -6.532  1.00  0.00     0.023 C 
HETATM   19  C26 UNL     1       3.165  55.275  -8.379  1.00  0.00     0.009 C 
HETATM   20  C27 UNL     1       2.077  55.090  -7.304  1.00  0.00     0.007 C 
HETATM   21  C28 UNL     1       0.675  55.018  -7.913  1.00  0.00     0.011 C 
HETATM   22  C29 UNL     1       0.499  53.880  -8.950  1.00  0.00    -0.032 C 
HETATM   23  C30 UNL     1       0.555  52.536  -8.165  1.00  0.00     0.016 C 
ENDROOT
BRANCH   1  24
HETATM   24  C2  UNL     1      -2.926  51.626 -11.964  1.00  0.00    -0.084 C 
HETATM   25  C1  UNL     1      -3.525  51.708 -13.168  1.00  0.00     0.014 C 
BRANCH  24  26
HETATM   26  C3  UNL     1      -2.719  50.312 -11.217  1.00  0.00     0.037 C 
BRANCH  26  27
HETATM   27  C4  UNL     1      -3.499  50.056  -9.910  1.00  0.00     0.031 C 
BRANCH  27  28
HETATM   28  C5  UNL     1      -4.996  50.150 -10.075  1.00  0.00    -0.024 C 
HETATM   29  C6  UNL     1      -5.821  49.230 -10.610  1.00  0.00    -0.091 C 
HETATM   30  C7  UNL     1      -7.305  49.483 -10.685  1.00  0.00     0.042 C 
HETATM   31  C8  UNL     1      -5.393  47.907 -11.183  1.00  0.00     0.042 C 
ENDBRANCH  27  28
ENDBRANCH  26  27
ENDBRANCH  24  26
ENDBRANCH   1  24
TORSDOF 4
ENDMDL
MODEL 5
REMARK minimizedAffinity -7.33526611
REMARK CNNscore 0.390776664
REMARK CNNaffinity 6.42038918
REMARK  4 active torsions:
REMARK  status: ('A' for Active; 'I' for Inactive)
REMARK    1  A    between atoms: C2_2  and  C3_3 
REMARK    2  A    between atoms: C2_2  and  C9_9 
REMARK    3  A    between atoms: C3_3  and  C4_4 
REMARK    4  A    between atoms: C4_4  and  C5_5 
ROOT
HETATM    1  C9  UNL     1       5.945  55.832  -8.370  1.00  0.00     0.018 C 
HETATM    2  C10 UNL     1       6.700  54.676  -9.074  1.00  0.00     0.010 C 
HETATM    3  C11 UNL     1       5.631  53.641  -9.492  1.00  0.00     0.011 C 
HETATM    4  C12 UNL     1       4.303  54.433  -9.541  1.00  0.00    -0.032 C 
HETATM    5  C13 UNL     1       4.343  55.271 -10.862  1.00  0.00     0.016 C 
HETATM    6  C14 UNL     1       4.498  55.311  -8.276  1.00  0.00     0.002 C 
HETATM    7  C15 UNL     1       3.387  56.336  -8.105  1.00  0.00     0.006 C 
HETATM    8  C16 UNL     1       2.023  55.631  -8.024  1.00  0.00     0.006 C 
HETATM    9  C17 UNL     1       1.760  54.664  -9.212  1.00  0.00     0.003 C 
HETATM   10  C18 UNL     1       0.274  54.108  -9.299  1.00  0.00    -0.035 C 
HETATM   11  C19 UNL     1      -0.161  53.373  -8.011  1.00  0.00     0.016 C 
HETATM   12  C20 UNL     1      -0.695  55.333  -9.458  1.00  0.00     0.017 C 
HETATM   13  C21 UNL     1      -1.931  55.097 -10.321  1.00  0.00     0.080 C 
HETATM   14  C22 UNL     1      -2.346  53.648 -10.348  1.00  0.00     0.135 C 
HETATM   15  O1  UNL     1      -3.495  53.320 -10.053  1.00  0.00    -0.297 OA
HETATM   16  C23 UNL     1      -1.301  52.641 -10.843  1.00  0.00     0.017 C 
HETATM   17  C24 UNL     1      -1.536  52.480 -12.361  1.00  0.00     0.023 C 
HETATM   18  C25 UNL     1      -1.568  51.272 -10.190  1.00  0.00     0.023 C 
HETATM   19  C26 UNL     1       0.141  53.212 -10.587  1.00  0.00     0.009 C 
HETATM   20  C27 UNL     1       1.245  52.143 -10.683  1.00  0.00     0.007 C 
HETATM   21  C28 UNL     1       2.646  52.761 -10.658  1.00  0.00     0.011 C 
HETATM   22  C29 UNL     1       2.933  53.611  -9.395  1.00  0.00    -0.032 C 
HETATM   23  C30 UNL     1       3.019  52.625  -8.193  1.00  0.00     0.016 C 
ENDROOT
BRANCH   1  24
HETATM   24  C2  UNL     1       6.561  56.304  -7.053  1.00  0.00    -0.084 C 
HETATM   25  C1  UNL     1       7.625  55.642  -6.559  1.00  0.00     0.014 C 
BRANCH  24  26
HETATM   26  C3  UNL     1       5.920  57.503  -6.361  1.00  0.00     0.037 C 
BRANCH  26  27
HETATM   27  C4  UNL     1       5.559  57.404  -4.863  1.00  0.00     0.031 C 
BRANCH  27  28
HETATM   28  C5  UNL     1       4.074  57.338  -4.606  1.00  0.00    -0.024 C 
HETATM   29  C6  UNL     1       3.250  58.355  -4.290  1.00  0.00    -0.091 C 
HETATM   30  C7  UNL     1       1.778  58.112  -4.078  1.00  0.00     0.042 C 
HETATM   31  C8  UNL     1       3.669  59.788  -4.106  1.00  0.00     0.042 C 
ENDBRANCH  27  28
ENDBRANCH  26  27
ENDBRANCH  24  26
ENDBRANCH   1  24
TORSDOF 4
ENDMDL
MODEL 6
REMARK minimizedAffinity -7.73579645
REMARK CNNscore 0.362956554
REMARK CNNaffinity 5.63688993
REMARK  4 active torsions:
REMARK  status: ('A' for Active; 'I' for Inactive)
REMARK    1  A    between atoms: C2_2  and  C3_3 
REMARK    2  A    between atoms: C2_2  and  C9_9 
REMARK    3  A    between atoms: C3_3  and  C4_4 
REMARK    4  A    between atoms: C4_4  and  C5_5 
ROOT
HETATM    1  C9  UNL     1      -5.909  47.431 -32.552  1.00  0.00     0.018 C 
HETATM    2  C10 UNL     1      -6.908  47.425 -33.738  1.00  0.00     0.010 C 
HETATM    3  C11 UNL     1      -8.272  46.984 -33.162  1.00  0.00     0.011 C 
HETATM    4  C12 UNL     1      -8.185  47.285 -31.647  1.00  0.00    -0.032 C 
HETATM    5  C13 UNL     1      -8.361  48.834 -31.499  1.00  0.00     0.016 C 
HETATM    6  C14 UNL     1      -6.724  46.828 -31.392  1.00  0.00     0.002 C 
HETATM    7  C15 UNL     1      -6.262  47.125 -29.974  1.00  0.00     0.006 C 
HETATM    8  C16 UNL     1      -7.189  46.437 -28.959  1.00  0.00     0.006 C 
HETATM    9  C17 UNL     1      -8.692  46.770 -29.176  1.00  0.00     0.003 C 
HETATM   10  C18 UNL     1      -9.655  46.284 -28.009  1.00  0.00    -0.035 C 
HETATM   11  C19 UNL     1      -9.560  44.763 -27.756  1.00  0.00     0.016 C 
HETATM   12  C20 UNL     1      -9.199  46.983 -26.679  1.00  0.00     0.017 C 
HETATM   13  C21 UNL     1     -10.311  47.339 -25.698  1.00  0.00     0.080 C 
HETATM   14  C22 UNL     1     -11.515  46.444 -25.844  1.00  0.00     0.135 C 
HETATM   15  O1  UNL     1     -11.969  45.840 -24.871  1.00  0.00    -0.297 OA
HETATM   16  C23 UNL     1     -12.182  46.405 -27.223  1.00  0.00     0.017 C 
HETATM   17  C24 UNL     1     -13.292  47.478 -27.203  1.00  0.00     0.023 C 
HETATM   18  C25 UNL     1     -12.869  45.039 -27.416  1.00  0.00     0.023 C 
HETATM   19  C26 UNL     1     -11.122  46.758 -28.329  1.00  0.00     0.009 C 
HETATM   20  C27 UNL     1     -11.573  46.375 -29.751  1.00  0.00     0.007 C 
HETATM   21  C28 UNL     1     -10.632  46.934 -30.821  1.00  0.00     0.011 C 
HETATM   22  C29 UNL     1      -9.160  46.476 -30.663  1.00  0.00    -0.032 C 
HETATM   23  C30 UNL     1      -9.120  44.955 -30.992  1.00  0.00     0.016 C 
ENDROOT
BRANCH   1  24
HETATM   24  C2  UNL     1      -4.565  46.759 -32.832  1.00  0.00    -0.084 C 
HETATM   25  C1  UNL     1      -3.683  47.379 -33.639  1.00  0.00     0.014 C 
BRANCH  24  26
HETATM   26  C3  UNL     1      -4.303  45.403 -32.184  1.00  0.00     0.037 C 
BRANCH  26  27
HETATM   27  C4  UNL     1      -4.851  44.127 -32.858  1.00  0.00     0.031 C 
BRANCH  27  28
HETATM   28  C5  UNL     1      -3.965  42.920 -32.671  1.00  0.00    -0.024 C 
HETATM   29  C6  UNL     1      -3.529  42.068 -33.618  1.00  0.00    -0.091 C 
HETATM   30  C7  UNL     1      -2.632  40.912 -33.254  1.00  0.00     0.042 C 
HETATM   31  C8  UNL     1      -3.868  42.146 -35.081  1.00  0.00     0.042 C 
ENDBRANCH  27  28
ENDBRANCH  26  27
ENDBRANCH  24  26
ENDBRANCH   1  24
TORSDOF 4
ENDMDL
MODEL 7
REMARK minimizedAffinity -7.62974691
REMARK CNNscore 0.351293027
REMARK CNNaffinity 5.2320056
REMARK  4 active torsions:
REMARK  status: ('A' for Active; 'I' for Inactive)
REMARK    1  A    between atoms: C2_2  and  C3_3 
REMARK    2  A    between atoms: C2_2  and  C9_9 
REMARK    3  A    between atoms: C3_3  and  C4_4 
REMARK    4  A    between atoms: C4_4  and  C5_5 
ROOT
HETATM    1  C9  UNL     1       4.535  66.683 -34.983  1.00  0.00     0.018 C 
HETATM    2  C10 UNL     1       5.740  67.649 -35.114  1.00  0.00     0.010 C 
HETATM    3  C11 UNL     1       5.583  68.367 -36.473  1.00  0.00     0.011 C 
HETATM    4  C12 UNL     1       4.081  68.242 -36.823  1.00  0.00    -0.032 C 
HETATM    5  C13 UNL     1       3.336  69.284 -35.923  1.00  0.00     0.016 C 
HETATM    6  C14 UNL     1       3.845  66.781 -36.357  1.00  0.00     0.002 C 
HETATM    7  C15 UNL     1       2.382  66.374 -36.443  1.00  0.00     0.006 C 
HETATM    8  C16 UNL     1       1.872  66.532 -37.886  1.00  0.00     0.006 C 
HETATM    9  C17 UNL     1       2.131  67.946 -38.477  1.00  0.00     0.003 C 
HETATM   10  C18 UNL     1       1.406  68.229 -39.862  1.00  0.00    -0.035 C 
HETATM   11  C19 UNL     1       1.789  67.204 -40.953  1.00  0.00     0.016 C 
HETATM   12  C20 UNL     1      -0.142  68.081 -39.640  1.00  0.00     0.017 C 
HETATM   13  C21 UNL     1      -1.025  69.015 -40.462  1.00  0.00     0.080 C 
HETATM   14  C22 UNL     1      -0.366  69.448 -41.746  1.00  0.00     0.135 C 
HETATM   15  O1  UNL     1      -0.936  69.291 -42.827  1.00  0.00    -0.297 OA
HETATM   16  C23 UNL     1       0.984  70.164 -41.622  1.00  0.00     0.017 C 
HETATM   17  C24 UNL     1       0.673  71.675 -41.561  1.00  0.00     0.023 C 
HETATM   18  C25 UNL     1       1.809  69.916 -42.899  1.00  0.00     0.023 C 
HETATM   19  C26 UNL     1       1.695  69.715 -40.293  1.00  0.00     0.009 C 
HETATM   20  C27 UNL     1       3.195  70.063 -40.258  1.00  0.00     0.007 C 
HETATM   21  C28 UNL     1       3.807  69.825 -38.875  1.00  0.00     0.011 C 
HETATM   22  C29 UNL     1       3.656  68.370 -38.364  1.00  0.00    -0.032 C 
HETATM   23  C30 UNL     1       4.571  67.479 -39.254  1.00  0.00     0.016 C 
ENDROOT
BRANCH   1  24
HETATM   24  C2  UNL     1       4.885  65.268 -34.521  1.00  0.00    -0.084 C 
HETATM   25  C1  UNL     1       4.302  64.785 -33.407  1.00  0.00     0.014 C 
BRANCH  24  26
HETATM   26  C3  UNL     1       5.895  64.481 -35.351  1.00  0.00     0.037 C 
BRANCH  26  27
HETATM   27  C4  UNL     1       6.927  63.587 -34.632  1.00  0.00     0.031 C 
BRANCH  27  28
HETATM   28  C5  UNL     1       6.655  62.111 -34.783  1.00  0.00    -0.024 C 
HETATM   29  C6  UNL     1       7.518  61.095 -34.598  1.00  0.00    -0.091 C 
HETATM   30  C7  UNL     1       7.071  59.666 -34.780  1.00  0.00     0.042 C 
HETATM   31  C8  UNL     1       8.966  61.242 -34.218  1.00  0.00     0.042 C 
ENDBRANCH  27  28
ENDBRANCH  26  27
ENDBRANCH  24  26
ENDBRANCH   1  24
TORSDOF 4
ENDMDL
MODEL 8
REMARK minimizedAffinity -7.69778967
REMARK CNNscore 0.344527066
REMARK CNNaffinity 6.18831968
REMARK  4 active torsions:
REMARK  status: ('A' for Active; 'I' for Inactive)
REMARK    1  A    between atoms: C2_2  and  C3_3 
REMARK    2  A    between atoms: C2_2  and  C9_9 
REMARK    3  A    between atoms: C3_3  and  C4_4 
REMARK    4  A    between atoms: C4_4  and  C5_5 
ROOT
HETATM    1  C9  UNL     1       6.029  55.851  -8.226  1.00  0.00     0.018 C 
HETATM    2  C10 UNL     1       6.826  54.754  -8.977  1.00  0.00     0.010 C 
HETATM    3  C11 UNL     1       5.792  53.712  -9.459  1.00  0.00     0.011 C 
HETATM    4  C12 UNL     1       4.442  54.466  -9.484  1.00  0.00    -0.032 C 
HETATM    5  C13 UNL     1       4.470  55.371 -10.761  1.00  0.00     0.016 C 
HETATM    6  C14 UNL     1       4.597  55.285  -8.174  1.00  0.00     0.002 C 
HETATM    7  C15 UNL     1       3.456  56.268  -7.965  1.00  0.00     0.006 C 
HETATM    8  C16 UNL     1       2.111  55.521  -7.935  1.00  0.00     0.006 C 
HETATM    9  C17 UNL     1       1.889  54.607  -9.173  1.00  0.00     0.003 C 
HETATM   10  C18 UNL     1       0.421  54.014  -9.305  1.00  0.00    -0.035 C 
HETATM   11  C19 UNL     1      -0.005  53.203  -8.061  1.00  0.00     0.016 C 
HETATM   12  C20 UNL     1      -0.582  55.217  -9.415  1.00  0.00     0.017 C 
HETATM   13  C21 UNL     1      -1.801  54.989 -10.302  1.00  0.00     0.080 C 
HETATM   14  C22 UNL     1      -2.173  53.532 -10.406  1.00  0.00     0.135 C 
HETATM   15  O1  UNL     1      -3.315  53.157 -10.142  1.00  0.00    -0.297 OA
HETATM   16  C23 UNL     1      -1.095  52.582 -10.939  1.00  0.00     0.017 C 
HETATM   17  C24 UNL     1      -1.308  52.491 -12.466  1.00  0.00     0.023 C 
HETATM   18  C25 UNL     1      -1.328  51.174 -10.358  1.00  0.00     0.023 C 
HETATM   19  C26 UNL     1       0.327  53.180 -10.638  1.00  0.00     0.009 C 
HETATM   20  C27 UNL     1       1.464  52.149 -10.775  1.00  0.00     0.007 C 
HETATM   21  C28 UNL     1       2.845  52.806 -10.703  1.00  0.00     0.011 C 
HETATM   22  C29 UNL     1       3.095  53.599  -9.395  1.00  0.00    -0.032 C 
HETATM   23  C30 UNL     1       3.197  52.557  -8.243  1.00  0.00     0.016 C 
ENDROOT
BRANCH   1  24
HETATM   24  C2  UNL     1       6.618  56.274  -6.880  1.00  0.00    -0.084 C 
HETATM   25  C1  UNL     1       7.481  55.448  -6.258  1.00  0.00     0.014 C 
BRANCH  24  26
HETATM   26  C3  UNL     1       6.178  57.618  -6.305  1.00  0.00     0.037 C 
BRANCH  26  27
HETATM   27  C4  UNL     1       6.729  58.068  -4.935  1.00  0.00     0.031 C 
BRANCH  27  28
HETATM   28  C5  UNL     1       7.672  59.242  -5.022  1.00  0.00    -0.024 C 
HETATM   29  C6  UNL     1       9.019  59.212  -5.039  1.00  0.00    -0.091 C 
HETATM   30  C7  UNL     1       9.812  60.490  -5.144  1.00  0.00     0.042 C 
HETATM   31  C8  UNL     1       9.862  57.971  -4.949  1.00  0.00     0.042 C 
ENDBRANCH  27  28
ENDBRANCH  26  27
ENDBRANCH  24  26
ENDBRANCH   1  24
TORSDOF 4
ENDMDL
MODEL 9
REMARK minimizedAffinity -7.33459139
REMARK CNNscore 0.318165839
REMARK CNNaffinity 6.56980753
REMARK  4 active torsions:
REMARK  status: ('A' for Active; 'I' for Inactive)
REMARK    1  A    between atoms: C2_2  and  C3_3 
REMARK    2  A    between atoms: C2_2  and  C9_9 
REMARK    3  A    between atoms: C3_3  and  C4_4 
REMARK    4  A    between atoms: C4_4  and  C5_5 
ROOT
HETATM    1  C9  UNL     1       0.949  50.650 -13.699  1.00  0.00     0.018 C 
HETATM    2  C10 UNL     1       0.095  49.555 -13.011  1.00  0.00     0.010 C 
HETATM    3  C11 UNL     1      -0.962  49.106 -14.045  1.00  0.00     0.011 C 
HETATM    4  C12 UNL     1      -0.374  49.504 -15.419  1.00  0.00    -0.032 C 
HETATM    5  C13 UNL     1       0.732  48.446 -15.744  1.00  0.00     0.016 C 
HETATM    6  C14 UNL     1       0.222  50.885 -15.037  1.00  0.00     0.002 C 
HETATM    7  C15 UNL     1       1.018  51.509 -16.173  1.00  0.00     0.006 C 
HETATM    8  C16 UNL     1       0.127  51.672 -17.417  1.00  0.00     0.006 C 
HETATM    9  C17 UNL     1      -0.581  50.354 -17.841  1.00  0.00     0.003 C 
HETATM   10  C18 UNL     1      -1.307  50.416 -19.253  1.00  0.00    -0.035 C 
HETATM   11  C19 UNL     1      -2.362  51.543 -19.328  1.00  0.00     0.016 C 
HETATM   12  C20 UNL     1      -0.226  50.748 -20.342  1.00  0.00     0.017 C 
HETATM   13  C21 UNL     1      -0.438  50.103 -21.708  1.00  0.00     0.080 C 
HETATM   14  C22 UNL     1      -1.888  49.801 -21.984  1.00  0.00     0.135 C 
HETATM   15  O1  UNL     1      -2.432  50.218 -23.007  1.00  0.00    -0.297 OA
HETATM   16  C23 UNL     1      -2.604  48.886 -20.983  1.00  0.00     0.017 C 
HETATM   17  C24 UNL     1      -2.458  47.448 -21.525  1.00  0.00     0.023 C 
HETATM   18  C25 UNL     1      -4.108  49.223 -20.975  1.00  0.00     0.023 C 
HETATM   19  C26 UNL     1      -1.907  48.998 -19.579  1.00  0.00     0.009 C 
HETATM   20  C27 UNL     1      -2.763  48.435 -18.428  1.00  0.00     0.007 C 
HETATM   21  C28 UNL     1      -1.974  48.345 -17.118  1.00  0.00     0.011 C 
HETATM   22  C29 UNL     1      -1.392  49.701 -16.643  1.00  0.00    -0.032 C 
HETATM   23  C30 UNL     1      -2.596  50.586 -16.209  1.00  0.00     0.016 C 
ENDROOT
BRANCH   1  24
HETATM   24  C2  UNL     1       1.201  51.901 -12.858  1.00  0.00    -0.084 C 
HETATM   25  C1  UNL     1       0.162  52.702 -12.554  1.00  0.00     0.014 C 
BRANCH  24  26
HETATM   26  C3  UNL     1       2.635  52.182 -12.418  1.00  0.00     0.037 C 
BRANCH  26  27
HETATM   27  C4  UNL     1       2.906  52.613 -10.961  1.00  0.00     0.031 C 
BRANCH  27  28
HETATM   28  C5  UNL     1       2.887  54.108 -10.762  1.00  0.00    -0.024 C 
HETATM   29  C6  UNL     1       3.869  54.882 -10.262  1.00  0.00    -0.091 C 
HETATM   30  C7  UNL     1       3.685  56.374 -10.144  1.00  0.00     0.042 C 
HETATM   31  C8  UNL     1       5.201  54.386  -9.771  1.00  0.00     0.042 C 
ENDBRANCH  27  28
ENDBRANCH  26  27
ENDBRANCH  24  26
ENDBRANCH   1  24
TORSDOF 4
ENDMDL
