MODEL 1
REMARK minimizedAffinity -9.4670496
REMARK  8 active torsions:
REMARK  status: ('A' for Active; 'I' for Inactive)
REMARK    1  A    between atoms: C4_4  and  C5_5 
REMARK    2  A    between atoms: C5_5  and  C6_6 
REMARK    3  A    between atoms: C6_6  and  C7_7 
REMARK    4  A    between atoms: C7_7  and  C9_9 
REMARK    5  A    between atoms: C25_26  and  C27_28 
REMARK    6  A    between atoms: C27_28  and  O3_30 
REMARK    7  A    between atoms: C28_31  and  O4_32 
REMARK    8  A    between atoms: C30_34  and  O5_35 
ROOT
HETATM    1  C9  UNL     1      -5.566   6.748  14.537  1.00  0.00    -0.002 C 
HETATM    2  C10 UNL     1      -5.328   7.987  15.449  1.00  0.00     0.007 C 
HETATM    3  C11 UNL     1      -3.880   8.454  15.229  1.00  0.00     0.015 C 
HETATM    4  C12 UNL     1      -3.416   7.739  13.944  1.00  0.00    -0.005 C 
HETATM    5  C13 UNL     1      -3.950   8.580  12.743  1.00  0.00     0.021 C 
HETATM    6  C14 UNL     1      -1.928   7.552  13.655  1.00  0.00    -0.000 C 
HETATM    7  C15 UNL     1      -1.479   6.496  12.927  1.00  0.00    -0.058 C 
HETATM    8  C16 UNL     1      -2.459   5.412  12.446  1.00  0.00     0.036 C 
HETATM    9  C17 UNL     1      -3.944   5.558  12.840  1.00  0.00     0.015 C 
HETATM   10  C18 UNL     1      -4.112   6.336  14.148  1.00  0.00    -0.028 C 
HETATM   11  C19 UNL     1      -3.482   5.503  15.309  1.00  0.00     0.016 C 
HETATM   12  C20 UNL     1       0.031   6.266  12.576  1.00  0.00     0.011 C 
HETATM   13  C21 UNL     1       0.540   5.234  13.611  1.00  0.00     0.023 C 
HETATM   14  C22 UNL     1       0.778   7.639  12.652  1.00  0.00     0.029 C 
HETATM   15  C23 UNL     1       0.507   8.366  13.969  1.00  0.00     0.090 C 
HETATM   16  C24 UNL     1      -0.971   8.584  14.171  1.00  0.00     0.157 C 
HETATM   17  O1  UNL     1      -1.361   9.574  14.789  1.00  0.00    -0.293 OA
HETATM   18  C25 UNL     1       2.300   7.643  12.240  1.00  0.00     0.072 C 
HETATM   19  C26 UNL     1       2.563   8.972  11.473  1.00  0.00     0.030 C 
HETATM   20  C28 UNL     1       2.659   6.428  11.349  1.00  0.00     0.139 C 
HETATM   21  C29 UNL     1       1.520   6.059  10.404  1.00  0.00     0.065 C 
HETATM   22  C30 UNL     1       0.196   5.732  11.105  1.00  0.00     0.133 C 
ENDROOT
BRANCH   1  23
HETATM   23  C7  UNL     1      -6.514   5.717  15.217  1.00  0.00    -0.014 C 
HETATM   24  C8  UNL     1      -7.273   6.367  16.388  1.00  0.00     0.010 C 
BRANCH  23  25
HETATM   25  C6  UNL     1      -7.517   5.018  14.275  1.00  0.00     0.008 C 
BRANCH  25  26
HETATM   26  C5  UNL     1      -7.015   4.753  12.851  1.00  0.00     0.028 C 
BRANCH  26  27
HETATM   27  C4  UNL     1      -6.837   3.275  12.620  1.00  0.00    -0.025 C 
HETATM   28  C2  UNL     1      -6.120   2.659  11.659  1.00  0.00    -0.091 C 
HETATM   29  C1  UNL     1      -6.053   1.151  11.606  1.00  0.00     0.042 C 
HETATM   30  C3  UNL     1      -5.331   3.345  10.580  1.00  0.00     0.042 C 
ENDBRANCH  26  27
ENDBRANCH  25  26
ENDBRANCH  23  25
ENDBRANCH   1  23
BRANCH  22  31
HETATM   31  O5  UNL     1       0.008   4.313  11.059  1.00  0.00    -0.394 OA
HETATM   32  H46 UNL     1      -0.126   4.064  10.128  1.00  0.00     0.210 HD
ENDBRANCH  22  31
BRANCH  18  33
HETATM   33  C27 UNL     1       3.252   7.645  13.441  1.00  0.00     0.151 C 
HETATM   34  O2  UNL     1       2.956   7.921  14.594  1.00  0.00    -0.649 OA
BRANCH  33  35
HETATM   35  O3  UNL     1       4.517   7.315  13.147  1.00  0.00    -0.776 OA
HETATM   36  H40 UNL     1       4.980   7.343  14.012  1.00  0.00     0.167 HD
ENDBRANCH  33  35
ENDBRANCH  18  33
BRANCH  20  37
HETATM   37  O4  UNL     1       3.806   6.684  10.531  1.00  0.00    -0.394 OA
HETATM   38  H42 UNL     1       4.574   6.826  11.114  1.00  0.00     0.210 HD
ENDBRANCH  20  37
TORSDOF 8
ENDMDL
MODEL 2
REMARK minimizedAffinity -9.34716892
REMARK  8 active torsions:
REMARK  status: ('A' for Active; 'I' for Inactive)
REMARK    1  A    between atoms: C4_4  and  C5_5 
REMARK    2  A    between atoms: C5_5  and  C6_6 
REMARK    3  A    between atoms: C6_6  and  C7_7 
REMARK    4  A    between atoms: C7_7  and  C9_9 
REMARK    5  A    between atoms: C25_26  and  C27_28 
REMARK    6  A    between atoms: C27_28  and  O3_30 
REMARK    7  A    between atoms: C28_31  and  O4_32 
REMARK    8  A    between atoms: C30_34  and  O5_35 
ROOT
HETATM    1  C9  UNL     1      -3.950   6.782  14.903  1.00  0.00    -0.002 C 
HETATM    2  C10 UNL     1      -4.407   5.507  14.136  1.00  0.00     0.007 C 
HETATM    3  C11 UNL     1      -3.312   5.166  13.111  1.00  0.00     0.015 C 
HETATM    4  C12 UNL     1      -2.086   5.995  13.538  1.00  0.00    -0.005 C 
HETATM    5  C13 UNL     1      -1.376   5.197  14.676  1.00  0.00     0.021 C 
HETATM    6  C14 UNL     1      -0.977   6.312  12.538  1.00  0.00    -0.000 C 
HETATM    7  C15 UNL     1      -0.233   7.444  12.645  1.00  0.00    -0.058 C 
HETATM    8  C16 UNL     1      -0.549   8.481  13.736  1.00  0.00     0.036 C 
HETATM    9  C17 UNL     1      -1.743   8.199  14.672  1.00  0.00     0.015 C 
HETATM   10  C18 UNL     1      -2.804   7.326  13.994  1.00  0.00    -0.028 C 
HETATM   11  C19 UNL     1      -3.423   8.126  12.805  1.00  0.00     0.016 C 
HETATM   12  C20 UNL     1       0.935   7.809  11.665  1.00  0.00     0.011 C 
HETATM   13  C21 UNL     1       0.324   8.806  10.652  1.00  0.00     0.023 C 
HETATM   14  C22 UNL     1       1.460   6.494  10.999  1.00  0.00     0.029 C 
HETATM   15  C23 UNL     1       0.325   5.663  10.398  1.00  0.00     0.090 C 
HETATM   16  C24 UNL     1      -0.706   5.323  11.444  1.00  0.00     0.157 C 
HETATM   17  O1  UNL     1      -1.334   4.268  11.358  1.00  0.00    -0.293 OA
HETATM   18  C25 UNL     1       2.706   6.631  10.042  1.00  0.00     0.072 C 
HETATM   19  C26 UNL     1       3.601   5.378  10.273  1.00  0.00     0.030 C 
HETATM   20  C28 UNL     1       3.509   7.925  10.323  1.00  0.00     0.139 C 
HETATM   21  C29 UNL     1       3.532   8.269  11.809  1.00  0.00     0.065 C 
HETATM   22  C30 UNL     1       2.147   8.449  12.440  1.00  0.00     0.133 C 
ENDROOT
BRANCH   1  23
HETATM   23  C7  UNL     1      -5.160   7.693  15.262  1.00  0.00    -0.014 C 
HETATM   24  C8  UNL     1      -4.688   9.124  15.576  1.00  0.00     0.010 C 
BRANCH  23  25
HETATM   25  C6  UNL     1      -6.288   7.740  14.210  1.00  0.00     0.008 C 
BRANCH  25  26
HETATM   26  C5  UNL     1      -7.625   7.127  14.643  1.00  0.00     0.028 C 
BRANCH  26  27
HETATM   27  C4  UNL     1      -7.634   5.643  14.384  1.00  0.00    -0.025 C 
HETATM   28  C2  UNL     1      -8.024   4.991  13.271  1.00  0.00    -0.091 C 
HETATM   29  C1  UNL     1      -7.939   3.485  13.202  1.00  0.00     0.042 C 
HETATM   30  C3  UNL     1      -8.555   5.633  12.021  1.00  0.00     0.042 C 
ENDBRANCH  26  27
ENDBRANCH  25  26
ENDBRANCH  23  25
ENDBRANCH   1  23
BRANCH  22  31
HETATM   31  O5  UNL     1       1.930   9.850  12.644  1.00  0.00    -0.394 OA
HETATM   32  H46 UNL     1       2.563  10.148  13.322  1.00  0.00     0.210 HD
ENDBRANCH  22  31
BRANCH  18  33
HETATM   33  C27 UNL     1       2.331   6.622   8.556  1.00  0.00     0.151 C 
HETATM   34  O2  UNL     1       1.752   7.514   7.953  1.00  0.00    -0.649 OA
BRANCH  33  35
HETATM   35  O3  UNL     1       2.684   5.507   7.902  1.00  0.00    -0.776 OA
HETATM   36  H40 UNL     1       2.396   5.670   6.977  1.00  0.00     0.167 HD
ENDBRANCH  33  35
ENDBRANCH  18  33
BRANCH  20  37
HETATM   37  O4  UNL     1       4.874   7.809   9.905  1.00  0.00    -0.394 OA
HETATM   38  H42 UNL     1       4.890   7.688   8.939  1.00  0.00     0.210 HD
ENDBRANCH  20  37
TORSDOF 8
ENDMDL
MODEL 3
REMARK minimizedAffinity -8.98528099
REMARK  8 active torsions:
REMARK  status: ('A' for Active; 'I' for Inactive)
REMARK    1  A    between atoms: C4_4  and  C5_5 
REMARK    2  A    between atoms: C5_5  and  C6_6 
REMARK    3  A    between atoms: C6_6  and  C7_7 
REMARK    4  A    between atoms: C7_7  and  C9_9 
REMARK    5  A    between atoms: C25_26  and  C27_28 
REMARK    6  A    between atoms: C27_28  and  O3_30 
REMARK    7  A    between atoms: C28_31  and  O4_32 
REMARK    8  A    between atoms: C30_34  and  O5_35 
ROOT
HETATM    1  C9  UNL     1      -1.435   6.811  13.200  1.00  0.00    -0.002 C 
HETATM    2  C10 UNL     1      -1.292   6.599  14.736  1.00  0.00     0.007 C 
HETATM    3  C11 UNL     1       0.151   6.964  15.122  1.00  0.00     0.015 C 
HETATM    4  C12 UNL     1       0.713   7.730  13.908  1.00  0.00    -0.005 C 
HETATM    5  C13 UNL     1       0.223   9.206  14.041  1.00  0.00     0.021 C 
HETATM    6  C14 UNL     1       2.220   7.840  13.691  1.00  0.00    -0.000 C 
HETATM    7  C15 UNL     1       2.745   7.955  12.442  1.00  0.00    -0.058 C 
HETATM    8  C16 UNL     1       1.832   7.891  11.207  1.00  0.00     0.036 C 
HETATM    9  C17 UNL     1       0.322   7.669  11.438  1.00  0.00     0.015 C 
HETATM   10  C18 UNL     1       0.052   6.902  12.736  1.00  0.00    -0.028 C 
HETATM   11  C19 UNL     1       0.640   5.462  12.596  1.00  0.00     0.016 C 
HETATM   12  C20 UNL     1       4.280   8.098  12.158  1.00  0.00     0.011 C 
HETATM   13  C21 UNL     1       4.761   6.678  11.777  1.00  0.00     0.023 C 
HETATM   14  C22 UNL     1       4.977   8.665  13.441  1.00  0.00     0.029 C 
HETATM   15  C23 UNL     1       4.604   7.869  14.693  1.00  0.00     0.090 C 
HETATM   16  C24 UNL     1       3.111   7.850  14.896  1.00  0.00     0.157 C 
HETATM   17  O1  UNL     1       2.654   7.797  16.037  1.00  0.00    -0.293 OA
HETATM   18  C25 UNL     1       6.519   8.974  13.333  1.00  0.00     0.072 C 
HETATM   19  C26 UNL     1       6.783  10.274  14.148  1.00  0.00     0.030 C 
HETATM   20  C28 UNL     1       6.970   9.158  11.863  1.00  0.00     0.139 C 
HETATM   21  C29 UNL     1       5.900   9.850  11.023  1.00  0.00     0.065 C 
HETATM   22  C30 UNL     1       4.548   9.126  10.996  1.00  0.00     0.133 C 
ENDROOT
BRANCH   1  23
HETATM   23  C7  UNL     1      -2.386   5.754  12.567  1.00  0.00    -0.014 C 
HETATM   24  C8  UNL     1      -1.599   4.788  11.663  1.00  0.00     0.010 C 
BRANCH  23  25
HETATM   25  C6  UNL     1      -3.239   4.947  13.568  1.00  0.00     0.008 C 
BRANCH  25  26
HETATM   26  C5  UNL     1      -4.714   4.767  13.190  1.00  0.00     0.028 C 
BRANCH  26  27
HETATM   27  C4  UNL     1      -4.887   3.569  12.293  1.00  0.00    -0.025 C 
HETATM   28  C2  UNL     1      -5.976   2.792  12.137  1.00  0.00    -0.091 C 
HETATM   29  C1  UNL     1      -5.956   1.636  11.165  1.00  0.00     0.042 C 
HETATM   30  C3  UNL     1      -7.284   2.962  12.858  1.00  0.00     0.042 C 
ENDBRANCH  26  27
ENDBRANCH  25  26
ENDBRANCH  23  25
ENDBRANCH   1  23
BRANCH  22  31
HETATM   31  O5  UNL     1       4.410   8.491   9.720  1.00  0.00    -0.394 OA
HETATM   32  H46 UNL     1       4.340   9.193   9.050  1.00  0.00     0.210 HD
ENDBRANCH  22  31
BRANCH  18  33
HETATM   33  C27 UNL     1       7.398   7.888  13.963  1.00  0.00     0.151 C 
HETATM   34  O2  UNL     1       8.620   7.850  13.944  1.00  0.00    -0.649 OA
BRANCH  33  35
HETATM   35  O3  UNL     1       6.718   6.907  14.572  1.00  0.00    -0.776 OA
HETATM   36  H40 UNL     1       7.417   6.318  14.933  1.00  0.00     0.167 HD
ENDBRANCH  33  35
ENDBRANCH  18  33
BRANCH  20  37
HETATM   37  O4  UNL     1       8.153   9.958  11.762  1.00  0.00    -0.394 OA
HETATM   38  H42 UNL     1       8.880   9.487  12.208  1.00  0.00     0.210 HD
ENDBRANCH  20  37
TORSDOF 8
ENDMDL
MODEL 4
REMARK minimizedAffinity -8.97958946
REMARK  8 active torsions:
REMARK  status: ('A' for Active; 'I' for Inactive)
REMARK    1  A    between atoms: C4_4  and  C5_5 
REMARK    2  A    between atoms: C5_5  and  C6_6 
REMARK    3  A    between atoms: C6_6  and  C7_7 
REMARK    4  A    between atoms: C7_7  and  C9_9 
REMARK    5  A    between atoms: C25_26  and  C27_28 
REMARK    6  A    between atoms: C27_28  and  O3_30 
REMARK    7  A    between atoms: C28_31  and  O4_32 
REMARK    8  A    between atoms: C30_34  and  O5_35 
ROOT
HETATM    1  C9  UNL     1      -5.574   6.775  13.861  1.00  0.00    -0.002 C 
HETATM    2  C10 UNL     1      -6.071   8.111  14.487  1.00  0.00     0.007 C 
HETATM    3  C11 UNL     1      -4.829   8.949  14.835  1.00  0.00     0.015 C 
HETATM    4  C12 UNL     1      -3.665   8.279  14.080  1.00  0.00    -0.005 C 
HETATM    5  C13 UNL     1      -3.710   8.814  12.615  1.00  0.00     0.021 C 
HETATM    6  C14 UNL     1      -2.222   8.499  14.528  1.00  0.00    -0.000 C 
HETATM    7  C15 UNL     1      -1.269   7.551  14.326  1.00  0.00    -0.058 C 
HETATM    8  C16 UNL     1      -1.644   6.192  13.711  1.00  0.00     0.036 C 
HETATM    9  C17 UNL     1      -3.127   5.943  13.364  1.00  0.00     0.015 C 
HETATM   10  C18 UNL     1      -4.065   6.761  14.257  1.00  0.00    -0.028 C 
HETATM   11  C19 UNL     1      -3.920   6.257  15.728  1.00  0.00     0.016 C 
HETATM   12  C20 UNL     1       0.232   7.730  14.739  1.00  0.00     0.011 C 
HETATM   13  C21 UNL     1       0.377   6.990  16.090  1.00  0.00     0.023 C 
HETATM   14  C22 UNL     1       0.547   9.261  14.835  1.00  0.00     0.029 C 
HETATM   15  C23 UNL     1      -0.473  10.001  15.701  1.00  0.00     0.090 C 
HETATM   16  C24 UNL     1      -1.871   9.806  15.174  1.00  0.00     0.157 C 
HETATM   17  O1  UNL     1      -2.707  10.696  15.322  1.00  0.00    -0.293 OA
HETATM   18  C25 UNL     1       2.039   9.660  15.149  1.00  0.00     0.072 C 
HETATM   19  C26 UNL     1       2.360  10.931  14.308  1.00  0.00     0.030 C 
HETATM   20  C28 UNL     1       3.028   8.520  14.800  1.00  0.00     0.139 C 
HETATM   21  C29 UNL     1       2.594   7.753  13.555  1.00  0.00     0.065 C 
HETATM   22  C30 UNL     1       1.196   7.129  13.649  1.00  0.00     0.133 C 
ENDROOT
BRANCH   1  23
HETATM   23  C7  UNL     1      -6.496   5.585  14.259  1.00  0.00    -0.014 C 
HETATM   24  C8  UNL     1      -7.253   5.898  15.562  1.00  0.00     0.010 C 
BRANCH  23  25
HETATM   25  C6  UNL     1      -7.496   5.131  13.175  1.00  0.00     0.008 C 
BRANCH  25  26
HETATM   26  C5  UNL     1      -7.232   3.749  12.566  1.00  0.00     0.028 C 
BRANCH  26  27
HETATM   27  C4  UNL     1      -5.754   3.535  12.364  1.00  0.00    -0.025 C 
HETATM   28  C2  UNL     1      -5.132   2.491  11.782  1.00  0.00    -0.091 C 
HETATM   29  C1  UNL     1      -3.627   2.472  11.659  1.00  0.00     0.042 C 
HETATM   30  C3  UNL     1      -5.808   1.280  11.204  1.00  0.00     0.042 C 
ENDBRANCH  26  27
ENDBRANCH  25  26
ENDBRANCH  23  25
ENDBRANCH   1  23
BRANCH  22  31
HETATM   31  O5  UNL     1       1.352   5.718  13.838  1.00  0.00    -0.394 OA
HETATM   32  H46 UNL     1       1.742   5.355  13.023  1.00  0.00     0.210 HD
ENDBRANCH  22  31
BRANCH  18  33
HETATM   33  C27 UNL     1       2.266  10.049  16.614  1.00  0.00     0.151 C 
HETATM   34  O2  UNL     1       2.334   9.278  17.561  1.00  0.00    -0.649 OA
BRANCH  33  35
HETATM   35  O3  UNL     1       2.386  11.366  16.827  1.00  0.00    -0.776 OA
HETATM   36  H40 UNL     1       2.544  11.440  17.793  1.00  0.00     0.167 HD
ENDBRANCH  33  35
ENDBRANCH  18  33
BRANCH  20  37
HETATM   37  O4  UNL     1       4.346   9.016  14.540  1.00  0.00    -0.394 OA
HETATM   38  H42 UNL     1       4.687   9.425  15.355  1.00  0.00     0.210 HD
ENDBRANCH  20  37
TORSDOF 8
ENDMDL
MODEL 5
REMARK minimizedAffinity -8.86767673
REMARK  8 active torsions:
REMARK  status: ('A' for Active; 'I' for Inactive)
REMARK    1  A    between atoms: C4_4  and  C5_5 
REMARK    2  A    between atoms: C5_5  and  C6_6 
REMARK    3  A    between atoms: C6_6  and  C7_7 
REMARK    4  A    between atoms: C7_7  and  C9_9 
REMARK    5  A    between atoms: C25_26  and  C27_28 
REMARK    6  A    between atoms: C27_28  and  O3_30 
REMARK    7  A    between atoms: C28_31  and  O4_32 
REMARK    8  A    between atoms: C30_34  and  O5_35 
ROOT
HETATM    1  C9  UNL     1      -2.843   4.714  12.995  1.00  0.00    -0.002 C 
HETATM    2  C10 UNL     1      -2.663   4.392  11.483  1.00  0.00     0.007 C 
HETATM    3  C11 UNL     1      -1.268   4.889  11.067  1.00  0.00     0.015 C 
HETATM    4  C12 UNL     1      -0.519   5.144  12.389  1.00  0.00    -0.005 C 
HETATM    5  C13 UNL     1       0.032   3.764  12.868  1.00  0.00     0.021 C 
HETATM    6  C14 UNL     1       0.688   6.078  12.429  1.00  0.00    -0.000 C 
HETATM    7  C15 UNL     1       1.002   6.777  13.552  1.00  0.00    -0.058 C 
HETATM    8  C16 UNL     1       0.093   6.705  14.790  1.00  0.00     0.036 C 
HETATM    9  C17 UNL     1      -1.183   5.843  14.698  1.00  0.00     0.015 C 
HETATM   10  C18 UNL     1      -1.697   5.738  13.258  1.00  0.00    -0.028 C 
HETATM   11  C19 UNL     1      -2.150   7.156  12.786  1.00  0.00     0.016 C 
HETATM   12  C20 UNL     1       2.243   7.728  13.661  1.00  0.00     0.011 C 
HETATM   13  C21 UNL     1       1.687   9.154  13.433  1.00  0.00     0.023 C 
HETATM   14  C22 UNL     1       3.301   7.298  12.591  1.00  0.00     0.029 C 
HETATM   15  C23 UNL     1       2.685   7.167  11.197  1.00  0.00     0.090 C 
HETATM   16  C24 UNL     1       1.543   6.184  11.202  1.00  0.00     0.157 C 
HETATM   17  O1  UNL     1       1.306   5.523  10.192  1.00  0.00    -0.293 OA
HETATM   18  C25 UNL     1       4.673   8.075  12.597  1.00  0.00     0.072 C 
HETATM   19  C26 UNL     1       5.789   7.036  12.282  1.00  0.00     0.030 C 
HETATM   20  C28 UNL     1       4.943   8.760  13.960  1.00  0.00     0.139 C 
HETATM   21  C29 UNL     1       4.432   7.922  15.127  1.00  0.00     0.065 C 
HETATM   22  C30 UNL     1       2.934   7.600  15.070  1.00  0.00     0.133 C 
ENDROOT
BRANCH   1  23
HETATM   23  C7  UNL     1      -4.318   5.093  13.322  1.00  0.00    -0.014 C 
HETATM   24  C8  UNL     1      -4.525   6.614  13.209  1.00  0.00     0.010 C 
BRANCH  23  25
HETATM   25  C6  UNL     1      -5.390   4.361  12.488  1.00  0.00     0.008 C 
BRANCH  25  26
HETATM   26  C5  UNL     1      -6.535   3.728  13.287  1.00  0.00     0.028 C 
BRANCH  26  27
HETATM   27  C4  UNL     1      -7.357   4.793  13.966  1.00  0.00    -0.025 C 
HETATM   28  C2  UNL     1      -8.272   5.617  13.420  1.00  0.00    -0.091 C 
HETATM   29  C1  UNL     1      -9.010   6.615  14.280  1.00  0.00     0.042 C 
HETATM   30  C3  UNL     1      -8.666   5.651  11.970  1.00  0.00     0.042 C 
ENDBRANCH  26  27
ENDBRANCH  25  26
ENDBRANCH  23  25
ENDBRANCH   1  23
BRANCH  22  31
HETATM   31  O5  UNL     1       2.266   8.421  16.035  1.00  0.00    -0.394 OA
HETATM   32  H46 UNL     1       2.557   8.133  16.917  1.00  0.00     0.210 HD
ENDBRANCH  22  31
BRANCH  18  33
HETATM   33  C27 UNL     1       4.765   9.146  11.504  1.00  0.00     0.151 C 
HETATM   34  O2  UNL     1       4.952   8.946  10.313  1.00  0.00    -0.649 OA
BRANCH  33  35
HETATM   35  O3  UNL     1       4.631  10.403  11.947  1.00  0.00    -0.776 OA
HETATM   36  H40 UNL     1       4.692  10.952  11.135  1.00  0.00     0.167 HD
ENDBRANCH  33  35
ENDBRANCH  18  33
BRANCH  20  37
HETATM   37  O4  UNL     1       6.341   8.971  14.185  1.00  0.00    -0.394 OA
HETATM   38  H42 UNL     1       6.672   9.586  13.505  1.00  0.00     0.210 HD
ENDBRANCH  20  37
TORSDOF 8
ENDMDL
MODEL 6
REMARK minimizedAffinity -8.83687973
REMARK  8 active torsions:
REMARK  status: ('A' for Active; 'I' for Inactive)
REMARK    1  A    between atoms: C4_4  and  C5_5 
REMARK    2  A    between atoms: C5_5  and  C6_6 
REMARK    3  A    between atoms: C6_6  and  C7_7 
REMARK    4  A    between atoms: C7_7  and  C9_9 
REMARK    5  A    between atoms: C25_26  and  C27_28 
REMARK    6  A    between atoms: C27_28  and  O3_30 
REMARK    7  A    between atoms: C28_31  and  O4_32 
REMARK    8  A    between atoms: C30_34  and  O5_35 
ROOT
HETATM    1  C9  UNL     1      -1.966   6.426  13.714  1.00  0.00    -0.002 C 
HETATM    2  C10 UNL     1      -2.141   6.075  12.208  1.00  0.00     0.007 C 
HETATM    3  C11 UNL     1      -0.767   6.223  11.534  1.00  0.00     0.015 C 
HETATM    4  C12 UNL     1       0.247   6.286  12.694  1.00  0.00    -0.005 C 
HETATM    5  C13 UNL     1       0.531   4.813  13.123  1.00  0.00     0.021 C 
HETATM    6  C14 UNL     1       1.628   6.901  12.484  1.00  0.00    -0.000 C 
HETATM    7  C15 UNL     1       2.295   7.501  13.505  1.00  0.00    -0.058 C 
HETATM    8  C16 UNL     1       1.633   7.646  14.885  1.00  0.00     0.036 C 
HETATM    9  C17 UNL     1       0.193   7.117  15.053  1.00  0.00     0.015 C 
HETATM   10  C18 UNL     1      -0.581   7.143  13.731  1.00  0.00    -0.028 C 
HETATM   11  C19 UNL     1      -0.762   8.630  13.289  1.00  0.00     0.016 C 
HETATM   12  C20 UNL     1       3.724   8.126  13.357  1.00  0.00     0.011 C 
HETATM   13  C21 UNL     1       3.491   9.644  13.173  1.00  0.00     0.023 C 
HETATM   14  C22 UNL     1       4.440   7.457  12.136  1.00  0.00     0.029 C 
HETATM   15  C23 UNL     1       3.571   7.483  10.878  1.00  0.00     0.090 C 
HETATM   16  C24 UNL     1       2.249   6.803  11.123  1.00  0.00     0.157 C 
HETATM   17  O1  UNL     1       1.684   6.222  10.197  1.00  0.00    -0.293 OA
HETATM   18  C25 UNL     1       5.935   7.881  11.870  1.00  0.00     0.072 C 
HETATM   19  C26 UNL     1       6.698   6.605  11.407  1.00  0.00     0.030 C 
HETATM   20  C28 UNL     1       6.601   8.476  13.136  1.00  0.00     0.139 C 
HETATM   21  C29 UNL     1       6.124   7.782  14.408  1.00  0.00     0.065 C 
HETATM   22  C30 UNL     1       4.607   7.831  14.627  1.00  0.00     0.133 C 
ENDROOT
BRANCH   1  23
HETATM   23  C7  UNL     1      -3.225   7.147  14.279  1.00  0.00    -0.014 C 
HETATM   24  C8  UNL     1      -3.717   8.227  13.298  1.00  0.00     0.010 C 
BRANCH  23  25
HETATM   25  C6  UNL     1      -4.400   6.224  14.664  1.00  0.00     0.008 C 
BRANCH  25  26
HETATM   26  C5  UNL     1      -5.693   6.429  13.866  1.00  0.00     0.028 C 
BRANCH  26  27
HETATM   27  C4  UNL     1      -6.544   5.186  13.909  1.00  0.00    -0.025 C 
HETATM   28  C2  UNL     1      -6.415   4.059  13.181  1.00  0.00    -0.091 C 
HETATM   29  C1  UNL     1      -7.368   2.906  13.387  1.00  0.00     0.042 C 
HETATM   30  C3  UNL     1      -5.366   3.808  12.135  1.00  0.00     0.042 C 
ENDBRANCH  26  27
ENDBRANCH  25  26
ENDBRANCH  23  25
ENDBRANCH   1  23
BRANCH  22  31
HETATM   31  O5  UNL     1       4.338   8.785  15.660  1.00  0.00    -0.394 OA
HETATM   32  H46 UNL     1       4.706   8.432  16.489  1.00  0.00     0.210 HD
ENDBRANCH  22  31
BRANCH  18  33
HETATM   33  C27 UNL     1       6.081   8.903  10.736  1.00  0.00     0.151 C 
HETATM   34  O2  UNL     1       5.168   9.414  10.105  1.00  0.00    -0.649 OA
BRANCH  33  35
HETATM   35  O3  UNL     1       7.347   9.227  10.441  1.00  0.00    -0.776 OA
HETATM   36  H40 UNL     1       7.264   9.893   9.725  1.00  0.00     0.167 HD
ENDBRANCH  33  35
ENDBRANCH  18  33
BRANCH  20  37
HETATM   37  O4  UNL     1       8.026   8.344  13.104  1.00  0.00    -0.394 OA
HETATM   38  H42 UNL     1       8.366   8.864  12.353  1.00  0.00     0.210 HD
ENDBRANCH  20  37
TORSDOF 8
ENDMDL
MODEL 7
REMARK minimizedAffinity -8.80368519
REMARK  8 active torsions:
REMARK  status: ('A' for Active; 'I' for Inactive)
REMARK    1  A    between atoms: C4_4  and  C5_5 
REMARK    2  A    between atoms: C5_5  and  C6_6 
REMARK    3  A    between atoms: C6_6  and  C7_7 
REMARK    4  A    between atoms: C7_7  and  C9_9 
REMARK    5  A    between atoms: C25_26  and  C27_28 
REMARK    6  A    between atoms: C27_28  and  O3_30 
REMARK    7  A    between atoms: C28_31  and  O4_32 
REMARK    8  A    between atoms: C30_34  and  O5_35 
ROOT
HETATM    1  C9  UNL     1      -5.790   6.287  14.864  1.00  0.00    -0.002 C 
HETATM    2  C10 UNL     1      -5.913   4.989  14.012  1.00  0.00     0.007 C 
HETATM    3  C11 UNL     1      -4.618   4.847  13.195  1.00  0.00     0.015 C 
HETATM    4  C12 UNL     1      -3.621   5.828  13.843  1.00  0.00    -0.005 C 
HETATM    5  C13 UNL     1      -3.011   5.098  15.080  1.00  0.00     0.021 C 
HETATM    6  C14 UNL     1      -2.414   6.337  13.060  1.00  0.00    -0.000 C 
HETATM    7  C15 UNL     1      -1.876   7.560  13.310  1.00  0.00    -0.058 C 
HETATM    8  C16 UNL     1      -2.528   8.499  14.339  1.00  0.00     0.036 C 
HETATM    9  C17 UNL     1      -3.812   8.014  15.045  1.00  0.00     0.015 C 
HETATM   10  C18 UNL     1      -4.597   7.023  14.179  1.00  0.00    -0.028 C 
HETATM   11  C19 UNL     1      -5.111   7.770  12.908  1.00  0.00     0.016 C 
HETATM   12  C20 UNL     1      -0.623   8.126  12.558  1.00  0.00     0.011 C 
HETATM   13  C21 UNL     1      -1.189   9.062  11.464  1.00  0.00     0.023 C 
HETATM   14  C22 UNL     1       0.200   6.925  11.981  1.00  0.00     0.029 C 
HETATM   15  C23 UNL     1      -0.678   5.963  11.179  1.00  0.00     0.090 C 
HETATM   16  C24 UNL     1      -1.813   5.439  12.021  1.00  0.00     0.157 C 
HETATM   17  O1  UNL     1      -2.253   4.309  11.812  1.00  0.00    -0.293 OA
HETATM   18  C25 UNL     1       1.559   7.276  11.263  1.00  0.00     0.072 C 
HETATM   19  C26 UNL     1       2.575   6.156  11.635  1.00  0.00     0.030 C 
HETATM   20  C28 UNL     1       2.100   8.660  11.697  1.00  0.00     0.139 C 
HETATM   21  C29 UNL     1       1.813   8.948  13.167  1.00  0.00     0.065 C 
HETATM   22  C30 UNL     1       0.327   8.903  13.544  1.00  0.00     0.133 C 
ENDROOT
BRANCH   1  23
HETATM   23  C7  UNL     1      -7.167   7.000  15.011  1.00  0.00    -0.014 C 
HETATM   24  C8  UNL     1      -6.976   8.521  15.156  1.00  0.00     0.010 C 
BRANCH  23  25
HETATM   25  C6  UNL     1      -8.186   6.711  13.890  1.00  0.00     0.008 C 
BRANCH  25  26
HETATM   26  C5  UNL     1      -9.628   6.470  14.351  1.00  0.00     0.028 C 
BRANCH  26  27
HETATM   27  C4  UNL     1     -10.574   7.397  13.632  1.00  0.00    -0.025 C 
HETATM   28  C2  UNL     1     -11.920   7.351  13.591  1.00  0.00    -0.091 C 
HETATM   29  C1  UNL     1     -12.695   8.393  12.821  1.00  0.00     0.042 C 
HETATM   30  C3  UNL     1     -12.782   6.325  14.270  1.00  0.00     0.042 C 
ENDBRANCH  26  27
ENDBRANCH  25  26
ENDBRANCH  23  25
ENDBRANCH   1  23
BRANCH  22  31
HETATM   31  O5  UNL     1      -0.127  10.250  13.722  1.00  0.00    -0.394 OA
HETATM   32  H46 UNL     1       0.327  10.610  14.505  1.00  0.00     0.210 HD
ENDBRANCH  22  31
BRANCH  18  33
HETATM   33  C27 UNL     1       1.454   7.268   9.734  1.00  0.00     0.151 C 
HETATM   34  O2  UNL     1       1.590   6.294   9.007  1.00  0.00    -0.649 OA
BRANCH  33  35
HETATM   35  O3  UNL     1       1.198   8.465   9.190  1.00  0.00    -0.776 OA
HETATM   36  H40 UNL     1       1.142   8.284   8.226  1.00  0.00     0.167 HD
ENDBRANCH  33  35
ENDBRANCH  18  33
BRANCH  20  37
HETATM   37  O4  UNL     1       3.519   8.757  11.528  1.00  0.00    -0.394 OA
HETATM   38  H42 UNL     1       3.721   8.676  10.578  1.00  0.00     0.210 HD
ENDBRANCH  20  37
TORSDOF 8
ENDMDL
MODEL 8
REMARK minimizedAffinity -8.46148968
REMARK  8 active torsions:
REMARK  status: ('A' for Active; 'I' for Inactive)
REMARK    1  A    between atoms: C4_4  and  C5_5 
REMARK    2  A    between atoms: C5_5  and  C6_6 
REMARK    3  A    between atoms: C6_6  and  C7_7 
REMARK    4  A    between atoms: C7_7  and  C9_9 
REMARK    5  A    between atoms: C25_26  and  C27_28 
REMARK    6  A    between atoms: C27_28  and  O3_30 
REMARK    7  A    between atoms: C28_31  and  O4_32 
REMARK    8  A    between atoms: C30_34  and  O5_35 
ROOT
HETATM    1  C9  UNL     1      -1.559   5.974  11.772  1.00  0.00    -0.002 C 
HETATM    2  C10 UNL     1      -2.160   6.801  12.946  1.00  0.00     0.007 C 
HETATM    3  C11 UNL     1      -1.101   7.830  13.377  1.00  0.00     0.015 C 
HETATM    4  C12 UNL     1      -0.068   7.850  12.234  1.00  0.00    -0.005 C 
HETATM    5  C13 UNL     1      -0.639   8.789  11.126  1.00  0.00     0.021 C 
HETATM    6  C14 UNL     1       1.350   8.359  12.480  1.00  0.00    -0.000 C 
HETATM    7  C15 UNL     1       2.404   7.885  11.763  1.00  0.00    -0.058 C 
HETATM    8  C16 UNL     1       2.200   6.756  10.739  1.00  0.00     0.036 C 
HETATM    9  C17 UNL     1       0.780   6.175  10.581  1.00  0.00     0.015 C 
HETATM   10  C18 UNL     1      -0.039   6.314  11.868  1.00  0.00    -0.028 C 
HETATM   11  C19 UNL     1       0.620   5.432  12.976  1.00  0.00     0.016 C 
HETATM   12  C20 UNL     1       3.876   8.388  11.952  1.00  0.00     0.011 C 
HETATM   13  C21 UNL     1       4.556   7.335  12.859  1.00  0.00     0.023 C 
HETATM   14  C22 UNL     1       3.840   9.820  12.584  1.00  0.00     0.029 C 
HETATM   15  C23 UNL     1       2.956   9.872  13.831  1.00  0.00     0.090 C 
HETATM   16  C24 UNL     1       1.552   9.424  13.516  1.00  0.00     0.157 C 
HETATM   17  O1  UNL     1       0.606   9.903  14.141  1.00  0.00    -0.293 OA
HETATM   18  C25 UNL     1       5.225  10.549  12.771  1.00  0.00     0.072 C 
HETATM   19  C26 UNL     1       4.996  12.056  12.453  1.00  0.00     0.030 C 
HETATM   20  C28 UNL     1       6.316   9.962  11.840  1.00  0.00     0.139 C 
HETATM   21  C29 UNL     1       5.746   9.546  10.488  1.00  0.00     0.065 C 
HETATM   22  C30 UNL     1       4.614   8.515  10.567  1.00  0.00     0.133 C 
ENDROOT
BRANCH   1  23
HETATM   23  C7  UNL     1      -2.032   4.491  11.823  1.00  0.00    -0.014 C 
HETATM   24  C8  UNL     1      -0.826   3.536  11.769  1.00  0.00     0.010 C 
BRANCH  23  25
HETATM   25  C6  UNL     1      -2.931   4.124  13.022  1.00  0.00     0.008 C 
BRANCH  25  26
HETATM   26  C5  UNL     1      -4.318   3.577  12.667  1.00  0.00     0.028 C 
BRANCH  26  27
HETATM   27  C4  UNL     1      -5.374   4.629  12.890  1.00  0.00    -0.025 C 
HETATM   28  C2  UNL     1      -6.678   4.456  13.182  1.00  0.00    -0.091 C 
HETATM   29  C1  UNL     1      -7.578   5.651  13.388  1.00  0.00     0.042 C 
HETATM   30  C3  UNL     1      -7.372   3.133  13.341  1.00  0.00     0.042 C 
ENDBRANCH  26  27
ENDBRANCH  25  26
ENDBRANCH  23  25
ENDBRANCH   1  23
BRANCH  22  31
HETATM   31  O5  UNL     1       5.139   7.246  10.159  1.00  0.00    -0.394 OA
HETATM   32  H46 UNL     1       5.362   7.312   9.213  1.00  0.00     0.210 HD
ENDBRANCH  22  31
BRANCH  18  33
HETATM   33  C27 UNL     1       5.751  10.489  14.209  1.00  0.00     0.151 C 
HETATM   34  O2  UNL     1       5.418  11.223  15.129  1.00  0.00    -0.649 OA
BRANCH  33  35
HETATM   35  O3  UNL     1       6.665   9.534  14.427  1.00  0.00    -0.776 OA
HETATM   36  H40 UNL     1       6.876   9.617  15.382  1.00  0.00     0.167 HD
ENDBRANCH  33  35
ENDBRANCH  18  33
BRANCH  20  37
HETATM   37  O4  UNL     1       7.358  10.908  11.575  1.00  0.00    -0.394 OA
HETATM   38  H42 UNL     1       7.806  11.115  12.415  1.00  0.00     0.210 HD
ENDBRANCH  20  37
TORSDOF 8
ENDMDL
MODEL 9
REMARK minimizedAffinity -8.45515537
REMARK  8 active torsions:
REMARK  status: ('A' for Active; 'I' for Inactive)
REMARK    1  A    between atoms: C4_4  and  C5_5 
REMARK    2  A    between atoms: C5_5  and  C6_6 
REMARK    3  A    between atoms: C6_6  and  C7_7 
REMARK    4  A    between atoms: C7_7  and  C9_9 
REMARK    5  A    between atoms: C25_26  and  C27_28 
REMARK    6  A    between atoms: C27_28  and  O3_30 
REMARK    7  A    between atoms: C28_31  and  O4_32 
REMARK    8  A    between atoms: C30_34  and  O5_35 
ROOT
HETATM    1  C9  UNL     1      -2.010   5.339  12.054  1.00  0.00    -0.002 C 
HETATM    2  C10 UNL     1      -2.874   5.244  13.345  1.00  0.00     0.007 C 
HETATM    3  C11 UNL     1      -2.302   6.247  14.360  1.00  0.00     0.015 C 
HETATM    4  C12 UNL     1      -1.375   7.166  13.542  1.00  0.00    -0.005 C 
HETATM    5  C13 UNL     1      -2.284   8.244  12.873  1.00  0.00     0.021 C 
HETATM    6  C14 UNL     1      -0.270   7.965  14.230  1.00  0.00    -0.000 C 
HETATM    7  C15 UNL     1       0.877   8.290  13.576  1.00  0.00    -0.058 C 
HETATM    8  C16 UNL     1       1.123   7.786  12.144  1.00  0.00     0.036 C 
HETATM    9  C17 UNL     1       0.046   6.888  11.501  1.00  0.00     0.015 C 
HETATM   10  C18 UNL     1      -0.746   6.106  12.554  1.00  0.00    -0.028 C 
HETATM   11  C19 UNL     1       0.220   5.106  13.263  1.00  0.00     0.016 C 
HETATM   12  C20 UNL     1       2.033   9.129  14.221  1.00  0.00     0.011 C 
HETATM   13  C21 UNL     1       3.084   8.092  14.682  1.00  0.00     0.023 C 
HETATM   14  C22 UNL     1       1.442   9.977  15.396  1.00  0.00     0.029 C 
HETATM   15  C23 UNL     1       0.623   9.121  16.364  1.00  0.00     0.090 C 
HETATM   16  C24 UNL     1      -0.493   8.410  15.644  1.00  0.00     0.157 C 
HETATM   17  O1  UNL     1      -1.543   8.169  16.237  1.00  0.00    -0.293 OA
HETATM   18  C25 UNL     1       2.429  10.969  16.122  1.00  0.00     0.072 C 
HETATM   19  C26 UNL     1       1.620  12.256  16.458  1.00  0.00     0.030 C 
HETATM   20  C28 UNL     1       3.652  11.317  15.237  1.00  0.00     0.139 C 
HETATM   21  C29 UNL     1       3.276  11.414  13.762  1.00  0.00     0.065 C 
HETATM   22  C30 UNL     1       2.644  10.143  13.183  1.00  0.00     0.133 C 
ENDROOT
BRANCH   1  23
HETATM   23  C7  UNL     1      -1.858   3.949  11.369  1.00  0.00    -0.014 C 
HETATM   24  C8  UNL     1      -0.550   3.267  11.810  1.00  0.00     0.010 C 
BRANCH  23  25
HETATM   25  C6  UNL     1      -3.040   2.978  11.572  1.00  0.00     0.008 C 
BRANCH  25  26
HETATM   26  C5  UNL     1      -4.313   3.310  10.784  1.00  0.00     0.028 C 
BRANCH  26  27
HETATM   27  C4  UNL     1      -5.511   2.645  11.412  1.00  0.00    -0.025 C 
HETATM   28  C2  UNL     1      -6.389   3.164  12.293  1.00  0.00    -0.091 C 
HETATM   29  C1  UNL     1      -7.545   2.333  12.795  1.00  0.00     0.042 C 
HETATM   30  C3  UNL     1      -6.346   4.557  12.855  1.00  0.00     0.042 C 
ENDBRANCH  26  27
ENDBRANCH  25  26
ENDBRANCH  23  25
ENDBRANCH   1  23
BRANCH  22  31
HETATM   31  O5  UNL     1       3.623   9.495  12.362  1.00  0.00    -0.394 OA
HETATM   32  H46 UNL     1       3.790  10.071  11.596  1.00  0.00     0.210 HD
ENDBRANCH  22  31
BRANCH  18  33
HETATM   33  C27 UNL     1       2.953  10.431  17.459  1.00  0.00     0.151 C 
HETATM   34  O2  UNL     1       2.319   9.765  18.265  1.00  0.00    -0.649 OA
BRANCH  33  35
HETATM   35  O3  UNL     1       4.225  10.754  17.727  1.00  0.00    -0.776 OA
HETATM   36  H40 UNL     1       4.405  10.323  18.590  1.00  0.00     0.167 HD
ENDBRANCH  33  35
ENDBRANCH  18  33
BRANCH  20  37
HETATM   37  O4  UNL     1       4.233  12.576  15.598  1.00  0.00    -0.394 OA
HETATM   38  H42 UNL     1       4.572  12.507  16.509  1.00  0.00     0.210 HD
ENDBRANCH  20  37
TORSDOF 8
ENDMDL
