MODEL 1
REMARK minimizedAffinity -8.82667446
REMARK  6 active torsions:
REMARK  status: ('A' for Active; 'I' for Inactive)
REMARK    1  A    between atoms: C9_10  and  C10_11 
REMARK    2  A    between atoms: C11_13  and  O3_14 
REMARK    3  A    between atoms: C12_15  and  C13_16 
REMARK    4  A    between atoms: C14_18  and  O5_19 
REMARK    5  A    between atoms: C16_21  and  C17_22 
REMARK    6  A    between atoms: C17_22  and  C18_23 
ROOT
HETATM    1  C1  UNL     1      -6.754  46.448 -20.282  1.00  0.00     0.043 C 
HETATM    2  C2  UNL     1      -6.814  47.405 -21.454  1.00  0.00    -0.087 C 
HETATM    3  C3  UNL     1      -6.226  47.053 -22.615  1.00  0.00    -0.024 C 
HETATM    4  C4  UNL     1      -6.145  47.740 -23.948  1.00  0.00     0.030 C 
HETATM    5  C5  UNL     1      -6.115  49.267 -24.029  1.00  0.00     0.042 C 
HETATM    6  C6  UNL     1      -4.746  49.980 -23.817  1.00  0.00     0.069 C 
HETATM    7  C7  UNL     1      -5.019  51.496 -23.905  1.00  0.00     0.047 C 
HETATM    8  O1  UNL     1      -4.048  49.586 -25.056  1.00  0.00    -0.338 OA
HETATM    9  C8  UNL     1      -2.835  50.177 -25.267  1.00  0.00     0.095 A 
HETATM   10  C9  UNL     1      -2.468  50.471 -26.589  1.00  0.00     0.070 A 
HETATM   11  C11 UNL     1      -1.283  51.174 -26.851  1.00  0.00     0.097 A 
HETATM   12  C12 UNL     1      -0.479  51.585 -25.787  1.00  0.00     0.069 A 
HETATM   13  C14 UNL     1      -0.844  51.257 -24.469  1.00  0.00     0.091 A 
HETATM   14  C15 UNL     1      -1.999  50.500 -24.197  1.00  0.00     0.015 A 
HETATM   15  C16 UNL     1      -2.363  50.057 -22.793  1.00  0.00     0.032 C 
HETATM   16  C21 UNL     1      -3.841  49.500 -22.647  1.00  0.00     0.034 C 
HETATM   17  C22 UNL     1      -4.218  49.482 -21.170  1.00  0.00     0.006 A 
HETATM   18  C23 UNL     1      -5.459  49.703 -20.323  1.00  0.00    -0.001 A 
HETATM   19  C24 UNL     1      -6.824  49.954 -20.853  1.00  0.00     0.010 C 
HETATM   20  C25 UNL     1      -7.611  48.668 -21.184  1.00  0.00     0.034 C 
HETATM   21  C26 UNL     1      -4.315  50.708 -20.245  1.00  0.00    -0.039 A 
HETATM   22  C27 UNL     1      -4.553  52.120 -20.706  1.00  0.00     0.015 C 
HETATM   23  C28 UNL     1      -3.418  50.661 -19.023  1.00  0.00     0.015 C 
ENDROOT
BRANCH  15  24
HETATM   24  C17 UNL     1      -1.277  49.142 -22.130  1.00  0.00     0.014 C 
BRANCH  24  25
HETATM   25  C18 UNL     1      -0.515  49.548 -20.842  1.00  0.00    -0.022 C 
HETATM   26  C19 UNL     1      -0.851  48.691 -19.620  1.00  0.00     0.009 C 
HETATM   27  C20 UNL     1      -0.580  51.026 -20.476  1.00  0.00     0.009 C 
ENDBRANCH  24  25
ENDBRANCH  15  24
BRANCH  13  28
HETATM   28  O5  UNL     1      -0.094  51.675 -23.397  1.00  0.00    -0.359 OA
HETATM   29  H15 UNL     1       0.690  52.170 -23.732  1.00  0.00     0.217 HD
ENDBRANCH  13  28
BRANCH  10  30
HETATM   30  C10 UNL     1      -3.354  50.058 -27.696  1.00  0.00     0.275 C 
HETATM   31  O2  UNL     1      -3.463  48.870 -27.992  1.00  0.00    -0.301 OA
ENDBRANCH  10  30
BRANCH  12  32
HETATM   32  C13 UNL     1       0.749  52.360 -26.060  1.00  0.00     0.275 C 
HETATM   33  O4  UNL     1       0.682  53.476 -26.572  1.00  0.00    -0.301 OA
ENDBRANCH  12  32
BRANCH  11  34
HETATM   34  O3  UNL     1      -0.897  51.491 -28.130  1.00  0.00    -0.359 OA
HETATM   35  H13 UNL     1      -1.574  51.149 -28.760  1.00  0.00     0.217 HD
ENDBRANCH  11  34
TORSDOF 6
ENDMDL
MODEL 2
REMARK minimizedAffinity -8.61697769
REMARK  6 active torsions:
REMARK  status: ('A' for Active; 'I' for Inactive)
REMARK    1  A    between atoms: C9_10  and  C10_11 
REMARK    2  A    between atoms: C11_13  and  O3_14 
REMARK    3  A    between atoms: C12_15  and  C13_16 
REMARK    4  A    between atoms: C14_18  and  O5_19 
REMARK    5  A    between atoms: C16_21  and  C17_22 
REMARK    6  A    between atoms: C17_22  and  C18_23 
ROOT
HETATM    1  C1  UNL     1      -2.674  48.355 -27.090  1.00  0.00     0.043 C 
HETATM    2  C2  UNL     1      -2.411  49.677 -26.402  1.00  0.00    -0.087 C 
HETATM    3  C3  UNL     1      -1.163  49.954 -25.974  1.00  0.00    -0.024 C 
HETATM    4  C4  UNL     1      -0.573  51.166 -25.311  1.00  0.00     0.030 C 
HETATM    5  C5  UNL     1      -1.425  52.023 -24.373  1.00  0.00     0.042 C 
HETATM    6  C6  UNL     1      -1.579  51.551 -22.896  1.00  0.00     0.069 C 
HETATM    7  C7  UNL     1      -2.514  52.564 -22.203  1.00  0.00     0.047 C 
HETATM    8  O1  UNL     1      -0.214  51.799 -22.395  1.00  0.00    -0.338 OA
HETATM    9  C8  UNL     1      -0.032  51.624 -21.053  1.00  0.00     0.095 A 
HETATM   10  C9  UNL     1       0.875  52.468 -20.396  1.00  0.00     0.070 A 
HETATM   11  C11 UNL     1       1.016  52.402 -19.002  1.00  0.00     0.097 A 
HETATM   12  C12 UNL     1       0.242  51.497 -18.276  1.00  0.00     0.069 A 
HETATM   13  C14 UNL     1      -0.642  50.635 -18.950  1.00  0.00     0.091 A 
HETATM   14  C15 UNL     1      -0.748  50.651 -20.353  1.00  0.00     0.015 A 
HETATM   15  C16 UNL     1      -1.626  49.670 -21.109  1.00  0.00     0.032 C 
HETATM   16  C21 UNL     1      -1.863  50.045 -22.632  1.00  0.00     0.034 C 
HETATM   17  C22 UNL     1      -3.053  49.250 -23.156  1.00  0.00     0.006 A 
HETATM   18  C23 UNL     1      -4.198  49.453 -24.133  1.00  0.00    -0.001 A 
HETATM   19  C24 UNL     1      -4.391  50.650 -24.990  1.00  0.00     0.010 C 
HETATM   20  C25 UNL     1      -3.621  50.591 -26.327  1.00  0.00     0.034 C 
HETATM   21  C26 UNL     1      -4.502  49.343 -22.642  1.00  0.00    -0.039 A 
HETATM   22  C27 UNL     1      -5.089  50.531 -21.929  1.00  0.00     0.015 C 
HETATM   23  C28 UNL     1      -5.086  48.039 -22.136  1.00  0.00     0.015 C 
ENDROOT
BRANCH  15  24
HETATM   24  C17 UNL     1      -1.218  48.174 -20.884  1.00  0.00     0.014 C 
BRANCH  24  25
HETATM   25  C18 UNL     1      -2.175  47.134 -20.245  1.00  0.00    -0.022 C 
HETATM   26  C19 UNL     1      -2.954  46.295 -21.259  1.00  0.00     0.009 C 
HETATM   27  C20 UNL     1      -3.121  47.676 -19.180  1.00  0.00     0.009 C 
ENDBRANCH  24  25
ENDBRANCH  15  24
BRANCH  13  28
HETATM   28  O5  UNL     1      -1.443  49.757 -18.264  1.00  0.00    -0.359 OA
HETATM   29  H15 UNL     1      -1.249  49.836 -17.301  1.00  0.00     0.217 HD
ENDBRANCH  13  28
BRANCH  10  30
HETATM   30  C10 UNL     1       1.656  53.444 -21.182  1.00  0.00     0.275 C 
HETATM   31  O2  UNL     1       1.674  54.629 -20.857  1.00  0.00    -0.301 OA
ENDBRANCH  10  30
BRANCH  12  32
HETATM   32  C13 UNL     1       0.362  51.454 -16.803  1.00  0.00     0.275 C 
HETATM   33  O4  UNL     1       1.026  52.299 -16.207  1.00  0.00    -0.301 OA
ENDBRANCH  12  32
BRANCH  11  34
HETATM   34  O3  UNL     1       1.885  53.220 -18.323  1.00  0.00    -0.359 OA
HETATM   35  H13 UNL     1       2.340  53.808 -18.971  1.00  0.00     0.217 HD
ENDBRANCH  11  34
TORSDOF 6
ENDMDL
MODEL 3
REMARK minimizedAffinity -8.49675751
REMARK  6 active torsions:
REMARK  status: ('A' for Active; 'I' for Inactive)
REMARK    1  A    between atoms: C9_10  and  C10_11 
REMARK    2  A    between atoms: C11_13  and  O3_14 
REMARK    3  A    between atoms: C12_15  and  C13_16 
REMARK    4  A    between atoms: C14_18  and  O5_19 
REMARK    5  A    between atoms: C16_21  and  C17_22 
REMARK    6  A    between atoms: C17_22  and  C18_23 
ROOT
HETATM    1  C1  UNL     1      -4.539  49.035 -16.916  1.00  0.00     0.043 C 
HETATM    2  C2  UNL     1      -3.126  49.273 -17.405  1.00  0.00    -0.087 C 
HETATM    3  C3  UNL     1      -2.681  50.540 -17.522  1.00  0.00    -0.024 C 
HETATM    4  C4  UNL     1      -1.348  51.102 -17.926  1.00  0.00     0.030 C 
HETATM    5  C5  UNL     1      -0.475  50.365 -18.943  1.00  0.00     0.042 C 
HETATM    6  C6  UNL     1      -0.784  50.577 -20.456  1.00  0.00     0.069 C 
HETATM    7  C7  UNL     1       0.205  49.690 -21.238  1.00  0.00     0.047 C 
HETATM    8  O1  UNL     1      -0.347  51.976 -20.622  1.00  0.00    -0.338 OA
HETATM    9  C8  UNL     1      -0.346  52.450 -21.903  1.00  0.00     0.095 A 
HETATM   10  C9  UNL     1       0.655  53.365 -22.265  1.00  0.00     0.070 A 
HETATM   11  C11 UNL     1       0.766  53.797 -23.594  1.00  0.00     0.097 A 
HETATM   12  C12 UNL     1      -0.121  53.305 -24.553  1.00  0.00     0.069 A 
HETATM   13  C14 UNL     1      -1.137  52.412 -24.170  1.00  0.00     0.091 A 
HETATM   14  C15 UNL     1      -1.296  52.017 -22.828  1.00  0.00     0.015 A 
HETATM   15  C16 UNL     1      -2.440  51.127 -22.377  1.00  0.00     0.032 C 
HETATM   16  C21 UNL     1      -2.270  50.538 -20.914  1.00  0.00     0.034 C 
HETATM   17  C22 UNL     1      -3.233  49.370 -20.738  1.00  0.00     0.006 A 
HETATM   18  C23 UNL     1      -3.259  48.032 -20.020  1.00  0.00    -0.001 A 
HETATM   19  C24 UNL     1      -2.195  47.524 -19.118  1.00  0.00     0.010 C 
HETATM   20  C25 UNL     1      -2.334  48.003 -17.656  1.00  0.00     0.034 C 
HETATM   21  C26 UNL     1      -3.224  48.059 -21.544  1.00  0.00    -0.039 A 
HETATM   22  C27 UNL     1      -2.025  47.491 -22.255  1.00  0.00     0.015 C 
HETATM   23  C28 UNL     1      -4.512  47.753 -22.285  1.00  0.00     0.015 C 
ENDROOT
BRANCH  15  24
HETATM   24  C17 UNL     1      -3.853  51.751 -22.645  1.00  0.00     0.014 C 
BRANCH  24  25
HETATM   25  C18 UNL     1      -4.855  51.143 -23.660  1.00  0.00    -0.022 C 
HETATM   26  C19 UNL     1      -6.148  50.626 -23.029  1.00  0.00     0.009 C 
HETATM   27  C20 UNL     1      -4.280  50.095 -24.607  1.00  0.00     0.009 C 
ENDBRANCH  24  25
ENDBRANCH  15  24
BRANCH  13  28
HETATM   28  O5  UNL     1      -2.005  51.881 -25.093  1.00  0.00    -0.359 OA
HETATM   29  H15 UNL     1      -1.795  52.259 -25.979  1.00  0.00     0.217 HD
ENDBRANCH  13  28
BRANCH  10  30
HETATM   30  C10 UNL     1       1.604  53.843 -21.240  1.00  0.00     0.275 C 
HETATM   31  O2  UNL     1       1.201  54.493 -20.277  1.00  0.00    -0.301 OA
ENDBRANCH  10  30
BRANCH  12  32
HETATM   32  C13 UNL     1       0.020  53.730 -25.961  1.00  0.00     0.275 C 
HETATM   33  O4  UNL     1       0.143  54.920 -26.244  1.00  0.00    -0.301 OA
ENDBRANCH  12  32
BRANCH  11  34
HETATM   34  O3  UNL     1       1.739  54.682 -23.989  1.00  0.00    -0.359 OA
HETATM   35  H13 UNL     1       2.289  54.919 -23.206  1.00  0.00     0.217 HD
ENDBRANCH  11  34
TORSDOF 6
ENDMDL
MODEL 4
REMARK minimizedAffinity -8.31705856
REMARK  6 active torsions:
REMARK  status: ('A' for Active; 'I' for Inactive)
REMARK    1  A    between atoms: C9_10  and  C10_11 
REMARK    2  A    between atoms: C11_13  and  O3_14 
REMARK    3  A    between atoms: C12_15  and  C13_16 
REMARK    4  A    between atoms: C14_18  and  O5_19 
REMARK    5  A    between atoms: C16_21  and  C17_22 
REMARK    6  A    between atoms: C17_22  and  C18_23 
ROOT
HETATM    1  C1  UNL     1      -7.781  47.820 -20.297  1.00  0.00     0.043 C 
HETATM    2  C2  UNL     1      -6.414  47.700 -19.659  1.00  0.00    -0.087 C 
HETATM    3  C3  UNL     1      -6.005  48.661 -18.807  1.00  0.00    -0.024 C 
HETATM    4  C4  UNL     1      -4.752  48.814 -17.991  1.00  0.00     0.030 C 
HETATM    5  C5  UNL     1      -3.422  48.263 -18.509  1.00  0.00     0.042 C 
HETATM    6  C6  UNL     1      -2.618  49.136 -19.518  1.00  0.00     0.069 C 
HETATM    7  C7  UNL     1      -1.362  48.325 -19.901  1.00  0.00     0.047 C 
HETATM    8  O1  UNL     1      -2.181  50.231 -18.631  1.00  0.00    -0.338 OA
HETATM    9  C8  UNL     1      -1.306  51.126 -19.179  1.00  0.00     0.095 A 
HETATM   10  C9  UNL     1      -0.325  51.681 -18.344  1.00  0.00     0.070 A 
HETATM   11  C11 UNL     1       0.663  52.520 -18.880  1.00  0.00     0.097 A 
HETATM   12  C12 UNL     1       0.667  52.789 -20.249  1.00  0.00     0.069 A 
HETATM   13  C14 UNL     1      -0.340  52.250 -21.069  1.00  0.00     0.091 A 
HETATM   14  C15 UNL     1      -1.372  51.456 -20.533  1.00  0.00     0.015 A 
HETATM   15  C16 UNL     1      -2.518  50.939 -21.382  1.00  0.00     0.032 C 
HETATM   16  C21 UNL     1      -3.393  49.815 -20.683  1.00  0.00     0.034 C 
HETATM   17  C22 UNL     1      -4.221  49.102 -21.746  1.00  0.00     0.006 A 
HETATM   18  C23 UNL     1      -4.733  47.698 -22.019  1.00  0.00    -0.001 A 
HETATM   19  C24 UNL     1      -4.569  46.536 -21.110  1.00  0.00     0.010 C 
HETATM   20  C25 UNL     1      -5.666  46.431 -20.027  1.00  0.00     0.034 C 
HETATM   21  C26 UNL     1      -3.668  48.293 -22.934  1.00  0.00    -0.039 A 
HETATM   22  C27 UNL     1      -2.308  47.652 -22.982  1.00  0.00     0.015 C 
HETATM   23  C28 UNL     1      -4.106  48.783 -24.301  1.00  0.00     0.015 C 
ENDROOT
BRANCH  15  24
HETATM   24  C17 UNL     1      -3.368  52.081 -22.038  1.00  0.00     0.014 C 
BRANCH  24  25
HETATM   25  C18 UNL     1      -3.429  52.302 -23.571  1.00  0.00    -0.022 C 
HETATM   26  C19 UNL     1      -4.822  52.119 -24.175  1.00  0.00     0.009 C 
HETATM   27  C20 UNL     1      -2.400  51.530 -24.390  1.00  0.00     0.009 C 
ENDBRANCH  24  25
ENDBRANCH  15  24
BRANCH  13  28
HETATM   28  O5  UNL     1      -0.348  52.466 -22.425  1.00  0.00    -0.359 OA
HETATM   29  H15 UNL     1       0.410  53.051 -22.657  1.00  0.00     0.217 HD
ENDBRANCH  13  28
BRANCH  10  30
HETATM   30  C10 UNL     1      -0.327  51.352 -16.905  1.00  0.00     0.275 C 
HETATM   31  O2  UNL     1       0.727  51.099 -16.325  1.00  0.00    -0.301 OA
ENDBRANCH  10  30
BRANCH  12  32
HETATM   32  C13 UNL     1       1.731  53.641 -20.821  1.00  0.00     0.275 C 
HETATM   33  O4  UNL     1       1.449  54.694 -21.388  1.00  0.00    -0.301 OA
ENDBRANCH  12  32
BRANCH  11  34
HETATM   34  O3  UNL     1       1.647  53.072 -18.097  1.00  0.00    -0.359 OA
HETATM   35  H13 UNL     1       1.516  52.774 -17.167  1.00  0.00     0.217 HD
ENDBRANCH  11  34
TORSDOF 6
ENDMDL
MODEL 5
REMARK minimizedAffinity -8.07591534
REMARK  6 active torsions:
REMARK  status: ('A' for Active; 'I' for Inactive)
REMARK    1  A    between atoms: C9_10  and  C10_11 
REMARK    2  A    between atoms: C11_13  and  O3_14 
REMARK    3  A    between atoms: C12_15  and  C13_16 
REMARK    4  A    between atoms: C14_18  and  O5_19 
REMARK    5  A    between atoms: C16_21  and  C17_22 
REMARK    6  A    between atoms: C17_22  and  C18_23 
ROOT
HETATM    1  C1  UNL     1      -1.025  50.126 -19.970  1.00  0.00     0.043 C 
HETATM    2  C2  UNL     1      -2.519  49.885 -19.989  1.00  0.00    -0.087 C 
HETATM    3  C3  UNL     1      -2.976  48.627 -20.146  1.00  0.00    -0.024 C 
HETATM    4  C4  UNL     1      -4.366  48.057 -20.163  1.00  0.00     0.030 C 
HETATM    5  C5  UNL     1      -5.533  48.886 -20.703  1.00  0.00     0.042 C 
HETATM    6  C6  UNL     1      -5.753  48.913 -22.245  1.00  0.00     0.069 C 
HETATM    7  C7  UNL     1      -6.951  49.850 -22.504  1.00  0.00     0.047 C 
HETATM    8  O1  UNL     1      -6.219  47.531 -22.470  1.00  0.00    -0.338 OA
HETATM    9  C8  UNL     1      -6.652  47.249 -23.734  1.00  0.00     0.095 A 
HETATM   10  C9  UNL     1      -7.715  46.344 -23.878  1.00  0.00     0.070 A 
HETATM   11  C11 UNL     1      -8.268  46.103 -25.144  1.00  0.00     0.097 A 
HETATM   12  C12 UNL     1      -7.760  46.777 -26.255  1.00  0.00     0.069 A 
HETATM   13  C14 UNL     1      -6.675  47.659 -26.100  1.00  0.00     0.091 A 
HETATM   14  C15 UNL     1      -6.072  47.863 -24.845  1.00  0.00     0.015 A 
HETATM   15  C16 UNL     1      -4.845  48.738 -24.669  1.00  0.00     0.032 C 
HETATM   16  C21 UNL     1      -4.510  49.098 -23.162  1.00  0.00     0.034 C 
HETATM   17  C22 UNL     1      -3.546  50.279 -23.139  1.00  0.00     0.006 A 
HETATM   18  C23 UNL     1      -3.281  51.498 -22.272  1.00  0.00    -0.001 A 
HETATM   19  C24 UNL     1      -3.978  51.812 -21.000  1.00  0.00     0.010 C 
HETATM   20  C25 UNL     1      -3.352  51.133 -19.761  1.00  0.00     0.034 C 
HETATM   21  C26 UNL     1      -3.831  51.691 -23.682  1.00  0.00    -0.039 A 
HETATM   22  C27 UNL     1      -5.200  52.290 -23.854  1.00  0.00     0.015 C 
HETATM   23  C28 UNL     1      -2.870  52.170 -24.753  1.00  0.00     0.015 C 
ENDROOT
BRANCH  15  24
HETATM   24  C17 UNL     1      -3.605  48.237 -25.487  1.00  0.00     0.014 C 
BRANCH  24  25
HETATM   25  C18 UNL     1      -3.169  48.888 -26.826  1.00  0.00    -0.022 C 
HETATM   26  C19 UNL     1      -2.728  50.347 -26.699  1.00  0.00     0.009 C 
HETATM   27  C20 UNL     1      -4.153  48.738 -27.982  1.00  0.00     0.009 C 
ENDBRANCH  24  25
ENDBRANCH  15  24
BRANCH  13  28
HETATM   28  O5  UNL     1      -6.172  48.364 -27.166  1.00  0.00    -0.359 OA
HETATM   29  H15 UNL     1      -6.668  48.108 -27.978  1.00  0.00     0.217 HD
ENDBRANCH  13  28
BRANCH  10  30
HETATM   30  C10 UNL     1      -8.260  45.671 -22.682  1.00  0.00     0.275 C 
HETATM   31  O2  UNL     1      -8.085  44.466 -22.515  1.00  0.00    -0.301 OA
ENDBRANCH  10  30
BRANCH  12  32
HETATM   32  C13 UNL     1      -8.368  46.554 -27.583  1.00  0.00     0.275 C 
HETATM   33  O4  UNL     1      -8.790  47.501 -28.243  1.00  0.00    -0.301 OA
ENDBRANCH  12  32
BRANCH  11  34
HETATM   34  O3  UNL     1      -9.316  45.234 -25.323  1.00  0.00    -0.359 OA
HETATM   35  H13 UNL     1      -9.568  44.857 -24.447  1.00  0.00     0.217 HD
ENDBRANCH  11  34
TORSDOF 6
ENDMDL
MODEL 6
REMARK minimizedAffinity -7.9964366
REMARK  6 active torsions:
REMARK  status: ('A' for Active; 'I' for Inactive)
REMARK    1  A    between atoms: C9_10  and  C10_11 
REMARK    2  A    between atoms: C11_13  and  O3_14 
REMARK    3  A    between atoms: C12_15  and  C13_16 
REMARK    4  A    between atoms: C14_18  and  O5_19 
REMARK    5  A    between atoms: C16_21  and  C17_22 
REMARK    6  A    between atoms: C17_22  and  C18_23 
ROOT
HETATM    1  C1  UNL     1      -7.012  44.700 -19.519  1.00  0.00     0.043 C 
HETATM    2  C2  UNL     1      -7.431  45.514 -20.724  1.00  0.00    -0.087 C 
HETATM    3  C3  UNL     1      -7.013  45.131 -21.947  1.00  0.00    -0.024 C 
HETATM    4  C4  UNL     1      -7.281  45.682 -23.319  1.00  0.00     0.030 C 
HETATM    5  C5  UNL     1      -7.508  47.182 -23.517  1.00  0.00     0.042 C 
HETATM    6  C6  UNL     1      -6.253  48.098 -23.627  1.00  0.00     0.069 C 
HETATM    7  C7  UNL     1      -6.772  49.543 -23.773  1.00  0.00     0.047 C 
HETATM    8  O1  UNL     1      -5.735  47.682 -24.944  1.00  0.00    -0.338 OA
HETATM    9  C8  UNL     1      -4.687  48.412 -25.429  1.00  0.00     0.095 A 
HETATM   10  C9  UNL     1      -4.614  48.618 -26.814  1.00  0.00     0.070 A 
HETATM   11  C11 UNL     1      -3.622  49.450 -27.351  1.00  0.00     0.097 A 
HETATM   12  C12 UNL     1      -2.715  50.077 -26.496  1.00  0.00     0.069 A 
HETATM   13  C14 UNL     1      -2.781  49.838 -25.112  1.00  0.00     0.091 A 
HETATM   14  C15 UNL     1      -3.734  48.958 -24.567  1.00  0.00     0.015 A 
HETATM   15  C16 UNL     1      -3.767  48.615 -23.089  1.00  0.00     0.032 C 
HETATM   16  C21 UNL     1      -5.088  47.873 -22.620  1.00  0.00     0.034 C 
HETATM   17  C22 UNL     1      -5.187  47.953 -21.101  1.00  0.00     0.006 A 
HETATM   18  C23 UNL     1      -6.275  48.084 -20.051  1.00  0.00    -0.001 A 
HETATM   19  C24 UNL     1      -7.734  48.085 -20.324  1.00  0.00     0.010 C 
HETATM   20  C25 UNL     1      -8.356  46.672 -20.401  1.00  0.00     0.034 C 
HETATM   21  C26 UNL     1      -5.308  49.243 -20.269  1.00  0.00    -0.039 A 
HETATM   22  C27 UNL     1      -5.845  50.552 -20.779  1.00  0.00     0.015 C 
HETATM   23  C28 UNL     1      -4.210  49.447 -19.243  1.00  0.00     0.015 C 
ENDROOT
BRANCH  15  24
HETATM   24  C17 UNL     1      -2.449  47.934 -22.582  1.00  0.00     0.014 C 
BRANCH  24  25
HETATM   25  C18 UNL     1      -1.458  48.643 -21.623  1.00  0.00    -0.022 C 
HETATM   26  C19 UNL     1      -1.227  47.904 -20.304  1.00  0.00     0.009 C 
HETATM   27  C20 UNL     1      -1.743  50.116 -21.352  1.00  0.00     0.009 C 
ENDBRANCH  24  25
ENDBRANCH  15  24
BRANCH  13  28
HETATM   28  O5  UNL     1      -1.926  50.465 -24.238  1.00  0.00    -0.359 OA
HETATM   29  H15 UNL     1      -1.303  51.029 -24.754  1.00  0.00     0.217 HD
ENDBRANCH  13  28
BRANCH  10  30
HETATM   30  C10 UNL     1      -5.608  47.973 -27.696  1.00  0.00     0.275 C 
HETATM   31  O2  UNL     1      -5.301  47.646 -28.840  1.00  0.00    -0.301 OA
ENDBRANCH  10  30
BRANCH  12  32
HETATM   32  C13 UNL     1      -1.693  50.986 -27.058  1.00  0.00     0.275 C 
HETATM   33  O4  UNL     1      -0.497  50.774 -26.865  1.00  0.00    -0.301 OA
ENDBRANCH  12  32
BRANCH  11  34
HETATM   34  O3  UNL     1      -3.526  49.686 -28.701  1.00  0.00    -0.359 OA
HETATM   35  H13 UNL     1      -4.242  49.189 -29.161  1.00  0.00     0.217 HD
ENDBRANCH  11  34
TORSDOF 6
ENDMDL
MODEL 7
REMARK minimizedAffinity -7.98178196
REMARK  6 active torsions:
REMARK  status: ('A' for Active; 'I' for Inactive)
REMARK    1  A    between atoms: C9_10  and  C10_11 
REMARK    2  A    between atoms: C11_13  and  O3_14 
REMARK    3  A    between atoms: C12_15  and  C13_16 
REMARK    4  A    between atoms: C14_18  and  O5_19 
REMARK    5  A    between atoms: C16_21  and  C17_22 
REMARK    6  A    between atoms: C17_22  and  C18_23 
ROOT
HETATM    1  C1  UNL     1      -6.446  46.726 -24.209  1.00  0.00     0.043 C 
HETATM    2  C2  UNL     1      -6.074  48.159 -24.525  1.00  0.00    -0.087 C 
HETATM    3  C3  UNL     1      -4.940  48.402 -25.211  1.00  0.00    -0.024 C 
HETATM    4  C4  UNL     1      -4.323  49.677 -25.712  1.00  0.00     0.030 C 
HETATM    5  C5  UNL     1      -4.508  50.981 -24.935  1.00  0.00     0.042 C 
HETATM    6  C6  UNL     1      -3.562  51.248 -23.726  1.00  0.00     0.069 C 
HETATM    7  C7  UNL     1      -4.000  52.593 -23.110  1.00  0.00     0.047 C 
HETATM    8  O1  UNL     1      -2.288  51.481 -24.433  1.00  0.00    -0.338 OA
HETATM    9  C8  UNL     1      -1.245  51.898 -23.656  1.00  0.00     0.095 A 
HETATM   10  C9  UNL     1      -0.326  52.798 -24.216  1.00  0.00     0.070 A 
HETATM   11  C11 UNL     1       0.699  53.339 -23.427  1.00  0.00     0.097 A 
HETATM   12  C12 UNL     1       0.791  52.984 -22.081  1.00  0.00     0.069 A 
HETATM   13  C14 UNL     1      -0.119  52.058 -21.540  1.00  0.00     0.091 A 
HETATM   14  C15 UNL     1      -1.115  51.462 -22.336  1.00  0.00     0.015 A 
HETATM   15  C16 UNL     1      -2.049  50.394 -21.798  1.00  0.00     0.032 C 
HETATM   16  C21 UNL     1      -3.291  50.081 -22.734  1.00  0.00     0.034 C 
HETATM   17  C22 UNL     1      -4.341  49.328 -21.925  1.00  0.00     0.006 A 
HETATM   18  C23 UNL     1      -5.856  49.246 -21.849  1.00  0.00    -0.001 A 
HETATM   19  C24 UNL     1      -6.798  49.949 -22.756  1.00  0.00     0.010 C 
HETATM   20  C25 UNL     1      -7.095  49.182 -24.063  1.00  0.00     0.034 C 
HETATM   21  C26 UNL     1      -5.084  49.861 -20.686  1.00  0.00    -0.039 A 
HETATM   22  C27 UNL     1      -5.290  51.316 -20.363  1.00  0.00     0.015 C 
HETATM   23  C28 UNL     1      -4.916  49.026 -19.431  1.00  0.00     0.015 C 
ENDROOT
BRANCH  15  24
HETATM   24  C17 UNL     1      -1.301  49.112 -21.295  1.00  0.00     0.014 C 
BRANCH  24  25
HETATM   25  C18 UNL     1      -1.368  48.630 -19.823  1.00  0.00    -0.022 C 
HETATM   26  C19 UNL     1      -2.144  47.326 -19.626  1.00  0.00     0.009 C 
HETATM   27  C20 UNL     1      -1.829  49.670 -18.808  1.00  0.00     0.009 C 
ENDBRANCH  24  25
ENDBRANCH  15  24
BRANCH  13  28
HETATM   28  O5  UNL     1      -0.079  51.712 -20.212  1.00  0.00    -0.359 OA
HETATM   29  H15 UNL     1       0.674  52.182 -19.784  1.00  0.00     0.217 HD
ENDBRANCH  13  28
BRANCH  10  30
HETATM   30  C10 UNL     1      -0.466  53.188 -25.633  1.00  0.00     0.275 C 
HETATM   31  O2  UNL     1       0.528  53.474 -26.298  1.00  0.00    -0.301 OA
ENDBRANCH  10  30
BRANCH  12  32
HETATM   32  C13 UNL     1       1.847  53.585 -21.239  1.00  0.00     0.275 C 
HETATM   33  O4  UNL     1       1.553  54.219 -20.229  1.00  0.00    -0.301 OA
ENDBRANCH  12  32
BRANCH  11  34
HETATM   34  O3  UNL     1       1.610  54.232 -23.936  1.00  0.00    -0.359 OA
HETATM   35  H13 UNL     1       1.401  54.391 -24.887  1.00  0.00     0.217 HD
ENDBRANCH  11  34
TORSDOF 6
ENDMDL
MODEL 8
REMARK minimizedAffinity -7.74078035
REMARK  6 active torsions:
REMARK  status: ('A' for Active; 'I' for Inactive)
REMARK    1  A    between atoms: C9_10  and  C10_11 
REMARK    2  A    between atoms: C11_13  and  O3_14 
REMARK    3  A    between atoms: C12_15  and  C13_16 
REMARK    4  A    between atoms: C14_18  and  O5_19 
REMARK    5  A    between atoms: C16_21  and  C17_22 
REMARK    6  A    between atoms: C17_22  and  C18_23 
ROOT
HETATM    1  C1  UNL     1      -3.172  50.608 -16.436  1.00  0.00     0.043 C 
HETATM    2  C2  UNL     1      -2.094  50.661 -17.497  1.00  0.00    -0.087 C 
HETATM    3  C3  UNL     1      -1.940  51.791 -18.215  1.00  0.00    -0.024 C 
HETATM    4  C4  UNL     1      -0.959  52.176 -19.286  1.00  0.00     0.030 C 
HETATM    5  C5  UNL     1      -0.406  51.117 -20.241  1.00  0.00     0.042 C 
HETATM    6  C6  UNL     1      -1.273  50.725 -21.474  1.00  0.00     0.069 C 
HETATM    7  C7  UNL     1      -0.502  49.620 -22.224  1.00  0.00     0.047 C 
HETATM    8  O1  UNL     1      -1.167  51.958 -22.276  1.00  0.00    -0.338 OA
HETATM    9  C8  UNL     1      -1.710  51.901 -23.528  1.00  0.00     0.095 A 
HETATM   10  C9  UNL     1      -1.078  52.621 -24.553  1.00  0.00     0.070 A 
HETATM   11  C11 UNL     1      -1.531  52.509 -25.875  1.00  0.00     0.097 A 
HETATM   12  C12 UNL     1      -2.609  51.671 -26.163  1.00  0.00     0.069 A 
HETATM   13  C14 UNL     1      -3.253  50.979 -25.121  1.00  0.00     0.091 A 
HETATM   14  C15 UNL     1      -2.845  51.129 -23.783  1.00  0.00     0.015 A 
HETATM   15  C16 UNL     1      -3.580  50.465 -22.634  1.00  0.00     0.032 C 
HETATM   16  C21 UNL     1      -2.795  50.488 -21.256  1.00  0.00     0.034 C 
HETATM   17  C22 UNL     1      -3.418  49.463 -20.315  1.00  0.00     0.006 A 
HETATM   18  C23 UNL     1      -2.957  48.506 -19.230  1.00  0.00    -0.001 A 
HETATM   19  C24 UNL     1      -1.569  48.401 -18.713  1.00  0.00     0.010 C 
HETATM   20  C25 UNL     1      -1.246  49.405 -17.585  1.00  0.00     0.034 C 
HETATM   21  C26 UNL     1      -3.482  47.943 -20.546  1.00  0.00    -0.039 A 
HETATM   22  C27 UNL     1      -2.547  47.164 -21.431  1.00  0.00     0.015 C 
HETATM   23  C28 UNL     1      -4.880  47.355 -20.554  1.00  0.00     0.015 C 
ENDROOT
BRANCH  15  24
HETATM   24  C17 UNL     1      -5.077  50.914 -22.513  1.00  0.00     0.014 C 
BRANCH  24  25
HETATM   25  C18 UNL     1      -6.262  49.948 -22.772  1.00  0.00    -0.022 C 
HETATM   26  C19 UNL     1      -7.199  49.773 -21.576  1.00  0.00     0.009 C 
HETATM   27  C20 UNL     1      -5.889  48.587 -23.348  1.00  0.00     0.009 C 
ENDBRANCH  24  25
ENDBRANCH  15  24
BRANCH  13  28
HETATM   28  O5  UNL     1      -4.294  50.119 -25.373  1.00  0.00    -0.359 OA
HETATM   29  H15 UNL     1      -4.486  50.129 -26.340  1.00  0.00     0.217 HD
ENDBRANCH  13  28
BRANCH  10  30
HETATM   30  C10 UNL     1       0.084  53.473 -24.229  1.00  0.00     0.275 C 
HETATM   31  O2  UNL     1       1.059  53.501 -24.978  1.00  0.00    -0.301 OA
ENDBRANCH  10  30
BRANCH  12  32
HETATM   32  C13 UNL     1      -3.062  51.522 -27.562  1.00  0.00     0.275 C 
HETATM   33  O4  UNL     1      -3.005  50.430 -28.123  1.00  0.00    -0.301 OA
ENDBRANCH  12  32
BRANCH  11  34
HETATM   34  O3  UNL     1      -0.931  53.188 -26.906  1.00  0.00    -0.359 OA
HETATM   35  H13 UNL     1      -0.182  53.718 -26.544  1.00  0.00     0.217 HD
ENDBRANCH  11  34
TORSDOF 6
ENDMDL
MODEL 9
REMARK minimizedAffinity -7.27416515
REMARK  6 active torsions:
REMARK  status: ('A' for Active; 'I' for Inactive)
REMARK    1  A    between atoms: C9_10  and  C10_11 
REMARK    2  A    between atoms: C11_13  and  O3_14 
REMARK    3  A    between atoms: C12_15  and  C13_16 
REMARK    4  A    between atoms: C14_18  and  O5_19 
REMARK    5  A    between atoms: C16_21  and  C17_22 
REMARK    6  A    between atoms: C17_22  and  C18_23 
ROOT
HETATM    1  C1  UNL     1      -8.545  44.218 -20.809  1.00  0.00     0.043 C 
HETATM    2  C2  UNL     1      -8.492  45.253 -21.912  1.00  0.00    -0.087 C 
HETATM    3  C3  UNL     1      -7.697  45.030 -22.978  1.00  0.00    -0.024 C 
HETATM    4  C4  UNL     1      -7.457  45.818 -24.234  1.00  0.00     0.030 C 
HETATM    5  C5  UNL     1      -7.538  47.345 -24.214  1.00  0.00     0.042 C 
HETATM    6  C6  UNL     1      -6.283  48.134 -23.733  1.00  0.00     0.069 C 
HETATM    7  C7  UNL     1      -6.660  49.629 -23.771  1.00  0.00     0.047 C 
HETATM    8  O1  UNL     1      -5.365  47.883 -24.859  1.00  0.00    -0.338 OA
HETATM    9  C8  UNL     1      -4.185  48.570 -24.828  1.00  0.00     0.095 A 
HETATM   10  C9  UNL     1      -3.633  48.987 -26.049  1.00  0.00     0.070 A 
HETATM   11  C11 UNL     1      -2.483  49.788 -26.065  1.00  0.00     0.097 A 
HETATM   12  C12 UNL     1      -1.897  50.174 -24.858  1.00  0.00     0.069 A 
HETATM   13  C14 UNL     1      -2.443  49.724 -23.643  1.00  0.00     0.091 A 
HETATM   14  C15 UNL     1      -3.562  48.871 -23.615  1.00  0.00     0.015 A 
HETATM   15  C16 UNL     1      -4.112  48.300 -22.322  1.00  0.00     0.032 C 
HETATM   16  C21 UNL     1      -5.544  47.632 -22.460  1.00  0.00     0.034 C 
HETATM   17  C22 UNL     1      -6.153  47.478 -21.071  1.00  0.00     0.006 A 
HETATM   18  C23 UNL     1      -7.529  47.549 -20.431  1.00  0.00    -0.001 A 
HETATM   19  C24 UNL     1      -8.805  47.743 -21.165  1.00  0.00     0.010 C 
HETATM   20  C25 UNL     1      -9.422  46.433 -21.702  1.00  0.00     0.034 C 
HETATM   21  C26 UNL     1      -6.497  48.622 -20.100  1.00  0.00    -0.039 A 
HETATM   22  C27 UNL     1      -6.771  50.045 -20.507  1.00  0.00     0.015 C 
HETATM   23  C28 UNL     1      -5.809  48.547 -18.751  1.00  0.00     0.015 C 
ENDROOT
BRANCH  15  24
HETATM   24  C17 UNL     1      -3.077  47.416 -21.545  1.00  0.00     0.014 C 
BRANCH  24  25
HETATM   25  C18 UNL     1      -2.482  47.834 -20.175  1.00  0.00    -0.022 C 
HETATM   26  C19 UNL     1      -2.792  46.863 -19.035  1.00  0.00     0.009 C 
HETATM   27  C20 UNL     1      -2.778  49.264 -19.738  1.00  0.00     0.009 C 
ENDBRANCH  24  25
ENDBRANCH  15  24
BRANCH  13  28
HETATM   28  O5  UNL     1      -1.913  50.112 -22.437  1.00  0.00    -0.359 OA
HETATM   29  H15 UNL     1      -1.128  50.684 -22.604  1.00  0.00     0.217 HD
ENDBRANCH  13  28
BRANCH  10  30
HETATM   30  C10 UNL     1      -4.292  48.597 -27.312  1.00  0.00     0.275 C 
HETATM   31  O2  UNL     1      -4.100  49.247 -28.337  1.00  0.00    -0.301 OA
ENDBRANCH  10  30
BRANCH  12  32
HETATM   32  C13 UNL     1      -0.708  51.051 -24.874  1.00  0.00     0.275 C 
HETATM   33  O4  UNL     1      -0.727  52.117 -25.485  1.00  0.00    -0.301 OA
ENDBRANCH  12  32
BRANCH  11  34
HETATM   34  O3  UNL     1      -1.921  50.225 -27.239  1.00  0.00    -0.359 OA
HETATM   35  H13 UNL     1      -2.457  49.885 -27.993  1.00  0.00     0.217 HD
ENDBRANCH  11  34
TORSDOF 6
ENDMDL
