MODEL 1
REMARK minimizedAffinity -7.92059469
REMARK CNNscore 0.527140617
REMARK CNNaffinity 7.14911652
REMARK  14 active torsions:
REMARK  status: ('A' for Active; 'I' for Inactive)
REMARK    1  A    between atoms: O1_2  and  C2_3 
REMARK    2  A    between atoms: C2_3  and  C5_6 
REMARK    3  A    between atoms: C6_7  and  C7_8 
REMARK    4  A    between atoms: C7_8  and  C8_9 
REMARK    5  A    between atoms: C8_9  and  C10_11 
REMARK    6  A    between atoms: C22_23  and  O2_24 
REMARK    7  A    between atoms: O2_24  and  C23_25 
REMARK    8  A    between atoms: C24_27  and  C25_28 
REMARK    9  A    between atoms: C25_28  and  O4_29 
REMARK   10  A    between atoms: C26_30  and  O5_31 
REMARK   11  A    between atoms: C27_32  and  O6_33 
REMARK   12  A    between atoms: C28_34  and  O7_35 
REMARK   13  A    between atoms: C32_39  and  C33_40 
REMARK   14  A    between atoms: C33_40  and  O8_41 
ROOT
HETATM    1  C10 UNL     1      -0.423  51.245 -20.228  1.00  0.00    -0.002 C 
HETATM    2  C11 UNL     1      -1.171  52.226 -19.289  1.00  0.00     0.006 C 
HETATM    3  C12 UNL     1      -2.528  51.569 -18.934  1.00  0.00     0.011 C 
HETATM    4  C13 UNL     1      -2.434  50.116 -19.463  1.00  0.00    -0.032 C 
HETATM    5  C14 UNL     1      -1.709  49.312 -18.337  1.00  0.00     0.016 C 
HETATM    6  C15 UNL     1      -3.795  49.443 -19.841  1.00  0.00     0.009 C 
HETATM    7  C16 UNL     1      -4.777  49.297 -18.663  1.00  0.00     0.033 C 
HETATM    8  C17 UNL     1      -4.706  48.001 -17.929  1.00  0.00    -0.022 C 
HETATM    9  C18 UNL     1      -4.118  46.878 -18.377  1.00  0.00    -0.068 C 
HETATM   10  C19 UNL     1      -3.484  46.813 -19.759  1.00  0.00     0.026 C 
HETATM   11  C20 UNL     1      -3.899  45.501 -20.481  1.00  0.00     0.012 C 
HETATM   12  C21 UNL     1      -3.892  44.234 -19.623  1.00  0.00     0.034 C 
HETATM   13  C22 UNL     1      -3.293  44.428 -18.235  1.00  0.00     0.136 C 
HETATM   14  C29 UNL     1      -4.008  45.614 -17.485  1.00  0.00     0.002 C 
HETATM   15  C30 UNL     1      -5.424  45.189 -17.006  1.00  0.00     0.022 C 
HETATM   16  C31 UNL     1      -3.162  45.940 -16.224  1.00  0.00     0.022 C 
HETATM   17  C32 UNL     1      -3.644  48.104 -20.688  1.00  0.00    -0.007 C 
HETATM   18  C34 UNL     1      -2.420  48.136 -21.695  1.00  0.00     0.013 C 
HETATM   19  C35 UNL     1      -1.182  48.962 -21.302  1.00  0.00     0.011 C 
HETATM   20  C36 UNL     1      -1.582  50.342 -20.768  1.00  0.00    -0.032 C 
HETATM   21  C37 UNL     1      -2.332  51.089 -21.911  1.00  0.00     0.016 C 
ENDROOT
BRANCH  13  22
HETATM   22  O2  UNL     1      -3.436  43.229 -17.458  1.00  0.00    -0.352 OA
BRANCH  22  23
HETATM   23  C23 UNL     1      -2.283  42.387 -17.397  1.00  0.00     0.292 C 
HETATM   24  O3  UNL     1      -2.661  41.024 -17.591  1.00  0.00    -0.348 OA
HETATM   25  C24 UNL     1      -1.535  40.138 -17.708  1.00  0.00     0.179 C 
HETATM   26  C26 UNL     1      -0.466  40.408 -16.630  1.00  0.00     0.180 C 
HETATM   27  C27 UNL     1      -1.071  41.227 -15.484  1.00  0.00     0.183 C 
HETATM   28  C28 UNL     1      -1.651  42.557 -15.992  1.00  0.00     0.204 C 
BRANCH  25  29
HETATM   29  C25 UNL     1      -2.081  38.704 -17.618  1.00  0.00     0.198 C 
BRANCH  29  30
HETATM   30  O4  UNL     1      -2.853  38.328 -18.753  1.00  0.00    -0.398 OA
HETATM   31  H40 UNL     1      -3.450  39.070 -18.970  1.00  0.00     0.209 HD
ENDBRANCH  29  30
ENDBRANCH  25  29
BRANCH  26  32
HETATM   32  O5  UNL     1       0.604  41.148 -17.242  1.00  0.00    -0.390 OA
HETATM   33  H42 UNL     1       0.958  41.759 -16.564  1.00  0.00     0.210 HD
ENDBRANCH  26  32
BRANCH  27  34
HETATM   34  O6  UNL     1      -0.069  41.510 -14.493  1.00  0.00    -0.390 OA
HETATM   35  H44 UNL     1       0.146  40.664 -14.048  1.00  0.00     0.210 HD
ENDBRANCH  27  34
BRANCH  28  36
HETATM   36  O7  UNL     1      -0.613  43.558 -16.008  1.00  0.00    -0.388 OA
HETATM   37  H46 UNL     1      -0.163  43.448 -15.142  1.00  0.00     0.210 HD
ENDBRANCH  28  36
ENDBRANCH  22  23
ENDBRANCH  13  22
BRANCH  17  38
HETATM   38  C33 UNL     1      -4.918  48.004 -21.604  1.00  0.00     0.174 C 
BRANCH  38  39
HETATM   39  O8  UNL     1      -5.291  46.670 -21.901  1.00  0.00    -0.400 OA
HETATM   40  H55 UNL     1      -6.080  46.702 -22.472  1.00  0.00     0.209 HD
ENDBRANCH  38  39
ENDBRANCH  17  38
BRANCH   1  41
HETATM   41  C8  UNL     1       0.591  51.863 -21.239  1.00  0.00    -0.010 C 
HETATM   42  C9  UNL     1       1.531  52.844 -20.510  1.00  0.00     0.010 C 
BRANCH  41  43
HETATM   43  C7  UNL     1       0.038  52.498 -22.541  1.00  0.00     0.031 C 
BRANCH  43  44
HETATM   44  C6  UNL     1       0.784  52.257 -23.830  1.00  0.00    -0.027 C 
HETATM   45  C5  UNL     1       0.146  52.154 -25.009  1.00  0.00     0.006 C 
BRANCH  45  46
HETATM   46  C2  UNL     1       0.747  51.952 -26.390  1.00  0.00     0.070 C 
HETATM   47  C3  UNL     1       2.145  51.326 -26.207  1.00  0.00     0.050 C 
HETATM   48  C4  UNL     1      -0.050  51.042 -27.340  1.00  0.00     0.050 C 
BRANCH  46  49
HETATM   49  O1  UNL     1       0.990  53.243 -26.977  1.00  0.00    -0.382 OA
HETATM   50  C1  UNL     1      -0.070  54.186 -26.853  1.00  0.00     0.202 C 
ENDBRANCH  46  49
ENDBRANCH  45  46
ENDBRANCH  43  44
ENDBRANCH  41  43
ENDBRANCH   1  41
TORSDOF 14
ENDMDL
MODEL 2
REMARK minimizedAffinity -7.97540092
REMARK CNNscore 0.512950361
REMARK CNNaffinity 7.2035861
REMARK  14 active torsions:
REMARK  status: ('A' for Active; 'I' for Inactive)
REMARK    1  A    between atoms: O1_2  and  C2_3 
REMARK    2  A    between atoms: C2_3  and  C5_6 
REMARK    3  A    between atoms: C6_7  and  C7_8 
REMARK    4  A    between atoms: C7_8  and  C8_9 
REMARK    5  A    between atoms: C8_9  and  C10_11 
REMARK    6  A    between atoms: C22_23  and  O2_24 
REMARK    7  A    between atoms: O2_24  and  C23_25 
REMARK    8  A    between atoms: C24_27  and  C25_28 
REMARK    9  A    between atoms: C25_28  and  O4_29 
REMARK   10  A    between atoms: C26_30  and  O5_31 
REMARK   11  A    between atoms: C27_32  and  O6_33 
REMARK   12  A    between atoms: C28_34  and  O7_35 
REMARK   13  A    between atoms: C32_39  and  C33_40 
REMARK   14  A    between atoms: C33_40  and  O8_41 
ROOT
HETATM    1  C10 UNL     1      -1.096  50.478 -20.366  1.00  0.00    -0.002 C 
HETATM    2  C11 UNL     1      -1.829  51.484 -19.442  1.00  0.00     0.006 C 
HETATM    3  C12 UNL     1      -3.040  50.739 -18.829  1.00  0.00     0.011 C 
HETATM    4  C13 UNL     1      -2.842  49.250 -19.205  1.00  0.00    -0.032 C 
HETATM    5  C14 UNL     1      -1.887  48.670 -18.113  1.00  0.00     0.016 C 
HETATM    6  C15 UNL     1      -4.149  48.396 -19.311  1.00  0.00     0.009 C 
HETATM    7  C16 UNL     1      -4.947  48.296 -17.998  1.00  0.00     0.033 C 
HETATM    8  C17 UNL     1      -4.627  47.115 -17.145  1.00  0.00    -0.022 C 
HETATM    9  C18 UNL     1      -3.971  46.012 -17.547  1.00  0.00    -0.068 C 
HETATM   10  C19 UNL     1      -3.517  45.844 -18.990  1.00  0.00     0.026 C 
HETATM   11  C20 UNL     1      -3.861  44.417 -19.500  1.00  0.00     0.012 C 
HETATM   12  C21 UNL     1      -3.592  43.273 -18.519  1.00  0.00     0.034 C 
HETATM   13  C22 UNL     1      -2.847  43.699 -17.260  1.00  0.00     0.136 C 
HETATM   14  C29 UNL     1      -3.597  44.887 -16.549  1.00  0.00     0.002 C 
HETATM   15  C30 UNL     1      -4.878  44.379 -15.831  1.00  0.00     0.022 C 
HETATM   16  C31 UNL     1      -2.641  45.452 -15.463  1.00  0.00     0.022 C 
HETATM   17  C32 UNL     1      -3.950  46.987 -20.021  1.00  0.00    -0.007 C 
HETATM   18  C34 UNL     1      -2.877  47.021 -21.189  1.00  0.00     0.013 C 
HETATM   19  C35 UNL     1      -1.708  48.014 -21.068  1.00  0.00     0.011 C 
HETATM   20  C36 UNL     1      -2.198  49.399 -20.635  1.00  0.00    -0.032 C 
HETATM   21  C37 UNL     1      -3.173  49.918 -21.734  1.00  0.00     0.016 C 
ENDROOT
BRANCH  13  22
HETATM   22  O2  UNL     1      -2.745  42.596 -16.345  1.00  0.00    -0.352 OA
BRANCH  22  23
HETATM   23  C23 UNL     1      -1.466  41.960 -16.280  1.00  0.00     0.292 C 
HETATM   24  O3  UNL     1      -0.483  42.882 -15.811  1.00  0.00    -0.348 OA
HETATM   25  C24 UNL     1       0.793  42.268 -15.563  1.00  0.00     0.179 C 
HETATM   26  C26 UNL     1       1.222  41.331 -16.710  1.00  0.00     0.180 C 
HETATM   27  C27 UNL     1       0.407  41.639 -17.972  1.00  0.00     0.183 C 
HETATM   28  C28 UNL     1      -1.101  41.495 -17.713  1.00  0.00     0.204 C 
BRANCH  25  29
HETATM   29  C25 UNL     1       1.805  43.406 -15.351  1.00  0.00     0.198 C 
BRANCH  29  30
HETATM   30  O4  UNL     1       3.116  42.939 -15.055  1.00  0.00    -0.398 OA
HETATM   31  H40 UNL     1       3.038  42.220 -14.397  1.00  0.00     0.209 HD
ENDBRANCH  29  30
ENDBRANCH  25  29
BRANCH  26  32
HETATM   32  O5  UNL     1       0.976  39.978 -16.292  1.00  0.00    -0.390 OA
HETATM   33  H42 UNL     1       0.714  39.472 -17.089  1.00  0.00     0.210 HD
ENDBRANCH  26  32
BRANCH  27  34
HETATM   34  O6  UNL     1       0.781  40.745 -19.034  1.00  0.00    -0.390 OA
HETATM   35  H44 UNL     1       1.688  40.988 -19.312  1.00  0.00     0.210 HD
ENDBRANCH  27  34
BRANCH  28  36
HETATM   36  O7  UNL     1      -1.495  40.124 -17.930  1.00  0.00    -0.388 OA
HETATM   37  H46 UNL     1      -1.055  39.880 -18.773  1.00  0.00     0.210 HD
ENDBRANCH  28  36
ENDBRANCH  22  23
ENDBRANCH  13  22
BRANCH  17  38
HETATM   38  C33 UNL     1      -5.310  46.642 -20.732  1.00  0.00     0.174 C 
BRANCH  38  39
HETATM   39  O8  UNL     1      -5.503  47.350 -21.944  1.00  0.00    -0.400 OA
HETATM   40  H55 UNL     1      -6.365  47.081 -22.310  1.00  0.00     0.209 HD
ENDBRANCH  38  39
ENDBRANCH  17  38
BRANCH   1  41
HETATM   41  C8  UNL     1      -0.302  51.068 -21.571  1.00  0.00    -0.010 C 
HETATM   42  C9  UNL     1       0.857  51.947 -21.059  1.00  0.00     0.010 C 
BRANCH  41  43
HETATM   43  C7  UNL     1      -1.093  51.800 -22.687  1.00  0.00     0.031 C 
BRANCH  43  44
HETATM   44  C6  UNL     1      -0.889  51.362 -24.116  1.00  0.00    -0.027 C 
HETATM   45  C5  UNL     1      -0.181  52.100 -24.989  1.00  0.00     0.006 C 
BRANCH  45  46
HETATM   46  C2  UNL     1       0.148  51.785 -26.438  1.00  0.00     0.070 C 
HETATM   47  C3  UNL     1      -1.019  50.957 -27.015  1.00  0.00     0.050 C 
HETATM   48  C4  UNL     1       0.355  53.002 -27.357  1.00  0.00     0.050 C 
BRANCH  46  49
HETATM   49  O1  UNL     1       1.283  50.902 -26.469  1.00  0.00    -0.382 OA
HETATM   50  C1  UNL     1       2.546  51.527 -26.678  1.00  0.00     0.202 C 
ENDBRANCH  46  49
ENDBRANCH  45  46
ENDBRANCH  43  44
ENDBRANCH  41  43
ENDBRANCH   1  41
TORSDOF 14
ENDMDL
MODEL 3
REMARK minimizedAffinity -6.95320082
REMARK CNNscore 0.506695986
REMARK CNNaffinity 6.47991514
REMARK  14 active torsions:
REMARK  status: ('A' for Active; 'I' for Inactive)
REMARK    1  A    between atoms: O1_2  and  C2_3 
REMARK    2  A    between atoms: C2_3  and  C5_6 
REMARK    3  A    between atoms: C6_7  and  C7_8 
REMARK    4  A    between atoms: C7_8  and  C8_9 
REMARK    5  A    between atoms: C8_9  and  C10_11 
REMARK    6  A    between atoms: C22_23  and  O2_24 
REMARK    7  A    between atoms: O2_24  and  C23_25 
REMARK    8  A    between atoms: C24_27  and  C25_28 
REMARK    9  A    between atoms: C25_28  and  O4_29 
REMARK   10  A    between atoms: C26_30  and  O5_31 
REMARK   11  A    between atoms: C27_32  and  O6_33 
REMARK   12  A    between atoms: C28_34  and  O7_35 
REMARK   13  A    between atoms: C32_39  and  C33_40 
REMARK   14  A    between atoms: C33_40  and  O8_41 
ROOT
HETATM    1  C10 UNL     1       4.416  55.956  -8.660  1.00  0.00    -0.002 C 
HETATM    2  C11 UNL     1       4.098  57.345  -8.050  1.00  0.00     0.006 C 
HETATM    3  C12 UNL     1       4.664  57.348  -6.608  1.00  0.00     0.011 C 
HETATM    4  C13 UNL     1       5.520  56.062  -6.498  1.00  0.00    -0.032 C 
HETATM    5  C14 UNL     1       6.917  56.443  -7.085  1.00  0.00     0.016 C 
HETATM    6  C15 UNL     1       5.665  55.465  -5.059  1.00  0.00     0.009 C 
HETATM    7  C16 UNL     1       6.356  56.403  -4.052  1.00  0.00     0.033 C 
HETATM    8  C17 UNL     1       7.832  56.229  -3.926  1.00  0.00    -0.022 C 
HETATM    9  C18 UNL     1       8.535  55.164  -4.352  1.00  0.00    -0.068 C 
HETATM   10  C19 UNL     1       7.847  53.964  -4.987  1.00  0.00     0.026 C 
HETATM   11  C20 UNL     1       8.414  52.644  -4.396  1.00  0.00     0.012 C 
HETATM   12  C21 UNL     1       9.932  52.592  -4.210  1.00  0.00     0.034 C 
HETATM   13  C22 UNL     1      10.672  53.779  -4.813  1.00  0.00     0.136 C 
HETATM   14  C29 UNL     1      10.082  55.134  -4.267  1.00  0.00     0.002 C 
HETATM   15  C30 UNL     1      10.530  55.377  -2.799  1.00  0.00     0.022 C 
HETATM   16  C31 UNL     1      10.674  56.278  -5.135  1.00  0.00     0.022 C 
HETATM   17  C32 UNL     1       6.249  53.985  -5.026  1.00  0.00    -0.007 C 
HETATM   18  C34 UNL     1       5.779  53.100  -6.255  1.00  0.00     0.013 C 
HETATM   19  C35 UNL     1       5.506  53.808  -7.593  1.00  0.00     0.011 C 
HETATM   20  C36 UNL     1       4.673  55.078  -7.390  1.00  0.00    -0.032 C 
HETATM   21  C37 UNL     1       3.309  54.652  -6.770  1.00  0.00     0.016 C 
ENDROOT
BRANCH  13  22
HETATM   22  O2  UNL     1      12.070  53.713  -4.488  1.00  0.00    -0.352 OA
BRANCH  22  23
HETATM   23  C23 UNL     1      12.898  53.048  -5.445  1.00  0.00     0.292 C 
HETATM   24  O3  UNL     1      12.688  51.638  -5.380  1.00  0.00    -0.348 OA
HETATM   25  C24 UNL     1      13.363  50.919  -6.424  1.00  0.00     0.179 C 
HETATM   26  C26 UNL     1      14.821  51.387  -6.607  1.00  0.00     0.180 C 
HETATM   27  C27 UNL     1      15.283  52.163  -5.367  1.00  0.00     0.183 C 
HETATM   28  C28 UNL     1      14.373  53.371  -5.092  1.00  0.00     0.204 C 
BRANCH  25  29
HETATM   29  C25 UNL     1      13.290  49.426  -6.062  1.00  0.00     0.198 C 
BRANCH  29  30
HETATM   30  O4  UNL     1      14.456  48.703  -6.436  1.00  0.00    -0.398 OA
HETATM   31  H40 UNL     1      14.705  48.979  -7.340  1.00  0.00     0.209 HD
ENDBRANCH  29  30
ENDBRANCH  25  29
BRANCH  26  32
HETATM   32  O5  UNL     1      14.870  52.245  -7.760  1.00  0.00    -0.390 OA
HETATM   33  H42 UNL     1      15.547  52.930  -7.582  1.00  0.00     0.210 HD
ENDBRANCH  26  32
BRANCH  27  34
HETATM   34  O6  UNL     1      16.630  52.631  -5.547  1.00  0.00    -0.390 OA
HETATM   35  H44 UNL     1      17.215  51.846  -5.526  1.00  0.00     0.210 HD
ENDBRANCH  27  34
BRANCH  28  36
HETATM   36  O7  UNL     1      14.849  54.509  -5.840  1.00  0.00    -0.388 OA
HETATM   37  H46 UNL     1      15.819  54.504  -5.690  1.00  0.00     0.210 HD
ENDBRANCH  28  36
ENDBRANCH  22  23
ENDBRANCH  13  22
BRANCH  17  38
HETATM   38  C33 UNL     1       5.629  53.284  -3.762  1.00  0.00     0.174 C 
BRANCH  38  39
HETATM   39  O8  UNL     1       4.250  52.992  -3.904  1.00  0.00    -0.400 OA
HETATM   40  H55 UNL     1       3.950  52.566  -3.079  1.00  0.00     0.209 HD
ENDBRANCH  38  39
ENDBRANCH  17  38
BRANCH   1  41
HETATM   41  C8  UNL     1       3.452  55.427  -9.765  1.00  0.00    -0.010 C 
HETATM   42  C9  UNL     1       3.965  55.845 -11.157  1.00  0.00     0.010 C 
BRANCH  41  43
HETATM   43  C7  UNL     1       1.936  55.729  -9.626  1.00  0.00     0.031 C 
BRANCH  43  44
HETATM   44  C6  UNL     1       0.956  54.818 -10.321  1.00  0.00    -0.027 C 
HETATM   45  C5  UNL     1      -0.174  54.403  -9.722  1.00  0.00     0.006 C 
BRANCH  45  46
HETATM   46  C2  UNL     1      -1.274  53.524 -10.292  1.00  0.00     0.070 C 
HETATM   47  C3  UNL     1      -2.511  54.415 -10.529  1.00  0.00     0.050 C 
HETATM   48  C4  UNL     1      -0.947  52.819 -11.619  1.00  0.00     0.050 C 
BRANCH  46  49
HETATM   49  O1  UNL     1      -1.680  52.584  -9.281  1.00  0.00    -0.382 OA
HETATM   50  C1  UNL     1      -2.801  51.769  -9.611  1.00  0.00     0.202 C 
ENDBRANCH  46  49
ENDBRANCH  45  46
ENDBRANCH  43  44
ENDBRANCH  41  43
ENDBRANCH   1  41
TORSDOF 14
ENDMDL
MODEL 4
REMARK minimizedAffinity -7.88064528
REMARK CNNscore 0.450963706
REMARK CNNaffinity 7.29483843
REMARK  14 active torsions:
REMARK  status: ('A' for Active; 'I' for Inactive)
REMARK    1  A    between atoms: O1_2  and  C2_3 
REMARK    2  A    between atoms: C2_3  and  C5_6 
REMARK    3  A    between atoms: C6_7  and  C7_8 
REMARK    4  A    between atoms: C7_8  and  C8_9 
REMARK    5  A    between atoms: C8_9  and  C10_11 
REMARK    6  A    between atoms: C22_23  and  O2_24 
REMARK    7  A    between atoms: O2_24  and  C23_25 
REMARK    8  A    between atoms: C24_27  and  C25_28 
REMARK    9  A    between atoms: C25_28  and  O4_29 
REMARK   10  A    between atoms: C26_30  and  O5_31 
REMARK   11  A    between atoms: C27_32  and  O6_33 
REMARK   12  A    between atoms: C28_34  and  O7_35 
REMARK   13  A    between atoms: C32_39  and  C33_40 
REMARK   14  A    between atoms: C33_40  and  O8_41 
ROOT
HETATM    1  C10 UNL     1      -0.308  51.179 -19.989  1.00  0.00    -0.002 C 
HETATM    2  C11 UNL     1      -0.969  52.159 -18.986  1.00  0.00     0.006 C 
HETATM    3  C12 UNL     1      -2.337  51.550 -18.590  1.00  0.00     0.011 C 
HETATM    4  C13 UNL     1      -2.332  50.113 -19.168  1.00  0.00    -0.032 C 
HETATM    5  C14 UNL     1      -1.595  49.241 -18.102  1.00  0.00     0.016 C 
HETATM    6  C15 UNL     1      -3.737  49.512 -19.504  1.00  0.00     0.009 C 
HETATM    7  C16 UNL     1      -4.671  49.369 -18.288  1.00  0.00     0.033 C 
HETATM    8  C17 UNL     1      -4.626  48.047 -17.599  1.00  0.00    -0.022 C 
HETATM    9  C18 UNL     1      -4.108  46.916 -18.109  1.00  0.00    -0.068 C 
HETATM   10  C19 UNL     1      -3.540  46.870 -19.520  1.00  0.00     0.026 C 
HETATM   11  C20 UNL     1      -4.045  45.602 -20.263  1.00  0.00     0.012 C 
HETATM   12  C21 UNL     1      -4.057  44.309 -19.447  1.00  0.00     0.034 C 
HETATM   13  C22 UNL     1      -3.388  44.430 -18.083  1.00  0.00     0.136 C 
HETATM   14  C29 UNL     1      -4.016  45.620 -17.263  1.00  0.00     0.002 C 
HETATM   15  C30 UNL     1      -5.427  45.240 -16.734  1.00  0.00     0.022 C 
HETATM   16  C31 UNL     1      -3.101  45.865 -16.032  1.00  0.00     0.022 C 
HETATM   17  C32 UNL     1      -3.684  48.198 -20.399  1.00  0.00    -0.007 C 
HETATM   18  C34 UNL     1      -2.505  48.210 -21.460  1.00  0.00     0.013 C 
HETATM   19  C35 UNL     1      -1.216  48.969 -21.098  1.00  0.00     0.011 C 
HETATM   20  C36 UNL     1      -1.529  50.345 -20.503  1.00  0.00    -0.032 C 
HETATM   21  C37 UNL     1      -2.295  51.162 -21.586  1.00  0.00     0.016 C 
ENDROOT
BRANCH  13  22
HETATM   22  O2  UNL     1      -3.551  43.212 -17.338  1.00  0.00    -0.352 OA
BRANCH  22  23
HETATM   23  C23 UNL     1      -3.816  42.041 -18.113  1.00  0.00     0.292 C 
HETATM   24  O3  UNL     1      -5.074  41.480 -17.739  1.00  0.00    -0.348 OA
HETATM   25  C24 UNL     1      -5.483  40.397 -18.590  1.00  0.00     0.179 C 
HETATM   26  C26 UNL     1      -4.338  39.398 -18.855  1.00  0.00     0.180 C 
HETATM   27  C27 UNL     1      -3.228  39.583 -17.813  1.00  0.00     0.183 C 
HETATM   28  C28 UNL     1      -2.685  41.021 -17.823  1.00  0.00     0.204 C 
BRANCH  25  29
HETATM   29  C25 UNL     1      -6.680  39.716 -17.907  1.00  0.00     0.198 C 
BRANCH  29  30
HETATM   30  O4  UNL     1      -7.211  38.633 -18.660  1.00  0.00    -0.398 OA
HETATM   31  H40 UNL     1      -7.272  38.915 -19.594  1.00  0.00     0.209 HD
ENDBRANCH  29  30
ENDBRANCH  25  29
BRANCH  26  32
HETATM   32  O5  UNL     1      -3.816  39.660 -20.169  1.00  0.00    -0.390 OA
HETATM   33  H42 UNL     1      -2.854  39.479 -20.140  1.00  0.00     0.210 HD
ENDBRANCH  26  32
BRANCH  27  34
HETATM   34  O6  UNL     1      -2.143  38.678 -18.076  1.00  0.00    -0.390 OA
HETATM   35  H44 UNL     1      -2.464  37.775 -17.875  1.00  0.00     0.210 HD
ENDBRANCH  27  34
BRANCH  28  36
HETATM   36  O7  UNL     1      -1.628  41.127 -18.800  1.00  0.00    -0.388 OA
HETATM   37  H46 UNL     1      -1.077  40.330 -18.641  1.00  0.00     0.210 HD
ENDBRANCH  28  36
ENDBRANCH  22  23
ENDBRANCH  13  22
BRANCH  17  38
HETATM   38  C33 UNL     1      -5.001  48.184 -21.259  1.00  0.00     0.174 C 
BRANCH  38  39
HETATM   39  O8  UNL     1      -4.914  47.350 -22.401  1.00  0.00    -0.400 OA
HETATM   40  H55 UNL     1      -5.765  47.404 -22.874  1.00  0.00     0.209 HD
ENDBRANCH  38  39
ENDBRANCH  17  38
BRANCH   1  41
HETATM   41  C8  UNL     1       0.686  51.786 -21.025  1.00  0.00    -0.010 C 
HETATM   42  C9  UNL     1       1.664  52.745 -20.317  1.00  0.00     0.010 C 
BRANCH  41  43
HETATM   43  C7  UNL     1       0.106  52.440 -22.306  1.00  0.00     0.031 C 
BRANCH  43  44
HETATM   44  C6  UNL     1       0.772  52.144 -23.627  1.00  0.00    -0.027 C 
HETATM   45  C5  UNL     1       0.074  52.083 -24.775  1.00  0.00     0.006 C 
BRANCH  45  46
HETATM   46  C2  UNL     1       0.593  51.836 -26.181  1.00  0.00     0.070 C 
HETATM   47  C3  UNL     1       1.931  51.077 -26.060  1.00  0.00     0.050 C 
HETATM   48  C4  UNL     1      -0.327  51.015 -27.099  1.00  0.00     0.050 C 
BRANCH  46  49
HETATM   49  O1  UNL     1       0.935  53.103 -26.772  1.00  0.00    -0.382 OA
HETATM   50  C1  UNL     1      -0.149  54.008 -26.959  1.00  0.00     0.202 C 
ENDBRANCH  46  49
ENDBRANCH  45  46
ENDBRANCH  43  44
ENDBRANCH  41  43
ENDBRANCH   1  41
TORSDOF 14
ENDMDL
MODEL 5
REMARK minimizedAffinity -8.37972164
REMARK CNNscore 0.346134394
REMARK CNNaffinity 6.71090555
REMARK  14 active torsions:
REMARK  status: ('A' for Active; 'I' for Inactive)
REMARK    1  A    between atoms: O1_2  and  C2_3 
REMARK    2  A    between atoms: C2_3  and  C5_6 
REMARK    3  A    between atoms: C6_7  and  C7_8 
REMARK    4  A    between atoms: C7_8  and  C8_9 
REMARK    5  A    between atoms: C8_9  and  C10_11 
REMARK    6  A    between atoms: C22_23  and  O2_24 
REMARK    7  A    between atoms: O2_24  and  C23_25 
REMARK    8  A    between atoms: C24_27  and  C25_28 
REMARK    9  A    between atoms: C25_28  and  O4_29 
REMARK   10  A    between atoms: C26_30  and  O5_31 
REMARK   11  A    between atoms: C27_32  and  O6_33 
REMARK   12  A    between atoms: C28_34  and  O7_35 
REMARK   13  A    between atoms: C32_39  and  C33_40 
REMARK   14  A    between atoms: C33_40  and  O8_41 
ROOT
HETATM    1  C10 UNL     1      -2.043  50.159 -21.317  1.00  0.00    -0.002 C 
HETATM    2  C11 UNL     1      -2.364  50.962 -20.030  1.00  0.00     0.006 C 
HETATM    3  C12 UNL     1      -3.848  50.688 -19.683  1.00  0.00     0.011 C 
HETATM    4  C13 UNL     1      -4.287  49.538 -20.622  1.00  0.00    -0.032 C 
HETATM    5  C14 UNL     1      -3.840  48.224 -19.904  1.00  0.00     0.016 C 
HETATM    6  C15 UNL     1      -5.811  49.490 -20.971  1.00  0.00     0.009 C 
HETATM    7  C16 UNL     1      -6.733  49.285 -19.754  1.00  0.00     0.033 C 
HETATM    8  C17 UNL     1      -7.085  47.868 -19.452  1.00  0.00    -0.022 C 
HETATM    9  C18 UNL     1      -6.942  46.828 -20.293  1.00  0.00    -0.068 C 
HETATM   10  C19 UNL     1      -6.429  47.023 -21.712  1.00  0.00     0.026 C 
HETATM   11  C20 UNL     1      -7.303  46.221 -22.716  1.00  0.00     0.012 C 
HETATM   12  C21 UNL     1      -7.700  44.810 -22.278  1.00  0.00     0.034 C 
HETATM   13  C22 UNL     1      -7.013  44.340 -21.001  1.00  0.00     0.136 C 
HETATM   14  C29 UNL     1      -7.241  45.377 -19.837  1.00  0.00     0.002 C 
HETATM   15  C30 UNL     1      -8.695  45.287 -19.297  1.00  0.00     0.022 C 
HETATM   16  C31 UNL     1      -6.283  44.987 -18.678  1.00  0.00     0.022 C 
HETATM   17  C32 UNL     1      -6.170  48.528 -22.186  1.00  0.00    -0.007 C 
HETATM   18  C34 UNL     1      -5.053  48.499 -23.312  1.00  0.00     0.013 C 
HETATM   19  C35 UNL     1      -3.591  48.716 -22.885  1.00  0.00     0.011 C 
HETATM   20  C36 UNL     1      -3.464  49.897 -21.916  1.00  0.00    -0.032 C 
HETATM   21  C37 UNL     1      -3.956  51.173 -22.663  1.00  0.00     0.016 C 
ENDROOT
BRANCH  13  22
HETATM   22  O2  UNL     1      -7.532  43.063 -20.597  1.00  0.00    -0.352 OA
BRANCH  22  23
HETATM   23  C23 UNL     1      -6.700  41.936 -20.886  1.00  0.00     0.292 C 
HETATM   24  O3  UNL     1      -7.336  41.090 -21.843  1.00  0.00    -0.348 OA
HETATM   25  C24 UNL     1      -6.490  40.025 -22.306  1.00  0.00     0.179 C 
HETATM   26  C26 UNL     1      -5.754  39.320 -21.148  1.00  0.00     0.180 C 
HETATM   27  C27 UNL     1      -6.442  39.641 -19.816  1.00  0.00     0.183 C 
HETATM   28  C28 UNL     1      -6.490  41.157 -19.562  1.00  0.00     0.204 C 
BRANCH  25  29
HETATM   29  C25 UNL     1      -7.383  39.048 -23.088  1.00  0.00     0.198 C 
BRANCH  29  30
HETATM   30  O4  UNL     1      -7.331  39.250 -24.495  1.00  0.00    -0.398 OA
HETATM   31  H40 UNL     1      -7.385  40.211 -24.665  1.00  0.00     0.209 HD
ENDBRANCH  29  30
ENDBRANCH  25  29
BRANCH  26  32
HETATM   32  O5  UNL     1      -4.400  39.803 -21.123  1.00  0.00    -0.390 OA
HETATM   33  H42 UNL     1      -4.119  39.828 -20.185  1.00  0.00     0.210 HD
ENDBRANCH  26  32
BRANCH  27  34
HETATM   34  O6  UNL     1      -5.740  39.014 -18.730  1.00  0.00    -0.390 OA
HETATM   35  H44 UNL     1      -5.888  38.049 -18.809  1.00  0.00     0.210 HD
ENDBRANCH  27  34
BRANCH  28  36
HETATM   36  O7  UNL     1      -5.275  41.571 -18.904  1.00  0.00    -0.388 OA
HETATM   37  H46 UNL     1      -5.143  40.898 -18.201  1.00  0.00     0.210 HD
ENDBRANCH  28  36
ENDBRANCH  22  23
ENDBRANCH  13  22
BRANCH  17  38
HETATM   38  C33 UNL     1      -7.436  49.140 -22.889  1.00  0.00     0.174 C 
BRANCH  38  39
HETATM   39  O8  UNL     1      -7.412  50.555 -22.952  1.00  0.00    -0.400 OA
HETATM   40  H55 UNL     1      -8.230  50.846 -23.395  1.00  0.00     0.209 HD
ENDBRANCH  38  39
ENDBRANCH  17  38
BRANCH   1  41
HETATM   41  C8  UNL     1      -0.921  50.720 -22.242  1.00  0.00    -0.010 C 
HETATM   42  C9  UNL     1      -0.426  52.079 -21.708  1.00  0.00     0.010 C 
BRANCH  41  43
HETATM   43  C7  UNL     1      -1.194  50.798 -23.767  1.00  0.00     0.031 C 
BRANCH  43  44
HETATM   44  C6  UNL     1      -0.353  51.732 -24.601  1.00  0.00    -0.027 C 
HETATM   45  C5  UNL     1      -0.282  51.619 -25.939  1.00  0.00     0.006 C 
BRANCH  45  46
HETATM   46  C2  UNL     1       0.481  52.495 -26.918  1.00  0.00     0.070 C 
HETATM   47  C3  UNL     1       0.549  51.744 -28.264  1.00  0.00     0.050 C 
HETATM   48  C4  UNL     1      -0.128  53.881 -27.189  1.00  0.00     0.050 C 
BRANCH  46  49
HETATM   49  O1  UNL     1       1.846  52.595 -26.477  1.00  0.00    -0.382 OA
HETATM   50  C1  UNL     1       2.690  51.503 -26.833  1.00  0.00     0.202 C 
ENDBRANCH  46  49
ENDBRANCH  45  46
ENDBRANCH  43  44
ENDBRANCH  41  43
ENDBRANCH   1  41
TORSDOF 14
ENDMDL
MODEL 6
REMARK minimizedAffinity -7.60691643
REMARK CNNscore 0.333069623
REMARK CNNaffinity 6.18453264
REMARK  14 active torsions:
REMARK  status: ('A' for Active; 'I' for Inactive)
REMARK    1  A    between atoms: O1_2  and  C2_3 
REMARK    2  A    between atoms: C2_3  and  C5_6 
REMARK    3  A    between atoms: C6_7  and  C7_8 
REMARK    4  A    between atoms: C7_8  and  C8_9 
REMARK    5  A    between atoms: C8_9  and  C10_11 
REMARK    6  A    between atoms: C22_23  and  O2_24 
REMARK    7  A    between atoms: O2_24  and  C23_25 
REMARK    8  A    between atoms: C24_27  and  C25_28 
REMARK    9  A    between atoms: C25_28  and  O4_29 
REMARK   10  A    between atoms: C26_30  and  O5_31 
REMARK   11  A    between atoms: C27_32  and  O6_33 
REMARK   12  A    between atoms: C28_34  and  O7_35 
REMARK   13  A    between atoms: C32_39  and  C33_40 
REMARK   14  A    between atoms: C33_40  and  O8_41 
ROOT
HETATM    1  C10 UNL     1     -16.370  45.761 -21.389  1.00  0.00    -0.002 C 
HETATM    2  C11 UNL     1     -16.465  44.295 -20.895  1.00  0.00     0.006 C 
HETATM    3  C12 UNL     1     -16.353  43.387 -22.145  1.00  0.00     0.011 C 
HETATM    4  C13 UNL     1     -15.941  44.328 -23.304  1.00  0.00    -0.032 C 
HETATM    5  C14 UNL     1     -14.386  44.446 -23.207  1.00  0.00     0.016 C 
HETATM    6  C15 UNL     1     -16.377  43.872 -24.736  1.00  0.00     0.009 C 
HETATM    7  C16 UNL     1     -15.775  42.526 -25.181  1.00  0.00     0.033 C 
HETATM    8  C17 UNL     1     -14.499  42.619 -25.948  1.00  0.00    -0.022 C 
HETATM    9  C18 UNL     1     -14.016  43.728 -26.535  1.00  0.00    -0.068 C 
HETATM   10  C19 UNL     1     -14.790  45.038 -26.509  1.00  0.00     0.026 C 
HETATM   11  C20 UNL     1     -14.790  45.691 -27.919  1.00  0.00     0.012 C 
HETATM   12  C21 UNL     1     -13.460  45.653 -28.674  1.00  0.00     0.034 C 
HETATM   13  C22 UNL     1     -12.288  45.145 -27.841  1.00  0.00     0.136 C 
HETATM   14  C29 UNL     1     -12.624  43.738 -27.216  1.00  0.00     0.002 C 
HETATM   15  C30 UNL     1     -12.564  42.625 -28.299  1.00  0.00     0.022 C 
HETATM   16  C31 UNL     1     -11.526  43.428 -26.162  1.00  0.00     0.022 C 
HETATM   17  C32 UNL     1     -16.245  45.004 -25.846  1.00  0.00    -0.007 C 
HETATM   18  C34 UNL     1     -16.565  46.458 -25.298  1.00  0.00     0.013 C 
HETATM   19  C35 UNL     1     -16.246  46.761 -23.823  1.00  0.00     0.011 C 
HETATM   20  C36 UNL     1     -16.730  45.632 -22.907  1.00  0.00    -0.032 C 
HETATM   21  C37 UNL     1     -18.276  45.528 -23.066  1.00  0.00     0.016 C 
ENDROOT
BRANCH  13  22
HETATM   22  O2  UNL     1     -11.112  45.025 -28.657  1.00  0.00    -0.352 OA
BRANCH  22  23
HETATM   23  C23 UNL     1     -10.623  46.243 -29.223  1.00  0.00     0.292 C 
HETATM   24  O3  UNL     1      -9.515  45.974 -30.081  1.00  0.00    -0.348 OA
HETATM   25  C24 UNL     1      -9.076  47.130 -30.814  1.00  0.00     0.179 C 
HETATM   26  C26 UNL     1      -8.965  48.381 -29.920  1.00  0.00     0.180 C 
HETATM   27  C27 UNL     1      -8.924  47.969 -28.443  1.00  0.00     0.183 C 
HETATM   28  C28 UNL     1     -10.169  47.154 -28.055  1.00  0.00     0.204 C 
BRANCH  25  29
HETATM   29  C25 UNL     1      -7.726  46.769 -31.455  1.00  0.00     0.198 C 
BRANCH  29  30
HETATM   30  O4  UNL     1      -6.983  45.823 -30.697  1.00  0.00    -0.398 OA
HETATM   31  H40 UNL     1      -7.028  46.087 -29.757  1.00  0.00     0.209 HD
ENDBRANCH  29  30
ENDBRANCH  25  29
BRANCH  26  32
HETATM   32  O5  UNL     1     -10.120  49.203 -30.161  1.00  0.00    -0.390 OA
HETATM   33  H42 UNL     1     -10.349  49.636 -29.313  1.00  0.00     0.210 HD
ENDBRANCH  26  32
BRANCH  27  34
HETATM   34  O6  UNL     1      -8.854  49.134 -27.604  1.00  0.00    -0.390 OA
HETATM   35  H44 UNL     1      -7.967  49.529 -27.730  1.00  0.00     0.210 HD
ENDBRANCH  27  34
BRANCH  28  36
HETATM   36  O7  UNL     1     -11.224  48.053 -27.657  1.00  0.00    -0.388 OA
HETATM   37  H46 UNL     1     -10.778  48.696 -27.063  1.00  0.00     0.210 HD
ENDBRANCH  28  36
ENDBRANCH  22  23
ENDBRANCH  13  22
BRANCH  17  38
HETATM   38  C33 UNL     1     -17.362  44.721 -26.915  1.00  0.00     0.174 C 
BRANCH  38  39
HETATM   39  O8  UNL     1     -18.471  45.596 -26.811  1.00  0.00    -0.400 OA
HETATM   40  H55 UNL     1     -19.111  45.348 -27.504  1.00  0.00     0.209 HD
ENDBRANCH  38  39
ENDBRANCH  17  38
BRANCH   1  41
HETATM   41  C8  UNL     1     -17.086  46.848 -20.530  1.00  0.00    -0.010 C 
HETATM   42  C9  UNL     1     -16.369  47.004 -19.174  1.00  0.00     0.010 C 
BRANCH  41  43
HETATM   43  C7  UNL     1     -18.620  46.735 -20.329  1.00  0.00     0.031 C 
BRANCH  43  44
HETATM   44  C6  UNL     1     -19.138  45.792 -19.272  1.00  0.00    -0.027 C 
HETATM   45  C5  UNL     1     -19.621  44.576 -19.581  1.00  0.00     0.006 C 
BRANCH  45  46
HETATM   46  C2  UNL     1     -20.140  43.502 -18.641  1.00  0.00     0.070 C 
HETATM   47  C3  UNL     1     -20.009  42.144 -19.363  1.00  0.00     0.050 C 
HETATM   48  C4  UNL     1     -19.410  43.384 -17.292  1.00  0.00     0.050 C 
BRANCH  46  49
HETATM   49  O1  UNL     1     -21.554  43.694 -18.462  1.00  0.00    -0.382 OA
HETATM   50  C1  UNL     1     -22.356  42.524 -18.592  1.00  0.00     0.202 C 
ENDBRANCH  46  49
ENDBRANCH  45  46
ENDBRANCH  43  44
ENDBRANCH  41  43
ENDBRANCH   1  41
TORSDOF 14
ENDMDL
MODEL 7
REMARK minimizedAffinity -7.69467354
REMARK CNNscore 0.321057171
REMARK CNNaffinity 6.41364145
REMARK  14 active torsions:
REMARK  status: ('A' for Active; 'I' for Inactive)
REMARK    1  A    between atoms: O1_2  and  C2_3 
REMARK    2  A    between atoms: C2_3  and  C5_6 
REMARK    3  A    between atoms: C6_7  and  C7_8 
REMARK    4  A    between atoms: C7_8  and  C8_9 
REMARK    5  A    between atoms: C8_9  and  C10_11 
REMARK    6  A    between atoms: C22_23  and  O2_24 
REMARK    7  A    between atoms: O2_24  and  C23_25 
REMARK    8  A    between atoms: C24_27  and  C25_28 
REMARK    9  A    between atoms: C25_28  and  O4_29 
REMARK   10  A    between atoms: C26_30  and  O5_31 
REMARK   11  A    between atoms: C27_32  and  O6_33 
REMARK   12  A    between atoms: C28_34  and  O7_35 
REMARK   13  A    between atoms: C32_39  and  C33_40 
REMARK   14  A    between atoms: C33_40  and  O8_41 
ROOT
HETATM    1  C10 UNL     1      -2.621  49.832 -21.655  1.00  0.00    -0.002 C 
HETATM    2  C11 UNL     1      -1.649  48.625 -21.633  1.00  0.00     0.006 C 
HETATM    3  C12 UNL     1      -2.475  47.384 -21.211  1.00  0.00     0.011 C 
HETATM    4  C13 UNL     1      -3.954  47.842 -21.244  1.00  0.00    -0.032 C 
HETATM    5  C14 UNL     1      -4.405  47.680 -22.731  1.00  0.00     0.016 C 
HETATM    6  C15 UNL     1      -4.923  47.078 -20.282  1.00  0.00     0.009 C 
HETATM    7  C16 UNL     1      -5.043  45.570 -20.573  1.00  0.00     0.033 C 
HETATM    8  C17 UNL     1      -6.158  45.182 -21.485  1.00  0.00    -0.022 C 
HETATM    9  C18 UNL     1      -7.212  45.953 -21.804  1.00  0.00    -0.068 C 
HETATM   10  C19 UNL     1      -7.395  47.336 -21.197  1.00  0.00     0.026 C 
HETATM   11  C20 UNL     1      -8.866  47.531 -20.733  1.00  0.00     0.012 C 
HETATM   12  C21 UNL     1      -9.942  47.013 -21.689  1.00  0.00     0.034 C 
HETATM   13  C22 UNL     1      -9.405  46.557 -23.040  1.00  0.00     0.136 C 
HETATM   14  C29 UNL     1      -8.261  45.491 -22.848  1.00  0.00     0.002 C 
HETATM   15  C30 UNL     1      -8.853  44.119 -22.422  1.00  0.00     0.022 C 
HETATM   16  C31 UNL     1      -7.573  45.299 -24.228  1.00  0.00     0.022 C 
HETATM   17  C32 UNL     1      -6.335  47.783 -20.087  1.00  0.00    -0.007 C 
HETATM   18  C34 UNL     1      -6.251  49.367 -20.102  1.00  0.00     0.013 C 
HETATM   19  C35 UNL     1      -5.155  50.024 -20.960  1.00  0.00     0.011 C 
HETATM   20  C36 UNL     1      -3.802  49.333 -20.757  1.00  0.00    -0.032 C 
HETATM   21  C37 UNL     1      -3.415  49.488 -19.256  1.00  0.00     0.016 C 
ENDROOT
BRANCH  13  22
HETATM   22  O2  UNL     1     -10.458  45.975 -23.825  1.00  0.00    -0.352 OA
BRANCH  22  23
HETATM   23  C23 UNL     1     -11.058  46.838 -24.795  1.00  0.00     0.292 C 
HETATM   24  O3  UNL     1     -12.322  46.314 -25.202  1.00  0.00    -0.348 OA
HETATM   25  C24 UNL     1     -13.057  47.211 -26.051  1.00  0.00     0.179 C 
HETATM   26  C26 UNL     1     -12.175  47.818 -27.161  1.00  0.00     0.180 C 
HETATM   27  C27 UNL     1     -10.898  46.986 -27.330  1.00  0.00     0.183 C 
HETATM   28  C28 UNL     1     -10.105  46.905 -26.015  1.00  0.00     0.204 C 
BRANCH  25  29
HETATM   29  C25 UNL     1     -14.234  46.414 -26.635  1.00  0.00     0.198 C 
BRANCH  29  30
HETATM   30  O4  UNL     1     -14.513  45.220 -25.912  1.00  0.00    -0.398 OA
HETATM   31  H40 UNL     1     -13.662  44.777 -25.723  1.00  0.00     0.209 HD
ENDBRANCH  29  30
ENDBRANCH  25  29
BRANCH  26  32
HETATM   32  O5  UNL     1     -11.832  49.159 -26.772  1.00  0.00    -0.390 OA
HETATM   33  H42 UNL     1     -10.928  49.334 -27.107  1.00  0.00     0.210 HD
ENDBRANCH  26  32
BRANCH  27  34
HETATM   34  O6  UNL     1     -10.057  47.567 -28.341  1.00  0.00    -0.390 OA
HETATM   35  H44 UNL     1     -10.504  47.432 -29.202  1.00  0.00     0.210 HD
ENDBRANCH  27  34
BRANCH  28  36
HETATM   36  O7  UNL     1      -9.218  48.038 -25.920  1.00  0.00    -0.388 OA
HETATM   37  H46 UNL     1      -8.806  48.094 -26.810  1.00  0.00     0.210 HD
ENDBRANCH  28  36
ENDBRANCH  22  23
ENDBRANCH  13  22
BRANCH  17  38
HETATM   38  C33 UNL     1      -6.825  47.419 -18.638  1.00  0.00     0.174 C 
BRANCH  38  39
HETATM   39  O8  UNL     1      -6.452  48.378 -17.663  1.00  0.00    -0.400 OA
HETATM   40  H55 UNL     1      -6.791  48.072 -16.801  1.00  0.00     0.209 HD
ENDBRANCH  38  39
ENDBRANCH  17  38
BRANCH   1  41
HETATM   41  C8  UNL     1      -2.010  51.241 -21.388  1.00  0.00    -0.010 C 
HETATM   42  C9  UNL     1      -2.092  52.102 -22.665  1.00  0.00     0.010 C 
BRANCH  41  43
HETATM   43  C7  UNL     1      -0.592  51.323 -20.763  1.00  0.00     0.031 C 
BRANCH  43  44
HETATM   44  C6  UNL     1      -0.476  51.568 -19.279  1.00  0.00    -0.027 C 
HETATM   45  C5  UNL     1      -0.311  50.560 -18.405  1.00  0.00     0.006 C 
BRANCH  45  46
HETATM   46  C2  UNL     1      -0.139  50.640 -16.897  1.00  0.00     0.070 C 
HETATM   47  C3  UNL     1      -1.542  50.797 -16.273  1.00  0.00     0.050 C 
HETATM   48  C4  UNL     1       0.532  49.425 -16.235  1.00  0.00     0.050 C 
BRANCH  46  49
HETATM   49  O1  UNL     1       0.549  51.862 -16.579  1.00  0.00    -0.382 OA
HETATM   50  C1  UNL     1       1.830  51.709 -15.974  1.00  0.00     0.202 C 
ENDBRANCH  46  49
ENDBRANCH  45  46
ENDBRANCH  43  44
ENDBRANCH  41  43
ENDBRANCH   1  41
TORSDOF 14
ENDMDL
MODEL 8
REMARK minimizedAffinity -7.01939106
REMARK CNNscore 0.31680283
REMARK CNNaffinity 6.10884619
REMARK  14 active torsions:
REMARK  status: ('A' for Active; 'I' for Inactive)
REMARK    1  A    between atoms: O1_2  and  C2_3 
REMARK    2  A    between atoms: C2_3  and  C5_6 
REMARK    3  A    between atoms: C6_7  and  C7_8 
REMARK    4  A    between atoms: C7_8  and  C8_9 
REMARK    5  A    between atoms: C8_9  and  C10_11 
REMARK    6  A    between atoms: C22_23  and  O2_24 
REMARK    7  A    between atoms: O2_24  and  C23_25 
REMARK    8  A    between atoms: C24_27  and  C25_28 
REMARK    9  A    between atoms: C25_28  and  O4_29 
REMARK   10  A    between atoms: C26_30  and  O5_31 
REMARK   11  A    between atoms: C27_32  and  O6_33 
REMARK   12  A    between atoms: C28_34  and  O7_35 
REMARK   13  A    between atoms: C32_39  and  C33_40 
REMARK   14  A    between atoms: C33_40  and  O8_41 
ROOT
HETATM    1  C10 UNL     1     -13.446  44.788 -27.449  1.00  0.00    -0.002 C 
HETATM    2  C11 UNL     1     -14.285  45.908 -28.115  1.00  0.00     0.006 C 
HETATM    3  C12 UNL     1     -13.293  46.842 -28.851  1.00  0.00     0.011 C 
HETATM    4  C13 UNL     1     -11.930  46.108 -28.813  1.00  0.00    -0.032 C 
HETATM    5  C14 UNL     1     -11.956  45.123 -30.025  1.00  0.00     0.016 C 
HETATM    6  C15 UNL     1     -10.663  47.025 -28.869  1.00  0.00     0.009 C 
HETATM    7  C16 UNL     1     -10.545  47.863 -30.156  1.00  0.00     0.033 C 
HETATM    8  C17 UNL     1      -9.749  47.240 -31.253  1.00  0.00    -0.022 C 
HETATM    9  C18 UNL     1      -8.897  46.209 -31.114  1.00  0.00    -0.068 C 
HETATM   10  C19 UNL     1      -8.621  45.587 -29.753  1.00  0.00     0.026 C 
HETATM   11  C20 UNL     1      -7.094  45.368 -29.560  1.00  0.00     0.012 C 
HETATM   12  C21 UNL     1      -6.340  44.818 -30.772  1.00  0.00     0.034 C 
HETATM   13  C22 UNL     1      -7.242  44.390 -31.923  1.00  0.00     0.136 C 
HETATM   14  C29 UNL     1      -8.200  45.569 -32.342  1.00  0.00     0.002 C 
HETATM   15  C30 UNL     1      -7.420  46.660 -33.127  1.00  0.00     0.022 C 
HETATM   16  C31 UNL     1      -9.271  44.976 -33.298  1.00  0.00     0.022 C 
HETATM   17  C32 UNL     1      -9.307  46.284 -28.488  1.00  0.00    -0.007 C 
HETATM   18  C34 UNL     1      -9.491  45.182 -27.364  1.00  0.00     0.013 C 
HETATM   19  C35 UNL     1     -10.839  44.443 -27.290  1.00  0.00     0.011 C 
HETATM   20  C36 UNL     1     -12.015  45.420 -27.399  1.00  0.00    -0.032 C 
HETATM   21  C37 UNL     1     -11.924  46.402 -26.193  1.00  0.00     0.016 C 
ENDROOT
BRANCH  13  22
HETATM   22  O2  UNL     1      -6.452  44.004 -33.059  1.00  0.00    -0.352 OA
BRANCH  22  23
HETATM   23  C23 UNL     1      -6.280  42.597 -33.246  1.00  0.00     0.292 C 
HETATM   24  O3  UNL     1      -4.892  42.282 -33.340  1.00  0.00    -0.348 OA
HETATM   25  C24 UNL     1      -4.635  40.868 -33.362  1.00  0.00     0.179 C 
HETATM   26  C26 UNL     1      -5.576  40.119 -34.327  1.00  0.00     0.180 C 
HETATM   27  C27 UNL     1      -6.217  41.108 -35.309  1.00  0.00     0.183 C 
HETATM   28  C28 UNL     1      -6.993  42.209 -34.566  1.00  0.00     0.204 C 
BRANCH  25  29
HETATM   29  C25 UNL     1      -3.160  40.685 -33.754  1.00  0.00     0.198 C 
BRANCH  29  30
HETATM   30  O4  UNL     1      -2.261  41.346 -32.871  1.00  0.00    -0.398 OA
HETATM   31  H40 UNL     1      -2.617  42.238 -32.691  1.00  0.00     0.209 HD
ENDBRANCH  29  30
ENDBRANCH  25  29
BRANCH  26  32
HETATM   32  O5  UNL     1      -6.600  39.482 -33.544  1.00  0.00    -0.390 OA
HETATM   33  H42 UNL     1      -7.423  39.498 -34.075  1.00  0.00     0.210 HD
ENDBRANCH  26  32
BRANCH  27  34
HETATM   34  O6  UNL     1      -7.121  40.419 -36.189  1.00  0.00    -0.390 OA
HETATM   35  H44 UNL     1      -6.578  39.863 -36.785  1.00  0.00     0.210 HD
ENDBRANCH  27  34
BRANCH  28  36
HETATM   36  O7  UNL     1      -8.340  41.759 -34.317  1.00  0.00    -0.388 OA
HETATM   37  H46 UNL     1      -8.623  41.366 -35.171  1.00  0.00     0.210 HD
ENDBRANCH  28  36
ENDBRANCH  22  23
ENDBRANCH  13  22
BRANCH  17  38
HETATM   38  C33 UNL     1      -8.367  47.367 -27.843  1.00  0.00     0.174 C 
BRANCH  38  39
HETATM   39  O8  UNL     1      -8.311  48.573 -28.584  1.00  0.00    -0.400 OA
HETATM   40  H55 UNL     1      -7.707  49.180 -28.118  1.00  0.00     0.209 HD
ENDBRANCH  38  39
ENDBRANCH  17  38
BRANCH   1  41
HETATM   41  C8  UNL     1     -14.031  44.133 -26.160  1.00  0.00    -0.010 C 
HETATM   42  C9  UNL     1     -14.509  42.700 -26.468  1.00  0.00     0.010 C 
BRANCH  41  43
HETATM   43  C7  UNL     1     -15.111  44.912 -25.364  1.00  0.00     0.031 C 
BRANCH  43  44
HETATM   44  C6  UNL     1     -16.547  44.813 -25.816  1.00  0.00    -0.027 C 
HETATM   45  C5  UNL     1     -17.572  44.975 -24.961  1.00  0.00     0.006 C 
BRANCH  45  46
HETATM   46  C2  UNL     1     -19.061  44.946 -25.261  1.00  0.00     0.070 C 
HETATM   47  C3  UNL     1     -19.242  44.383 -26.686  1.00  0.00     0.050 C 
HETATM   48  C4  UNL     1     -19.918  44.092 -24.311  1.00  0.00     0.050 C 
BRANCH  46  49
HETATM   49  O1  UNL     1     -19.541  46.300 -25.332  1.00  0.00    -0.382 OA
HETATM   50  C1  UNL     1     -18.994  47.199 -24.370  1.00  0.00     0.202 C 
ENDBRANCH  46  49
ENDBRANCH  45  46
ENDBRANCH  43  44
ENDBRANCH  41  43
ENDBRANCH   1  41
TORSDOF 14
ENDMDL
MODEL 9
REMARK minimizedAffinity -9.69730759
REMARK CNNscore 0.311761767
REMARK CNNaffinity 7.3058486
REMARK  14 active torsions:
REMARK  status: ('A' for Active; 'I' for Inactive)
REMARK    1  A    between atoms: O1_2  and  C2_3 
REMARK    2  A    between atoms: C2_3  and  C5_6 
REMARK    3  A    between atoms: C6_7  and  C7_8 
REMARK    4  A    between atoms: C7_8  and  C8_9 
REMARK    5  A    between atoms: C8_9  and  C10_11 
REMARK    6  A    between atoms: C22_23  and  O2_24 
REMARK    7  A    between atoms: O2_24  and  C23_25 
REMARK    8  A    between atoms: C24_27  and  C25_28 
REMARK    9  A    between atoms: C25_28  and  O4_29 
REMARK   10  A    between atoms: C26_30  and  O5_31 
REMARK   11  A    between atoms: C27_32  and  O6_33 
REMARK   12  A    between atoms: C28_34  and  O7_35 
REMARK   13  A    between atoms: C32_39  and  C33_40 
REMARK   14  A    between atoms: C33_40  and  O8_41 
ROOT
HETATM    1  C10 UNL     1      -3.152  50.601 -25.216  1.00  0.00    -0.002 C 
HETATM    2  C11 UNL     1      -3.644  52.064 -25.068  1.00  0.00     0.006 C 
HETATM    3  C12 UNL     1      -4.126  52.236 -23.607  1.00  0.00     0.011 C 
HETATM    4  C13 UNL     1      -3.669  50.954 -22.868  1.00  0.00    -0.032 C 
HETATM    5  C14 UNL     1      -2.188  51.222 -22.449  1.00  0.00     0.016 C 
HETATM    6  C15 UNL     1      -4.532  50.540 -21.630  1.00  0.00     0.009 C 
HETATM    7  C16 UNL     1      -4.548  51.581 -20.494  1.00  0.00     0.033 C 
HETATM    8  C17 UNL     1      -3.515  51.387 -19.436  1.00  0.00    -0.022 C 
HETATM    9  C18 UNL     1      -2.813  50.260 -19.222  1.00  0.00    -0.068 C 
HETATM   10  C19 UNL     1      -3.058  49.007 -20.051  1.00  0.00     0.026 C 
HETATM   11  C20 UNL     1      -3.132  47.758 -19.128  1.00  0.00     0.012 C 
HETATM   12  C21 UNL     1      -2.093  47.692 -18.007  1.00  0.00     0.034 C 
HETATM   13  C22 UNL     1      -1.023  48.774 -18.088  1.00  0.00     0.136 C 
HETATM   14  C29 UNL     1      -1.685  50.202 -18.161  1.00  0.00     0.002 C 
HETATM   15  C30 UNL     1      -2.250  50.618 -16.775  1.00  0.00     0.022 C 
HETATM   16  C31 UNL     1      -0.566  51.211 -18.535  1.00  0.00     0.022 C 
HETATM   17  C32 UNL     1      -4.255  49.063 -21.109  1.00  0.00    -0.007 C 
HETATM   18  C34 UNL     1      -3.923  48.040 -22.275  1.00  0.00     0.013 C 
HETATM   19  C35 UNL     1      -3.211  48.580 -23.528  1.00  0.00     0.011 C 
HETATM   20  C36 UNL     1      -3.850  49.886 -24.011  1.00  0.00    -0.032 C 
HETATM   21  C37 UNL     1      -5.332  49.576 -24.381  1.00  0.00     0.016 C 
ENDROOT
BRANCH  13  22
HETATM   22  O2  UNL     1      -0.165  48.715 -16.937  1.00  0.00    -0.352 OA
BRANCH  22  23
HETATM   23  C23 UNL     1      -0.148  49.886 -16.116  1.00  0.00     0.292 C 
HETATM   24  O3  UNL     1       1.071  50.602 -16.311  1.00  0.00    -0.348 OA
HETATM   25  C24 UNL     1       1.089  51.875 -15.643  1.00  0.00     0.179 C 
HETATM   26  C26 UNL     1       0.572  51.781 -14.194  1.00  0.00     0.180 C 
HETATM   27  C27 UNL     1       0.595  50.322 -13.722  1.00  0.00     0.183 C 
HETATM   28  C28 UNL     1      -0.250  49.424 -14.640  1.00  0.00     0.204 C 
BRANCH  25  29
HETATM   29  C25 UNL     1       2.537  52.389 -15.696  1.00  0.00     0.198 C 
BRANCH  29  30
HETATM   30  O4  UNL     1       2.721  53.444 -16.633  1.00  0.00    -0.398 OA
HETATM   31  H40 UNL     1       2.254  53.201 -17.456  1.00  0.00     0.209 HD
ENDBRANCH  29  30
ENDBRANCH  25  29
BRANCH  26  32
HETATM   32  O5  UNL     1      -0.778  52.276 -14.171  1.00  0.00    -0.390 OA
HETATM   33  H42 UNL     1      -1.266  51.756 -13.499  1.00  0.00     0.210 HD
ENDBRANCH  26  32
BRANCH  27  34
HETATM   34  O6  UNL     1       0.082  50.226 -12.382  1.00  0.00    -0.390 OA
HETATM   35  H44 UNL     1       0.740  50.642 -11.789  1.00  0.00     0.210 HD
ENDBRANCH  27  34
BRANCH  28  36
HETATM   36  O7  UNL     1      -1.619  49.429 -14.187  1.00  0.00    -0.388 OA
HETATM   37  H46 UNL     1      -1.550  49.313 -13.215  1.00  0.00     0.210 HD
ENDBRANCH  28  36
ENDBRANCH  22  23
ENDBRANCH  13  22
BRANCH  17  38
HETATM   38  C33 UNL     1      -5.603  48.543 -20.487  1.00  0.00     0.174 C 
BRANCH  38  39
HETATM   39  O8  UNL     1      -5.926  49.163 -19.255  1.00  0.00    -0.400 OA
HETATM   40  H55 UNL     1      -6.767  48.781 -18.942  1.00  0.00     0.209 HD
ENDBRANCH  38  39
ENDBRANCH  17  38
BRANCH   1  41
HETATM   41  C8  UNL     1      -3.242  49.961 -26.634  1.00  0.00    -0.010 C 
HETATM   42  C9  UNL     1      -2.980  48.444 -26.546  1.00  0.00     0.010 C 
BRANCH  41  43
HETATM   43  C7  UNL     1      -2.413  50.595 -27.783  1.00  0.00     0.031 C 
BRANCH  43  44
HETATM   44  C6  UNL     1      -1.310  51.559 -27.423  1.00  0.00    -0.027 C 
HETATM   45  C5  UNL     1      -0.228  51.171 -26.727  1.00  0.00     0.006 C 
BRANCH  45  46
HETATM   46  C2  UNL     1       0.978  52.000 -26.321  1.00  0.00     0.070 C 
HETATM   47  C3  UNL     1       0.867  52.280 -24.808  1.00  0.00     0.050 C 
HETATM   48  C4  UNL     1       2.350  51.354 -26.575  1.00  0.00     0.050 C 
BRANCH  46  49
HETATM   49  O1  UNL     1       0.878  53.291 -26.948  1.00  0.00    -0.382 OA
HETATM   50  C1  UNL     1      -0.157  53.428 -27.916  1.00  0.00     0.202 C 
ENDBRANCH  46  49
ENDBRANCH  45  46
ENDBRANCH  43  44
ENDBRANCH  41  43
ENDBRANCH   1  41
TORSDOF 14
ENDMDL
