MODEL 1
REMARK minimizedAffinity -8.18611145
REMARK CNNscore 0.35180065
REMARK CNNaffinity 7.64068604
REMARK  11 active torsions:
REMARK  status: ('A' for Active; 'I' for Inactive)
REMARK    1  A    between atoms: C13_13  and  S1_14 
REMARK    2  A    between atoms: C25_30  and  O5_31 
REMARK    3  A    between atoms: C31_37  and  C32_38 
REMARK    4  A    between atoms: C32_38  and  O6_39 
REMARK    5  A    between atoms: C40_47  and  C41_48 
REMARK    6  A    between atoms: C40_47  and  N1_59 
REMARK    7  A    between atoms: C41_48  and  C42_49 
REMARK    8  A    between atoms: C42_49  and  C43_50 
REMARK    9  A    between atoms: C42_49  and  C44_52 
REMARK   10  A    between atoms: C43_50  and  O7_51 
REMARK   11  A    between atoms: C44_52  and  C45_53 
REMARK       I    between atoms: C51_61  and  N2_62 
REMARK       I    between atoms: C51_61  and  N3_63 
ROOT
HETATM    1  C1  UNL     1       1.524  52.280  -5.025  1.00  0.00     0.011 C 
HETATM    2  C2  UNL     1       2.829  52.657  -4.332  1.00  0.00    -0.009 C 
HETATM    3  C3  UNL     1       4.018  52.016  -5.064  1.00  0.00     0.009 C 
HETATM    4  C4  UNL     1       5.329  52.239  -4.316  1.00  0.00     0.039 C 
HETATM    5  C5  UNL     1       5.510  53.650  -3.826  1.00  0.00    -0.049 C 
HETATM    6  C6  UNL     1       6.791  54.199  -3.716  1.00  0.00     0.044 C 
HETATM    7  C7  UNL     1       6.942  55.537  -3.344  1.00  0.00     0.073 C 
HETATM    8  C8  UNL     1       5.875  56.247  -2.809  1.00  0.00     0.037 C 
HETATM    9  C9  UNL     1       4.598  55.704  -2.892  1.00  0.00     0.011 C 
HETATM   10  C10 UNL     1       4.403  54.456  -3.512  1.00  0.00    -0.046 C 
HETATM   11  C11 UNL     1       3.029  54.182  -4.153  1.00  0.00     0.037 C 
HETATM   12  C12 UNL     1       3.060  55.046  -5.455  1.00  0.00     0.126 C 
HETATM   13  C13 UNL     1       1.802  55.441  -6.231  1.00  0.00     0.153 C 
HETATM   14  C14 UNL     1       2.048  56.221  -7.604  1.00  0.00     0.053 C 
HETATM   15  C15 UNL     1       1.056  55.624  -8.634  1.00  0.00    -0.013 C 
HETATM   16  C16 UNL     1       1.363  55.365  -9.922  1.00  0.00    -0.050 C 
HETATM   17  C17 UNL     1       2.650  55.888 -10.486  1.00  0.00     0.043 C 
HETATM   18  C18 UNL     1       3.757  55.472  -9.512  1.00  0.00     0.014 C 
HETATM   19  C19 UNL     1       3.823  53.915  -9.269  1.00  0.00     0.039 C 
HETATM   20  C20 UNL     1       3.030  53.018 -10.266  1.00  0.00     0.130 C 
HETATM   21  O4  UNL     1       1.641  53.091  -9.922  1.00  0.00    -0.371 OA
HETATM   22  C21 UNL     1       0.901  54.115 -10.622  1.00  0.00     0.185 C 
HETATM   23  C22 UNL     1      -0.552  53.678 -10.716  1.00  0.00    -0.006 A 
HETATM   24  C23 UNL     1      -1.619  54.544 -10.436  1.00  0.00     0.014 A 
HETATM   25  C24 UNL     1      -2.940  54.121 -10.606  1.00  0.00     0.037 A 
HETATM   26  C25 UNL     1      -3.209  52.838 -11.071  1.00  0.00     0.067 A 
HETATM   27  C26 UNL     1      -2.178  51.956 -11.378  1.00  0.00     0.057 A 
HETATM   28  C27 UNL     1      -0.855  52.372 -11.211  1.00  0.00     0.029 A 
HETATM   29  C28 UNL     1       0.218  51.464 -11.525  1.00  0.00    -0.066 C 
HETATM   30  C29 UNL     1       1.308  50.959 -11.571  1.00  0.00    -0.101 C 
HETATM   31  C30 UNL     1       2.749  50.693 -11.406  1.00  0.00     0.103 C 
HETATM   32  C31 UNL     1       3.421  51.506 -10.246  1.00  0.00     0.049 C 
HETATM   33  C33 UNL     1       3.525  56.371  -8.235  1.00  0.00     0.100 C 
HETATM   34  C34 UNL     1       4.760  56.645  -7.370  1.00  0.00    -0.040 A 
HETATM   35  C35 UNL     1       4.768  57.757  -6.512  1.00  0.00     0.009 A 
HETATM   36  C36 UNL     1       5.849  58.008  -5.651  1.00  0.00     0.012 A 
HETATM   37  C37 UNL     1       6.976  57.166  -5.621  1.00  0.00    -0.003 A 
HETATM   38  C38 UNL     1       6.995  56.099  -6.534  1.00  0.00     0.012 A 
HETATM   39  C39 UNL     1       5.913  55.848  -7.393  1.00  0.00     0.009 A 
HETATM   40  C40 UNL     1       8.080  57.323  -4.526  1.00  0.00     0.171 C 
HETATM   41  O8  UNL     1       8.144  56.123  -3.652  1.00  0.00    -0.316 OA
HETATM   42 NA1  UNL     1       4.871  55.134  -7.004  1.00  0.00    -0.240 Na
ENDROOT
BRANCH  40  43
HETATM   43  C41 UNL     1       9.510  57.351  -5.183  1.00  0.00     0.074 C 
BRANCH  43  44
HETATM   44  C42 UNL     1      10.559  56.315  -4.710  1.00  0.00     0.018 C 
BRANCH  44  45
HETATM   45  C43 UNL     1      10.101  54.855  -4.769  1.00  0.00     0.169 C 
BRANCH  45  46
HETATM   46  O7  UNL     1      11.055  53.966  -4.217  1.00  0.00    -0.400 OA
HETATM   47  H45 UNL     1      10.568  53.362  -3.624  1.00  0.00     0.209 HD
ENDBRANCH  45  46
ENDBRANCH  44  45
BRANCH  44  48
HETATM   48  C44 UNL     1      11.152  56.690  -3.325  1.00  0.00     0.045 C 
BRANCH  48  49
HETATM   49  C45 UNL     1      12.195  57.779  -3.259  1.00  0.00    -0.058 A 
HETATM   50  C46 UNL     1      12.208  58.825  -4.190  1.00  0.00     0.007 A 
HETATM   51  C47 UNL     1      13.169  59.836  -4.113  1.00  0.00     0.001 A 
HETATM   52  C48 UNL     1      14.124  59.817  -3.100  1.00  0.00     0.000 A 
HETATM   53  C49 UNL     1      14.123  58.784  -2.165  1.00  0.00     0.001 A 
HETATM   54  C50 UNL     1      13.164  57.772  -2.243  1.00  0.00     0.007 A 
ENDBRANCH  48  49
ENDBRANCH  44  48
ENDBRANCH  43  44
ENDBRANCH  40  43
BRANCH  40  55
HETATM   55  N1  UNL     1       7.937  58.618  -3.820  1.00  0.00    -0.336 N 
HETATM   56  C51 UNL     1       8.316  58.754  -2.607  1.00  0.00     0.124 C 
HETATM   57  N2  UNL     1       8.213  59.967  -2.024  1.00  0.00    -0.279 NA
HETATM   58  N3  UNL     1       8.872  57.850  -1.774  1.00  0.00    -0.279 NA
HETATM   59  H53 UNL     1       7.829  59.962  -1.089  1.00  0.00     0.126 HD
HETATM   60  H54 UNL     1       7.691  60.597  -2.626  1.00  0.00     0.126 HD
HETATM   61  H55 UNL     1       8.758  56.889  -2.084  1.00  0.00     0.126 HD
HETATM   62  H56 UNL     1       8.688  57.961  -0.788  1.00  0.00     0.126 HD
ATOM     63  H1  UNL     1       7.530  59.414  -4.311  1.00  0.00     0.165 HD
ENDBRANCH  40  55
BRANCH  13  64
HETATM   64  S1  UNL     1       0.694  56.473  -5.198  1.00  0.00     0.108 S 
HETATM   65  O1  UNL     1       1.608  57.374  -4.496  1.00  0.00    -0.595 OA
HETATM   66  O2  UNL     1      -0.004  55.521  -4.337  1.00  0.00    -0.595 OA
HETATM   67  O3  UNL     1      -0.182  57.134  -6.163  1.00  0.00    -0.595 OA
ENDBRANCH  13  64
BRANCH  32  68
HETATM   68  C32 UNL     1       3.176  50.830  -8.887  1.00  0.00     0.172 C 
BRANCH  68  69
HETATM   69  O6  UNL     1       4.037  49.732  -8.640  1.00  0.00    -0.400 OA
HETATM   70  H34 UNL     1       4.083  49.212  -9.472  1.00  0.00     0.209 HD
ENDBRANCH  68  69
ENDBRANCH  32  68
BRANCH  26  71
HETATM   71  O5  UNL     1      -4.517  52.475 -11.222  1.00  0.00    -0.361 OA
HETATM   72  H27 UNL     1      -4.545  51.549 -11.510  1.00  0.00     0.217 HD
ENDBRANCH  26  71
TORSDOF 11
ENDMDL
MODEL 2
REMARK minimizedAffinity -9.66916943
REMARK CNNscore 0.226579204
REMARK CNNaffinity 7.47133303
REMARK  11 active torsions:
REMARK  status: ('A' for Active; 'I' for Inactive)
REMARK    1  A    between atoms: C13_13  and  S1_14 
REMARK    2  A    between atoms: C25_30  and  O5_31 
REMARK    3  A    between atoms: C31_37  and  C32_38 
REMARK    4  A    between atoms: C32_38  and  O6_39 
REMARK    5  A    between atoms: C40_47  and  C41_48 
REMARK    6  A    between atoms: C40_47  and  N1_59 
REMARK    7  A    between atoms: C41_48  and  C42_49 
REMARK    8  A    between atoms: C42_49  and  C43_50 
REMARK    9  A    between atoms: C42_49  and  C44_52 
REMARK   10  A    between atoms: C43_50  and  O7_51 
REMARK   11  A    between atoms: C44_52  and  C45_53 
REMARK       I    between atoms: C51_61  and  N2_62 
REMARK       I    between atoms: C51_61  and  N3_63 
ROOT
HETATM    1  C1  UNL     1       2.132  52.233  -5.146  1.00  0.00     0.011 C 
HETATM    2  C2  UNL     1       3.473  52.453  -4.454  1.00  0.00    -0.009 C 
HETATM    3  C3  UNL     1       4.595  51.769  -5.252  1.00  0.00     0.009 C 
HETATM    4  C4  UNL     1       5.929  51.831  -4.516  1.00  0.00     0.039 C 
HETATM    5  C5  UNL     1       6.234  53.185  -3.933  1.00  0.00    -0.049 C 
HETATM    6  C6  UNL     1       7.558  53.618  -3.811  1.00  0.00     0.044 C 
HETATM    7  C7  UNL     1       7.824  54.910  -3.350  1.00  0.00     0.073 C 
HETATM    8  C8  UNL     1       6.826  55.665  -2.746  1.00  0.00     0.037 C 
HETATM    9  C9  UNL     1       5.508  55.236  -2.842  1.00  0.00     0.011 C 
HETATM   10  C10 UNL     1       5.202  54.055  -3.542  1.00  0.00    -0.046 C 
HETATM   11  C11 UNL     1       3.801  53.939  -4.174  1.00  0.00     0.037 C 
HETATM   12  C12 UNL     1       3.886  54.888  -5.414  1.00  0.00     0.126 C 
HETATM   13  C13 UNL     1       2.654  55.438  -6.135  1.00  0.00     0.153 C 
HETATM   14  C14 UNL     1       2.945  56.291  -7.456  1.00  0.00     0.053 C 
HETATM   15  C15 UNL     1       1.893  55.850  -8.505  1.00  0.00    -0.013 C 
HETATM   16  C16 UNL     1       2.160  55.659  -9.814  1.00  0.00    -0.050 C 
HETATM   17  C17 UNL     1       3.477  56.114 -10.365  1.00  0.00     0.043 C 
HETATM   18  C18 UNL     1       4.559  55.541  -9.444  1.00  0.00     0.014 C 
HETATM   19  C19 UNL     1       4.500  53.971  -9.311  1.00  0.00     0.039 C 
HETATM   20  C20 UNL     1       3.621  53.214 -10.352  1.00  0.00     0.130 C 
HETATM   21  O4  UNL     1       2.248  53.376  -9.976  1.00  0.00    -0.371 OA
HETATM   22  C21 UNL     1       1.587  54.504 -10.589  1.00  0.00     0.185 C 
HETATM   23  C22 UNL     1       0.101  54.195 -10.685  1.00  0.00    -0.006 A 
HETATM   24  C23 UNL     1      -0.887  55.123 -10.325  1.00  0.00     0.014 A 
HETATM   25  C24 UNL     1      -2.241  54.822 -10.498  1.00  0.00     0.037 A 
HETATM   26  C25 UNL     1      -2.621  53.601 -11.046  1.00  0.00     0.067 A 
HETATM   27  C26 UNL     1      -1.672  52.662 -11.433  1.00  0.00     0.057 A 
HETATM   28  C27 UNL     1      -0.316  52.956 -11.263  1.00  0.00     0.029 A 
HETATM   29  C28 UNL     1       0.674  51.988 -11.660  1.00  0.00    -0.066 C 
HETATM   30  C29 UNL     1       1.717  51.400 -11.763  1.00  0.00    -0.101 C 
HETATM   31  C30 UNL     1       3.133  51.006 -11.645  1.00  0.00     0.103 C 
HETATM   32  C31 UNL     1       3.886  51.677 -10.444  1.00  0.00     0.049 C 
HETATM   33  C33 UNL     1       4.421  56.364  -8.103  1.00  0.00     0.100 C 
HETATM   34  C34 UNL     1       5.686  56.473  -7.246  1.00  0.00    -0.040 A 
HETATM   35  C35 UNL     1       5.797  57.518  -6.313  1.00  0.00     0.009 A 
HETATM   36  C36 UNL     1       6.907  57.618  -5.458  1.00  0.00     0.012 A 
HETATM   37  C37 UNL     1       7.962  56.688  -5.509  1.00  0.00    -0.003 A 
HETATM   38  C38 UNL     1       7.880  55.689  -6.494  1.00  0.00     0.012 A 
HETATM   39  C39 UNL     1       6.769  55.589  -7.346  1.00  0.00     0.009 A 
HETATM   40  C40 UNL     1       9.090  56.676  -4.428  1.00  0.00     0.171 C 
HETATM   41  O8  UNL     1       9.066  55.416  -3.640  1.00  0.00    -0.316 OA
HETATM   42 NA1  UNL     1       5.676  54.937  -6.987  1.00  0.00    -0.240 Na
ENDROOT
BRANCH  40  43
HETATM   43  C41 UNL     1      10.507  56.633  -5.108  1.00  0.00     0.074 C 
BRANCH  43  44
HETATM   44  C42 UNL     1      11.628  55.809  -4.428  1.00  0.00     0.018 C 
BRANCH  44  45
HETATM   45  C43 UNL     1      12.211  56.434  -3.156  1.00  0.00     0.169 C 
BRANCH  45  46
HETATM   46  O7  UNL     1      13.403  57.155  -3.406  1.00  0.00    -0.400 OA
HETATM   47  H45 UNL     1      13.317  58.012  -2.945  1.00  0.00     0.209 HD
ENDBRANCH  45  46
ENDBRANCH  44  45
BRANCH  44  48
HETATM   48  C44 UNL     1      12.731  55.396  -5.438  1.00  0.00     0.045 C 
BRANCH  48  49
HETATM   49  C45 UNL     1      13.043  53.928  -5.603  1.00  0.00    -0.058 A 
HETATM   50  C46 UNL     1      12.332  52.954  -4.890  1.00  0.00     0.007 A 
HETATM   51  C47 UNL     1      12.618  51.597  -5.060  1.00  0.00     0.001 A 
HETATM   52  C48 UNL     1      13.613  51.197  -5.949  1.00  0.00     0.000 A 
HETATM   53  C49 UNL     1      14.327  52.154  -6.667  1.00  0.00     0.001 A 
HETATM   54  C50 UNL     1      14.043  53.510  -6.496  1.00  0.00     0.007 A 
ENDBRANCH  48  49
ENDBRANCH  44  48
ENDBRANCH  43  44
ENDBRANCH  40  43
BRANCH  40  55
HETATM   55  N1  UNL     1       9.064  57.924  -3.631  1.00  0.00    -0.336 N 
HETATM   56  C51 UNL     1       9.573  59.007  -4.082  1.00  0.00     0.124 C 
HETATM   57  N2  UNL     1       9.478  60.131  -3.341  1.00  0.00    -0.279 NA
HETATM   58  N3  UNL     1      10.185  59.242  -5.261  1.00  0.00    -0.279 NA
HETATM   59  H53 UNL     1      10.329  60.673  -3.274  1.00  0.00     0.126 HD
HETATM   60  H54 UNL     1       9.118  59.907  -2.418  1.00  0.00     0.126 HD
HETATM   61  H55 UNL     1      10.479  58.395  -5.741  1.00  0.00     0.126 HD
HETATM   62  H56 UNL     1      10.896  59.958  -5.273  1.00  0.00     0.126 HD
ATOM     63  H1  UNL     1       8.634  57.920  -2.706  1.00  0.00     0.165 HD
ENDBRANCH  40  55
BRANCH  13  64
HETATM   64  S1  UNL     1       1.650  56.481  -5.012  1.00  0.00     0.108 S 
HETATM   65  O1  UNL     1       1.568  55.694  -3.781  1.00  0.00    -0.595 OA
HETATM   66  O2  UNL     1       0.378  56.658  -5.707  1.00  0.00    -0.595 OA
HETATM   67  O3  UNL     1       2.421  57.716  -4.886  1.00  0.00    -0.595 OA
ENDBRANCH  13  64
BRANCH  32  68
HETATM   68  C32 UNL     1       3.605  50.929  -9.131  1.00  0.00     0.172 C 
BRANCH  68  69
HETATM   69  O6  UNL     1       4.728  50.223  -8.633  1.00  0.00    -0.400 OA
HETATM   70  H34 UNL     1       5.147  49.775  -9.400  1.00  0.00     0.209 HD
ENDBRANCH  68  69
ENDBRANCH  32  68
BRANCH  26  71
HETATM   71  O5  UNL     1      -3.957  53.359 -11.195  1.00  0.00    -0.361 OA
HETATM   72  H27 UNL     1      -4.066  52.461 -11.546  1.00  0.00     0.217 HD
ENDBRANCH  26  71
TORSDOF 11
ENDMDL
MODEL 3
REMARK minimizedAffinity -8.81131172
REMARK CNNscore 0.200180054
REMARK CNNaffinity 6.65626764
REMARK  11 active torsions:
REMARK  status: ('A' for Active; 'I' for Inactive)
REMARK    1  A    between atoms: C13_13  and  S1_14 
REMARK    2  A    between atoms: C25_30  and  O5_31 
REMARK    3  A    between atoms: C31_37  and  C32_38 
REMARK    4  A    between atoms: C32_38  and  O6_39 
REMARK    5  A    between atoms: C40_47  and  C41_48 
REMARK    6  A    between atoms: C40_47  and  N1_59 
REMARK    7  A    between atoms: C41_48  and  C42_49 
REMARK    8  A    between atoms: C42_49  and  C43_50 
REMARK    9  A    between atoms: C42_49  and  C44_52 
REMARK   10  A    between atoms: C43_50  and  O7_51 
REMARK   11  A    between atoms: C44_52  and  C45_53 
REMARK       I    between atoms: C51_61  and  N2_62 
REMARK       I    between atoms: C51_61  and  N3_63 
ROOT
HETATM    1  C1  UNL     1     -13.841  42.225 -22.058  1.00  0.00     0.011 C 
HETATM    2  C2  UNL     1     -12.918  42.402 -23.258  1.00  0.00    -0.009 C 
HETATM    3  C3  UNL     1     -13.573  41.813 -24.517  1.00  0.00     0.009 C 
HETATM    4  C4  UNL     1     -12.622  41.829 -25.709  1.00  0.00     0.039 C 
HETATM    5  C5  UNL     1     -11.879  43.128 -25.870  1.00  0.00    -0.049 C 
HETATM    6  C6  UNL     1     -11.499  43.570 -27.141  1.00  0.00     0.044 C 
HETATM    7  C7  UNL     1     -10.888  44.818 -27.287  1.00  0.00     0.073 C 
HETATM    8  C8  UNL     1     -10.395  45.497 -26.180  1.00  0.00     0.037 C 
HETATM    9  C9  UNL     1     -10.748  45.057 -24.910  1.00  0.00     0.011 C 
HETATM   10  C10 UNL     1     -11.591  43.941 -24.761  1.00  0.00    -0.046 C 
HETATM   11  C11 UNL     1     -12.456  43.861 -23.488  1.00  0.00     0.037 C 
HETATM   12  C12 UNL     1     -13.576  44.921 -23.747  1.00  0.00     0.126 C 
HETATM   13  C13 UNL     1     -14.442  45.515 -22.634  1.00  0.00     0.153 C 
HETATM   14  C14 UNL     1     -15.615  46.491 -23.113  1.00  0.00     0.053 C 
HETATM   15  C15 UNL     1     -16.860  46.132 -22.262  1.00  0.00    -0.013 C 
HETATM   16  C16 UNL     1     -18.117  46.066 -22.748  1.00  0.00    -0.050 C 
HETATM   17  C17 UNL     1     -18.398  46.592 -24.123  1.00  0.00     0.043 C 
HETATM   18  C18 UNL     1     -17.363  45.954 -25.056  1.00  0.00     0.014 C 
HETATM   19  C19 UNL     1     -17.381  44.378 -25.025  1.00  0.00     0.039 C 
HETATM   20  C20 UNL     1     -18.617  43.706 -24.355  1.00  0.00     0.130 C 
HETATM   21  O4  UNL     1     -18.463  43.810 -22.934  1.00  0.00    -0.371 OA
HETATM   22  C21 UNL     1     -19.077  44.978 -22.347  1.00  0.00     0.185 C 
HETATM   23  C22 UNL     1     -19.447  44.655 -20.909  1.00  0.00    -0.006 A 
HETATM   24  C23 UNL     1     -19.177  45.530 -19.846  1.00  0.00     0.014 A 
HETATM   25  C24 UNL     1     -19.599  45.224 -18.549  1.00  0.00     0.037 A 
HETATM   26  C25 UNL     1     -20.309  44.053 -18.303  1.00  0.00     0.067 A 
HETATM   27  C26 UNL     1     -20.612  43.169 -19.333  1.00  0.00     0.057 A 
HETATM   28  C27 UNL     1     -20.193  43.468 -20.632  1.00  0.00     0.029 A 
HETATM   29  C28 UNL     1     -20.503  42.557 -21.704  1.00  0.00    -0.066 C 
HETATM   30  C29 UNL     1     -20.481  41.998 -22.768  1.00  0.00    -0.101 C 
HETATM   31  C30 UNL     1     -20.162  41.619 -24.157  1.00  0.00     0.103 C 
HETATM   32  C31 UNL     1     -18.799  42.189 -24.680  1.00  0.00     0.049 C 
HETATM   33  C33 UNL     1     -15.997  46.648 -24.672  1.00  0.00     0.100 C 
HETATM   34  C34 UNL     1     -14.934  46.698 -25.774  1.00  0.00    -0.040 A 
HETATM   35  C35 UNL     1     -13.907  47.654 -25.697  1.00  0.00     0.009 A 
HETATM   36  C36 UNL     1     -12.873  47.694 -26.646  1.00  0.00     0.012 A 
HETATM   37  C37 UNL     1     -12.828  46.789 -27.723  1.00  0.00    -0.003 A 
HETATM   38  C38 UNL     1     -13.897  45.884 -27.837  1.00  0.00     0.012 A 
HETATM   39  C39 UNL     1     -14.929  45.845 -26.886  1.00  0.00     0.009 A 
HETATM   40  C40 UNL     1     -11.579  46.696 -28.657  1.00  0.00     0.171 C 
HETATM   41  O8  UNL     1     -10.920  45.369 -28.543  1.00  0.00    -0.316 OA
HETATM   42 NA1  UNL     1     -14.817  45.145 -25.770  1.00  0.00    -0.240 Na
ENDROOT
BRANCH  40  43
HETATM   43  C41 UNL     1     -12.014  46.740 -30.168  1.00  0.00     0.074 C 
BRANCH  43  44
HETATM   44  C42 UNL     1     -11.306  45.791 -31.167  1.00  0.00     0.018 C 
BRANCH  44  45
HETATM   45  C43 UNL     1     -10.348  44.779 -30.532  1.00  0.00     0.169 C 
BRANCH  45  46
HETATM   46  O7  UNL     1     -10.792  43.443 -30.687  1.00  0.00    -0.400 OA
HETATM   47  H45 UNL     1     -10.023  42.923 -30.991  1.00  0.00     0.209 HD
ENDBRANCH  45  46
ENDBRANCH  44  45
BRANCH  44  48
HETATM   48  C44 UNL     1     -10.646  46.574 -32.333  1.00  0.00     0.045 C 
BRANCH  48  49
HETATM   49  C45 UNL     1      -9.143  46.723 -32.341  1.00  0.00    -0.058 A 
HETATM   50  C46 UNL     1      -8.315  45.663 -32.729  1.00  0.00     0.007 A 
HETATM   51  C47 UNL     1      -6.926  45.815 -32.747  1.00  0.00     0.001 A 
HETATM   52  C48 UNL     1      -6.350  47.029 -32.382  1.00  0.00     0.000 A 
HETATM   53  C49 UNL     1      -7.162  48.093 -31.995  1.00  0.00     0.001 A 
HETATM   54  C50 UNL     1      -8.549  47.942 -31.976  1.00  0.00     0.007 A 
ENDBRANCH  48  49
ENDBRANCH  44  48
ENDBRANCH  43  44
ENDBRANCH  40  43
BRANCH  40  55
HETATM   55  N1  UNL     1     -10.691  47.865 -28.461  1.00  0.00    -0.336 N 
HETATM   56  C51 UNL     1      -9.420  47.752 -28.545  1.00  0.00     0.124 C 
HETATM   57  N2  UNL     1      -8.656  48.856 -28.410  1.00  0.00    -0.279 NA
HETATM   58  N3  UNL     1      -8.670  46.660 -28.802  1.00  0.00    -0.279 NA
HETATM   59  H53 UNL     1      -7.848  48.748 -27.813  1.00  0.00     0.126 HD
HETATM   60  H54 UNL     1      -9.229  49.638 -28.106  1.00  0.00     0.126 HD
HETATM   61  H55 UNL     1      -9.174  45.785 -28.684  1.00  0.00     0.126 HD
HETATM   62  H56 UNL     1      -7.747  46.632 -28.396  1.00  0.00     0.126 HD
ATOM     63  H1  UNL     1     -11.100  48.777 -28.255  1.00  0.00     0.165 HD
ENDBRANCH  40  55
BRANCH  13  64
HETATM   64  S1  UNL     1     -13.415  46.434 -21.426  1.00  0.00     0.108 S 
HETATM   65  O1  UNL     1     -12.095  45.814 -21.545  1.00  0.00    -0.595 OA
HETATM   66  O2  UNL     1     -14.074  46.220 -20.140  1.00  0.00    -0.595 OA
HETATM   67  O3  UNL     1     -13.474  47.819 -21.887  1.00  0.00    -0.595 OA
ENDBRANCH  13  64
BRANCH  32  68
HETATM   68  C32 UNL     1     -17.622  41.318 -24.209  1.00  0.00     0.172 C 
BRANCH  68  69
HETATM   69  O6  UNL     1     -17.412  41.365 -22.808  1.00  0.00    -0.400 OA
HETATM   70  H34 UNL     1     -17.497  42.305 -22.537  1.00  0.00     0.209 HD
ENDBRANCH  68  69
ENDBRANCH  32  68
BRANCH  26  71
HETATM   71  O5  UNL     1     -20.701  43.803 -17.019  1.00  0.00    -0.361 OA
HETATM   72  H27 UNL     1     -21.143  42.940 -16.998  1.00  0.00     0.217 HD
ENDBRANCH  26  71
TORSDOF 11
ENDMDL
MODEL 4
REMARK minimizedAffinity -8.53874207
REMARK CNNscore 0.200149432
REMARK CNNaffinity 7.55036879
REMARK  11 active torsions:
REMARK  status: ('A' for Active; 'I' for Inactive)
REMARK    1  A    between atoms: C13_13  and  S1_14 
REMARK    2  A    between atoms: C25_30  and  O5_31 
REMARK    3  A    between atoms: C31_37  and  C32_38 
REMARK    4  A    between atoms: C32_38  and  O6_39 
REMARK    5  A    between atoms: C40_47  and  C41_48 
REMARK    6  A    between atoms: C40_47  and  N1_59 
REMARK    7  A    between atoms: C41_48  and  C42_49 
REMARK    8  A    between atoms: C42_49  and  C43_50 
REMARK    9  A    between atoms: C42_49  and  C44_52 
REMARK   10  A    between atoms: C43_50  and  O7_51 
REMARK   11  A    between atoms: C44_52  and  C45_53 
REMARK       I    between atoms: C51_61  and  N2_62 
REMARK       I    between atoms: C51_61  and  N3_63 
ROOT
HETATM    1  C1  UNL     1       1.290  49.291  -7.239  1.00  0.00     0.011 C 
HETATM    2  C2  UNL     1      -0.044  48.563  -7.369  1.00  0.00    -0.009 C 
HETATM    3  C3  UNL     1      -1.122  49.291  -6.551  1.00  0.00     0.009 C 
HETATM    4  C4  UNL     1      -2.434  48.514  -6.527  1.00  0.00     0.039 C 
HETATM    5  C5  UNL     1      -2.843  47.981  -7.873  1.00  0.00    -0.049 C 
HETATM    6  C6  UNL     1      -4.196  47.832  -8.191  1.00  0.00     0.044 C 
HETATM    7  C7  UNL     1      -4.566  47.419  -9.474  1.00  0.00     0.073 C 
HETATM    8  C8  UNL     1      -3.623  46.883 -10.343  1.00  0.00     0.037 C 
HETATM    9  C9  UNL     1      -2.275  47.006 -10.030  1.00  0.00     0.011 C 
HETATM   10  C10 UNL     1      -1.883  47.664  -8.850  1.00  0.00    -0.046 C 
HETATM   11  C11 UNL     1      -0.497  48.337  -8.831  1.00  0.00     0.037 C 
HETATM   12  C12 UNL     1      -0.706  49.614  -9.709  1.00  0.00     0.126 C 
HETATM   13  C13 UNL     1       0.448  50.401 -10.334  1.00  0.00     0.153 C 
HETATM   14  C14 UNL     1       0.040  51.747 -11.094  1.00  0.00     0.053 C 
HETATM   15  C15 UNL     1       1.096  52.811 -10.701  1.00  0.00    -0.013 C 
HETATM   16  C16 UNL     1       0.808  54.101 -10.425  1.00  0.00    -0.050 C 
HETATM   17  C17 UNL     1      -0.561  54.625 -10.734  1.00  0.00     0.043 C 
HETATM   18  C18 UNL     1      -1.558  53.644 -10.110  1.00  0.00     0.014 C 
HETATM   19  C19 UNL     1      -1.351  53.444  -8.559  1.00  0.00     0.039 C 
HETATM   20  C20 UNL     1      -0.439  54.480  -7.837  1.00  0.00     0.130 C 
HETATM   21  O4  UNL     1       0.924  54.159  -8.139  1.00  0.00    -0.371 OA
HETATM   22  C21 UNL     1       1.461  54.844  -9.291  1.00  0.00     0.185 C 
HETATM   23  C22 UNL     1       2.965  54.977  -9.113  1.00  0.00    -0.006 A 
HETATM   24  C23 UNL     1       3.874  54.692 -10.142  1.00  0.00     0.014 A 
HETATM   25  C24 UNL     1       5.244  54.898  -9.957  1.00  0.00     0.037 A 
HETATM   26  C25 UNL     1       5.718  55.404  -8.750  1.00  0.00     0.067 A 
HETATM   27  C26 UNL     1       4.847  55.717  -7.712  1.00  0.00     0.057 A 
HETATM   28  C27 UNL     1       3.476  55.514  -7.891  1.00  0.00     0.029 A 
HETATM   29  C28 UNL     1       2.567  55.834  -6.821  1.00  0.00    -0.066 C 
HETATM   30  C29 UNL     1       1.579  55.875  -6.137  1.00  0.00    -0.101 C 
HETATM   31  C30 UNL     1       0.209  55.691  -5.624  1.00  0.00     0.103 C 
HETATM   32  C31 UNL     1      -0.565  54.496  -6.280  1.00  0.00     0.049 C 
HETATM   33  C33 UNL     1      -1.455  52.346 -11.004  1.00  0.00     0.100 C 
HETATM   34  C34 UNL     1      -2.698  51.452 -11.039  1.00  0.00    -0.040 A 
HETATM   35  C35 UNL     1      -2.876  50.561 -12.112  1.00  0.00     0.009 A 
HETATM   36  C36 UNL     1      -3.964  49.675 -12.152  1.00  0.00     0.012 A 
HETATM   37  C37 UNL     1      -4.930  49.648 -11.129  1.00  0.00    -0.003 A 
HETATM   38  C38 UNL     1      -4.787  50.590 -10.097  1.00  0.00     0.012 A 
HETATM   39  C39 UNL     1      -3.698  51.475 -10.057  1.00  0.00     0.009 A 
HETATM   40  C40 UNL     1      -6.019  48.529 -11.067  1.00  0.00     0.171 C 
HETATM   41  O8  UNL     1      -5.856  47.688  -9.852  1.00  0.00    -0.316 OA
HETATM   42 NA1  UNL     1      -2.540  51.126  -9.524  1.00  0.00    -0.240 Na
ENDROOT
BRANCH  40  43
HETATM   43  C41 UNL     1      -7.447  49.158 -10.865  1.00  0.00     0.074 C 
BRANCH  43  44
HETATM   44  C42 UNL     1      -8.285  48.709  -9.643  1.00  0.00     0.018 C 
BRANCH  44  45
HETATM   45  C43 UNL     1      -7.487  48.491  -8.354  1.00  0.00     0.169 C 
BRANCH  45  46
HETATM   46  O7  UNL     1      -8.058  49.159  -7.244  1.00  0.00    -0.400 OA
HETATM   47  H45 UNL     1      -8.080  48.517  -6.509  1.00  0.00     0.209 HD
ENDBRANCH  45  46
ENDBRANCH  44  45
BRANCH  44  48
HETATM   48  C44 UNL     1      -9.194  47.498  -9.983  1.00  0.00     0.045 C 
BRANCH  48  49
HETATM   49  C45 UNL     1     -10.686  47.645  -9.807  1.00  0.00    -0.058 A 
HETATM   50  C46 UNL     1     -11.218  48.405  -8.759  1.00  0.00     0.007 A 
HETATM   51  C47 UNL     1     -12.600  48.547  -8.612  1.00  0.00     0.001 A 
HETATM   52  C48 UNL     1     -13.466  47.936  -9.515  1.00  0.00     0.000 A 
HETATM   53  C49 UNL     1     -12.952  47.178 -10.564  1.00  0.00     0.001 A 
HETATM   54  C50 UNL     1     -11.571  47.034 -10.711  1.00  0.00     0.007 A 
ENDBRANCH  48  49
ENDBRANCH  44  48
ENDBRANCH  43  44
ENDBRANCH  40  43
BRANCH  40  55
HETATM   55  N1  UNL     1      -6.084  47.789 -12.348  1.00  0.00    -0.336 N 
HETATM   56  C51 UNL     1      -6.510  46.585 -12.396  1.00  0.00     0.124 C 
HETATM   57  N2  UNL     1      -6.599  45.971 -13.595  1.00  0.00    -0.279 NA
HETATM   58  N3  UNL     1      -6.952  45.790 -11.399  1.00  0.00    -0.279 NA
HETATM   59  H53 UNL     1      -6.244  45.025 -13.619  1.00  0.00     0.126 HD
HETATM   60  H54 UNL     1      -6.158  46.543 -14.309  1.00  0.00     0.126 HD
HETATM   61  H55 UNL     1      -6.692  46.119 -10.473  1.00  0.00     0.126 HD
HETATM   62  H56 UNL     1      -6.812  44.797 -11.509  1.00  0.00     0.126 HD
ATOM     63  H1  UNL     1      -5.783  48.248 -13.208  1.00  0.00     0.165 HD
ENDBRANCH  40  55
BRANCH  13  64
HETATM   64  S1  UNL     1       1.386  49.359 -11.514  1.00  0.00     0.108 S 
HETATM   65  O1  UNL     1       0.383  48.433 -12.039  1.00  0.00    -0.595 OA
HETATM   66  O2  UNL     1       2.431  48.733 -10.708  1.00  0.00    -0.595 OA
HETATM   67  O3  UNL     1       1.902  50.310 -12.497  1.00  0.00    -0.595 OA
ENDBRANCH  13  64
BRANCH  32  68
HETATM   68  C32 UNL     1      -0.177  53.161  -5.622  1.00  0.00     0.172 C 
BRANCH  68  69
HETATM   69  O6  UNL     1      -1.288  52.431  -5.132  1.00  0.00    -0.400 OA
HETATM   70  H34 UNL     1      -1.877  53.073  -4.681  1.00  0.00     0.209 HD
ENDBRANCH  68  69
ENDBRANCH  32  68
BRANCH  26  71
HETATM   71  O5  UNL     1       7.065  55.589  -8.622  1.00  0.00    -0.361 OA
HETATM   72  H27 UNL     1       7.245  55.904  -7.722  1.00  0.00     0.217 HD
ENDBRANCH  26  71
TORSDOF 11
ENDMDL
MODEL 5
REMARK minimizedAffinity -9.57876205
REMARK CNNscore 0.200085014
REMARK CNNaffinity 6.7125535
REMARK  11 active torsions:
REMARK  status: ('A' for Active; 'I' for Inactive)
REMARK    1  A    between atoms: C13_13  and  S1_14 
REMARK    2  A    between atoms: C25_30  and  O5_31 
REMARK    3  A    between atoms: C31_37  and  C32_38 
REMARK    4  A    between atoms: C32_38  and  O6_39 
REMARK    5  A    between atoms: C40_47  and  C41_48 
REMARK    6  A    between atoms: C40_47  and  N1_59 
REMARK    7  A    between atoms: C41_48  and  C42_49 
REMARK    8  A    between atoms: C42_49  and  C43_50 
REMARK    9  A    between atoms: C42_49  and  C44_52 
REMARK   10  A    between atoms: C43_50  and  O7_51 
REMARK   11  A    between atoms: C44_52  and  C45_53 
REMARK       I    between atoms: C51_61  and  N2_62 
REMARK       I    between atoms: C51_61  and  N3_63 
ROOT
HETATM    1  C1  UNL     1     -13.570  42.666 -23.142  1.00  0.00     0.011 C 
HETATM    2  C2  UNL     1     -12.266  42.825 -23.917  1.00  0.00    -0.009 C 
HETATM    3  C3  UNL     1     -12.174  41.754 -25.015  1.00  0.00     0.009 C 
HETATM    4  C4  UNL     1     -10.818  41.778 -25.714  1.00  0.00     0.039 C 
HETATM    5  C5  UNL     1     -10.347  43.162 -26.068  1.00  0.00    -0.049 C 
HETATM    6  C6  UNL     1      -9.539  43.366 -27.192  1.00  0.00     0.044 C 
HETATM    7  C7  UNL     1      -9.181  44.664 -27.561  1.00  0.00     0.073 C 
HETATM    8  C8  UNL     1      -9.367  45.725 -26.684  1.00  0.00     0.037 C 
HETATM    9  C9  UNL     1     -10.150  45.532 -25.552  1.00  0.00     0.011 C 
HETATM   10  C10 UNL     1     -10.739  44.278 -25.310  1.00  0.00    -0.046 C 
HETATM   11  C11 UNL     1     -12.042  44.246 -24.488  1.00  0.00     0.037 C 
HETATM   12  C12 UNL     1     -13.115  44.778 -25.493  1.00  0.00     0.126 C 
HETATM   13  C13 UNL     1     -14.479  45.317 -25.057  1.00  0.00     0.153 C 
HETATM   14  C14 UNL     1     -15.485  45.698 -26.239  1.00  0.00     0.053 C 
HETATM   15  C15 UNL     1     -16.882  45.180 -25.812  1.00  0.00    -0.013 C 
HETATM   16  C16 UNL     1     -17.759  44.585 -26.648  1.00  0.00    -0.050 C 
HETATM   17  C17 UNL     1     -17.501  44.621 -28.124  1.00  0.00     0.043 C 
HETATM   18  C18 UNL     1     -16.061  44.143 -28.330  1.00  0.00     0.014 C 
HETATM   19  C19 UNL     1     -15.785  42.711 -27.731  1.00  0.00     0.039 C 
HETATM   20  C20 UNL     1     -17.034  41.865 -27.341  1.00  0.00     0.130 C 
HETATM   21  O4  UNL     1     -17.545  42.371 -26.101  1.00  0.00    -0.371 OA
HETATM   22  C21 UNL     1     -18.566  43.382 -26.241  1.00  0.00     0.185 C 
HETATM   23  C22 UNL     1     -19.461  43.332 -25.013  1.00  0.00    -0.006 A 
HETATM   24  C23 UNL     1     -19.860  44.487 -24.324  1.00  0.00     0.014 A 
HETATM   25  C24 UNL     1     -20.743  44.399 -23.243  1.00  0.00     0.037 A 
HETATM   26  C25 UNL     1     -21.247  43.164 -22.850  1.00  0.00     0.067 A 
HETATM   27  C26 UNL     1     -20.890  41.998 -23.519  1.00  0.00     0.057 A 
HETATM   28  C27 UNL     1     -20.008  42.078 -24.601  1.00  0.00     0.029 A 
HETATM   29  C28 UNL     1     -19.633  40.875 -25.298  1.00  0.00    -0.066 C 
HETATM   30  C29 UNL     1     -19.037  40.103 -26.002  1.00  0.00    -0.101 C 
HETATM   31  C30 UNL     1     -18.074  39.509 -26.947  1.00  0.00     0.103 C 
HETATM   32  C31 UNL     1     -16.758  40.342 -27.128  1.00  0.00     0.049 C 
HETATM   33  C33 UNL     1     -15.165  45.320 -27.774  1.00  0.00     0.100 C 
HETATM   34  C34 UNL     1     -13.758  45.434 -28.369  1.00  0.00    -0.040 A 
HETATM   35  C35 UNL     1     -13.075  46.660 -28.292  1.00  0.00     0.009 A 
HETATM   36  C36 UNL     1     -11.759  46.794 -28.762  1.00  0.00     0.012 A 
HETATM   37  C37 UNL     1     -11.071  45.711 -29.342  1.00  0.00    -0.003 A 
HETATM   38  C38 UNL     1     -11.784  44.509 -29.482  1.00  0.00     0.012 A 
HETATM   39  C39 UNL     1     -13.100  44.377 -29.011  1.00  0.00     0.009 A 
HETATM   40  C40 UNL     1      -9.546  45.799 -29.673  1.00  0.00     0.171 C 
HETATM   41  O8  UNL     1      -8.763  44.836 -28.856  1.00  0.00    -0.316 OA
HETATM   42 NA1  UNL     1     -13.357  44.060 -27.754  1.00  0.00    -0.240 Na
ENDROOT
BRANCH  40  43
HETATM   43  C41 UNL     1      -9.272  45.312 -31.144  1.00  0.00     0.074 C 
BRANCH  43  44
HETATM   44  C42 UNL     1      -9.443  46.327 -32.301  1.00  0.00     0.018 C 
BRANCH  44  45
HETATM   45  C43 UNL     1     -10.870  46.460 -32.841  1.00  0.00     0.169 C 
BRANCH  45  46
HETATM   46  O7  UNL     1     -11.551  45.220 -32.879  1.00  0.00    -0.400 OA
HETATM   47  H45 UNL     1     -12.435  45.371 -32.490  1.00  0.00     0.209 HD
ENDBRANCH  45  46
ENDBRANCH  44  45
BRANCH  44  48
HETATM   48  C44 UNL     1      -8.406  46.089 -33.431  1.00  0.00     0.045 C 
BRANCH  48  49
HETATM   49  C45 UNL     1      -6.946  46.327 -33.132  1.00  0.00    -0.058 A 
HETATM   50  C46 UNL     1      -6.176  45.358 -32.476  1.00  0.00     0.007 A 
HETATM   51  C47 UNL     1      -4.822  45.582 -32.216  1.00  0.00     0.001 A 
HETATM   52  C48 UNL     1      -4.220  46.773 -32.612  1.00  0.00     0.000 A 
HETATM   53  C49 UNL     1      -4.973  47.745 -33.267  1.00  0.00     0.001 A 
HETATM   54  C50 UNL     1      -6.326  47.523 -33.527  1.00  0.00     0.007 A 
ENDBRANCH  48  49
ENDBRANCH  44  48
ENDBRANCH  43  44
ENDBRANCH  40  43
BRANCH  40  55
HETATM   55  N1  UNL     1      -9.079  47.204 -29.621  1.00  0.00    -0.336 N 
HETATM   56  C51 UNL     1      -9.297  47.936 -28.596  1.00  0.00     0.124 C 
HETATM   57  N2  UNL     1      -8.806  49.193 -28.575  1.00  0.00    -0.279 NA
HETATM   58  N3  UNL     1      -9.933  47.635 -27.445  1.00  0.00    -0.279 NA
HETATM   59  H53 UNL     1      -9.452  49.900 -28.252  1.00  0.00     0.126 HD
HETATM   60  H54 UNL     1      -8.433  49.433 -29.489  1.00  0.00     0.126 HD
HETATM   61  H55 UNL     1     -10.507  46.797 -27.506  1.00  0.00     0.126 HD
HETATM   62  H56 UNL     1     -10.404  48.390 -26.970  1.00  0.00     0.126 HD
ATOM     63  H1  UNL     1      -8.576  47.594 -30.418  1.00  0.00     0.165 HD
ENDBRANCH  40  55
BRANCH  13  64
HETATM   64  S1  UNL     1     -14.287  46.796 -23.993  1.00  0.00     0.108 S 
HETATM   65  O1  UNL     1     -15.421  47.644 -24.362  1.00  0.00    -0.595 OA
HETATM   66  O2  UNL     1     -12.978  47.340 -24.346  1.00  0.00    -0.595 OA
HETATM   67  O3  UNL     1     -14.348  46.267 -22.632  1.00  0.00    -0.595 OA
ENDBRANCH  13  64
BRANCH  32  68
HETATM   68  C32 UNL     1     -15.765  40.055 -25.990  1.00  0.00     0.172 C 
BRANCH  68  69
HETATM   69  O6  UNL     1     -15.683  38.683 -25.646  1.00  0.00    -0.400 OA
HETATM   70  H34 UNL     1     -16.602  38.338 -25.625  1.00  0.00     0.209 HD
ENDBRANCH  68  69
ENDBRANCH  32  68
BRANCH  26  71
HETATM   71  O5  UNL     1     -22.107  43.134 -21.790  1.00  0.00    -0.361 OA
HETATM   72  H27 UNL     1     -22.338  42.209 -21.610  1.00  0.00     0.217 HD
ENDBRANCH  26  71
TORSDOF 11
ENDMDL
MODEL 6
REMARK minimizedAffinity -8.19882584
REMARK CNNscore 0.157636315
REMARK CNNaffinity 6.5368042
REMARK  11 active torsions:
REMARK  status: ('A' for Active; 'I' for Inactive)
REMARK    1  A    between atoms: C13_13  and  S1_14 
REMARK    2  A    between atoms: C25_30  and  O5_31 
REMARK    3  A    between atoms: C31_37  and  C32_38 
REMARK    4  A    between atoms: C32_38  and  O6_39 
REMARK    5  A    between atoms: C40_47  and  C41_48 
REMARK    6  A    between atoms: C40_47  and  N1_59 
REMARK    7  A    between atoms: C41_48  and  C42_49 
REMARK    8  A    between atoms: C42_49  and  C43_50 
REMARK    9  A    between atoms: C42_49  and  C44_52 
REMARK   10  A    between atoms: C43_50  and  O7_51 
REMARK   11  A    between atoms: C44_52  and  C45_53 
REMARK       I    between atoms: C51_61  and  N2_62 
REMARK       I    between atoms: C51_61  and  N3_63 
ROOT
HETATM    1  C1  UNL     1     -12.142  41.053 -23.948  1.00  0.00     0.011 C 
HETATM    2  C2  UNL     1     -10.709  41.507 -23.692  1.00  0.00    -0.009 C 
HETATM    3  C3  UNL     1     -10.186  42.303 -24.897  1.00  0.00     0.009 C 
HETATM    4  C4  UNL     1      -8.706  42.644 -24.750  1.00  0.00     0.039 C 
HETATM    5  C5  UNL     1      -8.339  43.155 -23.383  1.00  0.00    -0.049 C 
HETATM    6  C6  UNL     1      -7.291  44.069 -23.230  1.00  0.00     0.044 C 
HETATM    7  C7  UNL     1      -7.016  44.603 -21.969  1.00  0.00     0.073 C 
HETATM    8  C8  UNL     1      -7.568  44.037 -20.826  1.00  0.00     0.037 C 
HETATM    9  C9  UNL     1      -8.596  43.113 -20.963  1.00  0.00     0.011 C 
HETATM   10  C10 UNL     1      -9.063  42.764 -22.244  1.00  0.00    -0.046 C 
HETATM   11  C11 UNL     1     -10.524  42.291 -22.370  1.00  0.00     0.037 C 
HETATM   12  C12 UNL     1     -11.344  43.613 -22.215  1.00  0.00     0.126 C 
HETATM   13  C13 UNL     1     -12.833  43.640 -21.862  1.00  0.00     0.153 C 
HETATM   14  C14 UNL     1     -13.522  45.083 -21.870  1.00  0.00     0.053 C 
HETATM   15  C15 UNL     1     -14.903  44.906 -22.550  1.00  0.00    -0.013 C 
HETATM   16  C16 UNL     1     -15.437  45.785 -23.424  1.00  0.00    -0.050 C 
HETATM   17  C17 UNL     1     -14.797  47.130 -23.590  1.00  0.00     0.043 C 
HETATM   18  C18 UNL     1     -13.305  46.879 -23.831  1.00  0.00     0.014 C 
HETATM   19  C19 UNL     1     -13.020  45.946 -25.070  1.00  0.00     0.039 C 
HETATM   20  C20 UNL     1     -14.208  45.701 -26.048  1.00  0.00     0.130 C 
HETATM   21  O4  UNL     1     -15.096  44.754 -25.440  1.00  0.00    -0.371 OA
HETATM   22  C21 UNL     1     -16.163  45.343 -24.666  1.00  0.00     0.185 C 
HETATM   23  C22 UNL     1     -17.342  44.383 -24.668  1.00  0.00    -0.006 A 
HETATM   24  C23 UNL     1     -18.058  44.067 -23.504  1.00  0.00     0.014 A 
HETATM   25  C24 UNL     1     -19.181  43.237 -23.565  1.00  0.00     0.037 A 
HETATM   26  C25 UNL     1     -19.609  42.728 -24.787  1.00  0.00     0.067 A 
HETATM   27  C26 UNL     1     -18.937  43.034 -25.965  1.00  0.00     0.057 A 
HETATM   28  C27 UNL     1     -17.814  43.863 -25.912  1.00  0.00     0.029 A 
HETATM   29  C28 UNL     1     -17.112  44.183 -27.128  1.00  0.00    -0.066 C 
HETATM   30  C29 UNL     1     -16.255  44.547 -27.889  1.00  0.00    -0.101 C 
HETATM   31  C30 UNL     1     -15.003  45.087 -28.451  1.00  0.00     0.103 C 
HETATM   32  C31 UNL     1     -13.806  45.115 -27.439  1.00  0.00     0.049 C 
HETATM   33  C33 UNL     1     -12.753  46.381 -22.438  1.00  0.00     0.100 C 
HETATM   34  C34 UNL     1     -11.264  46.631 -22.175  1.00  0.00    -0.040 A 
HETATM   35  C35 UNL     1     -10.791  46.649 -20.852  1.00  0.00     0.009 A 
HETATM   36  C36 UNL     1      -9.425  46.805 -20.566  1.00  0.00     0.012 A 
HETATM   37  C37 UNL     1      -8.473  46.964 -21.590  1.00  0.00    -0.003 A 
HETATM   38  C38 UNL     1      -8.960  47.018 -22.907  1.00  0.00     0.012 A 
HETATM   39  C39 UNL     1     -10.326  46.861 -23.191  1.00  0.00     0.009 A 
HETATM   40  C40 UNL     1      -6.940  46.930 -21.289  1.00  0.00     0.171 C 
HETATM   41  O8  UNL     1      -6.289  45.766 -21.946  1.00  0.00    -0.316 OA
HETATM   42 NA1  UNL     1     -10.871  45.665 -23.333  1.00  0.00    -0.240 Na
ENDROOT
BRANCH  40  43
HETATM   43  C41 UNL     1      -6.217  48.156 -21.959  1.00  0.00     0.074 C 
BRANCH  43  44
HETATM   44  C42 UNL     1      -4.845  47.923 -22.637  1.00  0.00     0.018 C 
BRANCH  44  45
HETATM   45  C43 UNL     1      -3.651  47.860 -21.679  1.00  0.00     0.169 C 
BRANCH  45  46
HETATM   46  O7  UNL     1      -3.421  46.553 -21.187  1.00  0.00    -0.400 OA
HETATM   47  H45 UNL     1      -2.463  46.383 -21.275  1.00  0.00     0.209 HD
ENDBRANCH  45  46
ENDBRANCH  44  45
BRANCH  44  48
HETATM   48  C44 UNL     1      -4.608  48.913 -23.808  1.00  0.00     0.045 C 
BRANCH  48  49
HETATM   49  C45 UNL     1      -4.994  48.485 -25.203  1.00  0.00    -0.058 A 
HETATM   50  C46 UNL     1      -6.261  47.952 -25.470  1.00  0.00     0.007 A 
HETATM   51  C47 UNL     1      -6.614  47.571 -26.767  1.00  0.00     0.001 A 
HETATM   52  C48 UNL     1      -5.708  47.724 -27.813  1.00  0.00     0.000 A 
HETATM   53  C49 UNL     1      -4.444  48.254 -27.563  1.00  0.00     0.001 A 
HETATM   54  C50 UNL     1      -4.090  48.633 -26.267  1.00  0.00     0.007 A 
ENDBRANCH  48  49
ENDBRANCH  44  48
ENDBRANCH  43  44
ENDBRANCH  40  43
BRANCH  40  55
HETATM   55  N1  UNL     1      -6.690  47.061 -19.835  1.00  0.00    -0.336 N 
HETATM   56  C51 UNL     1      -6.720  48.202 -19.259  1.00  0.00     0.124 C 
HETATM   57  N2  UNL     1      -6.537  48.264 -17.923  1.00  0.00    -0.279 NA
HETATM   58  N3  UNL     1      -6.960  49.422 -19.783  1.00  0.00    -0.279 NA
HETATM   59  H53 UNL     1      -5.906  48.990 -17.610  1.00  0.00     0.126 HD
HETATM   60  H54 UNL     1      -6.247  47.356 -17.572  1.00  0.00     0.126 HD
HETATM   61  H55 UNL     1      -6.875  49.452 -20.796  1.00  0.00     0.126 HD
HETATM   62  H56 UNL     1      -6.514  50.209 -19.335  1.00  0.00     0.126 HD
ATOM     63  H1  UNL     1      -6.489  46.227 -19.283  1.00  0.00     0.165 HD
ENDBRANCH  40  55
BRANCH  13  64
HETATM   64  S1  UNL     1     -13.128  42.893 -20.214  1.00  0.00     0.108 S 
HETATM   65  O1  UNL     1     -14.326  43.578 -19.728  1.00  0.00    -0.595 OA
HETATM   66  O2  UNL     1     -11.913  43.177 -19.455  1.00  0.00    -0.595 OA
HETATM   67  O3  UNL     1     -13.319  41.472 -20.496  1.00  0.00    -0.595 OA
ENDBRANCH  13  64
BRANCH  32  68
HETATM   68  C32 UNL     1     -13.130  43.737 -27.349  1.00  0.00     0.172 C 
BRANCH  68  69
HETATM   69  O6  UNL     1     -11.802  43.728 -27.844  1.00  0.00    -0.400 OA
HETATM   70  H34 UNL     1     -11.804  44.245 -28.679  1.00  0.00     0.209 HD
ENDBRANCH  68  69
ENDBRANCH  32  68
BRANCH  26  71
HETATM   71  O5  UNL     1     -20.713  41.924 -24.791  1.00  0.00    -0.361 OA
HETATM   72  H27 UNL     1     -20.863  41.616 -25.699  1.00  0.00     0.217 HD
ENDBRANCH  26  71
TORSDOF 11
ENDMDL
MODEL 7
REMARK minimizedAffinity -8.13657379
REMARK CNNscore 0.143038556
REMARK CNNaffinity 6.49198008
REMARK  11 active torsions:
REMARK  status: ('A' for Active; 'I' for Inactive)
REMARK    1  A    between atoms: C13_13  and  S1_14 
REMARK    2  A    between atoms: C25_30  and  O5_31 
REMARK    3  A    between atoms: C31_37  and  C32_38 
REMARK    4  A    between atoms: C32_38  and  O6_39 
REMARK    5  A    between atoms: C40_47  and  C41_48 
REMARK    6  A    between atoms: C40_47  and  N1_59 
REMARK    7  A    between atoms: C41_48  and  C42_49 
REMARK    8  A    between atoms: C42_49  and  C43_50 
REMARK    9  A    between atoms: C42_49  and  C44_52 
REMARK   10  A    between atoms: C43_50  and  O7_51 
REMARK   11  A    between atoms: C44_52  and  C45_53 
REMARK       I    between atoms: C51_61  and  N2_62 
REMARK       I    between atoms: C51_61  and  N3_63 
ROOT
HETATM    1  C1  UNL     1       3.131  58.258  -7.174  1.00  0.00     0.011 C 
HETATM    2  C2  UNL     1       4.127  57.315  -7.841  1.00  0.00    -0.009 C 
HETATM    3  C3  UNL     1       5.267  56.979  -6.867  1.00  0.00     0.009 C 
HETATM    4  C4  UNL     1       6.365  56.164  -7.543  1.00  0.00     0.039 C 
HETATM    5  C5  UNL     1       5.842  55.040  -8.395  1.00  0.00    -0.049 C 
HETATM    6  C6  UNL     1       6.591  53.869  -8.555  1.00  0.00     0.044 C 
HETATM    7  C7  UNL     1       6.057  52.798  -9.276  1.00  0.00     0.073 C 
HETATM    8  C8  UNL     1       4.932  52.973 -10.072  1.00  0.00     0.037 C 
HETATM    9  C9  UNL     1       4.189  54.140  -9.939  1.00  0.00     0.011 C 
HETATM   10  C10 UNL     1       4.581  55.121  -9.010  1.00  0.00    -0.046 C 
HETATM   11  C11 UNL     1       3.485  56.034  -8.427  1.00  0.00     0.037 C 
HETATM   12  C12 UNL     1       2.735  55.099  -7.423  1.00  0.00     0.126 C 
HETATM   13  C13 UNL     1       1.331  55.394  -6.891  1.00  0.00     0.153 C 
HETATM   14  C14 UNL     1       0.783  54.385  -5.779  1.00  0.00     0.053 C 
HETATM   15  C15 UNL     1       0.083  55.254  -4.703  1.00  0.00    -0.013 C 
HETATM   16  C16 UNL     1       0.178  55.039  -3.374  1.00  0.00    -0.050 C 
HETATM   17  C17 UNL     1       0.791  53.763  -2.882  1.00  0.00     0.043 C 
HETATM   18  C18 UNL     1       2.130  53.611  -3.609  1.00  0.00     0.014 C 
HETATM   19  C19 UNL     1       3.099  54.837  -3.397  1.00  0.00     0.039 C 
HETATM   20  C20 UNL     1       2.731  55.828  -2.253  1.00  0.00     0.130 C 
HETATM   21  O4  UNL     1       1.657  56.657  -2.712  1.00  0.00    -0.371 OA
HETATM   22  C21 UNL     1       0.338  56.165  -2.388  1.00  0.00     0.185 C 
HETATM   23  C22 UNL     1      -0.607  57.352  -2.289  1.00  0.00    -0.006 A 
HETATM   24  C23 UNL     1      -1.876  57.357  -2.885  1.00  0.00     0.014 A 
HETATM   25  C24 UNL     1      -2.740  58.441  -2.706  1.00  0.00     0.037 A 
HETATM   26  C25 UNL     1      -2.353  59.522  -1.920  1.00  0.00     0.067 A 
HETATM   27  C26 UNL     1      -1.109  59.546  -1.298  1.00  0.00     0.057 A 
HETATM   28  C27 UNL     1      -0.241  58.466  -1.472  1.00  0.00     0.029 A 
HETATM   29  C28 UNL     1       1.049  58.484  -0.831  1.00  0.00    -0.066 C 
HETATM   30  C29 UNL     1       2.191  58.226  -0.559  1.00  0.00    -0.101 C 
HETATM   31  C30 UNL     1       3.531  57.610  -0.529  1.00  0.00     0.103 C 
HETATM   32  C31 UNL     1       3.886  56.786  -1.815  1.00  0.00     0.049 C 
HETATM   33  C33 UNL     1       1.740  53.276  -5.103  1.00  0.00     0.100 C 
HETATM   34  C34 UNL     1       2.776  52.488  -5.909  1.00  0.00    -0.040 A 
HETATM   35  C35 UNL     1       2.364  51.768  -7.044  1.00  0.00     0.009 A 
HETATM   36  C36 UNL     1       3.288  51.087  -7.852  1.00  0.00     0.012 A 
HETATM   37  C37 UNL     1       4.664  51.084  -7.556  1.00  0.00    -0.003 A 
HETATM   38  C38 UNL     1       5.060  51.743  -6.380  1.00  0.00     0.012 A 
HETATM   39  C39 UNL     1       4.135  52.425  -5.573  1.00  0.00     0.009 A 
HETATM   40  C40 UNL     1       5.712  50.507  -8.560  1.00  0.00     0.171 C 
HETATM   41  O8  UNL     1       6.626  51.570  -9.053  1.00  0.00    -0.316 OA
HETATM   42 NA1  UNL     1       3.783  53.673  -5.825  1.00  0.00    -0.240 Na
ENDROOT
BRANCH  40  43
HETATM   43  C41 UNL     1       6.692  49.517  -7.828  1.00  0.00     0.074 C 
BRANCH  43  44
HETATM   44  C42 UNL     1       8.152  49.415  -8.336  1.00  0.00     0.018 C 
BRANCH  44  45
HETATM   45  C43 UNL     1       8.321  48.711  -9.685  1.00  0.00     0.169 C 
BRANCH  45  46
HETATM   46  O7  UNL     1       7.992  49.550 -10.778  1.00  0.00    -0.400 OA
HETATM   47  H45 UNL     1       8.711  49.456 -11.432  1.00  0.00     0.209 HD
ENDBRANCH  45  46
ENDBRANCH  44  45
BRANCH  44  48
HETATM   48  C44 UNL     1       9.098  48.839  -7.249  1.00  0.00     0.045 C 
BRANCH  48  49
HETATM   49  C45 UNL     1      10.432  49.511  -7.026  1.00  0.00    -0.058 A 
HETATM   50  C46 UNL     1      10.655  50.316  -5.902  1.00  0.00     0.007 A 
HETATM   51  C47 UNL     1      11.896  50.922  -5.696  1.00  0.00     0.001 A 
HETATM   52  C48 UNL     1      12.931  50.726  -6.607  1.00  0.00     0.000 A 
HETATM   53  C49 UNL     1      12.725  49.926  -7.728  1.00  0.00     0.001 A 
HETATM   54  C50 UNL     1      11.484  49.321  -7.936  1.00  0.00     0.007 A 
ENDBRANCH  48  49
ENDBRANCH  44  48
ENDBRANCH  43  44
ENDBRANCH  40  43
BRANCH  40  55
HETATM   55  N1  UNL     1       5.044  49.706  -9.612  1.00  0.00    -0.336 N 
HETATM   56  C51 UNL     1       4.684  48.498  -9.394  1.00  0.00     0.124 C 
HETATM   57  N2  UNL     1       4.031  47.827 -10.366  1.00  0.00    -0.279 NA
HETATM   58  N3  UNL     1       4.814  47.751  -8.279  1.00  0.00    -0.279 NA
HETATM   59  H53 UNL     1       4.355  46.883 -10.526  1.00  0.00     0.126 HD
HETATM   60  H54 UNL     1       4.046  48.366 -11.228  1.00  0.00     0.126 HD
HETATM   61  H55 UNL     1       5.488  48.126  -7.616  1.00  0.00     0.126 HD
HETATM   62  H56 UNL     1       4.909  46.754  -8.403  1.00  0.00     0.126 HD
ATOM     63  H1  UNL     1       4.868  50.124 -10.525  1.00  0.00     0.165 HD
ENDBRANCH  40  55
BRANCH  13  64
HETATM   64  S1  UNL     1       0.109  55.431  -8.257  1.00  0.00     0.108 S 
HETATM   65  O1  UNL     1       0.928  55.312  -9.463  1.00  0.00    -0.595 OA
HETATM   66  O2  UNL     1      -0.575  56.713  -8.108  1.00  0.00    -0.595 OA
HETATM   67  O3  UNL     1      -0.752  54.279  -7.997  1.00  0.00    -0.595 OA
ENDBRANCH  13  64
BRANCH  32  68
HETATM   68  C32 UNL     1       4.373  57.710  -2.943  1.00  0.00     0.172 C 
BRANCH  68  69
HETATM   69  O6  UNL     1       3.346  58.515  -3.495  1.00  0.00    -0.400 OA
HETATM   70  H34 UNL     1       2.560  57.938  -3.608  1.00  0.00     0.209 HD
ENDBRANCH  68  69
ENDBRANCH  32  68
BRANCH  26  71
HETATM   71  O5  UNL     1      -3.236  60.554  -1.777  1.00  0.00    -0.361 OA
HETATM   72  H27 UNL     1      -2.812  61.244  -1.242  1.00  0.00     0.217 HD
ENDBRANCH  26  71
TORSDOF 11
ENDMDL
MODEL 8
REMARK minimizedAffinity -8.61177444
REMARK CNNscore 0.141583264
REMARK CNNaffinity 7.0217495
REMARK  11 active torsions:
REMARK  status: ('A' for Active; 'I' for Inactive)
REMARK    1  A    between atoms: C13_13  and  S1_14 
REMARK    2  A    between atoms: C25_30  and  O5_31 
REMARK    3  A    between atoms: C31_37  and  C32_38 
REMARK    4  A    between atoms: C32_38  and  O6_39 
REMARK    5  A    between atoms: C40_47  and  C41_48 
REMARK    6  A    between atoms: C40_47  and  N1_59 
REMARK    7  A    between atoms: C41_48  and  C42_49 
REMARK    8  A    between atoms: C42_49  and  C43_50 
REMARK    9  A    between atoms: C42_49  and  C44_52 
REMARK   10  A    between atoms: C43_50  and  O7_51 
REMARK   11  A    between atoms: C44_52  and  C45_53 
REMARK       I    between atoms: C51_61  and  N2_62 
REMARK       I    between atoms: C51_61  and  N3_63 
ROOT
HETATM    1  C1  UNL     1       7.058  54.839  -9.318  1.00  0.00     0.011 C 
HETATM    2  C2  UNL     1       5.585  55.234  -9.344  1.00  0.00    -0.009 C 
HETATM    3  C3  UNL     1       4.742  54.085  -9.918  1.00  0.00     0.009 C 
HETATM    4  C4  UNL     1       3.285  54.493 -10.106  1.00  0.00     0.039 C 
HETATM    5  C5  UNL     1       2.712  55.239  -8.931  1.00  0.00    -0.049 C 
HETATM    6  C6  UNL     1       1.351  55.136  -8.626  1.00  0.00     0.044 C 
HETATM    7  C7  UNL     1       0.848  55.761  -7.483  1.00  0.00     0.073 C 
HETATM    8  C8  UNL     1       1.603  56.711  -6.806  1.00  0.00     0.037 C 
HETATM    9  C9  UNL     1       2.952  56.839  -7.113  1.00  0.00     0.011 C 
HETATM   10  C10 UNL     1       3.532  56.015  -8.095  1.00  0.00    -0.046 C 
HETATM   11  C11 UNL     1       5.038  55.711  -7.976  1.00  0.00     0.037 C 
HETATM   12  C12 UNL     1       5.107  54.690  -6.795  1.00  0.00     0.126 C 
HETATM   13  C13 UNL     1       6.392  54.388  -6.020  1.00  0.00     0.153 C 
HETATM   14  C14 UNL     1       6.289  53.224  -4.930  1.00  0.00     0.053 C 
HETATM   15  C15 UNL     1       7.582  52.380  -5.064  1.00  0.00    -0.013 C 
HETATM   16  C16 UNL     1       7.619  51.033  -4.991  1.00  0.00    -0.050 C 
HETATM   17  C17 UNL     1       6.404  50.292  -4.522  1.00  0.00     0.043 C 
HETATM   18  C18 UNL     1       5.226  50.813  -5.351  1.00  0.00     0.014 C 
HETATM   19  C19 UNL     1       5.435  50.654  -6.905  1.00  0.00     0.039 C 
HETATM   20  C20 UNL     1       6.593  49.717  -7.362  1.00  0.00     0.130 C 
HETATM   21  O4  UNL     1       7.829  50.421  -7.188  1.00  0.00    -0.371 OA
HETATM   22  C21 UNL     1       8.471  50.203  -5.914  1.00  0.00     0.185 C 
HETATM   23  C22 UNL     1       9.969  50.393  -6.092  1.00  0.00    -0.006 A 
HETATM   24  C23 UNL     1      10.746  51.140  -5.195  1.00  0.00     0.014 A 
HETATM   25  C24 UNL     1      12.132  51.228  -5.358  1.00  0.00     0.037 A 
HETATM   26  C25 UNL     1      12.756  50.559  -6.406  1.00  0.00     0.067 A 
HETATM   27  C26 UNL     1      12.023  49.792  -7.305  1.00  0.00     0.057 A 
HETATM   28  C27 UNL     1      10.637  49.700  -7.148  1.00  0.00     0.029 A 
HETATM   29  C28 UNL     1       9.871  48.909  -8.076  1.00  0.00    -0.066 C 
HETATM   30  C29 UNL     1       8.946  48.459  -8.700  1.00  0.00    -0.101 C 
HETATM   31  C30 UNL     1       7.592  48.172  -9.206  1.00  0.00     0.103 C 
HETATM   32  C31 UNL     1       6.532  49.274  -8.859  1.00  0.00     0.049 C 
HETATM   33  C33 UNL     1       4.984  52.283  -4.823  1.00  0.00     0.100 C 
HETATM   34  C34 UNL     1       3.563  52.831  -4.985  1.00  0.00    -0.040 A 
HETATM   35  C35 UNL     1       3.139  53.897  -4.173  1.00  0.00     0.009 A 
HETATM   36  C36 UNL     1       1.871  54.477  -4.332  1.00  0.00     0.012 A 
HETATM   37  C37 UNL     1       0.964  54.009  -5.302  1.00  0.00    -0.003 A 
HETATM   38  C38 UNL     1       1.365  52.897  -6.061  1.00  0.00     0.012 A 
HETATM   39  C39 UNL     1       2.634  52.319  -5.901  1.00  0.00     0.009 A 
HETATM   40  C40 UNL     1      -0.357  54.781  -5.620  1.00  0.00     0.171 C 
HETATM   41  O8  UNL     1      -0.355  55.297  -7.014  1.00  0.00    -0.316 OA
HETATM   42 NA1  UNL     1       3.694  52.787  -6.537  1.00  0.00    -0.240 Na
ENDROOT
BRANCH  40  43
HETATM   43  C41 UNL     1      -1.586  53.798  -5.615  1.00  0.00     0.074 C 
BRANCH  43  44
HETATM   44  C42 UNL     1      -1.677  52.726  -6.729  1.00  0.00     0.018 C 
BRANCH  44  45
HETATM   45  C43 UNL     1      -0.905  51.433  -6.450  1.00  0.00     0.169 C 
BRANCH  45  46
HETATM   46  O7  UNL     1      -1.737  50.288  -6.485  1.00  0.00    -0.400 OA
HETATM   47  H45 UNL     1      -1.275  49.619  -7.026  1.00  0.00     0.209 HD
ENDBRANCH  45  46
ENDBRANCH  44  45
BRANCH  44  48
HETATM   48  C44 UNL     1      -1.346  53.319  -8.125  1.00  0.00     0.045 C 
BRANCH  48  49
HETATM   49  C45 UNL     1      -2.334  53.112  -9.248  1.00  0.00    -0.058 A 
HETATM   50  C46 UNL     1      -2.724  54.175 -10.072  1.00  0.00     0.007 A 
HETATM   51  C47 UNL     1      -3.628  53.971 -11.117  1.00  0.00     0.001 A 
HETATM   52  C48 UNL     1      -4.148  52.702 -11.356  1.00  0.00     0.000 A 
HETATM   53  C49 UNL     1      -3.767  51.634 -10.546  1.00  0.00     0.001 A 
HETATM   54  C50 UNL     1      -2.865  51.837  -9.500  1.00  0.00     0.007 A 
ENDBRANCH  48  49
ENDBRANCH  44  48
ENDBRANCH  43  44
ENDBRANCH  40  43
BRANCH  40  55
HETATM   55  N1  UNL     1      -0.643  55.786  -4.570  1.00  0.00    -0.336 N 
HETATM   56  C51 UNL     1      -1.221  55.456  -3.479  1.00  0.00     0.124 C 
HETATM   57  N2  UNL     1      -1.412  56.397  -2.531  1.00  0.00    -0.279 NA
HETATM   58  N3  UNL     1      -1.661  54.247  -3.071  1.00  0.00    -0.279 NA
HETATM   59  H53 UNL     1      -2.332  56.402  -2.111  1.00  0.00     0.126 HD
HETATM   60  H54 UNL     1      -1.179  57.314  -2.903  1.00  0.00     0.126 HD
HETATM   61  H55 UNL     1      -1.746  53.571  -3.826  1.00  0.00     0.126 HD
HETATM   62  H56 UNL     1      -2.456  54.234  -2.450  1.00  0.00     0.126 HD
ATOM     63  H1  UNL     1      -0.374  56.758  -4.720  1.00  0.00     0.165 HD
ENDBRANCH  40  55
BRANCH  13  64
HETATM   64  S1  UNL     1       7.012  55.890  -5.172  1.00  0.00     0.108 S 
HETATM   65  O1  UNL     1       5.823  56.731  -5.035  1.00  0.00    -0.595 OA
HETATM   66  O2  UNL     1       8.037  56.425  -6.065  1.00  0.00    -0.595 OA
HETATM   67  O3  UNL     1       7.546  55.391  -3.907  1.00  0.00    -0.595 OA
ENDBRANCH  13  64
BRANCH  32  68
HETATM   68  C32 UNL     1       6.615  50.449  -9.846  1.00  0.00     0.172 C 
BRANCH  68  69
HETATM   69  O6  UNL     1       7.552  51.441  -9.464  1.00  0.00    -0.400 OA
HETATM   70  H34 UNL     1       7.437  51.587  -8.501  1.00  0.00     0.209 HD
ENDBRANCH  68  69
ENDBRANCH  32  68
BRANCH  26  71
HETATM   71  O5  UNL     1      14.112  50.676  -6.518  1.00  0.00    -0.361 OA
HETATM   72  H27 UNL     1      14.395  50.193  -7.312  1.00  0.00     0.217 HD
ENDBRANCH  26  71
TORSDOF 11
ENDMDL
MODEL 9
REMARK minimizedAffinity -8.54076195
REMARK CNNscore 0.129348531
REMARK CNNaffinity 6.48286438
REMARK  11 active torsions:
REMARK  status: ('A' for Active; 'I' for Inactive)
REMARK    1  A    between atoms: C13_13  and  S1_14 
REMARK    2  A    between atoms: C25_30  and  O5_31 
REMARK    3  A    between atoms: C31_37  and  C32_38 
REMARK    4  A    between atoms: C32_38  and  O6_39 
REMARK    5  A    between atoms: C40_47  and  C41_48 
REMARK    6  A    between atoms: C40_47  and  N1_59 
REMARK    7  A    between atoms: C41_48  and  C42_49 
REMARK    8  A    between atoms: C42_49  and  C43_50 
REMARK    9  A    between atoms: C42_49  and  C44_52 
REMARK   10  A    between atoms: C43_50  and  O7_51 
REMARK   11  A    between atoms: C44_52  and  C45_53 
REMARK       I    between atoms: C51_61  and  N2_62 
REMARK       I    between atoms: C51_61  and  N3_63 
ROOT
HETATM    1  C1  UNL     1      -8.219  45.117 -25.499  1.00  0.00     0.011 C 
HETATM    2  C2  UNL     1      -9.433  45.504 -24.660  1.00  0.00    -0.009 C 
HETATM    3  C3  UNL     1      -9.977  46.866 -25.118  1.00  0.00     0.009 C 
HETATM    4  C4  UNL     1     -11.094  47.363 -24.207  1.00  0.00     0.039 C 
HETATM    5  C5  UNL     1     -12.107  46.305 -23.863  1.00  0.00    -0.049 C 
HETATM    6  C6  UNL     1     -13.439  46.656 -23.620  1.00  0.00     0.044 C 
HETATM    7  C7  UNL     1     -14.387  45.657 -23.387  1.00  0.00     0.073 C 
HETATM    8  C8  UNL     1     -13.989  44.355 -23.111  1.00  0.00     0.037 C 
HETATM    9  C9  UNL     1     -12.664  43.997 -23.328  1.00  0.00     0.011 C 
HETATM   10  C10 UNL     1     -11.750  44.947 -23.820  1.00  0.00    -0.046 C 
HETATM   11  C11 UNL     1     -10.546  44.429 -24.631  1.00  0.00     0.037 C 
HETATM   12  C12 UNL     1     -11.180  44.034 -26.004  1.00  0.00     0.126 C 
HETATM   13  C13 UNL     1     -10.496  43.102 -27.006  1.00  0.00     0.153 C 
HETATM   14  C14 UNL     1     -11.246  42.917 -28.406  1.00  0.00     0.053 C 
HETATM   15  C15 UNL     1     -10.149  42.955 -29.501  1.00  0.00    -0.013 C 
HETATM   16  C16 UNL     1     -10.282  43.585 -30.687  1.00  0.00    -0.050 C 
HETATM   17  C17 UNL     1     -11.633  44.085 -31.100  1.00  0.00     0.043 C 
HETATM   18  C18 UNL     1     -12.177  44.903 -29.925  1.00  0.00     0.014 C 
HETATM   19  C19 UNL     1     -11.229  46.087 -29.495  1.00  0.00     0.039 C 
HETATM   20  C20 UNL     1     -10.094  46.471 -30.492  1.00  0.00     0.130 C 
HETATM   21  O4  UNL     1      -9.053  45.493 -30.378  1.00  0.00    -0.371 OA
HETATM   22  C21 UNL     1      -9.165  44.387 -31.299  1.00  0.00     0.185 C 
HETATM   23  C22 UNL     1      -7.772  43.841 -31.566  1.00  0.00    -0.006 A 
HETATM   24  C23 UNL     1      -7.485  42.468 -31.558  1.00  0.00     0.014 A 
HETATM   25  C24 UNL     1      -6.205  42.008 -31.881  1.00  0.00     0.037 A 
HETATM   26  C25 UNL     1      -5.205  42.910 -32.230  1.00  0.00     0.067 A 
HETATM   27  C26 UNL     1      -5.455  44.278 -32.267  1.00  0.00     0.057 A 
HETATM   28  C27 UNL     1      -6.732  44.745 -31.947  1.00  0.00     0.029 A 
HETATM   29  C28 UNL     1      -6.998  46.160 -31.982  1.00  0.00    -0.066 C 
HETATM   30  C29 UNL     1      -7.520  47.228 -31.800  1.00  0.00    -0.101 C 
HETATM   31  C30 UNL     1      -8.455  48.289 -31.383  1.00  0.00     0.103 C 
HETATM   32  C31 UNL     1      -9.435  47.864 -30.235  1.00  0.00     0.049 C 
HETATM   33  C33 UNL     1     -12.510  43.832 -28.813  1.00  0.00     0.100 C 
HETATM   34  C34 UNL     1     -13.595  44.223 -27.805  1.00  0.00    -0.040 A 
HETATM   35  C35 UNL     1     -14.267  43.216 -27.091  1.00  0.00     0.009 A 
HETATM   36  C36 UNL     1     -15.220  43.529 -26.108  1.00  0.00     0.012 A 
HETATM   37  C37 UNL     1     -15.554  44.862 -25.805  1.00  0.00    -0.003 A 
HETATM   38  C38 UNL     1     -14.934  45.862 -26.573  1.00  0.00     0.012 A 
HETATM   39  C39 UNL     1     -13.980  45.547 -27.555  1.00  0.00     0.009 A 
HETATM   40  C40 UNL     1     -16.454  45.218 -24.578  1.00  0.00     0.171 C 
HETATM   41  O8  UNL     1     -15.700  46.009 -23.571  1.00  0.00    -0.316 OA
HETATM   42 NA1  UNL     1     -12.705  45.376 -27.252  1.00  0.00    -0.240 Na
ENDROOT
BRANCH  40  43
HETATM   43  C41 UNL     1     -17.605  46.202 -25.004  1.00  0.00     0.074 C 
BRANCH  43  44
HETATM   44  C42 UNL     1     -18.853  45.617 -25.708  1.00  0.00     0.018 C 
BRANCH  44  45
HETATM   45  C43 UNL     1     -20.178  45.839 -24.971  1.00  0.00     0.169 C 
BRANCH  45  46
HETATM   46  O7  UNL     1     -20.317  44.995 -23.843  1.00  0.00    -0.400 OA
HETATM   47  H45 UNL     1     -20.620  45.557 -23.104  1.00  0.00     0.209 HD
ENDBRANCH  45  46
ENDBRANCH  44  45
BRANCH  44  48
HETATM   48  C44 UNL     1     -18.645  44.131 -26.105  1.00  0.00     0.045 C 
BRANCH  48  49
HETATM   49  C45 UNL     1     -18.865  43.733 -27.545  1.00  0.00    -0.058 A 
HETATM   50  C46 UNL     1     -20.111  43.270 -27.984  1.00  0.00     0.007 A 
HETATM   51  C47 UNL     1     -20.309  42.917 -29.321  1.00  0.00     0.001 A 
HETATM   52  C48 UNL     1     -19.266  43.029 -30.237  1.00  0.00     0.000 A 
HETATM   53  C49 UNL     1     -18.021  43.491 -29.815  1.00  0.00     0.001 A 
HETATM   54  C50 UNL     1     -17.822  43.842 -28.479  1.00  0.00     0.007 A 
ENDBRANCH  48  49
ENDBRANCH  44  48
ENDBRANCH  43  44
ENDBRANCH  40  43
BRANCH  40  55
HETATM   55  N1  UNL     1     -17.132  44.008 -24.059  1.00  0.00    -0.336 N 
HETATM   56  C51 UNL     1     -17.625  43.981 -22.879  1.00  0.00     0.124 C 
HETATM   57  N2  UNL     1     -18.280  42.874 -22.471  1.00  0.00    -0.279 NA
HETATM   58  N3  UNL     1     -17.642  44.943 -21.934  1.00  0.00    -0.279 NA
HETATM   59  H53 UNL     1     -18.044  42.556 -21.541  1.00  0.00     0.126 HD
HETATM   60  H54 UNL     1     -18.156  42.129 -23.151  1.00  0.00     0.126 HD
HETATM   61  H55 UNL     1     -16.976  45.692 -22.106  1.00  0.00     0.126 HD
HETATM   62  H56 UNL     1     -17.641  44.639 -20.971  1.00  0.00     0.126 HD
ATOM     63  H1  UNL     1     -17.207  43.181 -24.652  1.00  0.00     0.165 HD
ENDBRANCH  40  55
BRANCH  13  64
HETATM   64  S1  UNL     1     -10.248  41.435 -26.285  1.00  0.00     0.108 S 
HETATM   65  O1  UNL     1     -11.343  41.302 -25.325  1.00  0.00    -0.595 OA
HETATM   66  O2  UNL     1      -8.916  41.484 -25.688  1.00  0.00    -0.595 OA
HETATM   67  O3  UNL     1     -10.339  40.533 -27.431  1.00  0.00    -0.595 OA
ENDBRANCH  13  64
BRANCH  32  68
HETATM   68  C32 UNL     1      -8.753  47.973 -28.861  1.00  0.00     0.172 C 
BRANCH  68  69
HETATM   69  O6  UNL     1      -7.547  48.716 -28.888  1.00  0.00    -0.400 OA
HETATM   70  H34 UNL     1      -7.052  48.429 -29.686  1.00  0.00     0.209 HD
ENDBRANCH  68  69
ENDBRANCH  32  68
BRANCH  26  71
HETATM   71  O5  UNL     1      -3.973  42.408 -32.538  1.00  0.00    -0.361 OA
HETATM   72  H27 UNL     1      -3.377  43.152 -32.718  1.00  0.00     0.217 HD
ENDBRANCH  26  71
TORSDOF 11
ENDMDL
