MODEL 1
REMARK minimizedAffinity -10.1383533
REMARK  7 active torsions:
REMARK  status: ('A' for Active; 'I' for Inactive)
REMARK    1  A    between atoms: C2_2  and  C4_4 
REMARK    2  A    between atoms: C7_7  and  O1_9 
REMARK    3  A    between atoms: C9_10  and  C10_11 
REMARK    4  A    between atoms: C11_12  and  C12_13 
REMARK    5  A    between atoms: C14_15  and  C15_16 
REMARK    6  A    between atoms: C24_26  and  C26_28 
REMARK    7  A    between atoms: C29_32  and  O4_34 
ROOT
HETATM    1  C15 UNL     1      -4.935  47.785 -29.181  1.00  0.00     0.149 C 
HETATM    2  C16 UNL     1      -6.310  47.213 -28.839  1.00  0.00     0.054 C 
HETATM    3  C17 UNL     1      -7.039  46.997 -30.200  1.00  0.00     0.050 C 
HETATM    4  C18 UNL     1      -5.820  47.069 -31.163  1.00  0.00     0.272 C 
HETATM    5  O2  UNL     1      -5.056  45.869 -31.265  1.00  0.00    -0.360 OA
HETATM    6  C19 UNL     1      -5.550  44.947 -32.216  1.00  0.00     0.171 C 
HETATM    7  C20 UNL     1      -6.448  43.920 -31.549  1.00  0.00     0.027 C 
HETATM    8  C21 UNL     1      -7.017  44.350 -30.201  1.00  0.00     0.012 C 
HETATM    9  C22 UNL     1      -7.858  45.648 -30.190  1.00  0.00     0.032 C 
HETATM   10  C23 UNL     1      -9.014  45.588 -31.215  1.00  0.00    -0.066 C 
HETATM   11  C24 UNL     1     -10.099  44.777 -31.102  1.00  0.00    -0.021 C 
HETATM   12  C25 UNL     1     -11.204  44.666 -32.115  1.00  0.00     0.052 C 
HETATM   13  C27 UNL     1      -8.878  46.562 -32.362  1.00  0.00     0.038 C 
HETATM   14  C28 UNL     1      -8.695  48.009 -31.904  1.00  0.00     0.042 C 
HETATM   15  C29 UNL     1      -8.057  48.175 -30.505  1.00  0.00     0.067 C 
HETATM   16  C30 UNL     1      -9.189  48.313 -29.457  1.00  0.00     0.047 C 
HETATM   17  O5  UNL     1      -4.929  48.039 -30.588  1.00  0.00    -0.351 OA
ENDROOT
BRANCH   1  18
HETATM   18  C14 UNL     1      -4.283  48.940 -28.472  1.00  0.00     0.011 C 
HETATM   19  C12 UNL     1      -3.857  49.185 -27.214  1.00  0.00    -0.064 C 
HETATM   20  C13 UNL     1      -4.047  48.276 -26.034  1.00  0.00     0.048 C 
BRANCH  19  21
HETATM   21  C11 UNL     1      -3.185  50.468 -26.961  1.00  0.00     0.003 C 
HETATM   22  C10 UNL     1      -2.199  50.702 -26.082  1.00  0.00    -0.018 C 
BRANCH  22  23
HETATM   23  C9  UNL     1      -1.496  52.016 -25.790  1.00  0.00     0.050 C 
HETATM   24  C4  UNL     1      -0.300  52.040 -24.785  1.00  0.00     0.024 C 
HETATM   25  C5  UNL     1       0.694  53.085 -25.353  1.00  0.00     0.013 C 
HETATM   26  C6  UNL     1      -0.039  53.785 -26.486  1.00  0.00     0.039 C 
HETATM   27  C7  UNL     1      -0.948  52.702 -27.070  1.00  0.00     0.062 C 
HETATM   28  C8  UNL     1      -0.187  51.766 -28.016  1.00  0.00     0.046 C 
BRANCH  24  29
HETATM   29  C2  UNL     1      -0.772  52.281 -23.351  1.00  0.00    -0.088 C 
HETATM   30  C1  UNL     1      -2.058  52.261 -22.958  1.00  0.00     0.014 C 
HETATM   31  C3  UNL     1       0.314  52.537 -22.339  1.00  0.00     0.043 C 
ENDBRANCH  24  29
BRANCH  27  32
HETATM   32  O1  UNL     1      -2.011  53.320 -27.798  1.00  0.00    -0.390 OA
HETATM   33  H14 UNL     1      -1.620  53.771 -28.566  1.00  0.00     0.210 HD
ENDBRANCH  27  32
ENDBRANCH  22  23
ENDBRANCH  19  21
ENDBRANCH   1  18
BRANCH  15  34
HETATM   34  O4  UNL     1      -7.381  49.435 -30.521  1.00  0.00    -0.389 OA
HETATM   35  H44 UNL     1      -8.031  50.147 -30.649  1.00  0.00     0.210 HD
ENDBRANCH  15  34
BRANCH  11  36
HETATM   36  C26 UNL     1     -10.301  43.870 -29.929  1.00  0.00     0.265 C 
HETATM   37  O3  UNL     1     -10.748  44.238 -28.851  1.00  0.00    -0.302 OA
ENDBRANCH  11  36
TORSDOF 7
ENDMDL
MODEL 2
REMARK minimizedAffinity -9.54139042
REMARK  7 active torsions:
REMARK  status: ('A' for Active; 'I' for Inactive)
REMARK    1  A    between atoms: C2_2  and  C4_4 
REMARK    2  A    between atoms: C7_7  and  O1_9 
REMARK    3  A    between atoms: C9_10  and  C10_11 
REMARK    4  A    between atoms: C11_12  and  C12_13 
REMARK    5  A    between atoms: C14_15  and  C15_16 
REMARK    6  A    between atoms: C24_26  and  C26_28 
REMARK    7  A    between atoms: C29_32  and  O4_34 
ROOT
HETATM    1  C15 UNL     1      -3.964  48.383 -25.378  1.00  0.00     0.149 C 
HETATM    2  C16 UNL     1      -2.809  49.263 -24.899  1.00  0.00     0.054 C 
HETATM    3  C17 UNL     1      -3.270  49.883 -23.545  1.00  0.00     0.050 C 
HETATM    4  C18 UNL     1      -4.458  48.933 -23.215  1.00  0.00     0.272 C 
HETATM    5  O2  UNL     1      -4.090  47.682 -22.635  1.00  0.00    -0.360 OA
HETATM    6  C19 UNL     1      -3.937  47.718 -21.231  1.00  0.00     0.171 C 
HETATM    7  C20 UNL     1      -2.482  47.935 -20.857  1.00  0.00     0.027 C 
HETATM    8  C21 UNL     1      -1.624  48.545 -21.961  1.00  0.00     0.012 C 
HETATM    9  C22 UNL     1      -2.080  49.918 -22.509  1.00  0.00     0.032 C 
HETATM   10  C23 UNL     1      -2.240  50.960 -21.378  1.00  0.00    -0.066 C 
HETATM   11  C24 UNL     1      -1.208  51.486 -20.667  1.00  0.00    -0.021 C 
HETATM   12  C25 UNL     1      -1.349  52.457 -19.529  1.00  0.00     0.052 C 
HETATM   13  C27 UNL     1      -3.663  51.409 -21.144  1.00  0.00     0.038 C 
HETATM   14  C28 UNL     1      -4.342  51.939 -22.407  1.00  0.00     0.042 C 
HETATM   15  C29 UNL     1      -3.786  51.371 -23.735  1.00  0.00     0.067 C 
HETATM   16  C30 UNL     1      -2.711  52.343 -24.278  1.00  0.00     0.047 C 
HETATM   17  O5  UNL     1      -5.054  48.605 -24.480  1.00  0.00    -0.351 OA
ENDROOT
BRANCH   1  18
HETATM   18  C14 UNL     1      -4.489  48.345 -26.787  1.00  0.00     0.011 C 
HETATM   19  C12 UNL     1      -5.641  47.961 -27.377  1.00  0.00    -0.064 C 
HETATM   20  C13 UNL     1      -6.799  47.298 -26.689  1.00  0.00     0.048 C 
BRANCH  19  21
HETATM   21  C11 UNL     1      -5.763  48.170 -28.828  1.00  0.00     0.003 C 
HETATM   22  C10 UNL     1      -6.730  47.699 -29.631  1.00  0.00    -0.018 C 
BRANCH  22  23
HETATM   23  C9  UNL     1      -6.876  47.887 -31.131  1.00  0.00     0.050 C 
HETATM   24  C4  UNL     1      -6.519  46.706 -32.091  1.00  0.00     0.024 C 
HETATM   25  C5  UNL     1      -7.544  46.795 -33.251  1.00  0.00     0.013 C 
HETATM   26  C6  UNL     1      -8.272  48.117 -33.063  1.00  0.00     0.039 C 
HETATM   27  C7  UNL     1      -8.310  48.312 -31.546  1.00  0.00     0.062 C 
HETATM   28  C8  UNL     1      -9.430  47.495 -30.892  1.00  0.00     0.046 C 
BRANCH  24  29
HETATM   29  C2  UNL     1      -5.046  46.737 -32.499  1.00  0.00    -0.088 C 
HETATM   30  C1  UNL     1      -4.090  45.961 -31.960  1.00  0.00     0.014 C 
HETATM   31  C3  UNL     1      -4.692  47.706 -33.597  1.00  0.00     0.043 C 
ENDBRANCH  24  29
BRANCH  27  32
HETATM   32  O1  UNL     1      -8.525  49.694 -31.255  1.00  0.00    -0.390 OA
HETATM   33  H14 UNL     1      -9.415  49.928 -31.568  1.00  0.00     0.210 HD
ENDBRANCH  27  32
ENDBRANCH  22  23
ENDBRANCH  19  21
ENDBRANCH   1  18
BRANCH  15  34
HETATM   34  O4  UNL     1      -4.865  51.415 -24.671  1.00  0.00    -0.389 OA
HETATM   35  H44 UNL     1      -5.126  52.341 -24.818  1.00  0.00     0.210 HD
ENDBRANCH  15  34
BRANCH  11  36
HETATM   36  C26 UNL     1       0.219  51.125 -20.942  1.00  0.00     0.265 C 
HETATM   37  O3  UNL     1       0.951  51.759 -21.689  1.00  0.00    -0.302 OA
ENDBRANCH  11  36
TORSDOF 7
ENDMDL
MODEL 3
REMARK minimizedAffinity -9.45172405
REMARK  7 active torsions:
REMARK  status: ('A' for Active; 'I' for Inactive)
REMARK    1  A    between atoms: C2_2  and  C4_4 
REMARK    2  A    between atoms: C7_7  and  O1_9 
REMARK    3  A    between atoms: C9_10  and  C10_11 
REMARK    4  A    between atoms: C11_12  and  C12_13 
REMARK    5  A    between atoms: C14_15  and  C15_16 
REMARK    6  A    between atoms: C24_26  and  C26_28 
REMARK    7  A    between atoms: C29_32  and  O4_34 
ROOT
HETATM    1  C15 UNL     1      -5.265  47.627 -28.607  1.00  0.00     0.149 C 
HETATM    2  C16 UNL     1      -6.299  46.661 -29.184  1.00  0.00     0.054 C 
HETATM    3  C17 UNL     1      -6.838  47.330 -30.485  1.00  0.00     0.050 C 
HETATM    4  C18 UNL     1      -5.725  48.394 -30.710  1.00  0.00     0.272 C 
HETATM    5  O2  UNL     1      -4.537  47.906 -31.331  1.00  0.00    -0.360 OA
HETATM    6  C19 UNL     1      -4.586  47.891 -32.744  1.00  0.00     0.171 C 
HETATM    7  C20 UNL     1      -5.009  46.523 -33.250  1.00  0.00     0.027 C 
HETATM    8  C21 UNL     1      -5.742  45.663 -32.226  1.00  0.00     0.012 C 
HETATM    9  C22 UNL     1      -7.038  46.259 -31.627  1.00  0.00     0.032 C 
HETATM   10  C23 UNL     1      -8.040  46.672 -32.730  1.00  0.00    -0.066 C 
HETATM   11  C24 UNL     1      -8.705  45.797 -33.529  1.00  0.00    -0.021 C 
HETATM   12  C25 UNL     1      -9.640  46.182 -34.641  1.00  0.00     0.052 C 
HETATM   13  C27 UNL     1      -8.278  48.161 -32.826  1.00  0.00     0.038 C 
HETATM   14  C28 UNL     1      -8.712  48.788 -31.502  1.00  0.00     0.042 C 
HETATM   15  C29 UNL     1      -8.237  48.035 -30.236  1.00  0.00     0.067 C 
HETATM   16  C30 UNL     1      -9.357  47.066 -29.787  1.00  0.00     0.047 C 
HETATM   17  O5  UNL     1      -5.322  48.816 -29.398  1.00  0.00    -0.351 OA
ENDROOT
BRANCH   1  18
HETATM   18  C14 UNL     1      -5.159  48.007 -27.156  1.00  0.00     0.011 C 
HETATM   19  C12 UNL     1      -4.180  48.471 -26.349  1.00  0.00    -0.064 C 
HETATM   20  C13 UNL     1      -2.740  48.651 -26.733  1.00  0.00     0.048 C 
BRANCH  19  21
HETATM   21  C11 UNL     1      -4.541  48.791 -24.959  1.00  0.00     0.003 C 
HETATM   22  C10 UNL     1      -3.770  49.405 -24.048  1.00  0.00    -0.018 C 
BRANCH  22  23
HETATM   23  C9  UNL     1      -4.109  49.737 -22.605  1.00  0.00     0.050 C 
HETATM   24  C4  UNL     1      -3.001  49.616 -21.509  1.00  0.00     0.024 C 
HETATM   25  C5  UNL     1      -3.274  50.777 -20.519  1.00  0.00     0.013 C 
HETATM   26  C6  UNL     1      -4.622  51.358 -20.919  1.00  0.00     0.039 C 
HETATM   27  C7  UNL     1      -4.675  51.172 -22.436  1.00  0.00     0.062 C 
HETATM   28  C8  UNL     1      -3.884  52.259 -23.173  1.00  0.00     0.046 C 
BRANCH  24  29
HETATM   29  C2  UNL     1      -2.962  48.215 -20.898  1.00  0.00    -0.088 C 
HETATM   30  C1  UNL     1      -3.725  47.812 -19.866  1.00  0.00     0.014 C 
HETATM   31  C3  UNL     1      -2.001  47.248 -21.540  1.00  0.00     0.043 C 
ENDBRANCH  24  29
BRANCH  27  32
HETATM   32  O1  UNL     1      -6.036  51.226 -22.869  1.00  0.00    -0.390 OA
HETATM   33  H14 UNL     1      -6.362  52.127 -22.708  1.00  0.00     0.210 HD
ENDBRANCH  27  32
ENDBRANCH  22  23
ENDBRANCH  19  21
ENDBRANCH   1  18
BRANCH  15  34
HETATM   34  O4  UNL     1      -8.130  49.018 -29.203  1.00  0.00    -0.389 OA
HETATM   35  H44 UNL     1      -9.010  49.394 -29.025  1.00  0.00     0.210 HD
ENDBRANCH  15  34
BRANCH  11  36
HETATM   36  C26 UNL     1      -8.555  44.314 -33.391  1.00  0.00     0.265 C 
HETATM   37  O3  UNL     1      -8.262  43.569 -34.317  1.00  0.00    -0.302 OA
ENDBRANCH  11  36
TORSDOF 7
ENDMDL
MODEL 4
REMARK minimizedAffinity -9.32574844
REMARK  7 active torsions:
REMARK  status: ('A' for Active; 'I' for Inactive)
REMARK    1  A    between atoms: C2_2  and  C4_4 
REMARK    2  A    between atoms: C7_7  and  O1_9 
REMARK    3  A    between atoms: C9_10  and  C10_11 
REMARK    4  A    between atoms: C11_12  and  C12_13 
REMARK    5  A    between atoms: C14_15  and  C15_16 
REMARK    6  A    between atoms: C24_26  and  C26_28 
REMARK    7  A    between atoms: C29_32  and  O4_34 
ROOT
HETATM    1  C15 UNL     1      -4.093  48.286 -24.072  1.00  0.00     0.149 C 
HETATM    2  C16 UNL     1      -3.055  49.396 -23.915  1.00  0.00     0.054 C 
HETATM    3  C17 UNL     1      -3.188  49.909 -22.449  1.00  0.00     0.050 C 
HETATM    4  C18 UNL     1      -3.990  48.727 -21.832  1.00  0.00     0.272 C 
HETATM    5  O2  UNL     1      -3.210  47.588 -21.472  1.00  0.00    -0.360 OA
HETATM    6  C19 UNL     1      -2.637  47.663 -20.182  1.00  0.00     0.171 C 
HETATM    7  C20 UNL     1      -1.216  48.192 -20.258  1.00  0.00     0.027 C 
HETATM    8  C21 UNL     1      -0.891  48.967 -21.531  1.00  0.00     0.012 C 
HETATM    9  C22 UNL     1      -1.768  50.205 -21.826  1.00  0.00     0.032 C 
HETATM   10  C23 UNL     1      -1.780  51.195 -20.638  1.00  0.00    -0.066 C 
HETATM   11  C24 UNL     1      -0.710  51.935 -20.245  1.00  0.00    -0.021 C 
HETATM   12  C25 UNL     1      -0.686  52.859 -19.060  1.00  0.00     0.052 C 
HETATM   13  C27 UNL     1      -3.120  51.327 -19.952  1.00  0.00     0.038 C 
HETATM   14  C28 UNL     1      -4.253  51.691 -20.912  1.00  0.00     0.042 C 
HETATM   15  C29 UNL     1      -4.034  51.249 -22.378  1.00  0.00     0.067 C 
HETATM   16  C30 UNL     1      -3.408  52.428 -23.163  1.00  0.00     0.047 C 
HETATM   17  O5  UNL     1      -4.870  48.271 -22.872  1.00  0.00    -0.351 OA
ENDROOT
BRANCH   1  18
HETATM   18  C14 UNL     1      -5.012  48.127 -25.252  1.00  0.00     0.011 C 
HETATM   19  C12 UNL     1      -4.872  48.160 -26.595  1.00  0.00    -0.064 C 
HETATM   20  C13 UNL     1      -3.614  48.509 -27.336  1.00  0.00     0.048 C 
BRANCH  19  21
HETATM   21  C11 UNL     1      -6.062  47.871 -27.410  1.00  0.00     0.003 C 
HETATM   22  C10 UNL     1      -6.152  47.913 -28.748  1.00  0.00    -0.018 C 
BRANCH  22  23
HETATM   23  C9  UNL     1      -7.368  47.633 -29.614  1.00  0.00     0.050 C 
HETATM   24  C4  UNL     1      -7.847  46.159 -29.811  1.00  0.00     0.024 C 
HETATM   25  C5  UNL     1      -9.395  46.233 -29.864  1.00  0.00     0.013 C 
HETATM   26  C6  UNL     1      -9.739  47.712 -29.942  1.00  0.00     0.039 C 
HETATM   27  C7  UNL     1      -8.633  48.398 -29.139  1.00  0.00     0.062 C 
HETATM   28  C8  UNL     1      -8.891  48.323 -27.630  1.00  0.00     0.046 C 
BRANCH  24  29
HETATM   29  C2  UNL     1      -7.171  45.502 -31.015  1.00  0.00    -0.088 C 
HETATM   30  C1  UNL     1      -6.856  46.142 -32.155  1.00  0.00     0.014 C 
HETATM   31  C3  UNL     1      -6.837  44.041 -30.861  1.00  0.00     0.043 C 
ENDBRANCH  24  29
BRANCH  27  32
HETATM   32  O1  UNL     1      -8.557  49.773 -29.520  1.00  0.00    -0.390 OA
HETATM   33  H14 UNL     1      -9.383  50.203 -29.242  1.00  0.00     0.210 HD
ENDBRANCH  27  32
ENDBRANCH  22  23
ENDBRANCH  19  21
ENDBRANCH   1  18
BRANCH  15  34
HETATM   34  O4  UNL     1      -5.336  51.054 -22.936  1.00  0.00    -0.389 OA
HETATM   35  H44 UNL     1      -5.815  51.901 -22.937  1.00  0.00     0.210 HD
ENDBRANCH  15  34
BRANCH  11  36
HETATM   36  C26 UNL     1       0.602  51.889 -20.965  1.00  0.00     0.265 C 
HETATM   37  O3  UNL     1       0.859  52.556 -21.959  1.00  0.00    -0.302 OA
ENDBRANCH  11  36
TORSDOF 7
ENDMDL
MODEL 5
REMARK minimizedAffinity -9.24766731
REMARK  7 active torsions:
REMARK  status: ('A' for Active; 'I' for Inactive)
REMARK    1  A    between atoms: C2_2  and  C4_4 
REMARK    2  A    between atoms: C7_7  and  O1_9 
REMARK    3  A    between atoms: C9_10  and  C10_11 
REMARK    4  A    between atoms: C11_12  and  C12_13 
REMARK    5  A    between atoms: C14_15  and  C15_16 
REMARK    6  A    between atoms: C24_26  and  C26_28 
REMARK    7  A    between atoms: C29_32  and  O4_34 
ROOT
HETATM    1  C15 UNL     1      -4.935  47.844 -28.464  1.00  0.00     0.149 C 
HETATM    2  C16 UNL     1      -5.989  46.808 -28.853  1.00  0.00     0.054 C 
HETATM    3  C17 UNL     1      -6.729  47.390 -30.096  1.00  0.00     0.050 C 
HETATM    4  C18 UNL     1      -5.708  48.487 -30.516  1.00  0.00     0.272 C 
HETATM    5  O2  UNL     1      -4.592  48.019 -31.271  1.00  0.00    -0.360 OA
HETATM    6  C19 UNL     1      -4.829  47.932 -32.662  1.00  0.00     0.171 C 
HETATM    7  C20 UNL     1      -5.250  46.525 -33.046  1.00  0.00     0.027 C 
HETATM    8  C21 UNL     1      -5.798  45.686 -31.895  1.00  0.00     0.012 C 
HETATM    9  C22 UNL     1      -7.029  46.256 -31.153  1.00  0.00     0.032 C 
HETATM   10  C23 UNL     1      -8.188  46.573 -32.126  1.00  0.00    -0.066 C 
HETATM   11  C24 UNL     1      -8.911  45.633 -32.789  1.00  0.00    -0.021 C 
HETATM   12  C25 UNL     1     -10.004  45.923 -33.779  1.00  0.00     0.052 C 
HETATM   13  C27 UNL     1      -8.508  48.044 -32.253  1.00  0.00     0.038 C 
HETATM   14  C28 UNL     1      -8.789  48.717 -30.910  1.00  0.00     0.042 C 
HETATM   15  C29 UNL     1      -8.114  48.048 -29.690  1.00  0.00     0.067 C 
HETATM   16  C30 UNL     1      -9.116  47.056 -29.051  1.00  0.00     0.047 C 
HETATM   17  O5  UNL     1      -5.154  48.990 -29.290  1.00  0.00    -0.351 OA
ENDROOT
BRANCH   1  18
HETATM   18  C14 UNL     1      -4.654  48.300 -27.058  1.00  0.00     0.011 C 
HETATM   19  C12 UNL     1      -5.304  48.241 -25.876  1.00  0.00    -0.064 C 
HETATM   20  C13 UNL     1      -6.699  47.725 -25.670  1.00  0.00     0.048 C 
BRANCH  19  21
HETATM   21  C11 UNL     1      -4.609  48.765 -24.691  1.00  0.00     0.003 C 
HETATM   22  C10 UNL     1      -3.350  48.496 -24.311  1.00  0.00    -0.018 C 
BRANCH  22  23
HETATM   23  C9  UNL     1      -2.611  49.010 -23.088  1.00  0.00     0.050 C 
HETATM   24  C4  UNL     1      -3.008  50.392 -22.476  1.00  0.00     0.024 C 
HETATM   25  C5  UNL     1      -2.849  50.224 -20.943  1.00  0.00     0.013 C 
HETATM   26  C6  UNL     1      -2.155  48.886 -20.740  1.00  0.00     0.039 C 
HETATM   27  C7  UNL     1      -2.665  48.020 -21.894  1.00  0.00     0.062 C 
HETATM   28  C8  UNL     1      -4.058  47.447 -21.606  1.00  0.00     0.046 C 
BRANCH  24  29
HETATM   29  C2  UNL     1      -2.215  51.537 -23.106  1.00  0.00    -0.088 C 
HETATM   30  C1  UNL     1      -2.759  52.537 -23.821  1.00  0.00     0.014 C 
HETATM   31  C3  UNL     1      -0.728  51.512 -22.868  1.00  0.00     0.043 C 
ENDBRANCH  24  29
BRANCH  27  32
HETATM   32  O1  UNL     1      -1.760  46.935 -22.104  1.00  0.00    -0.390 OA
HETATM   33  H14 UNL     1      -1.795  46.364 -21.318  1.00  0.00     0.210 HD
ENDBRANCH  27  32
ENDBRANCH  22  23
ENDBRANCH  19  21
ENDBRANCH   1  18
BRANCH  15  34
HETATM   34  O4  UNL     1      -7.917  49.084 -28.724  1.00  0.00    -0.389 OA
HETATM   35  H44 UNL     1      -8.782  49.432 -28.445  1.00  0.00     0.210 HD
ENDBRANCH  15  34
BRANCH  11  36
HETATM   36  C26 UNL     1      -8.673  44.166 -32.609  1.00  0.00     0.265 C 
HETATM   37  O3  UNL     1      -8.458  43.392 -33.532  1.00  0.00    -0.302 OA
ENDBRANCH  11  36
TORSDOF 7
ENDMDL
MODEL 6
REMARK minimizedAffinity -9.16480255
REMARK  7 active torsions:
REMARK  status: ('A' for Active; 'I' for Inactive)
REMARK    1  A    between atoms: C2_2  and  C4_4 
REMARK    2  A    between atoms: C7_7  and  O1_9 
REMARK    3  A    between atoms: C9_10  and  C10_11 
REMARK    4  A    between atoms: C11_12  and  C12_13 
REMARK    5  A    between atoms: C14_15  and  C15_16 
REMARK    6  A    between atoms: C24_26  and  C26_28 
REMARK    7  A    between atoms: C29_32  and  O4_34 
ROOT
HETATM    1  C15 UNL     1      -5.175  47.696 -28.735  1.00  0.00     0.149 C 
HETATM    2  C16 UNL     1      -6.351  46.728 -28.607  1.00  0.00     0.054 C 
HETATM    3  C17 UNL     1      -7.276  47.006 -29.830  1.00  0.00     0.050 C 
HETATM    4  C18 UNL     1      -6.285  47.800 -30.730  1.00  0.00     0.272 C 
HETATM    5  O2  UNL     1      -5.368  46.999 -31.474  1.00  0.00    -0.360 OA
HETATM    6  C19 UNL     1      -5.874  46.539 -32.712  1.00  0.00     0.171 C 
HETATM    7  C20 UNL     1      -6.453  45.143 -32.567  1.00  0.00     0.027 C 
HETATM    8  C21 UNL     1      -6.823  44.751 -31.140  1.00  0.00     0.012 C 
HETATM    9  C22 UNL     1      -7.848  45.658 -30.420  1.00  0.00     0.032 C 
HETATM   10  C23 UNL     1      -9.149  45.815 -31.240  1.00  0.00    -0.066 C 
HETATM   11  C24 UNL     1     -10.047  44.818 -31.452  1.00  0.00    -0.021 C 
HETATM   12  C25 UNL     1     -11.288  44.936 -32.292  1.00  0.00     0.052 C 
HETATM   13  C27 UNL     1      -9.389  47.212 -31.764  1.00  0.00     0.038 C 
HETATM   14  C28 UNL     1      -9.362  48.277 -30.668  1.00  0.00     0.042 C 
HETATM   15  C29 UNL     1      -8.510  47.917 -29.428  1.00  0.00     0.067 C 
HETATM   16  C30 UNL     1      -9.434  47.285 -28.359  1.00  0.00     0.047 C 
HETATM   17  O5  UNL     1      -5.473  48.568 -29.828  1.00  0.00    -0.351 OA
ENDROOT
BRANCH   1  18
HETATM   18  C14 UNL     1      -4.599  48.505 -27.605  1.00  0.00     0.011 C 
HETATM   19  C12 UNL     1      -4.832  48.614 -26.279  1.00  0.00    -0.064 C 
HETATM   20  C13 UNL     1      -5.938  47.933 -25.526  1.00  0.00     0.048 C 
BRANCH  19  21
HETATM   21  C11 UNL     1      -3.955  49.506 -25.507  1.00  0.00     0.003 C 
HETATM   22  C10 UNL     1      -3.450  50.684 -25.906  1.00  0.00    -0.018 C 
BRANCH  22  23
HETATM   23  C9  UNL     1      -2.534  51.620 -25.137  1.00  0.00     0.050 C 
HETATM   24  C4  UNL     1      -1.944  51.160 -23.765  1.00  0.00     0.024 C 
HETATM   25  C5  UNL     1      -0.512  51.752 -23.713  1.00  0.00     0.013 C 
HETATM   26  C6  UNL     1      -0.412  52.704 -24.895  1.00  0.00     0.039 C 
HETATM   27  C7  UNL     1      -1.300  52.067 -25.966  1.00  0.00     0.062 C 
HETATM   28  C8  UNL     1      -0.582  50.930 -26.702  1.00  0.00     0.046 C 
BRANCH  24  29
HETATM   29  C2  UNL     1      -2.862  51.534 -22.602  1.00  0.00    -0.088 C 
HETATM   30  C1  UNL     1      -2.634  51.212 -21.316  1.00  0.00     0.014 C 
HETATM   31  C3  UNL     1      -4.086  52.334 -22.966  1.00  0.00     0.043 C 
ENDBRANCH  24  29
BRANCH  27  32
HETATM   32  O1  UNL     1      -1.675  53.063 -26.920  1.00  0.00    -0.390 OA
HETATM   33  H14 UNL     1      -0.869  53.344 -27.386  1.00  0.00     0.210 HD
ENDBRANCH  27  32
ENDBRANCH  22  23
ENDBRANCH  19  21
ENDBRANCH   1  18
BRANCH  15  34
HETATM   34  O4  UNL     1      -8.063  49.158 -28.876  1.00  0.00    -0.389 OA
HETATM   35  H44 UNL     1      -8.833  49.675 -28.582  1.00  0.00     0.210 HD
ENDBRANCH  15  34
BRANCH  11  36
HETATM   36  C26 UNL     1      -9.876  43.450 -30.868  1.00  0.00     0.265 C 
HETATM   37  O3  UNL     1     -10.174  43.158 -29.717  1.00  0.00    -0.302 OA
ENDBRANCH  11  36
TORSDOF 7
ENDMDL
MODEL 7
REMARK minimizedAffinity -9.08696842
REMARK  7 active torsions:
REMARK  status: ('A' for Active; 'I' for Inactive)
REMARK    1  A    between atoms: C2_2  and  C4_4 
REMARK    2  A    between atoms: C7_7  and  O1_9 
REMARK    3  A    between atoms: C9_10  and  C10_11 
REMARK    4  A    between atoms: C11_12  and  C12_13 
REMARK    5  A    between atoms: C14_15  and  C15_16 
REMARK    6  A    between atoms: C24_26  and  C26_28 
REMARK    7  A    between atoms: C29_32  and  O4_34 
ROOT
HETATM    1  C15 UNL     1      -4.384  48.187 -24.656  1.00  0.00     0.149 C 
HETATM    2  C16 UNL     1      -3.233  49.148 -24.365  1.00  0.00     0.054 C 
HETATM    3  C17 UNL     1      -3.515  49.747 -22.954  1.00  0.00     0.050 C 
HETATM    4  C18 UNL     1      -4.566  48.720 -22.441  1.00  0.00     0.272 C 
HETATM    5  O2  UNL     1      -4.025  47.503 -21.930  1.00  0.00    -0.360 OA
HETATM    6  C19 UNL     1      -3.653  47.562 -20.568  1.00  0.00     0.171 C 
HETATM    7  C20 UNL     1      -2.176  47.883 -20.429  1.00  0.00     0.027 C 
HETATM    8  C21 UNL     1      -1.549  48.541 -21.654  1.00  0.00     0.012 C 
HETATM    9  C22 UNL     1      -2.180  49.873 -22.120  1.00  0.00     0.032 C 
HETATM   10  C23 UNL     1      -2.231  50.912 -20.976  1.00  0.00    -0.066 C 
HETATM   11  C24 UNL     1      -1.139  51.515 -20.437  1.00  0.00    -0.021 C 
HETATM   12  C25 UNL     1      -1.165  52.484 -19.289  1.00  0.00     0.052 C 
HETATM   13  C27 UNL     1      -3.628  51.264 -20.518  1.00  0.00     0.038 C 
HETATM   14  C28 UNL     1      -4.533  51.734 -21.656  1.00  0.00     0.042 C 
HETATM   15  C29 UNL     1      -4.157  51.194 -23.056  1.00  0.00     0.067 C 
HETATM   16  C30 UNL     1      -3.252  52.233 -23.762  1.00  0.00     0.047 C 
HETATM   17  O5  UNL     1      -5.331  48.341 -23.596  1.00  0.00    -0.351 OA
ENDROOT
BRANCH   1  18
HETATM   18  C14 UNL     1      -5.122  48.099 -25.964  1.00  0.00     0.011 C 
HETATM   19  C12 UNL     1      -4.822  48.334 -27.259  1.00  0.00    -0.064 C 
HETATM   20  C13 UNL     1      -3.533  48.912 -27.768  1.00  0.00     0.048 C 
BRANCH  19  21
HETATM   21  C11 UNL     1      -5.857  48.039 -28.262  1.00  0.00     0.003 C 
HETATM   22  C10 UNL     1      -5.675  47.472 -29.465  1.00  0.00    -0.018 C 
BRANCH  22  23
HETATM   23  C9  UNL     1      -6.721  47.168 -30.524  1.00  0.00     0.050 C 
HETATM   24  C4  UNL     1      -7.299  48.333 -31.389  1.00  0.00     0.024 C 
HETATM   25  C5  UNL     1      -7.517  47.729 -32.800  1.00  0.00     0.013 C 
HETATM   26  C6  UNL     1      -7.303  46.231 -32.650  1.00  0.00     0.039 C 
HETATM   27  C7  UNL     1      -6.240  46.112 -31.556  1.00  0.00     0.062 C 
HETATM   28  C8  UNL     1      -4.828  46.353 -32.101  1.00  0.00     0.046 C 
BRANCH  24  29
HETATM   29  C2  UNL     1      -8.529  48.964 -30.738  1.00  0.00    -0.088 C 
HETATM   30  C1  UNL     1      -8.815  50.278 -30.760  1.00  0.00     0.014 C 
HETATM   31  C3  UNL     1      -9.468  48.007 -30.049  1.00  0.00     0.043 C 
ENDBRANCH  24  29
BRANCH  27  32
HETATM   32  O1  UNL     1      -6.292  44.802 -30.989  1.00  0.00    -0.390 OA
HETATM   33  H14 UNL     1      -6.025  44.171 -31.678  1.00  0.00     0.210 HD
ENDBRANCH  27  32
ENDBRANCH  22  23
ENDBRANCH  19  21
ENDBRANCH   1  18
BRANCH  15  34
HETATM   34  O4  UNL     1      -5.372  51.155 -23.809  1.00  0.00    -0.389 OA
HETATM   35  H44 UNL     1      -5.716  52.059 -23.910  1.00  0.00     0.210 HD
ENDBRANCH  15  34
BRANCH  11  36
HETATM   36  C26 UNL     1       0.247  51.251 -20.936  1.00  0.00     0.265 C 
HETATM   37  O3  UNL     1       0.785  51.893 -21.828  1.00  0.00    -0.302 OA
ENDBRANCH  11  36
TORSDOF 7
ENDMDL
MODEL 8
REMARK minimizedAffinity -9.02183914
REMARK  7 active torsions:
REMARK  status: ('A' for Active; 'I' for Inactive)
REMARK    1  A    between atoms: C2_2  and  C4_4 
REMARK    2  A    between atoms: C7_7  and  O1_9 
REMARK    3  A    between atoms: C9_10  and  C10_11 
REMARK    4  A    between atoms: C11_12  and  C12_13 
REMARK    5  A    between atoms: C14_15  and  C15_16 
REMARK    6  A    between atoms: C24_26  and  C26_28 
REMARK    7  A    between atoms: C29_32  and  O4_34 
ROOT
HETATM    1  C15 UNL     1      -5.071  47.699 -29.127  1.00  0.00     0.149 C 
HETATM    2  C16 UNL     1      -6.148  46.760 -28.586  1.00  0.00     0.054 C 
HETATM    3  C17 UNL     1      -7.365  46.895 -29.551  1.00  0.00     0.050 C 
HETATM    4  C18 UNL     1      -6.661  47.570 -30.764  1.00  0.00     0.272 C 
HETATM    5  O2  UNL     1      -5.947  46.680 -31.621  1.00  0.00    -0.360 OA
HETATM    6  C19 UNL     1      -6.743  46.078 -32.622  1.00  0.00     0.171 C 
HETATM    7  C20 UNL     1      -7.229  44.713 -32.170  1.00  0.00     0.027 C 
HETATM    8  C21 UNL     1      -7.208  44.496 -30.660  1.00  0.00     0.012 C 
HETATM    9  C22 UNL     1      -8.034  45.489 -29.810  1.00  0.00     0.032 C 
HETATM   10  C23 UNL     1      -9.507  45.554 -30.277  1.00  0.00    -0.066 C 
HETATM   11  C24 UNL     1     -10.403  44.543 -30.131  1.00  0.00    -0.021 C 
HETATM   12  C25 UNL     1     -11.822  44.567 -30.627  1.00  0.00     0.052 C 
HETATM   13  C27 UNL     1      -9.910  46.879 -30.880  1.00  0.00     0.038 C 
HETATM   14  C28 UNL     1      -9.629  48.068 -29.962  1.00  0.00     0.042 C 
HETATM   15  C29 UNL     1      -8.476  47.854 -28.951  1.00  0.00     0.067 C 
HETATM   16  C30 UNL     1      -9.076  47.360 -27.613  1.00  0.00     0.047 C 
HETATM   17  O5  UNL     1      -5.663  48.436 -30.200  1.00  0.00    -0.351 OA
ENDROOT
BRANCH   1  18
HETATM   18  C14 UNL     1      -4.244  48.635 -28.288  1.00  0.00     0.011 C 
HETATM   19  C12 UNL     1      -4.110  48.884 -26.968  1.00  0.00    -0.064 C 
HETATM   20  C13 UNL     1      -4.937  48.274 -25.873  1.00  0.00     0.048 C 
BRANCH  19  21
HETATM   21  C11 UNL     1      -3.095  49.868 -26.562  1.00  0.00     0.003 C 
HETATM   22  C10 UNL     1      -2.250  49.772 -25.523  1.00  0.00    -0.018 C 
BRANCH  22  23
HETATM   23  C9  UNL     1      -1.202  50.775 -25.072  1.00  0.00     0.050 C 
HETATM   24  C4  UNL     1      -0.895  52.019 -25.967  1.00  0.00     0.024 C 
HETATM   25  C5  UNL     1      -0.611  53.178 -24.977  1.00  0.00     0.013 C 
HETATM   26  C6  UNL     1      -0.521  52.538 -23.601  1.00  0.00     0.039 C 
HETATM   27  C7  UNL     1      -1.501  51.365 -23.668  1.00  0.00     0.062 C 
HETATM   28  C8  UNL     1      -2.951  51.819 -23.464  1.00  0.00     0.046 C 
BRANCH  24  29
HETATM   29  C2  UNL     1       0.209  51.724 -26.982  1.00  0.00    -0.088 C 
HETATM   30  C1  UNL     1       0.161  52.067 -28.282  1.00  0.00     0.014 C 
HETATM   31  C3  UNL     1       1.423  51.015 -26.441  1.00  0.00     0.043 C 
ENDBRANCH  24  29
BRANCH  27  32
HETATM   32  O1  UNL     1      -1.173  50.418 -22.649  1.00  0.00    -0.390 OA
HETATM   33  H14 UNL     1      -1.335  50.841 -21.789  1.00  0.00     0.210 HD
ENDBRANCH  27  32
ENDBRANCH  22  23
ENDBRANCH  19  21
ENDBRANCH   1  18
BRANCH  15  34
HETATM   34  O4  UNL     1      -7.934  49.150 -28.684  1.00  0.00    -0.389 OA
HETATM   35  H44 UNL     1      -8.615  49.703 -28.262  1.00  0.00     0.210 HD
ENDBRANCH  15  34
BRANCH  11  36
HETATM   36  C26 UNL     1     -10.052  43.254 -29.455  1.00  0.00     0.265 C 
HETATM   37  O3  UNL     1     -10.055  43.098 -28.241  1.00  0.00    -0.302 OA
ENDBRANCH  11  36
TORSDOF 7
ENDMDL
MODEL 9
REMARK minimizedAffinity -8.95361423
REMARK  7 active torsions:
REMARK  status: ('A' for Active; 'I' for Inactive)
REMARK    1  A    between atoms: C2_2  and  C4_4 
REMARK    2  A    between atoms: C7_7  and  O1_9 
REMARK    3  A    between atoms: C9_10  and  C10_11 
REMARK    4  A    between atoms: C11_12  and  C12_13 
REMARK    5  A    between atoms: C14_15  and  C15_16 
REMARK    6  A    between atoms: C24_26  and  C26_28 
REMARK    7  A    between atoms: C29_32  and  O4_34 
ROOT
HETATM    1  C15 UNL     1      -4.956  48.181 -24.047  1.00  0.00     0.149 C 
HETATM    2  C16 UNL     1      -3.820  49.199 -23.954  1.00  0.00     0.054 C 
HETATM    3  C17 UNL     1      -3.795  49.684 -22.472  1.00  0.00     0.050 C 
HETATM    4  C18 UNL     1      -4.643  48.557 -21.815  1.00  0.00     0.272 C 
HETATM    5  O2  UNL     1      -3.934  47.350 -21.539  1.00  0.00    -0.360 OA
HETATM    6  C19 UNL     1      -3.258  47.346 -20.298  1.00  0.00     0.171 C 
HETATM    7  C20 UNL     1      -1.808  47.759 -20.477  1.00  0.00     0.027 C 
HETATM    8  C21 UNL     1      -1.520  48.536 -21.758  1.00  0.00     0.012 C 
HETATM    9  C22 UNL     1      -2.312  49.849 -21.960  1.00  0.00     0.032 C 
HETATM   10  C23 UNL     1      -2.148  50.806 -20.756  1.00  0.00    -0.066 C 
HETATM   11  C24 UNL     1      -0.993  51.446 -20.437  1.00  0.00    -0.021 C 
HETATM   12  C25 UNL     1      -0.800  52.336 -19.241  1.00  0.00     0.052 C 
HETATM   13  C27 UNL     1      -3.415  51.030 -19.964  1.00  0.00     0.038 C 
HETATM   14  C28 UNL     1      -4.585  51.509 -20.823  1.00  0.00     0.042 C 
HETATM   15  C29 UNL     1      -4.518  51.087 -22.311  1.00  0.00     0.067 C 
HETATM   16  C30 UNL     1      -3.860  52.230 -23.121  1.00  0.00     0.047 C 
HETATM   17  O5  UNL     1      -5.636  48.201 -22.789  1.00  0.00    -0.351 OA
ENDROOT
BRANCH   1  18
HETATM   18  C14 UNL     1      -5.974  48.127 -25.154  1.00  0.00     0.011 C 
HETATM   19  C12 UNL     1      -7.125  47.456 -25.374  1.00  0.00    -0.064 C 
HETATM   20  C13 UNL     1      -7.695  46.381 -24.494  1.00  0.00     0.048 C 
BRANCH  19  21
HETATM   21  C11 UNL     1      -7.870  47.770 -26.603  1.00  0.00     0.003 C 
HETATM   22  C10 UNL     1      -9.203  47.802 -26.751  1.00  0.00    -0.018 C 
BRANCH  22  23
HETATM   23  C9  UNL     1      -9.999  48.109 -28.008  1.00  0.00     0.050 C 
HETATM   24  C4  UNL     1      -9.614  47.409 -29.351  1.00  0.00     0.024 C 
HETATM   25  C5  UNL     1     -10.958  47.151 -30.080  1.00  0.00     0.013 C 
HETATM   26  C6  UNL     1     -12.014  47.901 -29.285  1.00  0.00     0.039 C 
HETATM   27  C7  UNL     1     -11.517  47.831 -27.840  1.00  0.00     0.062 C 
HETATM   28  C8  UNL     1     -11.849  46.484 -27.186  1.00  0.00     0.046 C 
BRANCH  24  29
HETATM   29  C2  UNL     1      -8.577  48.217 -30.131  1.00  0.00    -0.088 C 
HETATM   30  C1  UNL     1      -8.812  49.415 -30.695  1.00  0.00     0.014 C 
HETATM   31  C3  UNL     1      -7.208  47.597 -30.234  1.00  0.00     0.043 C 
ENDBRANCH  24  29
BRANCH  27  32
HETATM   32  O1  UNL     1     -12.134  48.871 -27.079  1.00  0.00    -0.390 OA
HETATM   33  H14 UNL     1     -13.086  48.680 -27.034  1.00  0.00     0.210 HD
ENDBRANCH  27  32
ENDBRANCH  22  23
ENDBRANCH  19  21
ENDBRANCH   1  18
BRANCH  15  34
HETATM   34  O4  UNL     1      -5.872  51.013 -22.766  1.00  0.00    -0.389 OA
HETATM   35  H44 UNL     1      -6.278  51.896 -22.714  1.00  0.00     0.210 HD
ENDBRANCH  15  34
BRANCH  11  36
HETATM   36  C26 UNL     1       0.250  51.311 -21.260  1.00  0.00     0.265 C 
HETATM   37  O3  UNL     1       1.126  52.165 -21.317  1.00  0.00    -0.302 OA
ENDBRANCH  11  36
TORSDOF 7
ENDMDL
