MODEL 1
REMARK minimizedAffinity -6.96431255
REMARK CNNscore 0.3412503
REMARK CNNaffinity 6.45472574
REMARK  6 active torsions:
REMARK  status: ('A' for Active; 'I' for Inactive)
REMARK       I    between atoms: N1_1  and  C1_2 
REMARK       I    between atoms: C1_2  and  N2_3 
REMARK    1  A    between atoms: N3_4  and  C2_6 
REMARK    2  A    between atoms: C11_16  and  S1_17 
REMARK    3  A    between atoms: S1_17  and  O4_20 
REMARK    4  A    between atoms: C23_33  and  O6_34 
REMARK    5  A    between atoms: C29_40  and  C30_41 
REMARK    6  A    between atoms: C30_41  and  O7_42 
ROOT
HETATM    1  C2  UNL     1     -21.290  -0.173  11.861  1.00  0.00     0.263 C 
HETATM    2  O1  UNL     1     -20.303  -0.765  10.951  1.00  0.00    -0.322 OA
HETATM    3  C3  UNL     1     -19.164  -1.226  11.560  1.00  0.00     0.071 C 
HETATM    4  C4  UNL     1     -17.958  -0.690  11.109  1.00  0.00     0.037 C 
HETATM    5  C5  UNL     1     -16.795  -0.883  11.853  1.00  0.00     0.010 C 
HETATM    6  C6  UNL     1     -16.829  -1.644  13.028  1.00  0.00    -0.058 C 
HETATM    7  C7  UNL     1     -18.007  -2.328  13.358  1.00  0.00     0.010 C 
HETATM    8  C8  UNL     1     -19.178  -2.114  12.631  1.00  0.00     0.037 C 
HETATM    9  C9  UNL     1     -15.663  -1.615  13.992  1.00  0.00     0.040 C 
HETATM   10  C10 UNL     1     -15.439  -0.211  14.610  1.00  0.00     0.027 C 
HETATM   11  C11 UNL     1     -16.678   0.431  15.301  1.00  0.00     0.130 C 
HETATM   12  C12 UNL     1     -16.592   1.986  15.536  1.00  0.00     0.037 C 
HETATM   13  C13 UNL     1     -15.864   2.812  14.484  1.00  0.00    -0.014 C 
HETATM   14  C14 UNL     1     -15.861   4.155  14.647  1.00  0.00    -0.050 C 
HETATM   15  C15 UNL     1     -16.401   4.704  15.931  1.00  0.00     0.042 C 
HETATM   16  C16 UNL     1     -17.871   4.303  15.917  1.00  0.00     0.001 C 
HETATM   17  C17 UNL     1     -18.689   5.238  14.980  1.00  0.00     0.038 C 
HETATM   18  C18 UNL     1     -17.945   6.166  13.961  1.00  0.00     0.130 C 
HETATM   19  O5  UNL     1     -17.048   5.462  13.079  1.00  0.00    -0.371 OA
HETATM   20  C19 UNL     1     -15.706   5.132  13.510  1.00  0.00     0.185 C 
HETATM   21  C20 UNL     1     -14.629   6.217  13.716  1.00  0.00    -0.006 A 
HETATM   22  C21 UNL     1     -13.434   5.854  14.387  1.00  0.00     0.014 A 
HETATM   23  C22 UNL     1     -12.382   6.756  14.555  1.00  0.00     0.037 A 
HETATM   24  C23 UNL     1     -12.485   8.037  14.033  1.00  0.00     0.067 A 
HETATM   25  C24 UNL     1     -13.627   8.427  13.347  1.00  0.00     0.057 A 
HETATM   26  C25 UNL     1     -14.684   7.522  13.181  1.00  0.00     0.029 A 
HETATM   27  C26 UNL     1     -15.849   7.978  12.500  1.00  0.00    -0.066 C 
HETATM   28  C27 UNL     1     -16.981   8.103  12.131  1.00  0.00    -0.101 C 
HETATM   29  C28 UNL     1     -18.408   7.862  11.956  1.00  0.00     0.103 C 
HETATM   30  C29 UNL     1     -18.999   6.894  13.035  1.00  0.00     0.049 C 
HETATM   31  C31 UNL     1     -18.016   2.720  15.745  1.00  0.00     0.032 C 
HETATM   32  C32 UNL     1     -19.058   2.214  14.746  1.00  0.00    -0.053 C 
HETATM   33  C33 UNL     1     -20.080   1.357  15.186  1.00  0.00     0.008 C 
HETATM   34  C34 UNL     1     -20.854   0.641  14.267  1.00  0.00     0.012 C 
HETATM   35  C35 UNL     1     -20.652   0.786  12.888  1.00  0.00    -0.010 C 
HETATM   36  C36 UNL     1     -19.749   1.768  12.454  1.00  0.00     0.012 C 
HETATM   37  C37 UNL     1     -18.941   2.444  13.367  1.00  0.00     0.008 C 
ENDROOT
BRANCH   1  38
HETATM   38  N3  UNL     1     -22.252  -1.108  12.481  1.00  0.00    -0.341 N 
HETATM   39  C1  UNL     1     -22.872  -1.917  11.708  1.00  0.00     0.124 C 
HETATM   40  N1  UNL     1     -22.781  -2.091  10.369  1.00  0.00    -0.279 NA
HETATM   41  N2  UNL     1     -23.774  -2.783  12.219  1.00  0.00    -0.279 NA
HETATM   42  H1  UNL     1     -22.814  -3.073  10.122  1.00  0.00     0.126 HD
HETATM   43  H2  UNL     1     -21.936  -1.679   9.979  1.00  0.00     0.126 HD
HETATM   44  H3  UNL     1     -24.629  -2.833  11.675  1.00  0.00     0.126 HD
HETATM   45  H4  UNL     1     -23.971  -2.572  13.195  1.00  0.00     0.126 HD
ATOM     46  H3  UNL     1     -22.415  -1.108  13.488  1.00  0.00     0.164 HD
ENDBRANCH   1  38
BRANCH  11  47
HETATM   47  S1  UNL     1     -16.957  -0.365  16.937  1.00  0.00     0.099 S 
HETATM   48  O2  UNL     1     -16.693  -1.786  16.882  1.00  0.00    -0.601 OA
HETATM   49  O3  UNL     1     -18.158   0.155  17.548  1.00  0.00    -0.601 OA
BRANCH  47  50
HETATM   50  O4  UNL     1     -15.694   0.237  17.741  1.00  0.00    -0.295 OA
HETATM   51  H15 UNL     1     -15.019  -0.472  17.807  1.00  0.00     0.232 HD
ENDBRANCH  47  50
ENDBRANCH  11  47
BRANCH  30  52
HETATM   52  C30 UNL     1     -20.096   7.630  13.821  1.00  0.00     0.172 C 
BRANCH  52  53
HETATM   53  O7  UNL     1     -20.334   8.918  13.269  1.00  0.00    -0.400 OA
HETATM   54  H34 UNL     1     -21.042   9.333  13.793  1.00  0.00     0.209 HD
ENDBRANCH  52  53
ENDBRANCH  30  52
BRANCH  24  55
HETATM   55  O6  UNL     1     -11.433   8.884  14.209  1.00  0.00    -0.361 OA
HETATM   56  H27 UNL     1     -11.590   9.685  13.680  1.00  0.00     0.217 HD
ENDBRANCH  24  55
TORSDOF 6
ENDMDL
MODEL 2
REMARK minimizedAffinity -6.8377924
REMARK CNNscore 0.330831379
REMARK CNNaffinity 6.66196251
REMARK  6 active torsions:
REMARK  status: ('A' for Active; 'I' for Inactive)
REMARK       I    between atoms: N1_1  and  C1_2 
REMARK       I    between atoms: C1_2  and  N2_3 
REMARK    1  A    between atoms: N3_4  and  C2_6 
REMARK    2  A    between atoms: C11_16  and  S1_17 
REMARK    3  A    between atoms: S1_17  and  O4_20 
REMARK    4  A    between atoms: C23_33  and  O6_34 
REMARK    5  A    between atoms: C29_40  and  C30_41 
REMARK    6  A    between atoms: C30_41  and  O7_42 
ROOT
HETATM    1  C2  UNL     1      -4.696   9.052  14.934  1.00  0.00     0.263 C 
HETATM    2  O1  UNL     1      -4.038   8.545  13.725  1.00  0.00    -0.322 OA
HETATM    3  C3  UNL     1      -2.676   8.417  13.821  1.00  0.00     0.071 C 
HETATM    4  C4  UNL     1      -1.918   9.114  12.880  1.00  0.00     0.037 C 
HETATM    5  C5  UNL     1      -0.547   9.271  13.078  1.00  0.00     0.010 C 
HETATM    6  C6  UNL     1       0.075   8.699  14.195  1.00  0.00    -0.058 C 
HETATM    7  C7  UNL     1      -0.670   7.847  15.021  1.00  0.00     0.010 C 
HETATM    8  C8  UNL     1      -2.047   7.712  14.843  1.00  0.00     0.037 C 
HETATM    9  C9  UNL     1       1.481   9.103  14.578  1.00  0.00     0.040 C 
HETATM   10  C10 UNL     1       1.581  10.598  14.975  1.00  0.00     0.027 C 
HETATM   11  C11 UNL     1       0.601  11.071  16.089  1.00  0.00     0.130 C 
HETATM   12  C12 UNL     1       0.390  12.628  16.190  1.00  0.00     0.037 C 
HETATM   13  C13 UNL     1       0.416  13.422  14.890  1.00  0.00    -0.014 C 
HETATM   14  C14 UNL     1       0.156  14.747  14.970  1.00  0.00    -0.050 C 
HETATM   15  C15 UNL     1       0.052  15.357  16.335  1.00  0.00     0.042 C 
HETATM   16  C16 UNL     1      -1.157  14.670  16.958  1.00  0.00     0.001 C 
HETATM   17  C17 UNL     1      -2.480  15.273  16.404  1.00  0.00     0.038 C 
HETATM   18  C18 UNL     1      -2.452  16.174  15.124  1.00  0.00     0.130 C 
HETATM   19  O5  UNL     1      -1.835  15.544  13.983  1.00  0.00    -0.371 OA
HETATM   20  C19 UNL     1      -0.396  15.558  13.827  1.00  0.00     0.185 C 
HETATM   21  C20 UNL     1       0.374  16.857  13.509  1.00  0.00    -0.006 A 
HETATM   22  C21 UNL     1       1.786  16.844  13.634  1.00  0.00     0.014 A 
HETATM   23  C22 UNL     1       2.563  17.955  13.301  1.00  0.00     0.037 A 
HETATM   24  C23 UNL     1       1.952  19.098  12.808  1.00  0.00     0.067 A 
HETATM   25  C24 UNL     1       0.574  19.145  12.645  1.00  0.00     0.057 A 
HETATM   26  C25 UNL     1      -0.206  18.031  12.982  1.00  0.00     0.029 A 
HETATM   27  C26 UNL     1      -1.618  18.138  12.832  1.00  0.00    -0.066 C 
HETATM   28  C27 UNL     1      -2.797  17.977  12.964  1.00  0.00    -0.101 C 
HETATM   29  C28 UNL     1      -4.070  17.429  13.416  1.00  0.00     0.103 C 
HETATM   30  C29 UNL     1      -3.929  16.530  14.690  1.00  0.00     0.049 C 
HETATM   31  C31 UNL     1      -0.967  13.081  16.940  1.00  0.00     0.032 C 
HETATM   32  C32 UNL     1      -2.161  12.236  16.497  1.00  0.00    -0.053 C 
HETATM   33  C33 UNL     1      -2.682  11.264  17.365  1.00  0.00     0.008 C 
HETATM   34  C34 UNL     1      -3.556  10.279  16.893  1.00  0.00     0.012 C 
HETATM   35  C35 UNL     1      -3.959  10.259  15.550  1.00  0.00    -0.010 C 
HETATM   36  C36 UNL     1      -3.571  11.329  14.730  1.00  0.00     0.012 C 
HETATM   37  C37 UNL     1      -2.660  12.281  15.186  1.00  0.00     0.008 C 
ENDROOT
BRANCH   1  38
HETATM   38  N3  UNL     1      -5.074   8.043  15.945  1.00  0.00    -0.341 N 
HETATM   39  C1  UNL     1      -5.877   7.115  15.584  1.00  0.00     0.124 C 
HETATM   40  N1  UNL     1      -6.447   6.872  14.381  1.00  0.00    -0.279 NA
HETATM   41  N2  UNL     1      -6.268   6.175  16.472  1.00  0.00    -0.279 NA
HETATM   42  H1  UNL     1      -6.461   5.880  14.174  1.00  0.00     0.126 HD
HETATM   43  H2  UNL     1      -5.981   7.363  13.622  1.00  0.00     0.126 HD
HETATM   44  H3  UNL     1      -7.264   5.984  16.435  1.00  0.00     0.126 HD
HETATM   45  H4  UNL     1      -5.975   6.419  17.415  1.00  0.00     0.126 HD
ATOM     46  H3  UNL     1      -4.707   8.084  16.896  1.00  0.00     0.164 HD
ENDBRANCH   1  38
BRANCH  11  47
HETATM   47  S1  UNL     1       1.196  10.482  17.729  1.00  0.00     0.099 S 
HETATM   48  O2  UNL     1       1.512  11.591  18.603  1.00  0.00    -0.601 OA
HETATM   49  O3  UNL     1       2.105   9.372  17.562  1.00  0.00    -0.601 OA
BRANCH  47  50
HETATM   50  O4  UNL     1      -0.189   9.901  18.319  1.00  0.00    -0.295 OA
HETATM   51  H15 UNL     1      -0.529  10.550  18.971  1.00  0.00     0.232 HD
ENDBRANCH  47  50
ENDBRANCH  11  47
BRANCH  30  52
HETATM   52  C30 UNL     1      -4.770  17.136  15.826  1.00  0.00     0.172 C 
BRANCH  52  53
HETATM   53  O7  UNL     1      -5.922  16.344  16.079  1.00  0.00    -0.400 OA
HETATM   54  H34 UNL     1      -6.408  16.763  16.812  1.00  0.00     0.209 HD
ENDBRANCH  52  53
ENDBRANCH  30  52
BRANCH  24  55
HETATM   55  O6  UNL     1       2.746  20.157  12.484  1.00  0.00    -0.361 OA
HETATM   56  H27 UNL     1       2.202  20.823  12.032  1.00  0.00     0.217 HD
ENDBRANCH  24  55
TORSDOF 6
ENDMDL
MODEL 3
REMARK minimizedAffinity -7.18907261
REMARK CNNscore 0.284680605
REMARK CNNaffinity 6.64066267
REMARK  6 active torsions:
REMARK  status: ('A' for Active; 'I' for Inactive)
REMARK       I    between atoms: N1_1  and  C1_2 
REMARK       I    between atoms: C1_2  and  N2_3 
REMARK    1  A    between atoms: N3_4  and  C2_6 
REMARK    2  A    between atoms: C11_16  and  S1_17 
REMARK    3  A    between atoms: S1_17  and  O4_20 
REMARK    4  A    between atoms: C23_33  and  O6_34 
REMARK    5  A    between atoms: C29_40  and  C30_41 
REMARK    6  A    between atoms: C30_41  and  O7_42 
ROOT
HETATM    1  C2  UNL     1     -12.173  14.987   5.747  1.00  0.00     0.263 C 
HETATM    2  O1  UNL     1     -10.790  14.500   5.776  1.00  0.00    -0.322 OA
HETATM    3  C3  UNL     1      -9.922  15.185   4.964  1.00  0.00     0.071 C 
HETATM    4  C4  UNL     1      -9.239  14.432   4.008  1.00  0.00     0.037 C 
HETATM    5  C5  UNL     1      -8.568  15.078   2.971  1.00  0.00     0.010 C 
HETATM    6  C6  UNL     1      -8.546  16.477   2.909  1.00  0.00    -0.058 C 
HETATM    7  C7  UNL     1      -9.075  17.210   3.980  1.00  0.00     0.010 C 
HETATM    8  C8  UNL     1      -9.771  16.567   5.003  1.00  0.00     0.037 C 
HETATM    9  C9  UNL     1      -8.087  17.180   1.650  1.00  0.00     0.040 C 
HETATM   10  C10 UNL     1      -9.012  16.891   0.439  1.00  0.00     0.027 C 
HETATM   11  C11 UNL     1     -10.526  17.185   0.656  1.00  0.00     0.130 C 
HETATM   12  C12 UNL     1     -11.502  16.504  -0.376  1.00  0.00     0.037 C 
HETATM   13  C13 UNL     1     -11.119  15.124  -0.894  1.00  0.00    -0.014 C 
HETATM   14  C14 UNL     1     -11.998  14.508  -1.717  1.00  0.00    -0.050 C 
HETATM   15  C15 UNL     1     -13.176  15.299  -2.200  1.00  0.00     0.042 C 
HETATM   16  C16 UNL     1     -13.960  15.609  -0.931  1.00  0.00     0.001 C 
HETATM   17  C17 UNL     1     -14.774  14.366  -0.468  1.00  0.00     0.038 C 
HETATM   18  C18 UNL     1     -14.454  12.956  -1.070  1.00  0.00     0.130 C 
HETATM   19  O5  UNL     1     -13.075  12.562  -0.927  1.00  0.00    -0.371 OA
HETATM   20  C19 UNL     1     -12.081  13.012  -1.878  1.00  0.00     0.185 C 
HETATM   21  C20 UNL     1     -12.061  12.505  -3.335  1.00  0.00    -0.006 A 
HETATM   22  C21 UNL     1     -11.237  13.183  -4.267  1.00  0.00     0.014 A 
HETATM   23  C22 UNL     1     -11.110  12.747  -5.588  1.00  0.00     0.037 A 
HETATM   24  C23 UNL     1     -11.781  11.607  -6.003  1.00  0.00     0.067 A 
HETATM   25  C24 UNL     1     -12.578  10.897  -5.116  1.00  0.00     0.057 A 
HETATM   26  C25 UNL     1     -12.709  11.336  -3.792  1.00  0.00     0.029 A 
HETATM   27  C26 UNL     1     -13.565  10.597  -2.927  1.00  0.00    -0.066 C 
HETATM   28  C27 UNL     1     -14.307  10.297  -2.037  1.00  0.00    -0.101 C 
HETATM   29  C28 UNL     1     -15.102  10.382  -0.817  1.00  0.00     0.103 C 
HETATM   30  C29 UNL     1     -15.311  11.854  -0.328  1.00  0.00     0.049 C 
HETATM   31  C31 UNL     1     -13.030  16.362   0.131  1.00  0.00     0.032 C 
HETATM   32  C32 UNL     1     -13.097  15.888   1.583  1.00  0.00    -0.053 C 
HETATM   33  C33 UNL     1     -13.448  16.799   2.592  1.00  0.00     0.008 C 
HETATM   34  C34 UNL     1     -13.226  16.492   3.939  1.00  0.00     0.012 C 
HETATM   35  C35 UNL     1     -12.679  15.257   4.315  1.00  0.00    -0.010 C 
HETATM   36  C36 UNL     1     -12.489  14.289   3.317  1.00  0.00     0.012 C 
HETATM   37  C37 UNL     1     -12.662  14.612   1.971  1.00  0.00     0.008 C 
ENDROOT
BRANCH   1  38
HETATM   38  N3  UNL     1     -12.500  16.086   6.679  1.00  0.00    -0.341 N 
HETATM   39  C1  UNL     1     -13.609  16.015   7.312  1.00  0.00     0.124 C 
HETATM   40  N1  UNL     1     -14.566  15.058   7.295  1.00  0.00    -0.279 NA
HETATM   41  N2  UNL     1     -13.965  16.999   8.166  1.00  0.00    -0.279 NA
HETATM   42  H1  UNL     1     -14.932  14.886   8.224  1.00  0.00     0.126 HD
HETATM   43  H2  UNL     1     -14.234  14.180   6.902  1.00  0.00     0.126 HD
HETATM   44  H3  UNL     1     -14.934  17.282   8.064  1.00  0.00     0.126 HD
HETATM   45  H4  UNL     1     -13.339  17.797   8.085  1.00  0.00     0.126 HD
ATOM     46  H3  UNL     1     -11.863  16.871   6.814  1.00  0.00     0.164 HD
ENDBRANCH   1  38
BRANCH  11  47
HETATM   47  S1  UNL     1     -10.819  19.000   0.587  1.00  0.00     0.099 S 
HETATM   48  O2  UNL     1     -10.558  19.625   1.864  1.00  0.00    -0.601 OA
HETATM   49  O3  UNL     1     -12.024  19.285  -0.158  1.00  0.00    -0.601 OA
BRANCH  47  50
HETATM   50  O4  UNL     1      -9.562  19.436  -0.326  1.00  0.00    -0.295 OA
HETATM   51  H15 UNL     1      -8.889  19.835   0.267  1.00  0.00     0.232 HD
ENDBRANCH  47  50
ENDBRANCH  11  47
BRANCH  30  52
HETATM   52  C30 UNL     1     -16.817  12.165  -0.305  1.00  0.00     0.172 C 
BRANCH  52  53
HETATM   53  O7  UNL     1     -17.578  10.989  -0.541  1.00  0.00    -0.400 OA
HETATM   54  H34 UNL     1     -18.519  11.239  -0.503  1.00  0.00     0.209 HD
ENDBRANCH  52  53
ENDBRANCH  30  52
BRANCH  24  55
HETATM   55  O6  UNL     1     -11.622  11.208  -7.296  1.00  0.00    -0.361 OA
HETATM   56  H27 UNL     1     -12.034  10.334  -7.402  1.00  0.00     0.217 HD
ENDBRANCH  24  55
TORSDOF 6
ENDMDL
MODEL 4
REMARK minimizedAffinity -6.59056377
REMARK CNNscore 0.264289409
REMARK CNNaffinity 6.31185961
REMARK  6 active torsions:
REMARK  status: ('A' for Active; 'I' for Inactive)
REMARK       I    between atoms: N1_1  and  C1_2 
REMARK       I    between atoms: C1_2  and  N2_3 
REMARK    1  A    between atoms: N3_4  and  C2_6 
REMARK    2  A    between atoms: C11_16  and  S1_17 
REMARK    3  A    between atoms: S1_17  and  O4_20 
REMARK    4  A    between atoms: C23_33  and  O6_34 
REMARK    5  A    between atoms: C29_40  and  C30_41 
REMARK    6  A    between atoms: C30_41  and  O7_42 
ROOT
HETATM    1  C2  UNL     1       3.007  16.835   4.623  1.00  0.00     0.263 C 
HETATM    2  O1  UNL     1       2.818  15.406   4.897  1.00  0.00    -0.322 OA
HETATM    3  C3  UNL     1       1.944  14.769   4.052  1.00  0.00     0.071 C 
HETATM    4  C4  UNL     1       0.858  14.130   4.649  1.00  0.00     0.037 C 
HETATM    5  C5  UNL     1      -0.215  13.713   3.862  1.00  0.00     0.010 C 
HETATM    6  C6  UNL     1      -0.185  13.899   2.474  1.00  0.00    -0.058 C 
HETATM    7  C7  UNL     1       0.993  14.369   1.879  1.00  0.00     0.010 C 
HETATM    8  C8  UNL     1       2.056  14.813   2.666  1.00  0.00     0.037 C 
HETATM    9  C9  UNL     1      -1.445  13.729   1.653  1.00  0.00     0.040 C 
HETATM   10  C10 UNL     1      -2.537  14.766   2.021  1.00  0.00     0.027 C 
HETATM   11  C11 UNL     1      -2.100  16.259   1.968  1.00  0.00     0.130 C 
HETATM   12  C12 UNL     1      -3.035  17.266   2.739  1.00  0.00     0.037 C 
HETATM   13  C13 UNL     1      -3.691  16.768   4.021  1.00  0.00    -0.014 C 
HETATM   14  C14 UNL     1      -4.428  17.658   4.723  1.00  0.00    -0.050 C 
HETATM   15  C15 UNL     1      -4.695  18.993   4.097  1.00  0.00     0.042 C 
HETATM   16  C16 UNL     1      -3.314  19.625   3.967  1.00  0.00     0.001 C 
HETATM   17  C17 UNL     1      -2.830  20.179   5.339  1.00  0.00     0.038 C 
HETATM   18  C18 UNL     1      -3.562  19.750   6.655  1.00  0.00     0.130 C 
HETATM   19  O5  UNL     1      -3.632  18.323   6.844  1.00  0.00    -0.371 OA
HETATM   20  C19 UNL     1      -4.675  17.549   6.206  1.00  0.00     0.185 C 
HETATM   21  C20 UNL     1      -6.152  17.665   6.637  1.00  0.00    -0.006 A 
HETATM   22  C21 UNL     1      -7.140  17.088   5.800  1.00  0.00     0.014 A 
HETATM   23  C22 UNL     1      -8.492  17.088   6.150  1.00  0.00     0.037 A 
HETATM   24  C23 UNL     1      -8.889  17.642   7.357  1.00  0.00     0.067 A 
HETATM   25  C24 UNL     1      -7.952  18.196   8.219  1.00  0.00     0.057 A 
HETATM   26  C25 UNL     1      -6.595  18.198   7.867  1.00  0.00     0.029 A 
HETATM   27  C26 UNL     1      -5.675  18.808   8.766  1.00  0.00    -0.066 C 
HETATM   28  C27 UNL     1      -4.715  19.365   9.215  1.00  0.00    -0.101 C 
HETATM   29  C28 UNL     1      -3.397  19.982   9.306  1.00  0.00     0.103 C 
HETATM   30  C29 UNL     1      -2.788  20.327   7.907  1.00  0.00     0.049 C 
HETATM   31  C31 UNL     1      -2.339  18.670   3.134  1.00  0.00     0.032 C 
HETATM   32  C32 UNL     1      -0.925  18.461   3.678  1.00  0.00    -0.053 C 
HETATM   33  C33 UNL     1       0.180  18.791   2.879  1.00  0.00     0.008 C 
HETATM   34  C34 UNL     1       1.462  18.338   3.211  1.00  0.00     0.012 C 
HETATM   35  C35 UNL     1       1.677  17.573   4.366  1.00  0.00    -0.010 C 
HETATM   36  C36 UNL     1       0.601  17.391   5.246  1.00  0.00     0.012 C 
HETATM   37  C37 UNL     1      -0.685  17.798   4.891  1.00  0.00     0.008 C 
ENDROOT
BRANCH   1  38
HETATM   38  N3  UNL     1       4.047  17.179   3.630  1.00  0.00    -0.341 N 
HETATM   39  C1  UNL     1       5.269  17.097   4.000  1.00  0.00     0.124 C 
HETATM   40  N1  UNL     1       5.800  16.713   5.183  1.00  0.00    -0.279 NA
HETATM   41  N2  UNL     1       6.259  17.414   3.138  1.00  0.00    -0.279 NA
HETATM   42  H1  UNL     1       6.626  16.142   5.048  1.00  0.00     0.126 HD
HETATM   43  H2  UNL     1       5.136  16.203   5.762  1.00  0.00     0.126 HD
HETATM   44  H3  UNL     1       6.981  17.990   3.557  1.00  0.00     0.126 HD
HETATM   45  H4  UNL     1       5.886  17.847   2.296  1.00  0.00     0.126 HD
ATOM     46  H3  UNL     1       3.799  17.469   2.684  1.00  0.00     0.164 HD
ENDBRANCH   1  38
BRANCH  11  47
HETATM   47  S1  UNL     1      -2.008  16.816   0.216  1.00  0.00     0.099 S 
HETATM   48  O2  UNL     1      -2.369  18.211   0.088  1.00  0.00    -0.601 OA
HETATM   49  O3  UNL     1      -2.565  15.810  -0.658  1.00  0.00    -0.601 OA
BRANCH  47  50
HETATM   50  O4  UNL     1      -0.406  16.807   0.021  1.00  0.00    -0.295 OA
HETATM   51  H15 UNL     1      -0.098  17.738   0.056  1.00  0.00     0.232 HD
ENDBRANCH  47  50
ENDBRANCH  11  47
BRANCH  30  52
HETATM   52  C30 UNL     1      -2.543  21.843   7.827  1.00  0.00     0.172 C 
BRANCH  52  53
HETATM   53  O7  UNL     1      -2.306  22.384   9.120  1.00  0.00    -0.400 OA
HETATM   54  H34 UNL     1      -2.144  23.338   9.010  1.00  0.00     0.209 HD
ENDBRANCH  52  53
ENDBRANCH  30  52
BRANCH  24  55
HETATM   55  O6  UNL     1     -10.215  17.614   7.668  1.00  0.00    -0.361 OA
HETATM   56  H27 UNL     1     -10.323  17.908   8.587  1.00  0.00     0.217 HD
ENDBRANCH  24  55
TORSDOF 6
ENDMDL
MODEL 5
REMARK minimizedAffinity -8.63102722
REMARK CNNscore 0.238291115
REMARK CNNaffinity 6.28080702
REMARK  6 active torsions:
REMARK  status: ('A' for Active; 'I' for Inactive)
REMARK       I    between atoms: N1_1  and  C1_2 
REMARK       I    between atoms: C1_2  and  N2_3 
REMARK    1  A    between atoms: N3_4  and  C2_6 
REMARK    2  A    between atoms: C11_16  and  S1_17 
REMARK    3  A    between atoms: S1_17  and  O4_20 
REMARK    4  A    between atoms: C23_33  and  O6_34 
REMARK    5  A    between atoms: C29_40  and  C30_41 
REMARK    6  A    between atoms: C30_41  and  O7_42 
ROOT
HETATM    1  C2  UNL     1     -10.156  11.219  15.250  1.00  0.00     0.263 C 
HETATM    2  O1  UNL     1      -9.739   9.928  14.691  1.00  0.00    -0.322 OA
HETATM    3  C3  UNL     1     -10.769   9.106  14.312  1.00  0.00     0.071 C 
HETATM    4  C4  UNL     1     -10.806   7.843  14.904  1.00  0.00     0.037 C 
HETATM    5  C5  UNL     1     -11.958   7.065  14.798  1.00  0.00     0.010 C 
HETATM    6  C6  UNL     1     -13.059   7.530  14.069  1.00  0.00    -0.058 C 
HETATM    7  C7  UNL     1     -12.929   8.713  13.328  1.00  0.00     0.010 C 
HETATM    8  C8  UNL     1     -11.789   9.507  13.455  1.00  0.00     0.037 C 
HETATM    9  C9  UNL     1     -14.403   6.845  14.191  1.00  0.00     0.040 C 
HETATM   10  C10 UNL     1     -14.991   6.944  15.622  1.00  0.00     0.027 C 
HETATM   11  C11 UNL     1     -15.104   8.382  16.211  1.00  0.00     0.130 C 
HETATM   12  C12 UNL     1     -15.280   8.461  17.774  1.00  0.00     0.037 C 
HETATM   13  C13 UNL     1     -14.563   7.410  18.612  1.00  0.00    -0.014 C 
HETATM   14  C14 UNL     1     -14.649   7.528  19.956  1.00  0.00    -0.050 C 
HETATM   15  C15 UNL     1     -15.588   8.556  20.509  1.00  0.00     0.042 C 
HETATM   16  C16 UNL     1     -15.013   9.882  20.024  1.00  0.00     0.001 C 
HETATM   17  C17 UNL     1     -13.785  10.298  20.884  1.00  0.00     0.038 C 
HETATM   18  C18 UNL     1     -13.101   9.251  21.826  1.00  0.00     0.130 C 
HETATM   19  O5  UNL     1     -12.679   8.049  21.150  1.00  0.00    -0.371 OA
HETATM   20  C19 UNL     1     -13.620   6.975  20.909  1.00  0.00     0.185 C 
HETATM   21  C20 UNL     1     -14.183   6.115  22.060  1.00  0.00    -0.006 A 
HETATM   22  C21 UNL     1     -15.288   5.271  21.784  1.00  0.00     0.014 A 
HETATM   23  C22 UNL     1     -15.815   4.411  22.749  1.00  0.00     0.037 A 
HETATM   24  C23 UNL     1     -15.234   4.352  24.007  1.00  0.00     0.067 A 
HETATM   25  C24 UNL     1     -14.134   5.142  24.313  1.00  0.00     0.057 A 
HETATM   26  C25 UNL     1     -13.608   6.008  23.344  1.00  0.00     0.029 A 
HETATM   27  C26 UNL     1     -12.502   6.825  23.713  1.00  0.00    -0.066 C 
HETATM   28  C27 UNL     1     -11.709   7.721  23.764  1.00  0.00    -0.101 C 
HETATM   29  C28 UNL     1     -10.997   8.950  23.436  1.00  0.00     0.103 C 
HETATM   30  C29 UNL     1     -11.800   9.879  22.466  1.00  0.00     0.049 C 
HETATM   31  C31 UNL     1     -14.873   9.880  18.430  1.00  0.00     0.032 C 
HETATM   32  C32 UNL     1     -13.570  10.418  17.839  1.00  0.00    -0.053 C 
HETATM   33  C33 UNL     1     -13.611  11.493  16.937  1.00  0.00     0.008 C 
HETATM   34  C34 UNL     1     -12.496  11.809  16.153  1.00  0.00     0.012 C 
HETATM   35  C35 UNL     1     -11.303  11.082  16.271  1.00  0.00    -0.010 C 
HETATM   36  C36 UNL     1     -11.215  10.123  17.291  1.00  0.00     0.012 C 
HETATM   37  C37 UNL     1     -12.340   9.773  18.038  1.00  0.00     0.008 C 
ENDROOT
BRANCH   1  38
HETATM   38  N3  UNL     1     -10.389  12.308  14.279  1.00  0.00    -0.341 N 
HETATM   39  C1  UNL     1      -9.597  13.312  14.314  1.00  0.00     0.124 C 
HETATM   40  N1  UNL     1      -8.523  13.552  15.102  1.00  0.00    -0.279 NA
HETATM   41  N2  UNL     1      -9.773  14.343  13.459  1.00  0.00    -0.279 NA
HETATM   42  H1  UNL     1      -7.768  13.977  14.577  1.00  0.00     0.126 HD
HETATM   43  H2  UNL     1      -8.178  12.710  15.557  1.00  0.00     0.126 HD
HETATM   44  H3  UNL     1      -9.691  15.250  13.908  1.00  0.00     0.126 HD
HETATM   45  H4  UNL     1     -10.656  14.258  12.961  1.00  0.00     0.126 HD
ATOM     46  H3  UNL     1     -11.153  12.261  13.604  1.00  0.00     0.164 HD
ENDBRANCH   1  38
BRANCH  11  47
HETATM   47  S1  UNL     1     -16.533   9.253  15.445  1.00  0.00     0.099 S 
HETATM   48  O2  UNL     1     -17.143  10.180  16.374  1.00  0.00    -0.601 OA
HETATM   49  O3  UNL     1     -17.328   8.328  14.673  1.00  0.00    -0.601 OA
BRANCH  47  50
HETATM   50  O4  UNL     1     -15.738  10.203  14.411  1.00  0.00    -0.295 OA
HETATM   51  H15 UNL     1     -15.727  11.109  14.788  1.00  0.00     0.232 HD
ENDBRANCH  47  50
ENDBRANCH  11  47
BRANCH  30  52
HETATM   52  C30 UNL     1     -12.052  11.229  23.159  1.00  0.00     0.172 C 
BRANCH  52  53
HETATM   53  O7  UNL     1     -11.457  11.252  24.449  1.00  0.00    -0.400 OA
HETATM   54  H34 UNL     1     -11.634  12.128  24.836  1.00  0.00     0.209 HD
ENDBRANCH  52  53
ENDBRANCH  30  52
BRANCH  24  55
HETATM   55  O6  UNL     1     -15.770   3.492  24.918  1.00  0.00    -0.361 OA
HETATM   56  H27 UNL     1     -15.185   3.460  25.693  1.00  0.00     0.217 HD
ENDBRANCH  24  55
TORSDOF 6
ENDMDL
MODEL 6
REMARK minimizedAffinity -6.73066759
REMARK CNNscore 0.1897493
REMARK CNNaffinity 5.67613268
REMARK  6 active torsions:
REMARK  status: ('A' for Active; 'I' for Inactive)
REMARK       I    between atoms: N1_1  and  C1_2 
REMARK       I    between atoms: C1_2  and  N2_3 
REMARK    1  A    between atoms: N3_4  and  C2_6 
REMARK    2  A    between atoms: C11_16  and  S1_17 
REMARK    3  A    between atoms: S1_17  and  O4_20 
REMARK    4  A    between atoms: C23_33  and  O6_34 
REMARK    5  A    between atoms: C29_40  and  C30_41 
REMARK    6  A    between atoms: C30_41  and  O7_42 
ROOT
HETATM    1  C2  UNL     1       3.687  12.753  -4.401  1.00  0.00     0.263 C 
HETATM    2  O1  UNL     1       2.607  12.557  -5.375  1.00  0.00    -0.322 OA
HETATM    3  C3  UNL     1       2.024  13.714  -5.828  1.00  0.00     0.071 C 
HETATM    4  C4  UNL     1       0.647  13.830  -5.642  1.00  0.00     0.037 C 
HETATM    5  C5  UNL     1       0.030  15.069  -5.807  1.00  0.00     0.010 C 
HETATM    6  C6  UNL     1       0.782  16.185  -6.195  1.00  0.00    -0.058 C 
HETATM    7  C7  UNL     1       2.123  16.003  -6.560  1.00  0.00     0.010 C 
HETATM    8  C8  UNL     1       2.749  14.771  -6.368  1.00  0.00     0.037 C 
HETATM    9  C9  UNL     1       0.197  17.576  -6.090  1.00  0.00     0.040 C 
HETATM   10  C10 UNL     1      -0.111  17.980  -4.625  1.00  0.00     0.027 C 
HETATM   11  C11 UNL     1       1.076  17.856  -3.624  1.00  0.00     0.130 C 
HETATM   12  C12 UNL     1       0.677  17.840  -2.100  1.00  0.00     0.037 C 
HETATM   13  C13 UNL     1      -0.634  17.160  -1.728  1.00  0.00    -0.014 C 
HETATM   14  C14 UNL     1      -0.936  17.077  -0.412  1.00  0.00    -0.050 C 
HETATM   15  C15 UNL     1      -0.062  17.819   0.552  1.00  0.00     0.042 C 
HETATM   16  C16 UNL     1       1.301  17.153   0.408  1.00  0.00     0.001 C 
HETATM   17  C17 UNL     1       1.334  15.794   1.165  1.00  0.00     0.038 C 
HETATM   18  C18 UNL     1      -0.004  15.133   1.640  1.00  0.00     0.130 C 
HETATM   19  O5  UNL     1      -0.964  14.936   0.582  1.00  0.00    -0.371 OA
HETATM   20  C19 UNL     1      -1.834  16.017   0.171  1.00  0.00     0.185 C 
HETATM   21  C20 UNL     1      -2.965  16.541   1.081  1.00  0.00    -0.006 A 
HETATM   22  C21 UNL     1      -3.594  17.761   0.730  1.00  0.00     0.014 A 
HETATM   23  C22 UNL     1      -4.670  18.270   1.460  1.00  0.00     0.037 A 
HETATM   24  C23 UNL     1      -5.162  17.559   2.544  1.00  0.00     0.067 A 
HETATM   25  C24 UNL     1      -4.592  16.347   2.908  1.00  0.00     0.057 A 
HETATM   26  C25 UNL     1      -3.510  15.838   2.177  1.00  0.00     0.029 A 
HETATM   27  C26 UNL     1      -2.936  14.608   2.609  1.00  0.00    -0.066 C 
HETATM   28  C27 UNL     1      -2.163  13.716   2.809  1.00  0.00    -0.101 C 
HETATM   29  C28 UNL     1      -0.950  12.907   2.764  1.00  0.00     0.103 C 
HETATM   30  C29 UNL     1       0.293  13.702   2.243  1.00  0.00     0.049 C 
HETATM   31  C31 UNL     1       1.785  17.198  -1.116  1.00  0.00     0.032 C 
HETATM   32  C32 UNL     1       2.380  15.917  -1.703  1.00  0.00    -0.053 C 
HETATM   33  C33 UNL     1       3.683  15.936  -2.226  1.00  0.00     0.008 C 
HETATM   34  C34 UNL     1       4.142  14.889  -3.033  1.00  0.00     0.012 C 
HETATM   35  C35 UNL     1       3.326  13.784  -3.312  1.00  0.00    -0.010 C 
HETATM   36  C36 UNL     1       2.093  13.692  -2.650  1.00  0.00     0.012 C 
HETATM   37  C37 UNL     1       1.614  14.757  -1.887  1.00  0.00     0.008 C 
ENDROOT
BRANCH   1  38
HETATM   38  N3  UNL     1       5.039  12.968  -4.958  1.00  0.00    -0.341 N 
HETATM   39  C1  UNL     1       5.574  12.000  -5.602  1.00  0.00     0.124 C 
HETATM   40  N1  UNL     1       5.089  10.772  -5.896  1.00  0.00    -0.279 NA
HETATM   41  N2  UNL     1       6.815  12.136  -6.119  1.00  0.00    -0.279 NA
HETATM   42  H1  UNL     1       5.334  10.495  -6.839  1.00  0.00     0.126 HD
HETATM   43  H2  UNL     1       4.079  10.714  -5.784  1.00  0.00     0.126 HD
HETATM   44  H3  UNL     1       7.405  11.327  -5.953  1.00  0.00     0.126 HD
HETATM   45  H4  UNL     1       7.258  12.989  -5.786  1.00  0.00     0.126 HD
ATOM     46  H3  UNL     1       5.528  13.855  -4.834  1.00  0.00     0.164 HD
ENDBRANCH   1  38
BRANCH  11  47
HETATM   47  S1  UNL     1       2.248  19.252  -3.878  1.00  0.00     0.099 S 
HETATM   48  O2  UNL     1       3.177  18.970  -4.950  1.00  0.00    -0.601 OA
HETATM   49  O3  UNL     1       2.700  19.764  -2.605  1.00  0.00    -0.601 OA
BRANCH  47  50
HETATM   50  O4  UNL     1       1.235  20.335  -4.513  1.00  0.00    -0.295 OA
HETATM   51  H15 UNL     1       1.402  20.366  -5.479  1.00  0.00     0.232 HD
ENDBRANCH  47  50
ENDBRANCH  11  47
BRANCH  30  52
HETATM   52  C30 UNL     1       1.374  13.713   3.337  1.00  0.00     0.172 C 
BRANCH  52  53
HETATM   53  O7  UNL     1       0.783  13.713   4.629  1.00  0.00    -0.400 OA
HETATM   54  H34 UNL     1       1.508  13.707   5.280  1.00  0.00     0.209 HD
ENDBRANCH  52  53
ENDBRANCH  30  52
BRANCH  24  55
HETATM   55  O6  UNL     1      -6.220  18.084   3.224  1.00  0.00    -0.361 OA
HETATM   56  H27 UNL     1      -6.536  17.421   3.861  1.00  0.00     0.217 HD
ENDBRANCH  24  55
TORSDOF 6
ENDMDL
MODEL 7
REMARK minimizedAffinity -7.48579597
REMARK CNNscore 0.189163208
REMARK CNNaffinity 6.48434019
REMARK  6 active torsions:
REMARK  status: ('A' for Active; 'I' for Inactive)
REMARK       I    between atoms: N1_1  and  C1_2 
REMARK       I    between atoms: C1_2  and  N2_3 
REMARK    1  A    between atoms: N3_4  and  C2_6 
REMARK    2  A    between atoms: C11_16  and  S1_17 
REMARK    3  A    between atoms: S1_17  and  O4_20 
REMARK    4  A    between atoms: C23_33  and  O6_34 
REMARK    5  A    between atoms: C29_40  and  C30_41 
REMARK    6  A    between atoms: C30_41  and  O7_42 
ROOT
HETATM    1  C2  UNL     1     -16.905   4.296  16.152  1.00  0.00     0.263 C 
HETATM    2  O1  UNL     1     -17.525   5.091  17.218  1.00  0.00    -0.322 OA
HETATM    3  C3  UNL     1     -18.175   6.220  16.789  1.00  0.00     0.071 C 
HETATM    4  C4  UNL     1     -17.749   7.429  17.339  1.00  0.00     0.037 C 
HETATM    5  C5  UNL     1     -18.150   8.631  16.757  1.00  0.00     0.010 C 
HETATM    6  C6  UNL     1     -19.008   8.627  15.650  1.00  0.00    -0.058 C 
HETATM    7  C7  UNL     1     -19.572   7.413  15.236  1.00  0.00     0.010 C 
HETATM    8  C8  UNL     1     -19.151   6.207  15.797  1.00  0.00     0.037 C 
HETATM    9  C9  UNL     1     -19.210   9.885  14.834  1.00  0.00     0.040 C 
HETATM   10  C10 UNL     1     -17.907  10.357  14.139  1.00  0.00     0.027 C 
HETATM   11  C11 UNL     1     -17.187   9.295  13.256  1.00  0.00     0.130 C 
HETATM   12  C12 UNL     1     -15.682   9.609  12.911  1.00  0.00     0.037 C 
HETATM   13  C13 UNL     1     -14.856  10.320  13.975  1.00  0.00    -0.014 C 
HETATM   14  C14 UNL     1     -13.544  10.516  13.708  1.00  0.00    -0.050 C 
HETATM   15  C15 UNL     1     -13.056  10.196  12.329  1.00  0.00     0.042 C 
HETATM   16  C16 UNL     1     -13.274   8.694  12.197  1.00  0.00     0.001 C 
HETATM   17  C17 UNL     1     -12.163   7.908  12.953  1.00  0.00     0.038 C 
HETATM   18  C18 UNL     1     -11.241   8.651  13.977  1.00  0.00     0.130 C 
HETATM   19  O5  UNL     1     -11.963   9.346  15.014  1.00  0.00    -0.371 OA
HETATM   20  C19 UNL     1     -12.491  10.672  14.775  1.00  0.00     0.185 C 
HETATM   21  C20 UNL     1     -11.568  11.898  14.615  1.00  0.00    -0.006 A 
HETATM   22  C21 UNL     1     -12.134  13.101  14.124  1.00  0.00     0.014 A 
HETATM   23  C22 UNL     1     -11.385  14.274  14.013  1.00  0.00     0.037 A 
HETATM   24  C23 UNL     1     -10.058  14.283  14.416  1.00  0.00     0.067 A 
HETATM   25  C24 UNL     1      -9.471  13.133  14.927  1.00  0.00     0.057 A 
HETATM   26  C25 UNL     1     -10.222  11.955  15.035  1.00  0.00     0.029 A 
HETATM   27  C26 UNL     1      -9.568  10.792  15.533  1.00  0.00    -0.066 C 
HETATM   28  C27 UNL     1      -9.272   9.653  15.752  1.00  0.00    -0.101 C 
HETATM   29  C28 UNL     1      -9.322   8.196  15.773  1.00  0.00     0.103 C 
HETATM   30  C29 UNL     1     -10.308   7.606  14.710  1.00  0.00     0.049 C 
HETATM   31  C31 UNL     1     -14.805   8.325  12.475  1.00  0.00     0.032 C 
HETATM   32  C32 UNL     1     -15.086   7.122  13.378  1.00  0.00    -0.053 C 
HETATM   33  C33 UNL     1     -15.850   6.052  12.887  1.00  0.00     0.008 C 
HETATM   34  C34 UNL     1     -16.379   5.094  13.759  1.00  0.00     0.012 C 
HETATM   35  C35 UNL     1     -16.131   5.162  15.138  1.00  0.00    -0.010 C 
HETATM   36  C36 UNL     1     -15.229   6.132  15.598  1.00  0.00     0.012 C 
HETATM   37  C37 UNL     1     -14.743   7.117  14.738  1.00  0.00     0.008 C 
ENDROOT
BRANCH   1  38
HETATM   38  N3  UNL     1     -17.771   3.293  15.497  1.00  0.00    -0.341 N 
HETATM   39  C1  UNL     1     -17.440   2.062  15.608  1.00  0.00     0.124 C 
HETATM   40  N1  UNL     1     -16.407   1.491  16.269  1.00  0.00    -0.279 NA
HETATM   41  N2  UNL     1     -18.187   1.105  15.016  1.00  0.00    -0.279 NA
HETATM   42  H1  UNL     1     -16.694   0.638  16.735  1.00  0.00     0.126 HD
HETATM   43  H2  UNL     1     -15.986   2.117  16.951  1.00  0.00     0.126 HD
HETATM   44  H3  UNL     1     -17.629   0.406  14.536  1.00  0.00     0.126 HD
HETATM   45  H4  UNL     1     -18.880   1.515  14.393  1.00  0.00     0.126 HD
ATOM     46  H3  UNL     1     -18.602   3.572  14.975  1.00  0.00     0.164 HD
ENDBRANCH   1  38
BRANCH  11  47
HETATM   47  S1  UNL     1     -18.092   9.095  11.666  1.00  0.00     0.099 S 
HETATM   48  O2  UNL     1     -19.122  10.100  11.517  1.00  0.00    -0.601 OA
HETATM   49  O3  UNL     1     -18.361   7.699  11.415  1.00  0.00    -0.601 OA
BRANCH  47  50
HETATM   50  O4  UNL     1     -16.936   9.566  10.644  1.00  0.00    -0.295 OA
HETATM   51  H15 UNL     1     -17.154  10.476  10.348  1.00  0.00     0.232 HD
ENDBRANCH  47  50
ENDBRANCH  11  47
BRANCH  30  52
HETATM   52  C30 UNL     1      -9.521   6.707  13.742  1.00  0.00     0.172 C 
BRANCH  52  53
HETATM   53  O7  UNL     1      -8.908   5.631  14.439  1.00  0.00    -0.400 OA
HETATM   54  H34 UNL     1      -8.437   5.089  13.781  1.00  0.00     0.209 HD
ENDBRANCH  52  53
ENDBRANCH  30  52
BRANCH  24  55
HETATM   55  O6  UNL     1      -9.364  15.449  14.302  1.00  0.00    -0.361 OA
HETATM   56  H27 UNL     1      -8.505  15.341  14.743  1.00  0.00     0.217 HD
ENDBRANCH  24  55
TORSDOF 6
ENDMDL
MODEL 8
REMARK minimizedAffinity -6.81294346
REMARK CNNscore 0.185862839
REMARK CNNaffinity 6.16369295
REMARK  6 active torsions:
REMARK  status: ('A' for Active; 'I' for Inactive)
REMARK       I    between atoms: N1_1  and  C1_2 
REMARK       I    between atoms: C1_2  and  N2_3 
REMARK    1  A    between atoms: N3_4  and  C2_6 
REMARK    2  A    between atoms: C11_16  and  S1_17 
REMARK    3  A    between atoms: S1_17  and  O4_20 
REMARK    4  A    between atoms: C23_33  and  O6_34 
REMARK    5  A    between atoms: C29_40  and  C30_41 
REMARK    6  A    between atoms: C30_41  and  O7_42 
ROOT
HETATM    1  C2  UNL     1     -15.054  -1.514  14.869  1.00  0.00     0.263 C 
HETATM    2  O1  UNL     1     -15.952  -2.018  15.914  1.00  0.00    -0.322 OA
HETATM    3  C3  UNL     1     -17.281  -2.029  15.574  1.00  0.00     0.071 C 
HETATM    4  C4  UNL     1     -18.141  -1.315  16.408  1.00  0.00     0.037 C 
HETATM    5  C5  UNL     1     -19.440  -1.037  15.985  1.00  0.00     0.010 C 
HETATM    6  C6  UNL     1     -19.893  -1.505  14.745  1.00  0.00    -0.058 C 
HETATM    7  C7  UNL     1     -19.077  -2.378  14.013  1.00  0.00     0.010 C 
HETATM    8  C8  UNL     1     -17.768  -2.634  14.419  1.00  0.00     0.037 C 
HETATM    9  C9  UNL     1     -21.175  -0.969  14.147  1.00  0.00     0.040 C 
HETATM   10  C10 UNL     1     -21.093   0.545  13.827  1.00  0.00     0.027 C 
HETATM   11  C11 UNL     1     -19.898   0.985  12.930  1.00  0.00     0.130 C 
HETATM   12  C12 UNL     1     -19.559   2.523  12.959  1.00  0.00     0.037 C 
HETATM   13  C13 UNL     1     -19.758   3.257  14.279  1.00  0.00    -0.014 C 
HETATM   14  C14 UNL     1     -19.391   4.558  14.323  1.00  0.00    -0.050 C 
HETATM   15  C15 UNL     1     -19.001   5.218  13.036  1.00  0.00     0.042 C 
HETATM   16  C16 UNL     1     -17.754   4.462  12.594  1.00  0.00     0.001 C 
HETATM   17  C17 UNL     1     -16.510   4.928  13.403  1.00  0.00     0.038 C 
HETATM   18  C18 UNL     1     -16.700   5.770  14.710  1.00  0.00     0.130 C 
HETATM   19  O5  UNL     1     -17.555   5.142  15.687  1.00  0.00    -0.371 OA
HETATM   20  C19 UNL     1     -18.993   5.268  15.591  1.00  0.00     0.185 C 
HETATM   21  C20 UNL     1     -19.711   6.611  15.846  1.00  0.00    -0.006 A 
HETATM   22  C21 UNL     1     -21.074   6.720  15.476  1.00  0.00     0.014 A 
HETATM   23  C22 UNL     1     -21.815   7.876  15.734  1.00  0.00     0.037 A 
HETATM   24  C23 UNL     1     -21.220   8.941  16.392  1.00  0.00     0.067 A 
HETATM   25  C24 UNL     1     -19.893   8.867  16.795  1.00  0.00     0.057 A 
HETATM   26  C25 UNL     1     -19.149   7.709  16.533  1.00  0.00     0.029 A 
HETATM   27  C26 UNL     1     -17.782   7.691  16.934  1.00  0.00    -0.066 C 
HETATM   28  C27 UNL     1     -16.614   7.440  16.998  1.00  0.00    -0.101 C 
HETATM   29  C28 UNL     1     -15.324   6.810  16.744  1.00  0.00     0.103 C 
HETATM   30  C29 UNL     1     -15.302   5.983  15.415  1.00  0.00     0.049 C 
HETATM   31  C31 UNL     1     -18.061   2.896  12.485  1.00  0.00     0.032 C 
HETATM   32  C32 UNL     1     -17.030   1.935  13.079  1.00  0.00    -0.053 C 
HETATM   33  C33 UNL     1     -16.435   0.963  12.258  1.00  0.00     0.008 C 
HETATM   34  C34 UNL     1     -15.733  -0.110  12.817  1.00  0.00     0.012 C 
HETATM   35  C35 UNL     1     -15.579  -0.224  14.206  1.00  0.00    -0.010 C 
HETATM   36  C36 UNL     1     -16.027   0.837  15.007  1.00  0.00     0.012 C 
HETATM   37  C37 UNL     1     -16.770   1.880  14.456  1.00  0.00     0.008 C 
ENDROOT
BRANCH   1  38
HETATM   38  N3  UNL     1     -14.577  -2.504  13.881  1.00  0.00    -0.341 N 
HETATM   39  C1  UNL     1     -13.742  -3.386  14.284  1.00  0.00     0.124 C 
HETATM   40  N1  UNL     1     -13.216  -3.596  15.512  1.00  0.00    -0.279 NA
HETATM   41  N2  UNL     1     -13.262  -4.307  13.420  1.00  0.00    -0.279 NA
HETATM   42  H1  UNL     1     -13.158  -4.585  15.725  1.00  0.00     0.126 HD
HETATM   43  H2  UNL     1     -13.742  -3.128  16.247  1.00  0.00     0.126 HD
HETATM   44  H3  UNL     1     -12.260  -4.445  13.503  1.00  0.00     0.126 HD
HETATM   45  H4  UNL     1     -13.524  -4.082  12.463  1.00  0.00     0.126 HD
ATOM     46  H3  UNL     1     -14.902  -2.486  12.914  1.00  0.00     0.164 HD
ENDBRANCH   1  38
BRANCH  11  47
HETATM   47  S1  UNL     1     -20.233   0.522  11.181  1.00  0.00     0.099 S 
HETATM   48  O2  UNL     1     -21.597   0.074  11.007  1.00  0.00    -0.601 OA
HETATM   49  O3  UNL     1     -19.121  -0.223  10.638  1.00  0.00    -0.601 OA
BRANCH  47  50
HETATM   50  O4  UNL     1     -20.216   1.990  10.512  1.00  0.00    -0.295 OA
HETATM   51  H15 UNL     1     -21.147   2.251  10.344  1.00  0.00     0.232 HD
ENDBRANCH  47  50
ENDBRANCH  11  47
BRANCH  30  52
HETATM   52  C30 UNL     1     -14.230   6.569  14.480  1.00  0.00     0.172 C 
BRANCH  52  53
HETATM   53  O7  UNL     1     -14.591   7.875  14.054  1.00  0.00    -0.400 OA
HETATM   54  H34 UNL     1     -13.876   8.202  13.479  1.00  0.00     0.209 HD
ENDBRANCH  52  53
ENDBRANCH  30  52
BRANCH  24  55
HETATM   55  O6  UNL     1     -21.978  10.046  16.634  1.00  0.00    -0.361 OA
HETATM   56  H27 UNL     1     -21.477  10.644  17.213  1.00  0.00     0.217 HD
ENDBRANCH  24  55
TORSDOF 6
ENDMDL
MODEL 9
REMARK minimizedAffinity -7.61721754
REMARK CNNscore 0.182263926
REMARK CNNaffinity 6.89541674
REMARK  6 active torsions:
REMARK  status: ('A' for Active; 'I' for Inactive)
REMARK       I    between atoms: N1_1  and  C1_2 
REMARK       I    between atoms: C1_2  and  N2_3 
REMARK    1  A    between atoms: N3_4  and  C2_6 
REMARK    2  A    between atoms: C11_16  and  S1_17 
REMARK    3  A    between atoms: S1_17  and  O4_20 
REMARK    4  A    between atoms: C23_33  and  O6_34 
REMARK    5  A    between atoms: C29_40  and  C30_41 
REMARK    6  A    between atoms: C30_41  and  O7_42 
ROOT
HETATM    1  C2  UNL     1      -2.765   6.629  12.874  1.00  0.00     0.263 C 
HETATM    2  O1  UNL     1      -2.029   6.801  11.617  1.00  0.00    -0.322 OA
HETATM    3  C3  UNL     1      -0.688   7.052  11.765  1.00  0.00     0.071 C 
HETATM    4  C4  UNL     1      -0.208   8.227  11.187  1.00  0.00     0.037 C 
HETATM    5  C5  UNL     1       1.059   8.696  11.529  1.00  0.00     0.010 C 
HETATM    6  C6  UNL     1       1.863   7.972  12.419  1.00  0.00    -0.058 C 
HETATM    7  C7  UNL     1       1.437   6.704  12.837  1.00  0.00     0.010 C 
HETATM    8  C8  UNL     1       0.158   6.245  12.520  1.00  0.00     0.037 C 
HETATM    9  C9  UNL     1       3.096   8.605  13.025  1.00  0.00     0.040 C 
HETATM   10  C10 UNL     1       2.758   9.820  13.926  1.00  0.00     0.027 C 
HETATM   11  C11 UNL     1       1.720   9.557  15.058  1.00  0.00     0.130 C 
HETATM   12  C12 UNL     1       1.057  10.843  15.680  1.00  0.00     0.037 C 
HETATM   13  C13 UNL     1       0.798  12.017  14.746  1.00  0.00    -0.014 C 
HETATM   14  C14 UNL     1       0.155  13.089  15.264  1.00  0.00    -0.050 C 
HETATM   15  C15 UNL     1      -0.079  13.115  16.744  1.00  0.00     0.042 C 
HETATM   16  C16 UNL     1      -1.003  11.929  16.994  1.00  0.00     0.001 C 
HETATM   17  C17 UNL     1      -2.465  12.275  16.589  1.00  0.00     0.038 C 
HETATM   18  C18 UNL     1      -2.753  13.539  15.710  1.00  0.00     0.130 C 
HETATM   19  O5  UNL     1      -2.016  13.566  14.470  1.00  0.00    -0.371 OA
HETATM   20  C19 UNL     1      -0.654  14.054  14.438  1.00  0.00     0.185 C 
HETATM   21  C20 UNL     1      -0.320  15.545  14.653  1.00  0.00    -0.006 A 
HETATM   22  C21 UNL     1       1.034  15.902  14.872  1.00  0.00     0.014 A 
HETATM   23  C22 UNL     1       1.430  17.234  15.008  1.00  0.00     0.037 A 
HETATM   24  C23 UNL     1       0.488  18.246  14.901  1.00  0.00     0.067 A 
HETATM   25  C24 UNL     1      -0.846  17.943  14.662  1.00  0.00     0.057 A 
HETATM   26  C25 UNL     1      -1.244  16.606  14.528  1.00  0.00     0.029 A 
HETATM   27  C26 UNL     1      -2.627  16.342  14.318  1.00  0.00    -0.066 C 
HETATM   28  C27 UNL     1      -3.698  15.807  14.297  1.00  0.00    -0.101 C 
HETATM   29  C28 UNL     1      -4.732  14.788  14.432  1.00  0.00     0.103 C 
HETATM   30  C29 UNL     1      -4.283  13.578  15.317  1.00  0.00     0.049 C 
HETATM   31  C31 UNL     1      -0.347  10.581  16.437  1.00  0.00     0.032 C 
HETATM   32  C32 UNL     1      -1.248   9.639  15.637  1.00  0.00    -0.053 C 
HETATM   33  C33 UNL     1      -1.422   8.315  16.069  1.00  0.00     0.008 C 
HETATM   34  C34 UNL     1      -1.978   7.354  15.218  1.00  0.00     0.012 C 
HETATM   35  C35 UNL     1      -2.403   7.696  13.927  1.00  0.00    -0.010 C 
HETATM   36  C36 UNL     1      -2.383   9.051  13.564  1.00  0.00     0.012 C 
HETATM   37  C37 UNL     1      -1.783  10.000  14.392  1.00  0.00     0.008 C 
ENDROOT
BRANCH   1  38
HETATM   38  N3  UNL     1      -2.787   5.263  13.437  1.00  0.00    -0.341 N 
HETATM   39  C1  UNL     1      -3.189   4.316  12.677  1.00  0.00     0.124 C 
HETATM   40  N1  UNL     1      -3.591   4.343  11.385  1.00  0.00    -0.279 NA
HETATM   41  N2  UNL     1      -3.244   3.050  13.144  1.00  0.00    -0.279 NA
HETATM   42  H1  UNL     1      -3.239   3.542  10.873  1.00  0.00     0.126 HD
HETATM   43  H2  UNL     1      -3.308   5.195  10.906  1.00  0.00     0.126 HD
HETATM   44  H3  UNL     1      -4.102   2.570  12.891  1.00  0.00     0.126 HD
HETATM   45  H4  UNL     1      -3.091   3.025  14.150  1.00  0.00     0.126 HD
ATOM     46  H3  UNL     1      -2.493   5.081  14.397  1.00  0.00     0.164 HD
ENDBRANCH   1  38
BRANCH  11  47
HETATM   47  S1  UNL     1       2.522   8.625  16.428  1.00  0.00     0.099 S 
HETATM   48  O2  UNL     1       2.188   9.192  17.716  1.00  0.00    -0.601 OA
HETATM   49  O3  UNL     1       3.885   8.298  16.080  1.00  0.00    -0.601 OA
BRANCH  47  50
HETATM   50  O4  UNL     1       1.657   7.265  16.363  1.00  0.00    -0.295 OA
HETATM   51  H15 UNL     1       1.016   7.285  17.105  1.00  0.00     0.232 HD
ENDBRANCH  47  50
ENDBRANCH  11  47
BRANCH  30  52
HETATM   52  C30 UNL     1      -5.226  13.466  16.527  1.00  0.00     0.172 C 
BRANCH  52  53
HETATM   53  O7  UNL     1      -6.531  13.083  16.116  1.00  0.00    -0.400 OA
HETATM   54  H34 UNL     1      -7.080  13.015  16.918  1.00  0.00     0.209 HD
ENDBRANCH  52  53
ENDBRANCH  30  52
BRANCH  24  55
HETATM   55  O6  UNL     1       0.916  19.533  15.029  1.00  0.00    -0.361 OA
HETATM   56  H27 UNL     1       0.182  20.126  14.798  1.00  0.00     0.217 HD
ENDBRANCH  24  55
TORSDOF 6
ENDMDL
