MODEL 1
REMARK minimizedAffinity -9.7958107
REMARK  8 active torsions:
REMARK  status: ('A' for Active; 'I' for Inactive)
REMARK    1  A    between atoms: C2_2  and  C3_3 
REMARK    2  A    between atoms: C2_2  and  C9_12 
REMARK    3  A    between atoms: C3_3  and  C4_4 
REMARK    4  A    between atoms: C4_4  and  O1_5 
REMARK    5  A    between atoms: C4_4  and  C5_6 
REMARK    6  A    between atoms: C5_6  and  O2_7 
REMARK    7  A    between atoms: C5_6  and  C6_8 
REMARK    8  A    between atoms: C6_8  and  O3_11 
ROOT
HETATM    1  C9  UNL     1      -6.430  48.923 -22.024  1.00  0.00     0.097 A 
HETATM    2  C10 UNL     1      -6.015  49.636 -20.772  1.00  0.00     0.042 A 
HETATM    3  C11 UNL     1      -4.474  49.734 -20.800  1.00  0.00     0.016 A 
HETATM    4  C12 UNL     1      -3.953  49.174 -22.169  1.00  0.00    -0.002 A 
HETATM    5  C13 UNL     1      -3.003  47.998 -21.839  1.00  0.00     0.019 C 
HETATM    6  C14 UNL     1      -5.206  48.624 -22.853  1.00  0.00     0.101 A 
HETATM    7  C15 UNL     1      -5.162  48.283 -24.308  1.00  0.00     0.042 C 
HETATM    8  C16 UNL     1      -4.440  49.334 -25.149  1.00  0.00     0.009 C 
HETATM    9  C17 UNL     1      -3.063  49.709 -24.552  1.00  0.00     0.003 C 
HETATM   10  C18 UNL     1      -2.089  50.479 -25.566  1.00  0.00    -0.035 C 
HETATM   11  C19 UNL     1      -1.644  49.398 -26.599  1.00  0.00     0.016 C 
HETATM   12  C20 UNL     1      -2.816  51.600 -26.348  1.00  0.00     0.017 C 
HETATM   13  C21 UNL     1      -1.925  52.429 -27.255  1.00  0.00     0.080 C 
HETATM   14  C22 UNL     1      -0.762  53.002 -26.489  1.00  0.00     0.135 C 
HETATM   15  O4  UNL     1      -0.497  54.201 -26.574  1.00  0.00    -0.297 OA
HETATM   16  C23 UNL     1       0.112  52.024 -25.699  1.00  0.00     0.017 C 
HETATM   17  C24 UNL     1       1.089  52.841 -24.813  1.00  0.00     0.023 C 
HETATM   18  C25 UNL     1       1.006  51.258 -26.701  1.00  0.00     0.023 C 
HETATM   19  C26 UNL     1      -0.805  51.057 -24.838  1.00  0.00     0.009 C 
HETATM   20  C27 UNL     1      -1.173  51.700 -23.478  1.00  0.00     0.007 C 
HETATM   21  C28 UNL     1      -1.913  50.733 -22.557  1.00  0.00     0.011 C 
HETATM   22  C29 UNL     1      -3.287  50.304 -23.108  1.00  0.00    -0.029 C 
HETATM   23  C30 UNL     1      -4.215  51.557 -23.120  1.00  0.00     0.016 C 
HETATM   24  O5  UNL     1      -5.897  47.599 -22.101  1.00  0.00    -0.362 OA
ENDROOT
BRANCH   1  25
HETATM   25  C2  UNL     1      -7.842  49.047 -22.567  1.00  0.00     0.022 C 
HETATM   26  C1  UNL     1      -8.781  48.085 -21.831  1.00  0.00     0.013 C 
BRANCH  25  27
HETATM   27  C3  UNL     1      -7.861  48.841 -24.101  1.00  0.00     0.041 C 
BRANCH  27  28
HETATM   28  C4  UNL     1      -9.059  48.049 -24.664  1.00  0.00     0.150 C 
BRANCH  28  29
HETATM   29  O1  UNL     1      -8.580  46.719 -24.962  1.00  0.00    -0.393 OA
HETATM   30  H8  UNL     1      -8.337  46.310 -24.110  1.00  0.00     0.210 HD
ENDBRANCH  28  29
BRANCH  28  31
HETATM   31  C5  UNL     1      -9.623  48.636 -25.984  1.00  0.00     0.180 C 
BRANCH  31  32
HETATM   32  O2  UNL     1      -9.568  50.070 -25.898  1.00  0.00    -0.390 OA
HETATM   33  H10 UNL     1      -8.774  50.249 -25.352  1.00  0.00     0.210 HD
ENDBRANCH  31  32
BRANCH  31  34
HETATM   34  C6  UNL     1      -8.884  48.132 -27.260  1.00  0.00     0.079 C 
HETATM   35  C7  UNL     1      -9.610  46.989 -27.979  1.00  0.00     0.048 C 
HETATM   36  C8  UNL     1      -7.462  47.680 -26.892  1.00  0.00     0.048 C 
BRANCH  34  37
HETATM   37  O3  UNL     1      -8.772  49.233 -28.172  1.00  0.00    -0.388 OA
HETATM   38  H17 UNL     1      -8.181  48.960 -28.895  1.00  0.00     0.210 HD
ENDBRANCH  34  37
ENDBRANCH  31  34
ENDBRANCH  28  31
ENDBRANCH  27  28
ENDBRANCH  25  27
ENDBRANCH   1  25
TORSDOF 8
ENDMDL
MODEL 2
REMARK minimizedAffinity -9.61424541
REMARK  8 active torsions:
REMARK  status: ('A' for Active; 'I' for Inactive)
REMARK    1  A    between atoms: C2_2  and  C3_3 
REMARK    2  A    between atoms: C2_2  and  C9_12 
REMARK    3  A    between atoms: C3_3  and  C4_4 
REMARK    4  A    between atoms: C4_4  and  O1_5 
REMARK    5  A    between atoms: C4_4  and  C5_6 
REMARK    6  A    between atoms: C5_6  and  O2_7 
REMARK    7  A    between atoms: C5_6  and  C6_8 
REMARK    8  A    between atoms: C6_8  and  O3_11 
ROOT
HETATM    1  C9  UNL     1      -4.415  49.306 -20.532  1.00  0.00     0.097 A 
HETATM    2  C10 UNL     1      -4.033  50.506 -19.718  1.00  0.00     0.042 A 
HETATM    3  C11 UNL     1      -2.685  51.015 -20.274  1.00  0.00     0.016 A 
HETATM    4  C12 UNL     1      -2.305  50.172 -21.540  1.00  0.00    -0.002 A 
HETATM    5  C13 UNL     1      -0.938  49.509 -21.242  1.00  0.00     0.019 C 
HETATM    6  C14 UNL     1      -3.380  49.085 -21.607  1.00  0.00     0.101 A 
HETATM    7  C15 UNL     1      -3.531  48.272 -22.852  1.00  0.00     0.042 C 
HETATM    8  C16 UNL     1      -3.453  49.109 -24.127  1.00  0.00     0.009 C 
HETATM    9  C17 UNL     1      -2.219  50.042 -24.134  1.00  0.00     0.003 C 
HETATM   10  C18 UNL     1      -1.848  50.636 -25.576  1.00  0.00    -0.035 C 
HETATM   11  C19 UNL     1      -1.269  49.428 -26.375  1.00  0.00     0.016 C 
HETATM   12  C20 UNL     1      -3.091  51.151 -26.343  1.00  0.00     0.017 C 
HETATM   13  C21 UNL     1      -2.792  51.814 -27.675  1.00  0.00     0.080 C 
HETATM   14  C22 UNL     1      -1.788  52.924 -27.511  1.00  0.00     0.135 C 
HETATM   15  O4  UNL     1      -2.013  54.036 -27.990  1.00  0.00    -0.297 OA
HETATM   16  C23 UNL     1      -0.464  52.582 -26.823  1.00  0.00     0.017 C 
HETATM   17  C24 UNL     1       0.307  53.901 -26.553  1.00  0.00     0.023 C 
HETATM   18  C25 UNL     1       0.409  51.791 -27.824  1.00  0.00     0.023 C 
HETATM   19  C26 UNL     1      -0.745  51.773 -25.488  1.00  0.00     0.009 C 
HETATM   20  C27 UNL     1      -1.020  52.730 -24.301  1.00  0.00     0.007 C 
HETATM   21  C28 UNL     1      -1.128  51.992 -22.969  1.00  0.00     0.011 C 
HETATM   22  C29 UNL     1      -2.329  51.028 -22.907  1.00  0.00    -0.029 C 
HETATM   23  C30 UNL     1      -3.634  51.878 -22.943  1.00  0.00     0.016 C 
HETATM   24  O5  UNL     1      -3.460  48.249 -20.429  1.00  0.00    -0.362 OA
ENDROOT
BRANCH   1  25
HETATM   25  C2  UNL     1      -5.855  48.826 -20.595  1.00  0.00     0.022 C 
HETATM   26  C1  UNL     1      -6.815  50.020 -20.537  1.00  0.00     0.013 C 
BRANCH  25  27
HETATM   27  C3  UNL     1      -6.135  47.783 -19.487  1.00  0.00     0.041 C 
BRANCH  27  28
HETATM   28  C4  UNL     1      -6.661  48.339 -18.148  1.00  0.00     0.150 C 
BRANCH  28  29
HETATM   29  O1  UNL     1      -5.587  48.214 -17.190  1.00  0.00    -0.393 OA
HETATM   30  H8  UNL     1      -4.872  48.808 -17.490  1.00  0.00     0.210 HD
ENDBRANCH  28  29
BRANCH  28  31
HETATM   31  C5  UNL     1      -7.869  47.549 -17.582  1.00  0.00     0.180 C 
BRANCH  31  32
HETATM   32  O2  UNL     1      -7.573  47.190 -16.222  1.00  0.00    -0.390 OA
HETATM   33  H10 UNL     1      -7.023  47.930 -15.891  1.00  0.00     0.210 HD
ENDBRANCH  31  32
BRANCH  31  34
HETATM   34  C6  UNL     1      -9.219  48.323 -17.666  1.00  0.00     0.079 C 
HETATM   35  C7  UNL     1     -10.289  47.796 -16.701  1.00  0.00     0.048 C 
HETATM   36  C8  UNL     1      -9.760  48.268 -19.104  1.00  0.00     0.048 C 
BRANCH  34  37
HETATM   37  O3  UNL     1      -8.966  49.697 -17.344  1.00  0.00    -0.388 OA
HETATM   38  H17 UNL     1      -9.772  50.202 -17.545  1.00  0.00     0.210 HD
ENDBRANCH  34  37
ENDBRANCH  31  34
ENDBRANCH  28  31
ENDBRANCH  27  28
ENDBRANCH  25  27
ENDBRANCH   1  25
TORSDOF 8
ENDMDL
MODEL 3
REMARK minimizedAffinity -9.51367188
REMARK  8 active torsions:
REMARK  status: ('A' for Active; 'I' for Inactive)
REMARK    1  A    between atoms: C2_2  and  C3_3 
REMARK    2  A    between atoms: C2_2  and  C9_12 
REMARK    3  A    between atoms: C3_3  and  C4_4 
REMARK    4  A    between atoms: C4_4  and  O1_5 
REMARK    5  A    between atoms: C4_4  and  C5_6 
REMARK    6  A    between atoms: C5_6  and  O2_7 
REMARK    7  A    between atoms: C5_6  and  C6_8 
REMARK    8  A    between atoms: C6_8  and  O3_11 
ROOT
HETATM    1  C9  UNL     1      -6.269  48.816 -23.839  1.00  0.00     0.097 A 
HETATM    2  C10 UNL     1      -6.419  49.560 -22.545  1.00  0.00     0.042 A 
HETATM    3  C11 UNL     1      -4.995  49.888 -22.048  1.00  0.00     0.016 A 
HETATM    4  C12 UNL     1      -3.959  49.438 -23.135  1.00  0.00    -0.002 A 
HETATM    5  C13 UNL     1      -3.017  48.412 -22.460  1.00  0.00     0.019 C 
HETATM    6  C14 UNL     1      -4.804  48.719 -24.188  1.00  0.00     0.101 A 
HETATM    7  C15 UNL     1      -4.214  48.415 -25.528  1.00  0.00     0.042 C 
HETATM    8  C16 UNL     1      -3.410  49.578 -26.106  1.00  0.00     0.009 C 
HETATM    9  C17 UNL     1      -2.393  50.144 -25.086  1.00  0.00     0.003 C 
HETATM   10  C18 UNL     1      -1.254  51.069 -25.732  1.00  0.00    -0.035 C 
HETATM   11  C19 UNL     1      -0.328  50.086 -26.512  1.00  0.00     0.016 C 
HETATM   12  C20 UNL     1      -1.824  52.083 -26.754  1.00  0.00     0.017 C 
HETATM   13  C21 UNL     1      -0.808  53.053 -27.328  1.00  0.00     0.080 C 
HETATM   14  C22 UNL     1      -0.076  53.780 -26.230  1.00  0.00     0.135 C 
HETATM   15  O4  UNL     1       0.023  55.007 -26.261  1.00  0.00    -0.297 OA
HETATM   16  C23 UNL     1       0.606  52.929 -25.156  1.00  0.00     0.017 C 
HETATM   17  C24 UNL     1       1.088  53.867 -24.018  1.00  0.00     0.023 C 
HETATM   18  C25 UNL     1       1.893  52.324 -25.764  1.00  0.00     0.023 C 
HETATM   19  C26 UNL     1      -0.398  51.820 -24.628  1.00  0.00     0.009 C 
HETATM   20  C27 UNL     1      -1.302  52.375 -23.499  1.00  0.00     0.007 C 
HETATM   21  C28 UNL     1      -2.162  51.292 -22.855  1.00  0.00     0.011 C 
HETATM   22  C29 UNL     1      -3.184  50.672 -23.828  1.00  0.00    -0.029 C 
HETATM   23  C30 UNL     1      -4.224  51.771 -24.200  1.00  0.00     0.016 C 
HETATM   24  O5  UNL     1      -5.554  47.589 -23.683  1.00  0.00    -0.362 OA
ENDROOT
BRANCH   1  25
HETATM   25  C2  UNL     1      -7.411  48.738 -24.837  1.00  0.00     0.022 C 
HETATM   26  C1  UNL     1      -8.738  48.498 -24.107  1.00  0.00     0.013 C 
BRANCH  25  27
HETATM   27  C3  UNL     1      -7.123  47.667 -25.917  1.00  0.00     0.041 C 
BRANCH  27  28
HETATM   28  C4  UNL     1      -8.355  47.085 -26.639  1.00  0.00     0.150 C 
BRANCH  28  29
HETATM   29  O1  UNL     1      -8.048  45.708 -26.951  1.00  0.00    -0.393 OA
HETATM   30  H8  UNL     1      -7.962  45.239 -26.099  1.00  0.00     0.210 HD
ENDBRANCH  28  29
BRANCH  28  31
HETATM   31  C5  UNL     1      -8.678  47.793 -27.980  1.00  0.00     0.180 C 
BRANCH  31  32
HETATM   32  O2  UNL     1      -8.962  49.175 -27.702  1.00  0.00    -0.390 OA
HETATM   33  H10 UNL     1      -8.391  49.388 -26.934  1.00  0.00     0.210 HD
ENDBRANCH  31  32
BRANCH  31  34
HETATM   34  C6  UNL     1      -7.547  47.666 -29.044  1.00  0.00     0.079 C 
HETATM   35  C7  UNL     1      -7.697  46.442 -29.956  1.00  0.00     0.048 C 
HETATM   36  C8  UNL     1      -6.180  47.616 -28.345  1.00  0.00     0.048 C 
BRANCH  34  37
HETATM   37  O3  UNL     1      -7.576  48.841 -29.866  1.00  0.00    -0.388 OA
HETATM   38  H17 UNL     1      -6.781  48.831 -30.425  1.00  0.00     0.210 HD
ENDBRANCH  34  37
ENDBRANCH  31  34
ENDBRANCH  28  31
ENDBRANCH  27  28
ENDBRANCH  25  27
ENDBRANCH   1  25
TORSDOF 8
ENDMDL
MODEL 4
REMARK minimizedAffinity -9.40898323
REMARK  8 active torsions:
REMARK  status: ('A' for Active; 'I' for Inactive)
REMARK    1  A    between atoms: C2_2  and  C3_3 
REMARK    2  A    between atoms: C2_2  and  C9_12 
REMARK    3  A    between atoms: C3_3  and  C4_4 
REMARK    4  A    between atoms: C4_4  and  O1_5 
REMARK    5  A    between atoms: C4_4  and  C5_6 
REMARK    6  A    between atoms: C5_6  and  O2_7 
REMARK    7  A    between atoms: C5_6  and  C6_8 
REMARK    8  A    between atoms: C6_8  and  O3_11 
ROOT
HETATM    1  C9  UNL     1      -3.563  49.650 -20.146  1.00  0.00     0.097 A 
HETATM    2  C10 UNL     1      -3.257  50.943 -19.452  1.00  0.00     0.042 A 
HETATM    3  C11 UNL     1      -2.010  51.539 -20.141  1.00  0.00     0.016 A 
HETATM    4  C12 UNL     1      -1.627  50.639 -21.368  1.00  0.00    -0.002 A 
HETATM    5  C13 UNL     1      -0.182  50.142 -21.126  1.00  0.00     0.019 C 
HETATM    6  C14 UNL     1      -2.584  49.449 -21.276  1.00  0.00     0.101 A 
HETATM    7  C15 UNL     1      -2.731  48.528 -22.445  1.00  0.00     0.042 C 
HETATM    8  C16 UNL     1      -2.826  49.265 -23.779  1.00  0.00     0.009 C 
HETATM    9  C17 UNL     1      -1.701  50.313 -23.945  1.00  0.00     0.003 C 
HETATM   10  C18 UNL     1      -1.490  50.825 -25.450  1.00  0.00    -0.035 C 
HETATM   11  C19 UNL     1      -0.842  49.621 -26.200  1.00  0.00     0.016 C 
HETATM   12  C20 UNL     1      -2.829  51.150 -26.158  1.00  0.00     0.017 C 
HETATM   13  C21 UNL     1      -2.690  51.731 -27.553  1.00  0.00     0.080 C 
HETATM   14  C22 UNL     1      -1.800  52.947 -27.544  1.00  0.00     0.135 C 
HETATM   15  O4  UNL     1      -2.173  53.988 -28.085  1.00  0.00    -0.297 OA
HETATM   16  C23 UNL     1      -0.405  52.794 -26.933  1.00  0.00     0.017 C 
HETATM   17  C24 UNL     1       0.239  54.200 -26.818  1.00  0.00     0.023 C 
HETATM   18  C25 UNL     1       0.479  52.017 -27.936  1.00  0.00     0.023 C 
HETATM   19  C26 UNL     1      -0.509  52.070 -25.526  1.00  0.00     0.009 C 
HETATM   20  C27 UNL     1      -0.805  53.085 -24.394  1.00  0.00     0.007 C 
HETATM   21  C28 UNL     1      -0.746  52.449 -23.008  1.00  0.00     0.011 C 
HETATM   22  C29 UNL     1      -1.832  51.377 -22.788  1.00  0.00    -0.029 C 
HETATM   23  C30 UNL     1      -3.218  52.088 -22.789  1.00  0.00     0.016 C 
HETATM   24  O5  UNL     1      -2.497  48.706 -20.038  1.00  0.00    -0.362 OA
ENDROOT
BRANCH   1  25
HETATM   25  C2  UNL     1      -4.945  49.026 -20.068  1.00  0.00     0.022 C 
HETATM   26  C1  UNL     1      -4.919  47.604 -20.640  1.00  0.00     0.013 C 
BRANCH  25  27
HETATM   27  C3  UNL     1      -5.994  49.927 -20.762  1.00  0.00     0.041 C 
BRANCH  27  28
HETATM   28  C4  UNL     1      -6.181  49.707 -22.278  1.00  0.00     0.150 C 
BRANCH  28  29
HETATM   29  O1  UNL     1      -6.751  50.923 -22.811  1.00  0.00    -0.393 OA
HETATM   30  H8  UNL     1      -6.079  51.622 -22.699  1.00  0.00     0.210 HD
ENDBRANCH  28  29
BRANCH  28  31
HETATM   31  C5  UNL     1      -7.161  48.557 -22.620  1.00  0.00     0.180 C 
BRANCH  31  32
HETATM   32  O2  UNL     1      -8.419  48.832 -21.978  1.00  0.00    -0.390 OA
HETATM   33  H10 UNL     1      -8.481  49.810 -21.981  1.00  0.00     0.210 HD
ENDBRANCH  31  32
BRANCH  31  34
HETATM   34  C6  UNL     1      -7.360  48.336 -24.150  1.00  0.00     0.079 C 
HETATM   35  C7  UNL     1      -8.174  47.081 -24.488  1.00  0.00     0.048 C 
HETATM   36  C8  UNL     1      -5.992  48.259 -24.845  1.00  0.00     0.048 C 
BRANCH  34  37
HETATM   37  O3  UNL     1      -8.056  49.474 -24.676  1.00  0.00    -0.388 OA
HETATM   38  H17 UNL     1      -8.044  49.407 -25.646  1.00  0.00     0.210 HD
ENDBRANCH  34  37
ENDBRANCH  31  34
ENDBRANCH  28  31
ENDBRANCH  27  28
ENDBRANCH  25  27
ENDBRANCH   1  25
TORSDOF 8
ENDMDL
MODEL 5
REMARK minimizedAffinity -9.39839077
REMARK  8 active torsions:
REMARK  status: ('A' for Active; 'I' for Inactive)
REMARK    1  A    between atoms: C2_2  and  C3_3 
REMARK    2  A    between atoms: C2_2  and  C9_12 
REMARK    3  A    between atoms: C3_3  and  C4_4 
REMARK    4  A    between atoms: C4_4  and  O1_5 
REMARK    5  A    between atoms: C4_4  and  C5_6 
REMARK    6  A    between atoms: C5_6  and  O2_7 
REMARK    7  A    between atoms: C5_6  and  C6_8 
REMARK    8  A    between atoms: C6_8  and  O3_11 
ROOT
HETATM    1  C9  UNL     1      -2.009  51.296 -23.541  1.00  0.00     0.097 A 
HETATM    2  C10 UNL     1      -3.003  52.346 -23.940  1.00  0.00     0.042 A 
HETATM    3  C11 UNL     1      -4.376  51.647 -24.045  1.00  0.00     0.016 A 
HETATM    4  C12 UNL     1      -4.228  50.159 -23.574  1.00  0.00    -0.002 A 
HETATM    5  C13 UNL     1      -4.660  49.268 -24.763  1.00  0.00     0.019 C 
HETATM    6  C14 UNL     1      -2.727  49.984 -23.341  1.00  0.00     0.101 A 
HETATM    7  C15 UNL     1      -2.230  48.788 -22.593  1.00  0.00     0.042 C 
HETATM    8  C16 UNL     1      -3.064  48.467 -21.355  1.00  0.00     0.009 C 
HETATM    9  C17 UNL     1      -4.578  48.425 -21.669  1.00  0.00     0.003 C 
HETATM   10  C18 UNL     1      -5.467  47.708 -20.544  1.00  0.00    -0.035 C 
HETATM   11  C19 UNL     1      -5.130  46.190 -20.668  1.00  0.00     0.016 C 
HETATM   12  C20 UNL     1      -5.085  48.157 -19.112  1.00  0.00     0.017 C 
HETATM   13  C21 UNL     1      -5.957  47.585 -18.009  1.00  0.00     0.080 C 
HETATM   14  C22 UNL     1      -7.412  47.870 -18.270  1.00  0.00     0.135 C 
HETATM   15  O4  UNL     1      -8.114  48.361 -17.385  1.00  0.00    -0.297 OA
HETATM   16  C23 UNL     1      -7.984  47.438 -19.623  1.00  0.00     0.017 C 
HETATM   17  C24 UNL     1      -9.410  48.030 -19.768  1.00  0.00     0.023 C 
HETATM   18  C25 UNL     1      -8.175  45.904 -19.599  1.00  0.00     0.023 C 
HETATM   19  C26 UNL     1      -7.021  47.913 -20.791  1.00  0.00     0.009 C 
HETATM   20  C27 UNL     1      -7.333  49.370 -21.216  1.00  0.00     0.007 C 
HETATM   21  C28 UNL     1      -6.540  49.801 -22.447  1.00  0.00     0.011 C 
HETATM   22  C29 UNL     1      -5.019  49.842 -22.203  1.00  0.00    -0.029 C 
HETATM   23  C30 UNL     1      -4.725  50.980 -21.180  1.00  0.00     0.016 C 
HETATM   24  O5  UNL     1      -1.907  50.246 -24.504  1.00  0.00    -0.362 OA
ENDROOT
BRANCH   1  25
HETATM   25  C2  UNL     1      -0.685  51.672 -22.901  1.00  0.00     0.022 C 
HETATM   26  C1  UNL     1      -0.895  52.058 -21.432  1.00  0.00     0.013 C 
BRANCH  25  27
HETATM   27  C3  UNL     1       0.020  52.786 -23.713  1.00  0.00     0.041 C 
BRANCH  27  28
HETATM   28  C4  UNL     1       0.234  52.499 -25.213  1.00  0.00     0.150 C 
BRANCH  28  29
HETATM   29  O1  UNL     1       1.645  52.668 -25.476  1.00  0.00    -0.393 OA
HETATM   30  H8  UNL     1       2.109  51.969 -24.978  1.00  0.00     0.210 HD
ENDBRANCH  28  29
BRANCH  28  31
HETATM   31  C5  UNL     1      -0.522  53.481 -26.144  1.00  0.00     0.180 C 
BRANCH  31  32
HETATM   32  O2  UNL     1       0.286  54.659 -26.307  1.00  0.00    -0.390 OA
HETATM   33  H10 UNL     1       1.207  54.327 -26.264  1.00  0.00     0.210 HD
ENDBRANCH  31  32
BRANCH  31  34
HETATM   34  C6  UNL     1      -0.893  52.871 -27.530  1.00  0.00     0.079 C 
HETATM   35  C7  UNL     1      -1.494  51.463 -27.440  1.00  0.00     0.048 C 
HETATM   36  C8  UNL     1       0.352  52.837 -28.431  1.00  0.00     0.048 C 
BRANCH  34  37
HETATM   37  O3  UNL     1      -1.859  53.731 -28.150  1.00  0.00    -0.388 OA
HETATM   38  H17 UNL     1      -1.973  53.435 -29.069  1.00  0.00     0.210 HD
ENDBRANCH  34  37
ENDBRANCH  31  34
ENDBRANCH  28  31
ENDBRANCH  27  28
ENDBRANCH  25  27
ENDBRANCH   1  25
TORSDOF 8
ENDMDL
MODEL 6
REMARK minimizedAffinity -9.38448143
REMARK  8 active torsions:
REMARK  status: ('A' for Active; 'I' for Inactive)
REMARK    1  A    between atoms: C2_2  and  C3_3 
REMARK    2  A    between atoms: C2_2  and  C9_12 
REMARK    3  A    between atoms: C3_3  and  C4_4 
REMARK    4  A    between atoms: C4_4  and  O1_5 
REMARK    5  A    between atoms: C4_4  and  C5_6 
REMARK    6  A    between atoms: C5_6  and  O2_7 
REMARK    7  A    between atoms: C5_6  and  C6_8 
REMARK    8  A    between atoms: C6_8  and  O3_11 
ROOT
HETATM    1  C9  UNL     1      -1.025  50.739 -21.331  1.00  0.00     0.097 A 
HETATM    2  C10 UNL     1      -0.373  49.449 -20.931  1.00  0.00     0.042 A 
HETATM    3  C11 UNL     1      -1.486  48.539 -20.367  1.00  0.00     0.016 A 
HETATM    4  C12 UNL     1      -2.869  49.255 -20.547  1.00  0.00    -0.002 A 
HETATM    5  C13 UNL     1      -3.482  49.407 -19.134  1.00  0.00     0.019 C 
HETATM    6  C14 UNL     1      -2.510  50.641 -21.086  1.00  0.00     0.101 A 
HETATM    7  C15 UNL     1      -3.581  51.506 -21.669  1.00  0.00     0.042 C 
HETATM    8  C16 UNL     1      -4.535  50.742 -22.586  1.00  0.00     0.009 C 
HETATM    9  C17 UNL     1      -5.066  49.449 -21.922  1.00  0.00     0.003 C 
HETATM   10  C18 UNL     1      -6.357  48.821 -22.637  1.00  0.00    -0.035 C 
HETATM   11  C19 UNL     1      -7.525  49.795 -22.290  1.00  0.00     0.016 C 
HETATM   12  C20 UNL     1      -6.221  48.785 -24.179  1.00  0.00     0.017 C 
HETATM   13  C21 UNL     1      -7.371  48.113 -24.906  1.00  0.00     0.080 C 
HETATM   14  C22 UNL     1      -7.607  46.724 -24.374  1.00  0.00     0.135 C 
HETATM   15  O4  UNL     1      -7.697  45.772 -25.150  1.00  0.00    -0.297 OA
HETATM   16  C23 UNL     1      -7.824  46.574 -22.866  1.00  0.00     0.017 C 
HETATM   17  C24 UNL     1      -7.812  45.064 -22.514  1.00  0.00     0.023 C 
HETATM   18  C25 UNL     1      -9.252  47.064 -22.533  1.00  0.00     0.023 C 
HETATM   19  C26 UNL     1      -6.705  47.378 -22.079  1.00  0.00     0.009 C 
HETATM   20  C27 UNL     1      -5.426  46.524 -21.897  1.00  0.00     0.007 C 
HETATM   21  C28 UNL     1      -4.393  47.202 -21.001  1.00  0.00     0.011 C 
HETATM   22  C29 UNL     1      -3.840  48.511 -21.599  1.00  0.00    -0.029 C 
HETATM   23  C30 UNL     1      -3.017  48.150 -22.872  1.00  0.00     0.016 C 
HETATM   24  O5  UNL     1      -1.635  51.409 -20.226  1.00  0.00    -0.362 OA
ENDROOT
BRANCH   1  25
HETATM   25  C2  UNL     1      -0.366  51.676 -22.327  1.00  0.00     0.022 C 
HETATM   26  C1  UNL     1       0.271  52.864 -21.597  1.00  0.00     0.013 C 
BRANCH  25  27
HETATM   27  C3  UNL     1      -1.374  52.118 -23.415  1.00  0.00     0.041 C 
BRANCH  27  28
HETATM   28  C4  UNL     1      -0.766  52.567 -24.760  1.00  0.00     0.150 C 
BRANCH  28  29
HETATM   29  O1  UNL     1      -1.868  52.950 -25.612  1.00  0.00    -0.393 OA
HETATM   30  H8  UNL     1      -2.280  53.735 -25.203  1.00  0.00     0.210 HD
ENDBRANCH  28  29
BRANCH  28  31
HETATM   31  C5  UNL     1       0.007  51.443 -25.496  1.00  0.00     0.180 C 
BRANCH  31  32
HETATM   32  O2  UNL     1      -0.952  50.525 -26.049  1.00  0.00    -0.390 OA
HETATM   33  H10 UNL     1      -1.722  51.089 -26.274  1.00  0.00     0.210 HD
ENDBRANCH  31  32
BRANCH  31  34
HETATM   34  C6  UNL     1       0.971  51.965 -26.603  1.00  0.00     0.079 C 
HETATM   35  C7  UNL     1       0.488  51.666 -28.028  1.00  0.00     0.048 C 
HETATM   36  C8  UNL     1       2.369  51.360 -26.401  1.00  0.00     0.048 C 
BRANCH  34  37
HETATM   37  O3  UNL     1       1.084  53.388 -26.460  1.00  0.00    -0.388 OA
HETATM   38  H17 UNL     1       1.798  53.689 -27.047  1.00  0.00     0.210 HD
ENDBRANCH  34  37
ENDBRANCH  31  34
ENDBRANCH  28  31
ENDBRANCH  27  28
ENDBRANCH  25  27
ENDBRANCH   1  25
TORSDOF 8
ENDMDL
MODEL 7
REMARK minimizedAffinity -9.30556679
REMARK  8 active torsions:
REMARK  status: ('A' for Active; 'I' for Inactive)
REMARK    1  A    between atoms: C2_2  and  C3_3 
REMARK    2  A    between atoms: C2_2  and  C9_12 
REMARK    3  A    between atoms: C3_3  and  C4_4 
REMARK    4  A    between atoms: C4_4  and  O1_5 
REMARK    5  A    between atoms: C4_4  and  C5_6 
REMARK    6  A    between atoms: C5_6  and  O2_7 
REMARK    7  A    between atoms: C5_6  and  C6_8 
REMARK    8  A    between atoms: C6_8  and  O3_11 
ROOT
HETATM    1  C9  UNL     1      -2.342  49.139 -17.760  1.00  0.00     0.097 A 
HETATM    2  C10 UNL     1      -2.397  47.666 -18.037  1.00  0.00     0.042 A 
HETATM    3  C11 UNL     1      -3.158  47.488 -19.369  1.00  0.00     0.016 A 
HETATM    4  C12 UNL     1      -3.461  48.902 -19.976  1.00  0.00    -0.002 A 
HETATM    5  C13 UNL     1      -4.998  49.008 -20.119  1.00  0.00     0.019 C 
HETATM    6  C14 UNL     1      -2.992  49.883 -18.900  1.00  0.00     0.101 A 
HETATM    7  C15 UNL     1      -2.836  51.331 -19.239  1.00  0.00     0.042 C 
HETATM    8  C16 UNL     1      -2.157  51.561 -20.588  1.00  0.00     0.009 C 
HETATM    9  C17 UNL     1      -2.804  50.720 -21.714  1.00  0.00     0.003 C 
HETATM   10  C18 UNL     1      -2.429  51.200 -23.197  1.00  0.00    -0.035 C 
HETATM   11  C19 UNL     1      -3.198  52.542 -23.394  1.00  0.00     0.016 C 
HETATM   12  C20 UNL     1      -0.918  51.500 -23.358  1.00  0.00     0.017 C 
HETATM   13  C21 UNL     1      -0.485  51.866 -24.765  1.00  0.00     0.080 C 
HETATM   14  C22 UNL     1      -0.912  50.811 -25.752  1.00  0.00     0.135 C 
HETATM   15  O4  UNL     1      -0.098  50.348 -26.551  1.00  0.00    -0.297 OA
HETATM   16  C23 UNL     1      -2.394  50.428 -25.776  1.00  0.00     0.017 C 
HETATM   17  C24 UNL     1      -2.566  49.181 -26.683  1.00  0.00     0.023 C 
HETATM   18  C25 UNL     1      -3.175  51.561 -26.482  1.00  0.00     0.023 C 
HETATM   19  C26 UNL     1      -2.907  50.164 -24.299  1.00  0.00     0.009 C 
HETATM   20  C27 UNL     1      -2.621  48.706 -23.859  1.00  0.00     0.007 C 
HETATM   21  C28 UNL     1      -3.249  48.370 -22.509  1.00  0.00     0.011 C 
HETATM   22  C29 UNL     1      -2.659  49.193 -21.346  1.00  0.00    -0.029 C 
HETATM   23  C30 UNL     1      -1.173  48.766 -21.157  1.00  0.00     0.016 C 
HETATM   24  O5  UNL     1      -3.640  49.718 -17.617  1.00  0.00    -0.362 OA
ENDROOT
BRANCH   1  25
HETATM   25  C2  UNL     1      -1.303  49.722 -16.818  1.00  0.00     0.022 C 
HETATM   26  C1  UNL     1      -1.956  50.730 -15.865  1.00  0.00     0.013 C 
BRANCH  25  27
HETATM   27  C3  UNL     1      -0.123  50.332 -17.612  1.00  0.00     0.041 C 
BRANCH  27  28
HETATM   28  C4  UNL     1       0.335  51.738 -17.172  1.00  0.00     0.150 C 
BRANCH  28  29
HETATM   29  O1  UNL     1       0.315  52.573 -18.351  1.00  0.00    -0.393 OA
HETATM   30  H8  UNL     1      -0.618  52.645 -18.629  1.00  0.00     0.210 HD
ENDBRANCH  28  29
BRANCH  28  31
HETATM   31  C5  UNL     1       1.782  51.772 -16.617  1.00  0.00     0.180 C 
BRANCH  31  32
HETATM   32  O2  UNL     1       2.439  52.937 -17.144  1.00  0.00    -0.390 OA
HETATM   33  H10 UNL     1       1.722  53.600 -17.230  1.00  0.00     0.210 HD
ENDBRANCH  31  32
BRANCH  31  34
HETATM   34  C6  UNL     1       1.856  51.755 -15.060  1.00  0.00     0.079 C 
HETATM   35  C7  UNL     1       3.236  52.136 -14.508  1.00  0.00     0.048 C 
HETATM   36  C8  UNL     1       1.466  50.364 -14.537  1.00  0.00     0.048 C 
BRANCH  34  37
HETATM   37  O3  UNL     1       0.899  52.697 -14.559  1.00  0.00    -0.388 OA
HETATM   38  H17 UNL     1       0.839  52.575 -13.596  1.00  0.00     0.210 HD
ENDBRANCH  34  37
ENDBRANCH  31  34
ENDBRANCH  28  31
ENDBRANCH  27  28
ENDBRANCH  25  27
ENDBRANCH   1  25
TORSDOF 8
ENDMDL
MODEL 8
REMARK minimizedAffinity -8.86203957
REMARK  8 active torsions:
REMARK  status: ('A' for Active; 'I' for Inactive)
REMARK    1  A    between atoms: C2_2  and  C3_3 
REMARK    2  A    between atoms: C2_2  and  C9_12 
REMARK    3  A    between atoms: C3_3  and  C4_4 
REMARK    4  A    between atoms: C4_4  and  O1_5 
REMARK    5  A    between atoms: C4_4  and  C5_6 
REMARK    6  A    between atoms: C5_6  and  O2_7 
REMARK    7  A    between atoms: C5_6  and  C6_8 
REMARK    8  A    between atoms: C6_8  and  O3_11 
ROOT
HETATM    1  C9  UNL     1      -1.071  51.476 -22.187  1.00  0.00     0.097 A 
HETATM    2  C10 UNL     1       0.074  50.598 -21.775  1.00  0.00     0.042 A 
HETATM    3  C11 UNL     1      -0.452  49.666 -20.663  1.00  0.00     0.016 A 
HETATM    4  C12 UNL     1      -1.992  49.904 -20.485  1.00  0.00    -0.002 A 
HETATM    5  C13 UNL     1      -2.211  50.342 -19.017  1.00  0.00     0.019 C 
HETATM    6  C14 UNL     1      -2.301  51.084 -21.408  1.00  0.00     0.101 A 
HETATM    7  C15 UNL     1      -3.722  51.407 -21.741  1.00  0.00     0.042 C 
HETATM    8  C16 UNL     1      -4.559  50.170 -22.060  1.00  0.00     0.009 C 
HETATM    9  C17 UNL     1      -4.403  49.071 -20.982  1.00  0.00     0.003 C 
HETATM   10  C18 UNL     1      -5.535  47.936 -21.026  1.00  0.00    -0.035 C 
HETATM   11  C19 UNL     1      -6.829  48.634 -20.506  1.00  0.00     0.016 C 
HETATM   12  C20 UNL     1      -5.820  47.439 -22.465  1.00  0.00     0.017 C 
HETATM   13  C21 UNL     1      -6.813  46.296 -22.562  1.00  0.00     0.080 C 
HETATM   14  C22 UNL     1      -6.395  45.142 -21.689  1.00  0.00     0.135 C 
HETATM   15  O4  UNL     1      -6.354  44.002 -22.150  1.00  0.00    -0.297 OA
HETATM   16  C23 UNL     1      -6.127  45.439 -20.211  1.00  0.00     0.017 C 
HETATM   17  C24 UNL     1      -5.493  44.180 -19.563  1.00  0.00     0.023 C 
HETATM   18  C25 UNL     1      -7.489  45.625 -19.502  1.00  0.00     0.023 C 
HETATM   19  C26 UNL     1      -5.192  46.712 -20.077  1.00  0.00     0.009 C 
HETATM   20  C27 UNL     1      -3.696  46.322 -20.186  1.00  0.00     0.007 C 
HETATM   21  C28 UNL     1      -2.764  47.496 -19.895  1.00  0.00     0.011 C 
HETATM   22  C29 UNL     1      -2.888  48.636 -20.925  1.00  0.00    -0.029 C 
HETATM   23  C30 UNL     1      -2.369  48.107 -22.296  1.00  0.00     0.016 C 
HETATM   24  O5  UNL     1      -1.552  52.286 -21.113  1.00  0.00    -0.362 OA
ENDROOT
BRANCH   1  25
HETATM   25  C2  UNL     1      -1.078  52.177 -23.534  1.00  0.00     0.022 C 
HETATM   26  C1  UNL     1      -2.331  51.790 -24.327  1.00  0.00     0.013 C 
BRANCH  25  27
HETATM   27  C3  UNL     1       0.231  51.888 -24.309  1.00  0.00     0.041 C 
BRANCH  27  28
HETATM   28  C4  UNL     1       0.795  53.054 -25.146  1.00  0.00     0.150 C 
BRANCH  28  29
HETATM   29  O1  UNL     1       0.867  54.202 -24.272  1.00  0.00    -0.393 OA
HETATM   30  H8  UNL     1       1.528  53.991 -23.585  1.00  0.00     0.210 HD
ENDBRANCH  28  29
BRANCH  28  31
HETATM   31  C5  UNL     1      -0.109  53.451 -26.342  1.00  0.00     0.180 C 
BRANCH  31  32
HETATM   32  O2  UNL     1       0.165  54.822 -26.677  1.00  0.00    -0.390 OA
HETATM   33  H10 UNL     1       1.116  54.935 -26.469  1.00  0.00     0.210 HD
ENDBRANCH  31  32
BRANCH  31  34
HETATM   34  C6  UNL     1       0.064  52.534 -27.590  1.00  0.00     0.079 C 
HETATM   35  C7  UNL     1      -0.946  51.380 -27.648  1.00  0.00     0.048 C 
HETATM   36  C8  UNL     1       1.490  51.963 -27.621  1.00  0.00     0.048 C 
BRANCH  34  37
HETATM   37  O3  UNL     1      -0.112  53.340 -28.762  1.00  0.00    -0.388 OA
HETATM   38  H17 UNL     1       0.145  52.805 -29.532  1.00  0.00     0.210 HD
ENDBRANCH  34  37
ENDBRANCH  31  34
ENDBRANCH  28  31
ENDBRANCH  27  28
ENDBRANCH  25  27
ENDBRANCH   1  25
TORSDOF 8
ENDMDL
MODEL 9
REMARK minimizedAffinity -8.85724831
REMARK  8 active torsions:
REMARK  status: ('A' for Active; 'I' for Inactive)
REMARK    1  A    between atoms: C2_2  and  C3_3 
REMARK    2  A    between atoms: C2_2  and  C9_12 
REMARK    3  A    between atoms: C3_3  and  C4_4 
REMARK    4  A    between atoms: C4_4  and  O1_5 
REMARK    5  A    between atoms: C4_4  and  C5_6 
REMARK    6  A    between atoms: C5_6  and  O2_7 
REMARK    7  A    between atoms: C5_6  and  C6_8 
REMARK    8  A    between atoms: C6_8  and  O3_11 
ROOT
HETATM    1  C9  UNL     1      -2.404  50.442 -22.150  1.00  0.00     0.097 A 
HETATM    2  C10 UNL     1      -3.760  51.040 -21.918  1.00  0.00     0.042 A 
HETATM    3  C11 UNL     1      -4.244  50.533 -20.541  1.00  0.00     0.016 A 
HETATM    4  C12 UNL     1      -3.094  49.706 -19.869  1.00  0.00    -0.002 A 
HETATM    5  C13 UNL     1      -3.654  48.285 -19.615  1.00  0.00     0.019 C 
HETATM    6  C14 UNL     1      -2.008  49.627 -20.943  1.00  0.00     0.101 A 
HETATM    7  C15 UNL     1      -0.631  49.178 -20.570  1.00  0.00     0.042 C 
HETATM    8  C16 UNL     1      -0.132  49.797 -19.266  1.00  0.00     0.009 C 
HETATM    9  C17 UNL     1      -1.168  49.659 -18.125  1.00  0.00     0.003 C 
HETATM   10  C18 UNL     1      -0.572  49.908 -16.657  1.00  0.00    -0.035 C 
HETATM   11  C19 UNL     1       0.314  48.659 -16.363  1.00  0.00     0.016 C 
HETATM   12  C20 UNL     1       0.344  51.155 -16.594  1.00  0.00     0.017 C 
HETATM   13  C21 UNL     1       0.862  51.499 -15.209  1.00  0.00     0.080 C 
HETATM   14  C22 UNL     1      -0.273  51.640 -14.229  1.00  0.00     0.135 C 
HETATM   15  O4  UNL     1      -0.344  52.632 -13.505  1.00  0.00    -0.297 OA
HETATM   16  C23 UNL     1      -1.253  50.468 -14.113  1.00  0.00     0.017 C 
HETATM   17  C24 UNL     1      -2.453  50.915 -13.237  1.00  0.00     0.023 C 
HETATM   18  C25 UNL     1      -0.560  49.337 -13.318  1.00  0.00     0.023 C 
HETATM   19  C26 UNL     1      -1.711  50.004 -15.558  1.00  0.00     0.009 C 
HETATM   20  C27 UNL     1      -2.908  50.848 -16.064  1.00  0.00     0.007 C 
HETATM   21  C28 UNL     1      -3.482  50.320 -17.376  1.00  0.00     0.011 C 
HETATM   22  C29 UNL     1      -2.488  50.411 -18.551  1.00  0.00    -0.029 C 
HETATM   23  C30 UNL     1      -2.239  51.918 -18.858  1.00  0.00     0.016 C 
HETATM   24  O5  UNL     1      -2.435  49.014 -22.182  1.00  0.00    -0.362 OA
ENDROOT
BRANCH   1  25
HETATM   25  C2  UNL     1      -1.435  51.057 -23.144  1.00  0.00     0.022 C 
HETATM   26  C1  UNL     1      -0.676  52.220 -22.496  1.00  0.00     0.013 C 
BRANCH  25  27
HETATM   27  C3  UNL     1      -2.170  51.474 -24.440  1.00  0.00     0.041 C 
BRANCH  27  28
HETATM   28  C4  UNL     1      -1.551  50.976 -25.762  1.00  0.00     0.150 C 
BRANCH  28  29
HETATM   29  O1  UNL     1      -0.121  50.926 -25.563  1.00  0.00    -0.393 OA
HETATM   30  H8  UNL     1       0.045  50.240 -24.888  1.00  0.00     0.210 HD
ENDBRANCH  28  29
BRANCH  28  31
HETATM   31  C5  UNL     1      -1.809  51.923 -26.962  1.00  0.00     0.180 C 
BRANCH  31  32
HETATM   32  O2  UNL     1      -2.822  52.869 -26.578  1.00  0.00    -0.390 OA
HETATM   33  H10 UNL     1      -2.676  53.002 -25.618  1.00  0.00     0.210 HD
ENDBRANCH  31  32
BRANCH  31  34
HETATM   34  C6  UNL     1      -0.531  52.660 -27.466  1.00  0.00     0.079 C 
HETATM   35  C7  UNL     1       0.555  51.713 -27.991  1.00  0.00     0.048 C 
HETATM   36  C8  UNL     1       0.049  53.524 -26.336  1.00  0.00     0.048 C 
BRANCH  34  37
HETATM   37  O3  UNL     1      -0.915  53.535 -28.535  1.00  0.00    -0.388 OA
HETATM   38  H17 UNL     1      -0.152  54.101 -28.743  1.00  0.00     0.210 HD
ENDBRANCH  34  37
ENDBRANCH  31  34
ENDBRANCH  28  31
ENDBRANCH  27  28
ENDBRANCH  25  27
ENDBRANCH   1  25
TORSDOF 8
ENDMDL
