MODEL 1
REMARK minimizedAffinity -7.54821396
REMARK CNNscore 0.629901946
REMARK CNNaffinity 5.76221991
REMARK  9 active torsions:
REMARK  status: ('A' for Active; 'I' for Inactive)
REMARK    1  A    between atoms: C2_2  and  C30_35 
REMARK    2  A    between atoms: C3_3  and  C4_4 
REMARK    3  A    between atoms: C4_4  and  O1_5 
REMARK    4  A    between atoms: C4_4  and  C5_6 
REMARK    5  A    between atoms: C5_6  and  C6_7 
REMARK    6  A    between atoms: C6_7  and  C8_9 
REMARK    7  A    between atoms: C10_11  and  O2_12 
REMARK    8  A    between atoms: C29_33  and  O5_34 
REMARK    9  A    between atoms: C30_35  and  O7_37 
ROOT
HETATM    1  C8  UNL     1     -17.284   1.539  14.734  1.00  0.00     0.001 C 
HETATM    2  C9  UNL     1     -17.201   1.922  13.231  1.00  0.00     0.038 C 
HETATM    3  C10 UNL     1     -16.486   0.761  12.514  1.00  0.00     0.132 C 
HETATM    4  C11 UNL     1     -16.576  -0.433  13.506  1.00  0.00     0.017 C 
HETATM    5  C12 UNL     1     -17.992  -1.083  13.371  1.00  0.00     0.023 C 
HETATM    6  C13 UNL     1     -15.587  -1.602  13.396  1.00  0.00    -0.029 C 
HETATM    7  C14 UNL     1     -15.345  -2.400  14.472  1.00  0.00     0.002 C 
HETATM    8  C15 UNL     1     -15.911  -1.987  15.826  1.00  0.00     0.157 C 
HETATM    9  O3  UNL     1     -15.780  -2.712  16.811  1.00  0.00    -0.293 OA
HETATM   10  C16 UNL     1     -16.625  -0.651  16.000  1.00  0.00     0.094 C 
HETATM   11  C17 UNL     1     -16.317   0.321  14.863  1.00  0.00    -0.019 C 
HETATM   12  C18 UNL     1     -14.845   0.802  15.024  1.00  0.00     0.017 C 
HETATM   13  C19 UNL     1     -14.444  -3.649  14.401  1.00  0.00    -0.008 C 
HETATM   14  C20 UNL     1     -13.049  -3.230  14.937  1.00  0.00     0.021 C 
HETATM   15  C21 UNL     1     -14.908  -4.868  15.240  1.00  0.00     0.022 C 
HETATM   16  C22 UNL     1     -16.323  -5.317  14.913  1.00  0.00     0.080 C 
HETATM   17  C23 UNL     1     -16.649  -5.139  13.449  1.00  0.00     0.135 C 
HETATM   18  O4  UNL     1     -17.825  -5.070  13.090  1.00  0.00    -0.297 OA
HETATM   19  C24 UNL     1     -15.483  -5.145  12.446  1.00  0.00     0.018 C 
HETATM   20  C25 UNL     1     -14.951  -6.602  12.386  1.00  0.00     0.023 C 
HETATM   21  C26 UNL     1     -16.054  -4.869  11.041  1.00  0.00     0.023 C 
HETATM   22  C27 UNL     1     -14.316  -4.173  12.912  1.00  0.00     0.016 C 
HETATM   23  C28 UNL     1     -13.958  -3.004  11.973  1.00  0.00     0.043 C 
HETATM   24  C29 UNL     1     -14.874  -1.783  12.076  1.00  0.00     0.149 C 
ENDROOT
BRANCH   1  25
HETATM   25  C6  UNL     1     -17.242   2.772  15.688  1.00  0.00    -0.011 C 
HETATM   26  C7  UNL     1     -18.244   2.775  16.848  1.00  0.00     0.010 C 
BRANCH  25  27
HETATM   27  C5  UNL     1     -17.278   4.103  14.893  1.00  0.00     0.040 C 
BRANCH  27  28
HETATM   28  C4  UNL     1     -16.026   4.976  15.076  1.00  0.00     0.142 C 
BRANCH  28  29
HETATM   29  C3  UNL     1     -15.856   5.950  13.941  1.00  0.00     0.018 C 
HETATM   30  C2  UNL     1     -14.734   6.557  13.495  1.00  0.00     0.010 C 
HETATM   31  C1  UNL     1     -13.370   6.446  14.108  1.00  0.00     0.055 C 
BRANCH  30  32
HETATM   32  C30 UNL     1     -14.894   7.440  12.312  1.00  0.00     0.171 C 
HETATM   33  O6  UNL     1     -15.658   7.271  11.377  1.00  0.00    -0.646 OA
BRANCH  32  34
HETATM   34  O7  UNL     1     -14.068   8.498  12.346  1.00  0.00    -0.773 OA
HETATM   35  H44 UNL     1     -14.280   8.981  11.520  1.00  0.00     0.167 HD
ENDBRANCH  32  34
ENDBRANCH  30  32
ENDBRANCH  28  29
BRANCH  28  36
HETATM   36  O1  UNL     1     -16.085   5.679  16.309  1.00  0.00    -0.392 OA
HETATM   37  H6  UNL     1     -15.291   6.239  16.354  1.00  0.00     0.210 HD
ENDBRANCH  28  36
ENDBRANCH  27  28
ENDBRANCH  25  27
ENDBRANCH   1  25
BRANCH   3  38
HETATM   38  O2  UNL     1     -17.111   0.531  11.262  1.00  0.00    -0.394 OA
HETATM   39  H17 UNL     1     -16.802  -0.349  10.957  1.00  0.00     0.210 HD
ENDBRANCH   3  38
BRANCH  24  40
HETATM   40  O5  UNL     1     -15.825  -1.778  11.022  1.00  0.00    -0.391 OA
HETATM   41  H43 UNL     1     -15.359  -2.005  10.197  1.00  0.00     0.210 HD
ENDBRANCH  24  40
TORSDOF 9
ENDMDL
MODEL 2
REMARK minimizedAffinity -7.84971619
REMARK CNNscore 0.560707271
REMARK CNNaffinity 6.24250984
REMARK  9 active torsions:
REMARK  status: ('A' for Active; 'I' for Inactive)
REMARK    1  A    between atoms: C2_2  and  C30_35 
REMARK    2  A    between atoms: C3_3  and  C4_4 
REMARK    3  A    between atoms: C4_4  and  O1_5 
REMARK    4  A    between atoms: C4_4  and  C5_6 
REMARK    5  A    between atoms: C5_6  and  C6_7 
REMARK    6  A    between atoms: C6_7  and  C8_9 
REMARK    7  A    between atoms: C10_11  and  O2_12 
REMARK    8  A    between atoms: C29_33  and  O5_34 
REMARK    9  A    between atoms: C30_35  and  O7_37 
ROOT
HETATM    1  C8  UNL     1       1.680  11.901  16.921  1.00  0.00     0.001 C 
HETATM    2  C9  UNL     1       2.865  10.992  17.349  1.00  0.00     0.038 C 
HETATM    3  C10 UNL     1       2.654   9.630  16.662  1.00  0.00     0.132 C 
HETATM    4  C11 UNL     1       1.632   9.914  15.525  1.00  0.00     0.017 C 
HETATM    5  C12 UNL     1       2.402  10.525  14.309  1.00  0.00     0.023 C 
HETATM    6  C13 UNL     1       0.799   8.768  14.935  1.00  0.00    -0.029 C 
HETATM    7  C14 UNL     1      -0.375   9.030  14.298  1.00  0.00     0.002 C 
HETATM    8  C15 UNL     1      -0.939  10.445  14.364  1.00  0.00     0.157 C 
HETATM    9  O3  UNL     1      -1.958  10.747  13.745  1.00  0.00    -0.293 OA
HETATM   10  C16 UNL     1      -0.272  11.512  15.226  1.00  0.00     0.094 C 
HETATM   11  C17 UNL     1       0.666  10.909  16.269  1.00  0.00    -0.019 C 
HETATM   12  C18 UNL     1      -0.204  10.216  17.359  1.00  0.00     0.017 C 
HETATM   13  C19 UNL     1      -1.208   7.939  13.596  1.00  0.00    -0.008 C 
HETATM   14  C20 UNL     1      -2.331   7.523  14.583  1.00  0.00     0.021 C 
HETATM   15  C21 UNL     1      -1.898   8.360  12.271  1.00  0.00     0.022 C 
HETATM   16  C22 UNL     1      -0.928   8.916  11.242  1.00  0.00     0.080 C 
HETATM   17  C23 UNL     1       0.416   8.230  11.301  1.00  0.00     0.135 C 
HETATM   18  O4  UNL     1       1.410   8.794  10.842  1.00  0.00    -0.297 OA
HETATM   19  C24 UNL     1       0.469   6.797  11.857  1.00  0.00     0.018 C 
HETATM   20  C25 UNL     1      -0.208   5.882  10.801  1.00  0.00     0.023 C 
HETATM   21  C26 UNL     1       1.943   6.346  11.890  1.00  0.00     0.023 C 
HETATM   22  C27 UNL     1      -0.311   6.683  13.236  1.00  0.00     0.016 C 
HETATM   23  C28 UNL     1       0.503   6.250  14.470  1.00  0.00     0.043 C 
HETATM   24  C29 UNL     1       1.312   7.362  15.140  1.00  0.00     0.149 C 
ENDROOT
BRANCH   1  25
HETATM   25  C6  UNL     1       1.279  12.946  18.007  1.00  0.00    -0.011 C 
HETATM   26  C7  UNL     1       1.116  14.396  17.535  1.00  0.00     0.010 C 
BRANCH  25  27
HETATM   27  C5  UNL     1       2.197  12.846  19.252  1.00  0.00     0.040 C 
BRANCH  27  28
HETATM   28  C4  UNL     1       1.458  12.474  20.547  1.00  0.00     0.142 C 
BRANCH  28  29
HETATM   29  C3  UNL     1       1.789  11.075  20.995  1.00  0.00     0.018 C 
HETATM   30  C2  UNL     1       2.604  10.666  21.991  1.00  0.00     0.010 C 
HETATM   31  C1  UNL     1       3.451  11.551  22.856  1.00  0.00     0.055 C 
BRANCH  30  32
HETATM   32  C30 UNL     1       2.685   9.199  22.210  1.00  0.00     0.171 C 
HETATM   33  O6  UNL     1       1.788   8.390  22.048  1.00  0.00    -0.646 OA
BRANCH  32  34
HETATM   34  O7  UNL     1       3.894   8.811  22.644  1.00  0.00    -0.773 OA
HETATM   35  H44 UNL     1       3.802   7.840  22.743  1.00  0.00     0.167 HD
ENDBRANCH  32  34
ENDBRANCH  30  32
ENDBRANCH  28  29
BRANCH  28  36
HETATM   36  O1  UNL     1       1.768  13.396  21.581  1.00  0.00    -0.392 OA
HETATM   37  H6  UNL     1       1.304  13.093  22.380  1.00  0.00     0.210 HD
ENDBRANCH  28  36
ENDBRANCH  27  28
ENDBRANCH  25  27
ENDBRANCH   1  25
BRANCH   3  38
HETATM   38  O2  UNL     1       3.905   9.135  16.215  1.00  0.00    -0.394 OA
HETATM   39  H17 UNL     1       3.706   8.412  15.582  1.00  0.00     0.210 HD
ENDBRANCH   3  38
BRANCH  24  40
HETATM   40  O5  UNL     1       2.676   7.296  14.748  1.00  0.00    -0.391 OA
HETATM   41  H43 UNL     1       2.953   6.362  14.785  1.00  0.00     0.210 HD
ENDBRANCH  24  40
TORSDOF 9
ENDMDL
MODEL 3
REMARK minimizedAffinity -8.56092358
REMARK CNNscore 0.551314831
REMARK CNNaffinity 6.46428299
REMARK  9 active torsions:
REMARK  status: ('A' for Active; 'I' for Inactive)
REMARK    1  A    between atoms: C2_2  and  C30_35 
REMARK    2  A    between atoms: C3_3  and  C4_4 
REMARK    3  A    between atoms: C4_4  and  O1_5 
REMARK    4  A    between atoms: C4_4  and  C5_6 
REMARK    5  A    between atoms: C5_6  and  C6_7 
REMARK    6  A    between atoms: C6_7  and  C8_9 
REMARK    7  A    between atoms: C10_11  and  O2_12 
REMARK    8  A    between atoms: C29_33  and  O5_34 
REMARK    9  A    between atoms: C30_35  and  O7_37 
ROOT
HETATM    1  C8  UNL     1       0.246  10.882  17.754  1.00  0.00     0.001 C 
HETATM    2  C9  UNL     1      -1.098  11.638  17.563  1.00  0.00     0.038 C 
HETATM    3  C10 UNL     1      -1.752  11.070  16.290  1.00  0.00     0.132 C 
HETATM    4  C11 UNL     1      -1.018   9.724  16.034  1.00  0.00     0.017 C 
HETATM    5  C12 UNL     1      -1.643   8.635  16.968  1.00  0.00     0.023 C 
HETATM    6  C13 UNL     1      -1.023   9.098  14.633  1.00  0.00    -0.029 C 
HETATM    7  C14 UNL     1      -0.057   8.209  14.274  1.00  0.00     0.002 C 
HETATM    8  C15 UNL     1       1.130   8.008  15.210  1.00  0.00     0.157 C 
HETATM    9  O3  UNL     1       1.991   7.164  14.964  1.00  0.00    -0.293 OA
HETATM   10  C16 UNL     1       1.298   8.872  16.455  1.00  0.00     0.094 C 
HETATM   11  C17 UNL     1       0.455  10.144  16.395  1.00  0.00    -0.019 C 
HETATM   12  C18 UNL     1       1.093  11.098  15.343  1.00  0.00     0.017 C 
HETATM   13  C19 UNL     1      -0.060   7.469  12.922  1.00  0.00    -0.008 C 
HETATM   14  C20 UNL     1       0.903   8.242  11.982  1.00  0.00     0.021 C 
HETATM   15  C21 UNL     1       0.419   5.994  12.954  1.00  0.00     0.022 C 
HETATM   16  C22 UNL     1      -0.356   5.134  13.938  1.00  0.00     0.080 C 
HETATM   17  C23 UNL     1      -1.808   5.541  14.024  1.00  0.00     0.135 C 
HETATM   18  O4  UNL     1      -2.468   5.240  15.020  1.00  0.00    -0.297 OA
HETATM   19  C24 UNL     1      -2.432   6.244  12.807  1.00  0.00     0.018 C 
HETATM   20  C25 UNL     1      -2.561   5.173  11.690  1.00  0.00     0.023 C 
HETATM   21  C26 UNL     1      -3.882   6.628  13.163  1.00  0.00     0.023 C 
HETATM   22  C27 UNL     1      -1.516   7.437  12.296  1.00  0.00     0.016 C 
HETATM   23  C28 UNL     1      -2.127   8.851  12.316  1.00  0.00     0.043 C 
HETATM   24  C29 UNL     1      -2.101   9.552  13.676  1.00  0.00     0.149 C 
ENDROOT
BRANCH   1  25
HETATM   25  C6  UNL     1       1.349  11.746  18.439  1.00  0.00    -0.011 C 
HETATM   26  C7  UNL     1       1.569  13.152  17.870  1.00  0.00     0.010 C 
BRANCH  25  27
HETATM   27  C5  UNL     1       2.680  10.962  18.568  1.00  0.00     0.040 C 
BRANCH  27  28
HETATM   28  C4  UNL     1       3.325  11.046  19.960  1.00  0.00     0.142 C 
BRANCH  28  29
HETATM   29  C3  UNL     1       2.814   9.966  20.877  1.00  0.00     0.018 C 
HETATM   30  C2  UNL     1       3.053   9.777  22.192  1.00  0.00     0.010 C 
HETATM   31  C1  UNL     1       3.979  10.591  23.046  1.00  0.00     0.055 C 
BRANCH  30  32
HETATM   32  C30 UNL     1       2.355   8.629  22.826  1.00  0.00     0.171 C 
HETATM   33  O6  UNL     1       1.824   7.694  22.250  1.00  0.00    -0.646 OA
BRANCH  32  34
HETATM   34  O7  UNL     1       2.338   8.714  24.165  1.00  0.00    -0.773 OA
HETATM   35  H44 UNL     1       1.855   7.907  24.440  1.00  0.00     0.167 HD
ENDBRANCH  32  34
ENDBRANCH  30  32
ENDBRANCH  28  29
BRANCH  28  36
HETATM   36  O1  UNL     1       4.739  10.964  19.862  1.00  0.00    -0.392 OA
HETATM   37  H6  UNL     1       5.089  10.986  20.769  1.00  0.00     0.210 HD
ENDBRANCH  28  36
ENDBRANCH  27  28
ENDBRANCH  25  27
ENDBRANCH   1  25
BRANCH   3  38
HETATM   38  O2  UNL     1      -3.149  10.946  16.501  1.00  0.00    -0.394 OA
HETATM   39  H17 UNL     1      -3.486  10.364  15.786  1.00  0.00     0.210 HD
ENDBRANCH   3  38
BRANCH  24  40
HETATM   40  O5  UNL     1      -3.367   9.459  14.313  1.00  0.00    -0.391 OA
HETATM   41  H43 UNL     1      -4.052   9.650  13.647  1.00  0.00     0.210 HD
ENDBRANCH  24  40
TORSDOF 9
ENDMDL
MODEL 4
REMARK minimizedAffinity -7.70712042
REMARK CNNscore 0.549435377
REMARK CNNaffinity 6.59104109
REMARK  9 active torsions:
REMARK  status: ('A' for Active; 'I' for Inactive)
REMARK    1  A    between atoms: C2_2  and  C30_35 
REMARK    2  A    between atoms: C3_3  and  C4_4 
REMARK    3  A    between atoms: C4_4  and  O1_5 
REMARK    4  A    between atoms: C4_4  and  C5_6 
REMARK    5  A    between atoms: C5_6  and  C6_7 
REMARK    6  A    between atoms: C6_7  and  C8_9 
REMARK    7  A    between atoms: C10_11  and  O2_12 
REMARK    8  A    between atoms: C29_33  and  O5_34 
REMARK    9  A    between atoms: C30_35  and  O7_37 
ROOT
HETATM    1  C8  UNL     1     -10.296   7.646  14.442  1.00  0.00     0.001 C 
HETATM    2  C9  UNL     1     -11.581   6.786  14.294  1.00  0.00     0.038 C 
HETATM    3  C10 UNL     1     -12.778   7.733  14.502  1.00  0.00     0.132 C 
HETATM    4  C11 UNL     1     -12.190   9.161  14.316  1.00  0.00     0.017 C 
HETATM    5  C12 UNL     1     -12.086   9.457  12.784  1.00  0.00     0.023 C 
HETATM    6  C13 UNL     1     -12.916  10.375  14.910  1.00  0.00    -0.029 C 
HETATM    7  C14 UNL     1     -12.236  11.527  15.160  1.00  0.00     0.002 C 
HETATM    8  C15 UNL     1     -10.717  11.518  15.032  1.00  0.00     0.157 C 
HETATM    9  O3  UNL     1     -10.066  12.551  15.178  1.00  0.00    -0.293 OA
HETATM   10  C16 UNL     1      -9.965  10.220  14.755  1.00  0.00     0.094 C 
HETATM   11  C17 UNL     1     -10.812   8.985  15.055  1.00  0.00    -0.019 C 
HETATM   12  C18 UNL     1     -10.958   8.863  16.601  1.00  0.00     0.017 C 
HETATM   13  C19 UNL     1     -12.924  12.814  15.659  1.00  0.00    -0.008 C 
HETATM   14  C20 UNL     1     -12.723  12.865  17.197  1.00  0.00     0.021 C 
HETATM   15  C21 UNL     1     -12.373  14.145  15.082  1.00  0.00     0.022 C 
HETATM   16  C22 UNL     1     -12.387  14.189  13.563  1.00  0.00     0.080 C 
HETATM   17  C23 UNL     1     -13.575  13.458  12.985  1.00  0.00     0.135 C 
HETATM   18  O4  UNL     1     -13.538  13.058  11.821  1.00  0.00    -0.297 OA
HETATM   19  C24 UNL     1     -14.833  13.324  13.860  1.00  0.00     0.018 C 
HETATM   20  C25 UNL     1     -15.463  14.739  13.959  1.00  0.00     0.023 C 
HETATM   21  C26 UNL     1     -15.868  12.478  13.091  1.00  0.00     0.023 C 
HETATM   22  C27 UNL     1     -14.470  12.801  15.316  1.00  0.00     0.016 C 
HETATM   23  C28 UNL     1     -15.095  11.463  15.757  1.00  0.00     0.043 C 
HETATM   24  C29 UNL     1     -14.381  10.211  15.244  1.00  0.00     0.149 C 
ENDROOT
BRANCH   1  25
HETATM   25  C6  UNL     1      -9.083   6.851  15.017  1.00  0.00    -0.011 C 
HETATM   26  C7  UNL     1      -8.292   7.528  16.142  1.00  0.00     0.010 C 
BRANCH  25  27
HETATM   27  C5  UNL     1      -8.154   6.343  13.885  1.00  0.00     0.040 C 
BRANCH  27  28
HETATM   28  C4  UNL     1      -7.145   5.274  14.335  1.00  0.00     0.142 C 
BRANCH  28  29
HETATM   29  C3  UNL     1      -7.301   3.997  13.551  1.00  0.00     0.018 C 
HETATM   30  C2  UNL     1      -6.397   3.349  12.786  1.00  0.00     0.010 C 
HETATM   31  C1  UNL     1      -5.006   3.818  12.475  1.00  0.00     0.055 C 
BRANCH  30  32
HETATM   32  C30 UNL     1      -6.853   2.075  12.173  1.00  0.00     0.171 C 
HETATM   33  O6  UNL     1      -6.229   1.382  11.388  1.00  0.00    -0.646 OA
BRANCH  32  34
HETATM   34  O7  UNL     1      -8.092   1.733  12.560  1.00  0.00    -0.773 OA
HETATM   35  H44 UNL     1      -8.256   0.892  12.087  1.00  0.00     0.167 HD
ENDBRANCH  32  34
ENDBRANCH  30  32
ENDBRANCH  28  29
BRANCH  28  36
HETATM   36  O1  UNL     1      -5.817   5.757  14.210  1.00  0.00    -0.392 OA
HETATM   37  H6  UNL     1      -5.225   5.032  14.472  1.00  0.00     0.210 HD
ENDBRANCH  28  36
ENDBRANCH  27  28
ENDBRANCH  25  27
ENDBRANCH   1  25
BRANCH   3  38
HETATM   38  O2  UNL     1     -13.802   7.396  13.581  1.00  0.00    -0.394 OA
HETATM   39  H17 UNL     1     -14.425   8.155  13.571  1.00  0.00     0.210 HD
ENDBRANCH   3  38
BRANCH  24  40
HETATM   40  O5  UNL     1     -15.063   9.668  14.122  1.00  0.00    -0.391 OA
HETATM   41  H43 UNL     1     -16.017   9.674  14.321  1.00  0.00     0.210 HD
ENDBRANCH  24  40
TORSDOF 9
ENDMDL
MODEL 5
REMARK minimizedAffinity -7.75671291
REMARK CNNscore 0.544772744
REMARK CNNaffinity 6.18463326
REMARK  9 active torsions:
REMARK  status: ('A' for Active; 'I' for Inactive)
REMARK    1  A    between atoms: C2_2  and  C30_35 
REMARK    2  A    between atoms: C3_3  and  C4_4 
REMARK    3  A    between atoms: C4_4  and  O1_5 
REMARK    4  A    between atoms: C4_4  and  C5_6 
REMARK    5  A    between atoms: C5_6  and  C6_7 
REMARK    6  A    between atoms: C6_7  and  C8_9 
REMARK    7  A    between atoms: C10_11  and  O2_12 
REMARK    8  A    between atoms: C29_33  and  O5_34 
REMARK    9  A    between atoms: C30_35  and  O7_37 
ROOT
HETATM    1  C8  UNL     1      -9.559   7.185  13.888  1.00  0.00     0.001 C 
HETATM    2  C9  UNL     1     -10.872   6.360  13.796  1.00  0.00     0.038 C 
HETATM    3  C10 UNL     1     -11.952   7.154  14.554  1.00  0.00     0.132 C 
HETATM    4  C11 UNL     1     -11.376   8.593  14.673  1.00  0.00     0.017 C 
HETATM    5  C12 UNL     1     -11.627   9.339  13.321  1.00  0.00     0.023 C 
HETATM    6  C13 UNL     1     -11.899   9.545  15.757  1.00  0.00    -0.029 C 
HETATM    7  C14 UNL     1     -11.140  10.595  16.173  1.00  0.00     0.002 C 
HETATM    8  C15 UNL     1      -9.695  10.683  15.695  1.00  0.00     0.157 C 
HETATM    9  O3  UNL     1      -8.993  11.650  15.986  1.00  0.00    -0.293 OA
HETATM   10  C16 UNL     1      -9.075   9.558  14.872  1.00  0.00     0.094 C 
HETATM   11  C17 UNL     1      -9.869   8.258  14.979  1.00  0.00    -0.019 C 
HETATM   12  C18 UNL     1      -9.651   7.674  16.405  1.00  0.00     0.017 C 
HETATM   13  C19 UNL     1     -11.645  11.645  17.183  1.00  0.00    -0.008 C 
HETATM   14  C20 UNL     1     -11.085  11.241  18.572  1.00  0.00     0.021 C 
HETATM   15  C21 UNL     1     -11.201  13.108  16.919  1.00  0.00     0.022 C 
HETATM   16  C22 UNL     1     -11.572  13.605  15.532  1.00  0.00     0.080 C 
HETATM   17  C23 UNL     1     -12.887  13.035  15.058  1.00  0.00     0.135 C 
HETATM   18  O4  UNL     1     -13.140  13.004  13.853  1.00  0.00    -0.297 OA
HETATM   19  C24 UNL     1     -13.906  12.596  16.122  1.00  0.00     0.018 C 
HETATM   20  C25 UNL     1     -14.446  13.891  16.787  1.00  0.00     0.023 C 
HETATM   21  C26 UNL     1     -15.122  11.980  15.402  1.00  0.00     0.023 C 
HETATM   22  C27 UNL     1     -13.229  11.675  17.226  1.00  0.00     0.016 C 
HETATM   23  C28 UNL     1     -13.777  10.243  17.380  1.00  0.00     0.043 C 
HETATM   24  C29 UNL     1     -13.248   9.231  16.361  1.00  0.00     0.149 C 
ENDROOT
BRANCH   1  25
HETATM   25  C6  UNL     1      -8.274   6.303  13.896  1.00  0.00    -0.011 C 
HETATM   26  C7  UNL     1      -6.941   7.035  14.093  1.00  0.00     0.010 C 
BRANCH  25  27
HETATM   27  C5  UNL     1      -8.233   5.355  12.670  1.00  0.00     0.040 C 
BRANCH  27  28
HETATM   28  C4  UNL     1      -7.659   3.962  12.974  1.00  0.00     0.142 C 
BRANCH  28  29
HETATM   29  C3  UNL     1      -6.225   3.841  12.529  1.00  0.00     0.018 C 
HETATM   30  C2  UNL     1      -5.621   2.841  11.852  1.00  0.00     0.010 C 
HETATM   31  C1  UNL     1      -6.255   1.544  11.445  1.00  0.00     0.055 C 
BRANCH  30  32
HETATM   32  C30 UNL     1      -4.188   3.046  11.523  1.00  0.00     0.171 C 
HETATM   33  O6  UNL     1      -3.257   3.064  12.311  1.00  0.00    -0.646 OA
BRANCH  32  34
HETATM   34  O7  UNL     1      -3.985   3.241  10.211  1.00  0.00    -0.773 OA
HETATM   35  H44 UNL     1      -3.014   3.360  10.144  1.00  0.00     0.167 HD
ENDBRANCH  32  34
ENDBRANCH  30  32
ENDBRANCH  28  29
BRANCH  28  36
HETATM   36  O1  UNL     1      -7.760   3.672  14.359  1.00  0.00    -0.392 OA
HETATM   37  H6  UNL     1      -7.352   2.800  14.498  1.00  0.00     0.210 HD
ENDBRANCH  28  36
ENDBRANCH  27  28
ENDBRANCH  25  27
ENDBRANCH   1  25
BRANCH   3  38
HETATM   38  O2  UNL     1     -13.177   7.069  13.843  1.00  0.00    -0.394 OA
HETATM   39  H17 UNL     1     -13.757   7.771  14.208  1.00  0.00     0.210 HD
ENDBRANCH   3  38
BRANCH  24  40
HETATM   40  O5  UNL     1     -14.194   9.024  15.322  1.00  0.00    -0.391 OA
HETATM   41  H43 UNL     1     -15.074   8.932  15.732  1.00  0.00     0.210 HD
ENDBRANCH  24  40
TORSDOF 9
ENDMDL
MODEL 6
REMARK minimizedAffinity -8.3218956
REMARK CNNscore 0.527342737
REMARK CNNaffinity 6.70978737
REMARK  9 active torsions:
REMARK  status: ('A' for Active; 'I' for Inactive)
REMARK    1  A    between atoms: C2_2  and  C30_35 
REMARK    2  A    between atoms: C3_3  and  C4_4 
REMARK    3  A    between atoms: C4_4  and  O1_5 
REMARK    4  A    between atoms: C4_4  and  C5_6 
REMARK    5  A    between atoms: C5_6  and  C6_7 
REMARK    6  A    between atoms: C6_7  and  C8_9 
REMARK    7  A    between atoms: C10_11  and  O2_12 
REMARK    8  A    between atoms: C29_33  and  O5_34 
REMARK    9  A    between atoms: C30_35  and  O7_37 
ROOT
HETATM    1  C8  UNL     1      -1.879   7.666  13.233  1.00  0.00     0.001 C 
HETATM    2  C9  UNL     1      -3.101   7.076  13.988  1.00  0.00     0.038 C 
HETATM    3  C10 UNL     1      -3.180   7.799  15.345  1.00  0.00     0.132 C 
HETATM    4  C11 UNL     1      -2.306   9.073  15.166  1.00  0.00     0.017 C 
HETATM    5  C12 UNL     1      -3.156  10.155  14.422  1.00  0.00     0.023 C 
HETATM    6  C13 UNL     1      -1.732   9.792  16.395  1.00  0.00    -0.029 C 
HETATM    7  C14 UNL     1      -0.639  10.594  16.272  1.00  0.00     0.002 C 
HETATM    8  C15 UNL     1       0.115  10.599  14.947  1.00  0.00     0.157 C 
HETATM    9  O3  UNL     1       1.065  11.359  14.766  1.00  0.00    -0.293 OA
HETATM   10  C16 UNL     1      -0.267   9.636  13.828  1.00  0.00     0.094 C 
HETATM   11  C17 UNL     1      -1.116   8.471  14.331  1.00  0.00    -0.019 C 
HETATM   12  C18 UNL     1      -0.198   7.530  15.166  1.00  0.00     0.017 C 
HETATM   13  C19 UNL     1      -0.074  11.423  17.443  1.00  0.00    -0.008 C 
HETATM   14  C20 UNL     1       1.113  10.618  18.034  1.00  0.00     0.021 C 
HETATM   15  C21 UNL     1       0.465  12.831  17.078  1.00  0.00     0.022 C 
HETATM   16  C22 UNL     1      -0.560  13.699  16.368  1.00  0.00     0.080 C 
HETATM   17  C23 UNL     1      -1.962  13.448  16.870  1.00  0.00     0.135 C 
HETATM   18  O4  UNL     1      -2.926  13.748  16.165  1.00  0.00    -0.297 OA
HETATM   19  C24 UNL     1      -2.127  12.904  18.299  1.00  0.00     0.018 C 
HETATM   20  C25 UNL     1      -1.743  14.058  19.264  1.00  0.00     0.023 C 
HETATM   21  C26 UNL     1      -3.628  12.656  18.550  1.00  0.00     0.023 C 
HETATM   22  C27 UNL     1      -1.177  11.657  18.557  1.00  0.00     0.016 C 
HETATM   23  C28 UNL     1      -1.853  10.320  18.915  1.00  0.00     0.043 C 
HETATM   24  C29 UNL     1      -2.397   9.526  17.726  1.00  0.00     0.149 C 
ENDROOT
BRANCH   1  25
HETATM   25  C6  UNL     1      -1.185   6.642  12.284  1.00  0.00    -0.011 C 
HETATM   26  C7  UNL     1      -0.741   5.317  12.913  1.00  0.00     0.010 C 
BRANCH  25  27
HETATM   27  C5  UNL     1      -0.042   7.307  11.475  1.00  0.00     0.040 C 
BRANCH  27  28
HETATM   28  C4  UNL     1       1.063   6.333  11.035  1.00  0.00     0.142 C 
BRANCH  28  29
HETATM   29  C3  UNL     1       1.683   6.749   9.727  1.00  0.00     0.018 C 
HETATM   30  C2  UNL     1       1.262   7.673   8.837  1.00  0.00     0.010 C 
HETATM   31  C1  UNL     1      -0.007   8.467   8.924  1.00  0.00     0.055 C 
BRANCH  30  32
HETATM   32  C30 UNL     1       2.130   7.881   7.650  1.00  0.00     0.171 C 
HETATM   33  O6  UNL     1       2.916   8.797   7.476  1.00  0.00    -0.646 OA
BRANCH  32  34
HETATM   34  O7  UNL     1       1.959   6.932   6.716  1.00  0.00    -0.773 OA
HETATM   35  H44 UNL     1       2.583   7.193   6.007  1.00  0.00     0.167 HD
ENDBRANCH  32  34
ENDBRANCH  30  32
ENDBRANCH  28  29
BRANCH  28  36
HETATM   36  O1  UNL     1       2.066   6.234  12.034  1.00  0.00    -0.392 OA
HETATM   37  H6  UNL     1       2.753   5.637  11.689  1.00  0.00     0.210 HD
ENDBRANCH  28  36
ENDBRANCH  27  28
ENDBRANCH  25  27
ENDBRANCH   1  25
BRANCH   3  38
HETATM   38  O2  UNL     1      -4.539   8.059  15.656  1.00  0.00    -0.394 OA
HETATM   39  H17 UNL     1      -4.534   8.723  16.379  1.00  0.00     0.210 HD
ENDBRANCH   3  38
BRANCH  24  40
HETATM   40  O5  UNL     1      -3.799   9.711  17.597  1.00  0.00    -0.391 OA
HETATM   41  H43 UNL     1      -4.192   9.643  18.487  1.00  0.00     0.210 HD
ENDBRANCH  24  40
TORSDOF 9
ENDMDL
MODEL 7
REMARK minimizedAffinity -7.31981325
REMARK CNNscore 0.481952906
REMARK CNNaffinity 5.79966879
REMARK  9 active torsions:
REMARK  status: ('A' for Active; 'I' for Inactive)
REMARK    1  A    between atoms: C2_2  and  C30_35 
REMARK    2  A    between atoms: C3_3  and  C4_4 
REMARK    3  A    between atoms: C4_4  and  O1_5 
REMARK    4  A    between atoms: C4_4  and  C5_6 
REMARK    5  A    between atoms: C5_6  and  C6_7 
REMARK    6  A    between atoms: C6_7  and  C8_9 
REMARK    7  A    between atoms: C10_11  and  O2_12 
REMARK    8  A    between atoms: C29_33  and  O5_34 
REMARK    9  A    between atoms: C30_35  and  O7_37 
ROOT
HETATM    1  C8  UNL     1       2.156  11.601  20.186  1.00  0.00     0.001 C 
HETATM    2  C9  UNL     1       2.972  12.779  19.588  1.00  0.00     0.038 C 
HETATM    3  C10 UNL     1       2.142  13.353  18.425  1.00  0.00     0.132 C 
HETATM    4  C11 UNL     1       0.704  12.808  18.658  1.00  0.00     0.017 C 
HETATM    5  C12 UNL     1       0.006  13.701  19.736  1.00  0.00     0.023 C 
HETATM    6  C13 UNL     1      -0.291  12.737  17.492  1.00  0.00    -0.029 C 
HETATM    7  C14 UNL     1      -1.348  11.882  17.543  1.00  0.00     0.002 C 
HETATM    8  C15 UNL     1      -1.406  10.863  18.675  1.00  0.00     0.157 C 
HETATM    9  O3  UNL     1      -2.377  10.118  18.804  1.00  0.00    -0.293 OA
HETATM   10  C16 UNL     1      -0.247  10.718  19.656  1.00  0.00     0.094 C 
HETATM   11  C17 UNL     1       1.041  11.343  19.124  1.00  0.00    -0.019 C 
HETATM   12  C18 UNL     1       1.576  10.443  17.972  1.00  0.00     0.017 C 
HETATM   13  C19 UNL     1      -2.439  11.834  16.454  1.00  0.00    -0.008 C 
HETATM   14  C20 UNL     1      -2.081  10.656  15.509  1.00  0.00     0.021 C 
HETATM   15  C21 UNL     1      -3.887  11.593  16.955  1.00  0.00     0.022 C 
HETATM   16  C22 UNL     1      -4.337  12.605  17.996  1.00  0.00     0.080 C 
HETATM   17  C23 UNL     1      -3.761  13.977  17.737  1.00  0.00     0.135 C 
HETATM   18  O4  UNL     1      -3.689  14.792  18.658  1.00  0.00    -0.297 OA
HETATM   19  C24 UNL     1      -3.370  14.333  16.293  1.00  0.00     0.018 C 
HETATM   20  C25 UNL     1      -4.694  14.488  15.496  1.00  0.00     0.023 C 
HETATM   21  C26 UNL     1      -2.739  15.740  16.297  1.00  0.00     0.023 C 
HETATM   22  C27 UNL     1      -2.485  13.190  15.636  1.00  0.00     0.016 C 
HETATM   23  C28 UNL     1      -1.064  13.576  15.180  1.00  0.00     0.043 C 
HETATM   24  C29 UNL     1      -0.011  13.608  16.289  1.00  0.00     0.149 C 
ENDROOT
BRANCH   1  25
HETATM   25  C6  UNL     1       3.049  10.470  20.783  1.00  0.00    -0.011 C 
HETATM   26  C7  UNL     1       2.448   9.660  21.937  1.00  0.00     0.010 C 
BRANCH  25  27
HETATM   27  C5  UNL     1       4.468  10.992  21.123  1.00  0.00     0.040 C 
BRANCH  27  28
HETATM   28  C4  UNL     1       4.689  11.276  22.618  1.00  0.00     0.142 C 
BRANCH  28  29
HETATM   29  C3  UNL     1       6.150  11.442  22.942  1.00  0.00     0.018 C 
HETATM   30  C2  UNL     1       6.918  12.551  22.888  1.00  0.00     0.010 C 
HETATM   31  C1  UNL     1       6.483  13.901  22.400  1.00  0.00     0.055 C 
BRANCH  30  32
HETATM   32  C30 UNL     1       8.330  12.392  23.319  1.00  0.00     0.171 C 
HETATM   33  O6  UNL     1       9.099  13.283  23.635  1.00  0.00    -0.646 OA
BRANCH  32  34
HETATM   34  O7  UNL     1       8.725  11.109  23.318  1.00  0.00    -0.773 OA
HETATM   35  H44 UNL     1       9.657  11.155  23.617  1.00  0.00     0.167 HD
ENDBRANCH  32  34
ENDBRANCH  30  32
ENDBRANCH  28  29
BRANCH  28  36
HETATM   36  O1  UNL     1       3.973  12.434  23.017  1.00  0.00    -0.392 OA
HETATM   37  H6  UNL     1       4.177  12.585  23.956  1.00  0.00     0.210 HD
ENDBRANCH  28  36
ENDBRANCH  27  28
ENDBRANCH  25  27
ENDBRANCH   1  25
BRANCH   3  38
HETATM   38  O2  UNL     1       2.242  14.767  18.435  1.00  0.00    -0.394 OA
HETATM   39  H17 UNL     1       1.522  15.099  17.857  1.00  0.00     0.210 HD
ENDBRANCH   3  38
BRANCH  24  40
HETATM   40  O5  UNL     1       0.226  14.942  16.718  1.00  0.00    -0.391 OA
HETATM   41  H43 UNL     1       0.295  15.503  15.924  1.00  0.00     0.210 HD
ENDBRANCH  24  40
TORSDOF 9
ENDMDL
MODEL 8
REMARK minimizedAffinity -9.32687569
REMARK CNNscore 0.462771058
REMARK CNNaffinity 6.74942923
REMARK  9 active torsions:
REMARK  status: ('A' for Active; 'I' for Inactive)
REMARK    1  A    between atoms: C2_2  and  C30_35 
REMARK    2  A    between atoms: C3_3  and  C4_4 
REMARK    3  A    between atoms: C4_4  and  O1_5 
REMARK    4  A    between atoms: C4_4  and  C5_6 
REMARK    5  A    between atoms: C5_6  and  C6_7 
REMARK    6  A    between atoms: C6_7  and  C8_9 
REMARK    7  A    between atoms: C10_11  and  O2_12 
REMARK    8  A    between atoms: C29_33  and  O5_34 
REMARK    9  A    between atoms: C30_35  and  O7_37 
ROOT
HETATM    1  C8  UNL     1      -5.535   7.599  14.357  1.00  0.00     0.001 C 
HETATM    2  C9  UNL     1      -5.131   8.806  15.248  1.00  0.00     0.038 C 
HETATM    3  C10 UNL     1      -3.592   8.854  15.264  1.00  0.00     0.132 C 
HETATM    4  C11 UNL     1      -3.155   7.981  14.053  1.00  0.00     0.017 C 
HETATM    5  C12 UNL     1      -3.273   8.843  12.754  1.00  0.00     0.023 C 
HETATM    6  C13 UNL     1      -1.745   7.378  14.007  1.00  0.00    -0.029 C 
HETATM    7  C14 UNL     1      -1.490   6.286  13.236  1.00  0.00     0.002 C 
HETATM    8  C15 UNL     1      -2.665   5.561  12.590  1.00  0.00     0.157 C 
HETATM    9  O3  UNL     1      -2.478   4.614  11.828  1.00  0.00    -0.293 OA
HETATM   10  C16 UNL     1      -4.101   5.969  12.901  1.00  0.00     0.094 C 
HETATM   11  C17 UNL     1      -4.201   6.810  14.172  1.00  0.00    -0.019 C 
HETATM   12  C18 UNL     1      -3.938   5.877  15.390  1.00  0.00     0.017 C 
HETATM   13  C19 UNL     1      -0.076   5.694  13.065  1.00  0.00    -0.008 C 
HETATM   14  C20 UNL     1       0.032   4.496  14.045  1.00  0.00     0.021 C 
HETATM   15  C21 UNL     1       0.269   5.159  11.650  1.00  0.00     0.022 C 
HETATM   16  C22 UNL     1       0.082   6.197  10.556  1.00  0.00     0.080 C 
HETATM   17  C23 UNL     1       0.430   7.589  11.029  1.00  0.00     0.135 C 
HETATM   18  O4  UNL     1      -0.025   8.567  10.435  1.00  0.00    -0.297 OA
HETATM   19  C24 UNL     1       1.426   7.724  12.193  1.00  0.00     0.018 C 
HETATM   20  C25 UNL     1       2.819   7.316  11.640  1.00  0.00     0.023 C 
HETATM   21  C26 UNL     1       1.558   9.220  12.543  1.00  0.00     0.023 C 
HETATM   22  C27 UNL     1       1.035   6.772  13.402  1.00  0.00     0.016 C 
HETATM   23  C28 UNL     1       0.722   7.444  14.753  1.00  0.00     0.043 C 
HETATM   24  C29 UNL     1      -0.691   8.015  14.884  1.00  0.00     0.149 C 
ENDROOT
BRANCH   1  25
HETATM   25  C6  UNL     1      -6.873   6.928  14.795  1.00  0.00    -0.011 C 
HETATM   26  C7  UNL     1      -6.790   5.925  15.951  1.00  0.00     0.010 C 
BRANCH  25  27
HETATM   27  C5  UNL     1      -7.636   6.344  13.579  1.00  0.00     0.040 C 
BRANCH  27  28
HETATM   28  C4  UNL     1      -7.717   4.809  13.569  1.00  0.00     0.142 C 
BRANCH  28  29
HETATM   29  C3  UNL     1      -6.704   4.204  12.633  1.00  0.00     0.018 C 
HETATM   30  C2  UNL     1      -6.602   2.933  12.188  1.00  0.00     0.010 C 
HETATM   31  C1  UNL     1      -7.468   1.781  12.605  1.00  0.00     0.055 C 
BRANCH  30  32
HETATM   32  C30 UNL     1      -5.503   2.662  11.227  1.00  0.00     0.171 C 
HETATM   33  O6  UNL     1      -5.105   3.408  10.349  1.00  0.00    -0.646 OA
BRANCH  32  34
HETATM   34  O7  UNL     1      -4.958   1.448  11.399  1.00  0.00    -0.773 OA
HETATM   35  H44 UNL     1      -4.262   1.408  10.711  1.00  0.00     0.167 HD
ENDBRANCH  32  34
ENDBRANCH  30  32
ENDBRANCH  28  29
BRANCH  28  36
HETATM   36  O1  UNL     1      -7.533   4.291  14.877  1.00  0.00    -0.392 OA
HETATM   37  H6  UNL     1      -7.558   3.321  14.805  1.00  0.00     0.210 HD
ENDBRANCH  28  36
ENDBRANCH  27  28
ENDBRANCH  25  27
ENDBRANCH   1  25
BRANCH   3  38
HETATM   38  O2  UNL     1      -3.167  10.205  15.196  1.00  0.00    -0.394 OA
HETATM   39  H17 UNL     1      -2.215  10.183  14.960  1.00  0.00     0.210 HD
ENDBRANCH   3  38
BRANCH  24  40
HETATM   40  O5  UNL     1      -0.687   9.419  14.671  1.00  0.00    -0.391 OA
HETATM   41  H43 UNL     1       0.068   9.794  15.161  1.00  0.00     0.210 HD
ENDBRANCH  24  40
TORSDOF 9
ENDMDL
MODEL 9
REMARK minimizedAffinity -8.37814331
REMARK CNNscore 0.372565418
REMARK CNNaffinity 5.8381958
REMARK  9 active torsions:
REMARK  status: ('A' for Active; 'I' for Inactive)
REMARK    1  A    between atoms: C2_2  and  C30_35 
REMARK    2  A    between atoms: C3_3  and  C4_4 
REMARK    3  A    between atoms: C4_4  and  O1_5 
REMARK    4  A    between atoms: C4_4  and  C5_6 
REMARK    5  A    between atoms: C5_6  and  C6_7 
REMARK    6  A    between atoms: C6_7  and  C8_9 
REMARK    7  A    between atoms: C10_11  and  O2_12 
REMARK    8  A    between atoms: C29_33  and  O5_34 
REMARK    9  A    between atoms: C30_35  and  O7_37 
ROOT
HETATM    1  C8  UNL     1      -1.367   8.135  13.725  1.00  0.00     0.001 C 
HETATM    2  C9  UNL     1      -1.585   7.140  14.898  1.00  0.00     0.038 C 
HETATM    3  C10 UNL     1      -1.721   7.984  16.179  1.00  0.00     0.132 C 
HETATM    4  C11 UNL     1      -2.027   9.423  15.675  1.00  0.00     0.017 C 
HETATM    5  C12 UNL     1      -3.549   9.512  15.329  1.00  0.00     0.023 C 
HETATM    6  C13 UNL     1      -1.751  10.631  16.581  1.00  0.00    -0.029 C 
HETATM    7  C14 UNL     1      -1.576  11.867  16.041  1.00  0.00     0.002 C 
HETATM    8  C15 UNL     1      -1.455  11.990  14.527  1.00  0.00     0.157 C 
HETATM    9  O3  UNL     1      -1.368  13.093  13.989  1.00  0.00    -0.293 OA
HETATM   10  C16 UNL     1      -1.405  10.747  13.644  1.00  0.00     0.094 C 
HETATM   11  C17 UNL     1      -1.058   9.489  14.437  1.00  0.00    -0.019 C 
HETATM   12  C18 UNL     1       0.444   9.569  14.839  1.00  0.00     0.017 C 
HETATM   13  C19 UNL     1      -1.397  13.137  16.898  1.00  0.00    -0.008 C 
HETATM   14  C20 UNL     1       0.126  13.421  16.971  1.00  0.00     0.021 C 
HETATM   15  C21 UNL     1      -2.077  14.422  16.356  1.00  0.00     0.022 C 
HETATM   16  C22 UNL     1      -3.567  14.253  16.110  1.00  0.00     0.080 C 
HETATM   17  C23 UNL     1      -4.208  13.335  17.123  1.00  0.00     0.135 C 
HETATM   18  O4  UNL     1      -5.276  12.782  16.855  1.00  0.00    -0.297 OA
HETATM   19  C24 UNL     1      -3.536  13.200  18.499  1.00  0.00     0.018 C 
HETATM   20  C25 UNL     1      -3.758  14.547  19.240  1.00  0.00     0.023 C 
HETATM   21  C26 UNL     1      -4.322  12.158  19.320  1.00  0.00     0.023 C 
HETATM   22  C27 UNL     1      -1.978  12.923  18.357  1.00  0.00     0.016 C 
HETATM   23  C28 UNL     1      -1.442  11.605  18.947  1.00  0.00     0.043 C 
HETATM   24  C29 UNL     1      -1.635  10.370  18.065  1.00  0.00     0.149 C 
ENDROOT
BRANCH   1  25
HETATM   25  C6  UNL     1      -0.490   7.551  12.575  1.00  0.00    -0.011 C 
HETATM   26  C7  UNL     1      -0.489   8.328  11.253  1.00  0.00     0.010 C 
BRANCH  25  27
HETATM   27  C5  UNL     1      -0.775   6.043  12.357  1.00  0.00     0.040 C 
BRANCH  27  28
HETATM   28  C4  UNL     1       0.417   5.127  12.675  1.00  0.00     0.142 C 
BRANCH  28  29
HETATM   29  C3  UNL     1       1.276   4.890  11.461  1.00  0.00     0.018 C 
HETATM   30  C2  UNL     1       2.359   5.574  11.033  1.00  0.00     0.010 C 
HETATM   31  C1  UNL     1       2.921   6.817  11.658  1.00  0.00     0.055 C 
BRANCH  30  32
HETATM   32  C30 UNL     1       3.018   5.055   9.807  1.00  0.00     0.171 C 
HETATM   33  O6  UNL     1       3.393   5.711   8.851  1.00  0.00    -0.646 OA
BRANCH  32  34
HETATM   34  O7  UNL     1       3.162   3.721   9.827  1.00  0.00    -0.773 OA
HETATM   35  H44 UNL     1       3.601   3.524   8.974  1.00  0.00     0.167 HD
ENDBRANCH  32  34
ENDBRANCH  30  32
ENDBRANCH  28  29
BRANCH  28  36
HETATM   36  O1  UNL     1       1.203   5.677  13.721  1.00  0.00    -0.392 OA
HETATM   37  H6  UNL     1       1.958   5.078  13.854  1.00  0.00     0.210 HD
ENDBRANCH  28  36
ENDBRANCH  27  28
ENDBRANCH  25  27
ENDBRANCH   1  25
BRANCH   3  38
HETATM   38  O2  UNL     1      -2.731   7.423  17.001  1.00  0.00    -0.394 OA
HETATM   39  H17 UNL     1      -2.957   8.108  17.666  1.00  0.00     0.210 HD
ENDBRANCH   3  38
BRANCH  24  40
HETATM   40  O5  UNL     1      -2.755   9.612  18.500  1.00  0.00    -0.391 OA
HETATM   41  H43 UNL     1      -2.715   9.551  19.472  1.00  0.00     0.210 HD
ENDBRANCH  24  40
TORSDOF 9
ENDMDL
