MODEL 1
REMARK minimizedAffinity -9.00972843
REMARK  4 active torsions:
REMARK  status: ('A' for Active; 'I' for Inactive)
REMARK    1  A    between atoms: C4_4  and  C5_5 
REMARK    2  A    between atoms: C5_5  and  C6_6 
REMARK    3  A    between atoms: C6_6  and  C7_7 
REMARK    4  A    between atoms: C7_7  and  C9_9 
ROOT
HETATM    1  C9  UNL     1      -1.859  51.434 -23.460  1.00  0.00    -0.002 C 
HETATM    2  C10 UNL     1      -2.821  52.536 -24.012  1.00  0.00     0.007 C 
HETATM    3  C11 UNL     1      -4.258  51.985 -23.926  1.00  0.00     0.015 C 
HETATM    4  C12 UNL     1      -4.073  50.474 -23.694  1.00  0.00    -0.013 C 
HETATM    5  C13 UNL     1      -3.802  49.863 -25.106  1.00  0.00     0.021 C 
HETATM    6  C14 UNL     1      -5.189  49.654 -23.048  1.00  0.00    -0.070 C 
HETATM    7  C15 UNL     1      -6.372  50.168 -22.668  1.00  0.00    -0.022 C 
HETATM    8  C16 UNL     1      -7.400  49.421 -21.869  1.00  0.00     0.034 C 
HETATM    9  C17 UNL     1      -6.832  48.147 -21.206  1.00  0.00     0.013 C 
HETATM   10  C18 UNL     1      -7.856  47.317 -20.337  1.00  0.00     0.018 C 
HETATM   11  C19 UNL     1      -9.283  47.904 -20.345  1.00  0.00     0.023 C 
HETATM   12  C20 UNL     1      -7.383  47.302 -18.865  1.00  0.00     0.023 C 
HETATM   13  C21 UNL     1      -7.944  45.842 -20.763  1.00  0.00     0.135 C 
HETATM   14  O1  UNL     1      -9.009  45.218 -20.738  1.00  0.00    -0.297 OA
HETATM   15  C22 UNL     1      -6.678  45.106 -21.138  1.00  0.00     0.080 C 
HETATM   16  C23 UNL     1      -5.544  46.022 -21.569  1.00  0.00     0.017 C 
HETATM   17  C24 UNL     1      -6.024  47.318 -22.255  1.00  0.00    -0.031 C 
HETATM   18  C25 UNL     1      -6.897  46.948 -23.493  1.00  0.00     0.016 C 
HETATM   19  C26 UNL     1      -4.812  48.186 -22.787  1.00  0.00     0.024 C 
HETATM   20  C27 UNL     1      -3.515  48.124 -21.945  1.00  0.00     0.010 C 
HETATM   21  C28 UNL     1      -2.376  49.025 -22.482  1.00  0.00     0.011 C 
HETATM   22  C29 UNL     1      -2.839  50.482 -22.706  1.00  0.00    -0.029 C 
HETATM   23  C30 UNL     1      -3.178  51.096 -21.310  1.00  0.00     0.016 C 
ENDROOT
BRANCH   1  24
HETATM   24  C7  UNL     1      -0.635  52.062 -22.721  1.00  0.00    -0.014 C 
HETATM   25  C8  UNL     1      -0.248  51.276 -21.465  1.00  0.00     0.010 C 
BRANCH  24  26
HETATM   26  C6  UNL     1       0.577  52.149 -23.694  1.00  0.00     0.008 C 
BRANCH  26  27
HETATM   27  C5  UNL     1       0.553  53.288 -24.723  1.00  0.00     0.028 C 
BRANCH  27  28
HETATM   28  C4  UNL     1       0.281  52.823 -26.126  1.00  0.00    -0.025 C 
HETATM   29  C2  UNL     1       1.084  52.083 -26.914  1.00  0.00    -0.091 C 
HETATM   30  C1  UNL     1       0.676  51.739 -28.323  1.00  0.00     0.042 C 
HETATM   31  C3  UNL     1       2.418  51.525 -26.501  1.00  0.00     0.042 C 
ENDBRANCH  27  28
ENDBRANCH  26  27
ENDBRANCH  24  26
ENDBRANCH   1  24
TORSDOF 4
ENDMDL
MODEL 2
REMARK minimizedAffinity -8.67644024
REMARK  4 active torsions:
REMARK  status: ('A' for Active; 'I' for Inactive)
REMARK    1  A    between atoms: C4_4  and  C5_5 
REMARK    2  A    between atoms: C5_5  and  C6_6 
REMARK    3  A    between atoms: C6_6  and  C7_7 
REMARK    4  A    between atoms: C7_7  and  C9_9 
ROOT
HETATM    1  C9  UNL     1      -3.437  50.327 -24.854  1.00  0.00    -0.002 C 
HETATM    2  C10 UNL     1      -3.927  51.799 -24.658  1.00  0.00     0.007 C 
HETATM    3  C11 UNL     1      -4.135  52.024 -23.148  1.00  0.00     0.015 C 
HETATM    4  C12 UNL     1      -4.134  50.605 -22.548  1.00  0.00    -0.013 C 
HETATM    5  C13 UNL     1      -5.576  50.051 -22.779  1.00  0.00     0.021 C 
HETATM    6  C14 UNL     1      -3.795  50.395 -21.073  1.00  0.00    -0.070 C 
HETATM    7  C15 UNL     1      -3.504  51.395 -20.222  1.00  0.00    -0.022 C 
HETATM    8  C16 UNL     1      -2.991  51.193 -18.826  1.00  0.00     0.034 C 
HETATM    9  C17 UNL     1      -2.476  49.757 -18.580  1.00  0.00     0.013 C 
HETATM   10  C18 UNL     1      -1.908  49.476 -17.134  1.00  0.00     0.018 C 
HETATM   11  C19 UNL     1      -2.017  50.689 -16.186  1.00  0.00     0.023 C 
HETATM   12  C20 UNL     1      -0.407  49.116 -17.235  1.00  0.00     0.023 C 
HETATM   13  C21 UNL     1      -2.581  48.274 -16.451  1.00  0.00     0.135 C 
HETATM   14  O1  UNL     1      -2.809  48.257 -15.237  1.00  0.00    -0.297 OA
HETATM   15  C22 UNL     1      -2.893  47.041 -17.267  1.00  0.00     0.080 C 
HETATM   16  C23 UNL     1      -3.004  47.309 -18.759  1.00  0.00     0.017 C 
HETATM   17  C24 UNL     1      -3.525  48.721 -19.096  1.00  0.00    -0.031 C 
HETATM   18  C25 UNL     1      -4.916  48.927 -18.424  1.00  0.00     0.016 C 
HETATM   19  C26 UNL     1      -3.732  48.917 -20.653  1.00  0.00     0.024 C 
HETATM   20  C27 UNL     1      -2.739  48.159 -21.568  1.00  0.00     0.010 C 
HETATM   21  C28 UNL     1      -2.955  48.420 -23.078  1.00  0.00     0.011 C 
HETATM   22  C29 UNL     1      -2.996  49.927 -23.412  1.00  0.00    -0.029 C 
HETATM   23  C30 UNL     1      -1.578  50.518 -23.127  1.00  0.00     0.016 C 
ENDROOT
BRANCH   1  24
HETATM   24  C7  UNL     1      -2.442  50.211 -26.051  1.00  0.00    -0.014 C 
HETATM   25  C8  UNL     1      -2.587  48.885 -26.802  1.00  0.00     0.010 C 
BRANCH  24  26
HETATM   26  C6  UNL     1      -2.651  51.406 -27.026  1.00  0.00     0.008 C 
BRANCH  26  27
HETATM   27  C5  UNL     1      -1.496  52.410 -27.143  1.00  0.00     0.028 C 
BRANCH  27  28
HETATM   28  C4  UNL     1      -0.137  51.768 -27.097  1.00  0.00    -0.025 C 
HETATM   29  C2  UNL     1       0.823  51.949 -26.170  1.00  0.00    -0.091 C 
HETATM   30  C1  UNL     1       2.156  51.258 -26.298  1.00  0.00     0.042 C 
HETATM   31  C3  UNL     1       0.686  52.810 -24.945  1.00  0.00     0.042 C 
ENDBRANCH  27  28
ENDBRANCH  26  27
ENDBRANCH  24  26
ENDBRANCH   1  24
TORSDOF 4
ENDMDL
MODEL 3
REMARK minimizedAffinity -8.6747179
REMARK  4 active torsions:
REMARK  status: ('A' for Active; 'I' for Inactive)
REMARK    1  A    between atoms: C4_4  and  C5_5 
REMARK    2  A    between atoms: C5_5  and  C6_6 
REMARK    3  A    between atoms: C6_6  and  C7_7 
REMARK    4  A    between atoms: C7_7  and  C9_9 
ROOT
HETATM    1  C9  UNL     1      -4.125  47.969 -20.701  1.00  0.00    -0.002 C 
HETATM    2  C10 UNL     1      -5.094  47.341 -21.756  1.00  0.00     0.007 C 
HETATM    3  C11 UNL     1      -4.844  48.053 -23.100  1.00  0.00     0.015 C 
HETATM    4  C12 UNL     1      -4.033  49.307 -22.721  1.00  0.00    -0.013 C 
HETATM    5  C13 UNL     1      -5.084  50.354 -22.233  1.00  0.00     0.021 C 
HETATM    6  C14 UNL     1      -3.153  49.995 -23.764  1.00  0.00    -0.070 C 
HETATM    7  C15 UNL     1      -3.041  49.583 -25.039  1.00  0.00    -0.022 C 
HETATM    8  C16 UNL     1      -2.045  50.132 -26.019  1.00  0.00     0.034 C 
HETATM    9  C17 UNL     1      -0.919  50.941 -25.339  1.00  0.00     0.013 C 
HETATM   10  C18 UNL     1       0.174  51.538 -26.309  1.00  0.00     0.018 C 
HETATM   11  C19 UNL     1      -0.108  51.250 -27.799  1.00  0.00     0.023 C 
HETATM   12  C20 UNL     1       1.548  50.910 -25.981  1.00  0.00     0.023 C 
HETATM   13  C21 UNL     1       0.356  53.055 -26.143  1.00  0.00     0.135 C 
HETATM   14  O1  UNL     1       0.591  53.793 -27.105  1.00  0.00    -0.297 OA
HETATM   15  C22 UNL     1       0.339  53.652 -24.754  1.00  0.00     0.080 C 
HETATM   16  C23 UNL     1      -0.381  52.792 -23.729  1.00  0.00     0.017 C 
HETATM   17  C24 UNL     1      -1.534  51.957 -24.324  1.00  0.00    -0.031 C 
HETATM   18  C25 UNL     1      -2.555  52.913 -25.013  1.00  0.00     0.016 C 
HETATM   19  C26 UNL     1      -2.326  51.165 -23.205  1.00  0.00     0.024 C 
HETATM   20  C27 UNL     1      -1.487  50.680 -21.998  1.00  0.00     0.010 C 
HETATM   21  C28 UNL     1      -2.298  49.873 -20.956  1.00  0.00     0.011 C 
HETATM   22  C29 UNL     1      -3.089  48.713 -21.600  1.00  0.00    -0.029 C 
HETATM   23  C30 UNL     1      -2.056  47.680 -22.155  1.00  0.00     0.016 C 
ENDROOT
BRANCH   1  24
HETATM   24  C7  UNL     1      -3.653  46.909 -19.656  1.00  0.00    -0.014 C 
HETATM   25  C8  UNL     1      -3.534  45.508 -20.261  1.00  0.00     0.010 C 
BRANCH  24  26
HETATM   26  C6  UNL     1      -2.291  47.347 -19.044  1.00  0.00     0.008 C 
BRANCH  26  27
HETATM   27  C5  UNL     1      -2.349  48.150 -17.737  1.00  0.00     0.028 C 
BRANCH  27  28
HETATM   28  C4  UNL     1      -1.458  49.362 -17.738  1.00  0.00    -0.025 C 
HETATM   29  C2  UNL     1      -0.351  49.564 -16.998  1.00  0.00    -0.091 C 
HETATM   30  C1  UNL     1       0.407  50.862 -17.088  1.00  0.00     0.042 C 
HETATM   31  C3  UNL     1       0.245  48.562 -16.048  1.00  0.00     0.042 C 
ENDBRANCH  27  28
ENDBRANCH  26  27
ENDBRANCH  24  26
ENDBRANCH   1  24
TORSDOF 4
ENDMDL
MODEL 4
REMARK minimizedAffinity -8.6699419
REMARK  4 active torsions:
REMARK  status: ('A' for Active; 'I' for Inactive)
REMARK    1  A    between atoms: C4_4  and  C5_5 
REMARK    2  A    between atoms: C5_5  and  C6_6 
REMARK    3  A    between atoms: C6_6  and  C7_7 
REMARK    4  A    between atoms: C7_7  and  C9_9 
ROOT
HETATM    1  C9  UNL     1      -1.214  51.233 -20.998  1.00  0.00    -0.002 C 
HETATM    2  C10 UNL     1      -0.221  50.035 -20.839  1.00  0.00     0.007 C 
HETATM    3  C11 UNL     1      -1.060  48.759 -20.630  1.00  0.00     0.015 C 
HETATM    4  C12 UNL     1      -2.469  49.280 -20.294  1.00  0.00    -0.013 C 
HETATM    5  C13 UNL     1      -2.432  49.641 -18.775  1.00  0.00     0.021 C 
HETATM    6  C14 UNL     1      -3.691  48.392 -20.523  1.00  0.00    -0.070 C 
HETATM    7  C15 UNL     1      -3.625  47.135 -20.997  1.00  0.00    -0.022 C 
HETATM    8  C16 UNL     1      -4.820  46.321 -21.400  1.00  0.00     0.034 C 
HETATM    9  C17 UNL     1      -6.095  47.175 -21.574  1.00  0.00     0.013 C 
HETATM   10  C18 UNL     1      -7.390  46.385 -22.011  1.00  0.00     0.018 C 
HETATM   11  C19 UNL     1      -7.166  44.863 -22.138  1.00  0.00     0.023 C 
HETATM   12  C20 UNL     1      -7.854  46.889 -23.397  1.00  0.00     0.023 C 
HETATM   13  C21 UNL     1      -8.579  46.614 -21.063  1.00  0.00     0.135 C 
HETATM   14  O1  UNL     1      -9.380  45.714 -20.792  1.00  0.00    -0.297 OA
HETATM   15  C22 UNL     1      -8.829  48.001 -20.516  1.00  0.00     0.080 C 
HETATM   16  C23 UNL     1      -7.597  48.891 -20.523  1.00  0.00     0.017 C 
HETATM   17  C24 UNL     1      -6.275  48.118 -20.342  1.00  0.00    -0.031 C 
HETATM   18  C25 UNL     1      -6.332  47.315 -19.006  1.00  0.00     0.016 C 
HETATM   19  C26 UNL     1      -5.032  49.092 -20.241  1.00  0.00     0.024 C 
HETATM   20  C27 UNL     1      -5.123  50.393 -21.075  1.00  0.00     0.010 C 
HETATM   21  C28 UNL     1      -3.865  51.289 -20.978  1.00  0.00     0.011 C 
HETATM   22  C29 UNL     1      -2.567  50.509 -21.285  1.00  0.00    -0.029 C 
HETATM   23  C30 UNL     1      -2.610  50.081 -22.787  1.00  0.00     0.016 C 
ENDROOT
BRANCH   1  24
HETATM   24  C7  UNL     1      -0.662  52.306 -21.987  1.00  0.00    -0.014 C 
HETATM   25  C8  UNL     1       0.494  53.111 -21.387  1.00  0.00     0.010 C 
BRANCH  24  26
HETATM   26  C6  UNL     1      -0.209  51.619 -23.308  1.00  0.00     0.008 C 
BRANCH  26  27
HETATM   27  C5  UNL     1       0.678  52.449 -24.247  1.00  0.00     0.028 C 
BRANCH  27  28
HETATM   28  C4  UNL     1       0.326  52.290 -25.700  1.00  0.00    -0.025 C 
HETATM   29  C2  UNL     1       1.123  51.846 -26.692  1.00  0.00    -0.091 C 
HETATM   30  C1  UNL     1       0.625  51.790 -28.112  1.00  0.00     0.042 C 
HETATM   31  C3  UNL     1       2.536  51.365 -26.510  1.00  0.00     0.042 C 
ENDBRANCH  27  28
ENDBRANCH  26  27
ENDBRANCH  24  26
ENDBRANCH   1  24
TORSDOF 4
ENDMDL
MODEL 5
REMARK minimizedAffinity -8.66213989
REMARK  4 active torsions:
REMARK  status: ('A' for Active; 'I' for Inactive)
REMARK    1  A    between atoms: C4_4  and  C5_5 
REMARK    2  A    between atoms: C5_5  and  C6_6 
REMARK    3  A    between atoms: C6_6  and  C7_7 
REMARK    4  A    between atoms: C7_7  and  C9_9 
ROOT
HETATM    1  C9  UNL     1      -1.270  50.306 -18.282  1.00  0.00    -0.002 C 
HETATM    2  C10 UNL     1      -1.981  48.929 -18.077  1.00  0.00     0.007 C 
HETATM    3  C11 UNL     1      -2.688  48.568 -19.398  1.00  0.00     0.015 C 
HETATM    4  C12 UNL     1      -2.697  49.885 -20.197  1.00  0.00    -0.013 C 
HETATM    5  C13 UNL     1      -3.905  50.704 -19.642  1.00  0.00     0.021 C 
HETATM    6  C14 UNL     1      -2.824  49.859 -21.719  1.00  0.00    -0.070 C 
HETATM    7  C15 UNL     1      -2.950  48.731 -22.441  1.00  0.00    -0.022 C 
HETATM    8  C16 UNL     1      -2.890  48.676 -23.940  1.00  0.00     0.034 C 
HETATM    9  C17 UNL     1      -2.301  49.961 -24.563  1.00  0.00     0.013 C 
HETATM   10  C18 UNL     1      -2.194  49.969 -26.137  1.00  0.00     0.018 C 
HETATM   11  C19 UNL     1      -2.755  48.690 -26.795  1.00  0.00     0.023 C 
HETATM   12  C20 UNL     1      -0.708  50.072 -26.549  1.00  0.00     0.023 C 
HETATM   13  C21 UNL     1      -2.891  51.180 -26.778  1.00  0.00     0.135 C 
HETATM   14  O1  UNL     1      -3.491  51.094 -27.854  1.00  0.00    -0.297 OA
HETATM   15  C22 UNL     1      -2.765  52.536 -26.122  1.00  0.00     0.080 C 
HETATM   16  C23 UNL     1      -2.426  52.468 -24.641  1.00  0.00     0.017 C 
HETATM   17  C24 UNL     1      -2.988  51.217 -23.936  1.00  0.00    -0.031 C 
HETATM   18  C25 UNL     1      -4.536  51.178 -24.120  1.00  0.00     0.016 C 
HETATM   19  C26 UNL     1      -2.709  51.244 -22.378  1.00  0.00     0.024 C 
HETATM   20  C27 UNL     1      -1.388  51.920 -21.939  1.00  0.00     0.010 C 
HETATM   21  C28 UNL     1      -1.141  51.880 -20.412  1.00  0.00     0.011 C 
HETATM   22  C29 UNL     1      -1.266  50.452 -19.836  1.00  0.00    -0.029 C 
HETATM   23  C30 UNL     1      -0.101  49.595 -20.429  1.00  0.00     0.016 C 
ENDROOT
BRANCH   1  24
HETATM   24  C7  UNL     1       0.063  50.388 -17.474  1.00  0.00    -0.014 C 
HETATM   25  C8  UNL     1       0.694  51.782 -17.531  1.00  0.00     0.010 C 
BRANCH  24  26
HETATM   26  C6  UNL     1      -0.195  49.976 -15.995  1.00  0.00     0.008 C 
BRANCH  26  27
HETATM   27  C5  UNL     1      -1.097  50.904 -15.169  1.00  0.00     0.028 C 
BRANCH  27  28
HETATM   28  C4  UNL     1      -0.361  51.657 -14.096  1.00  0.00    -0.025 C 
HETATM   29  C2  UNL     1      -0.878  52.210 -12.981  1.00  0.00    -0.091 C 
HETATM   30  C1  UNL     1      -0.002  52.975 -12.024  1.00  0.00     0.042 C 
HETATM   31  C3  UNL     1      -2.322  52.124 -12.568  1.00  0.00     0.042 C 
ENDBRANCH  27  28
ENDBRANCH  26  27
ENDBRANCH  24  26
ENDBRANCH   1  24
TORSDOF 4
ENDMDL
MODEL 6
REMARK minimizedAffinity -8.55462933
REMARK  4 active torsions:
REMARK  status: ('A' for Active; 'I' for Inactive)
REMARK    1  A    between atoms: C4_4  and  C5_5 
REMARK    2  A    between atoms: C5_5  and  C6_6 
REMARK    3  A    between atoms: C6_6  and  C7_7 
REMARK    4  A    between atoms: C7_7  and  C9_9 
ROOT
HETATM    1  C9  UNL     1      -1.963  50.615 -25.211  1.00  0.00    -0.002 C 
HETATM    2  C10 UNL     1      -2.956  51.744 -25.642  1.00  0.00     0.007 C 
HETATM    3  C11 UNL     1      -4.306  51.465 -24.954  1.00  0.00     0.015 C 
HETATM    4  C12 UNL     1      -4.188  50.011 -24.459  1.00  0.00    -0.013 C 
HETATM    5  C13 UNL     1      -4.508  49.118 -25.699  1.00  0.00     0.021 C 
HETATM    6  C14 UNL     1      -5.061  49.520 -23.305  1.00  0.00    -0.070 C 
HETATM    7  C15 UNL     1      -5.972  50.284 -22.677  1.00  0.00    -0.022 C 
HETATM    8  C16 UNL     1      -6.701  49.876 -21.430  1.00  0.00     0.034 C 
HETATM    9  C17 UNL     1      -6.049  48.667 -20.724  1.00  0.00     0.013 C 
HETATM   10  C18 UNL     1      -6.755  48.190 -19.395  1.00  0.00     0.018 C 
HETATM   11  C19 UNL     1      -8.028  48.995 -19.056  1.00  0.00     0.023 C 
HETATM   12  C20 UNL     1      -5.782  48.363 -18.207  1.00  0.00     0.023 C 
HETATM   13  C21 UNL     1      -7.127  46.698 -19.418  1.00  0.00     0.135 C 
HETATM   14  O1  UNL     1      -8.162  46.276 -18.893  1.00  0.00    -0.297 OA
HETATM   15  C22 UNL     1      -6.157  45.706 -20.018  1.00  0.00     0.080 C 
HETATM   16  C23 UNL     1      -5.181  46.326 -21.004  1.00  0.00     0.017 C 
HETATM   17  C24 UNL     1      -5.758  47.538 -21.764  1.00  0.00    -0.031 C 
HETATM   18  C25 UNL     1      -7.052  47.101 -22.516  1.00  0.00     0.016 C 
HETATM   19  C26 UNL     1      -4.750  48.081 -22.858  1.00  0.00     0.024 C 
HETATM   20  C27 UNL     1      -3.247  47.958 -22.512  1.00  0.00     0.010 C 
HETATM   21  C28 UNL     1      -2.305  48.544 -23.592  1.00  0.00     0.011 C 
HETATM   22  C29 UNL     1      -2.683  49.992 -23.974  1.00  0.00    -0.029 C 
HETATM   23  C30 UNL     1      -2.432  50.897 -22.725  1.00  0.00     0.016 C 
ENDROOT
BRANCH   1  24
HETATM   24  C7  UNL     1      -0.503  51.154 -25.092  1.00  0.00    -0.014 C 
HETATM   25  C8  UNL     1       0.376  50.717 -26.267  1.00  0.00     0.010 C 
BRANCH  24  26
HETATM   26  C6  UNL     1      -0.523  52.706 -24.985  1.00  0.00     0.008 C 
BRANCH  26  27
HETATM   27  C5  UNL     1       0.430  53.338 -23.960  1.00  0.00     0.028 C 
BRANCH  27  28
HETATM   28  C4  UNL     1       0.281  52.772 -22.575  1.00  0.00    -0.025 C 
HETATM   29  C2  UNL     1       0.853  53.222 -21.441  1.00  0.00    -0.091 C 
HETATM   30  C1  UNL     1       0.635  52.506 -20.133  1.00  0.00     0.042 C 
HETATM   31  C3  UNL     1       1.728  54.441 -21.343  1.00  0.00     0.042 C 
ENDBRANCH  27  28
ENDBRANCH  26  27
ENDBRANCH  24  26
ENDBRANCH   1  24
TORSDOF 4
ENDMDL
MODEL 7
REMARK minimizedAffinity -8.49572945
REMARK  4 active torsions:
REMARK  status: ('A' for Active; 'I' for Inactive)
REMARK    1  A    between atoms: C4_4  and  C5_5 
REMARK    2  A    between atoms: C5_5  and  C6_6 
REMARK    3  A    between atoms: C6_6  and  C7_7 
REMARK    4  A    between atoms: C7_7  and  C9_9 
ROOT
HETATM    1  C9  UNL     1      -2.174  50.273 -22.311  1.00  0.00    -0.002 C 
HETATM    2  C10 UNL     1      -2.957  48.920 -22.350  1.00  0.00     0.007 C 
HETATM    3  C11 UNL     1      -2.902  48.309 -20.936  1.00  0.00     0.015 C 
HETATM    4  C12 UNL     1      -1.793  49.103 -20.221  1.00  0.00    -0.013 C 
HETATM    5  C13 UNL     1      -0.450  48.452 -20.678  1.00  0.00     0.021 C 
HETATM    6  C14 UNL     1      -1.767  49.182 -18.696  1.00  0.00    -0.070 C 
HETATM    7  C15 UNL     1      -2.663  48.572 -17.899  1.00  0.00    -0.022 C 
HETATM    8  C16 UNL     1      -2.761  48.789 -16.417  1.00  0.00     0.034 C 
HETATM    9  C17 UNL     1      -1.995  50.045 -15.944  1.00  0.00     0.013 C 
HETATM   10  C18 UNL     1      -2.065  50.344 -14.396  1.00  0.00     0.018 C 
HETATM   11  C19 UNL     1      -2.856  49.282 -13.602  1.00  0.00     0.023 C 
HETATM   12  C20 UNL     1      -2.775  51.698 -14.168  1.00  0.00     0.023 C 
HETATM   13  C21 UNL     1      -0.677  50.485 -13.751  1.00  0.00     0.135 C 
HETATM   14  O1  UNL     1      -0.444  50.078 -12.609  1.00  0.00    -0.297 OA
HETATM   15  C22 UNL     1       0.411  51.224 -14.496  1.00  0.00     0.080 C 
HETATM   16  C23 UNL     1       0.192  51.279 -15.999  1.00  0.00     0.017 C 
HETATM   17  C24 UNL     1      -0.559  50.053 -16.559  1.00  0.00    -0.031 C 
HETATM   18  C25 UNL     1       0.232  48.759 -16.193  1.00  0.00     0.016 C 
HETATM   19  C26 UNL     1      -0.664  50.098 -18.138  1.00  0.00     0.024 C 
HETATM   20  C27 UNL     1      -0.791  51.506 -18.767  1.00  0.00     0.010 C 
HETATM   21  C28 UNL     1      -0.938  51.492 -20.308  1.00  0.00     0.011 C 
HETATM   22  C29 UNL     1      -2.072  50.556 -20.780  1.00  0.00    -0.029 C 
HETATM   23  C30 UNL     1      -3.425  51.155 -20.278  1.00  0.00     0.016 C 
ENDROOT
BRANCH   1  24
HETATM   24  C7  UNL     1      -2.805  51.327 -23.274  1.00  0.00    -0.014 C 
HETATM   25  C8  UNL     1      -3.988  52.061 -22.638  1.00  0.00     0.010 C 
BRANCH  24  26
HETATM   26  C6  UNL     1      -1.717  52.348 -23.720  1.00  0.00     0.008 C 
BRANCH  26  27
HETATM   27  C5  UNL     1      -1.227  52.242 -25.170  1.00  0.00     0.028 C 
BRANCH  27  28
HETATM   28  C4  UNL     1       0.231  51.893 -25.287  1.00  0.00    -0.025 C 
HETATM   29  C2  UNL     1       0.923  51.631 -26.413  1.00  0.00    -0.091 C 
HETATM   30  C1  UNL     1       2.380  51.252 -26.349  1.00  0.00     0.042 C 
HETATM   31  C3  UNL     1       0.358  51.693 -27.805  1.00  0.00     0.042 C 
ENDBRANCH  27  28
ENDBRANCH  26  27
ENDBRANCH  24  26
ENDBRANCH   1  24
TORSDOF 4
ENDMDL
MODEL 8
REMARK minimizedAffinity -8.45191288
REMARK  4 active torsions:
REMARK  status: ('A' for Active; 'I' for Inactive)
REMARK    1  A    between atoms: C4_4  and  C5_5 
REMARK    2  A    between atoms: C5_5  and  C6_6 
REMARK    3  A    between atoms: C6_6  and  C7_7 
REMARK    4  A    between atoms: C7_7  and  C9_9 
ROOT
HETATM    1  C9  UNL     1      -1.444  50.457 -22.262  1.00  0.00    -0.002 C 
HETATM    2  C10 UNL     1      -1.919  50.098 -23.708  1.00  0.00     0.007 C 
HETATM    3  C11 UNL     1      -3.178  49.218 -23.580  1.00  0.00     0.015 C 
HETATM    4  C12 UNL     1      -3.184  48.775 -22.104  1.00  0.00    -0.013 C 
HETATM    5  C13 UNL     1      -2.194  47.570 -22.024  1.00  0.00     0.021 C 
HETATM    6  C14 UNL     1      -4.489  48.340 -21.439  1.00  0.00    -0.070 C 
HETATM    7  C15 UNL     1      -5.674  48.296 -22.073  1.00  0.00    -0.022 C 
HETATM    8  C16 UNL     1      -6.988  48.051 -21.390  1.00  0.00     0.034 C 
HETATM    9  C17 UNL     1      -6.908  48.224 -19.857  1.00  0.00     0.013 C 
HETATM   10  C18 UNL     1      -8.258  47.995 -19.073  1.00  0.00     0.018 C 
HETATM   11  C19 UNL     1      -9.432  47.579 -19.984  1.00  0.00     0.023 C 
HETATM   12  C20 UNL     1      -8.674  49.310 -18.374  1.00  0.00     0.023 C 
HETATM   13  C21 UNL     1      -8.129  46.948 -17.953  1.00  0.00     0.135 C 
HETATM   14  O1  UNL     1      -9.046  46.167 -17.682  1.00  0.00    -0.297 OA
HETATM   15  C22 UNL     1      -6.883  46.933 -17.099  1.00  0.00     0.080 C 
HETATM   16  C23 UNL     1      -5.679  47.581 -17.763  1.00  0.00     0.017 C 
HETATM   17  C24 UNL     1      -5.674  47.444 -19.299  1.00  0.00    -0.031 C 
HETATM   18  C25 UNL     1      -5.729  45.933 -19.679  1.00  0.00     0.016 C 
HETATM   19  C26 UNL     1      -4.350  48.032 -19.938  1.00  0.00     0.024 C 
HETATM   20  C27 UNL     1      -3.732  49.251 -19.212  1.00  0.00     0.010 C 
HETATM   21  C28 UNL     1      -2.466  49.815 -19.902  1.00  0.00     0.011 C 
HETATM   22  C29 UNL     1      -2.697  50.105 -21.401  1.00  0.00    -0.029 C 
HETATM   23  C30 UNL     1      -3.735  51.269 -21.509  1.00  0.00     0.016 C 
ENDROOT
BRANCH   1  24
HETATM   24  C7  UNL     1      -0.815  51.884 -22.204  1.00  0.00    -0.014 C 
HETATM   25  C8  UNL     1       0.621  51.867 -21.675  1.00  0.00     0.010 C 
BRANCH  24  26
HETATM   26  C6  UNL     1      -0.858  52.534 -23.618  1.00  0.00     0.008 C 
BRANCH  26  27
HETATM   27  C5  UNL     1       0.471  52.608 -24.383  1.00  0.00     0.028 C 
BRANCH  27  28
HETATM   28  C4  UNL     1       0.319  52.429 -25.868  1.00  0.00    -0.025 C 
HETATM   29  C2  UNL     1       1.192  51.852 -26.716  1.00  0.00    -0.091 C 
HETATM   30  C1  UNL     1       0.904  51.793 -28.194  1.00  0.00     0.042 C 
HETATM   31  C3  UNL     1       2.493  51.216 -26.312  1.00  0.00     0.042 C 
ENDBRANCH  27  28
ENDBRANCH  26  27
ENDBRANCH  24  26
ENDBRANCH   1  24
TORSDOF 4
ENDMDL
MODEL 9
REMARK minimizedAffinity -8.42926884
REMARK  4 active torsions:
REMARK  status: ('A' for Active; 'I' for Inactive)
REMARK    1  A    between atoms: C4_4  and  C5_5 
REMARK    2  A    between atoms: C5_5  and  C6_6 
REMARK    3  A    between atoms: C6_6  and  C7_7 
REMARK    4  A    between atoms: C7_7  and  C9_9 
ROOT
HETATM    1  C9  UNL     1      -3.692  47.570 -20.359  1.00  0.00    -0.002 C 
HETATM    2  C10 UNL     1      -4.791  47.068 -21.352  1.00  0.00     0.007 C 
HETATM    3  C11 UNL     1      -4.662  47.894 -22.646  1.00  0.00     0.015 C 
HETATM    4  C12 UNL     1      -3.771  49.086 -22.251  1.00  0.00    -0.013 C 
HETATM    5  C13 UNL     1      -4.724  50.110 -21.558  1.00  0.00     0.021 C 
HETATM    6  C14 UNL     1      -2.984  49.844 -23.319  1.00  0.00    -0.070 C 
HETATM    7  C15 UNL     1      -3.025  49.549 -24.630  1.00  0.00    -0.022 C 
HETATM    8  C16 UNL     1      -2.122  50.160 -25.662  1.00  0.00     0.034 C 
HETATM    9  C17 UNL     1      -0.901  50.873 -25.041  1.00  0.00     0.013 C 
HETATM   10  C18 UNL     1       0.101  51.528 -26.070  1.00  0.00     0.018 C 
HETATM   11  C19 UNL     1      -0.350  51.386 -27.539  1.00  0.00     0.023 C 
HETATM   12  C20 UNL     1       1.480  50.838 -25.953  1.00  0.00     0.023 C 
HETATM   13  C21 UNL     1       0.355  53.019 -25.791  1.00  0.00     0.135 C 
HETATM   14  O1  UNL     1       0.510  53.836 -26.704  1.00  0.00    -0.297 OA
HETATM   15  C22 UNL     1       0.509  53.486 -24.361  1.00  0.00     0.080 C 
HETATM   16  C23 UNL     1      -0.127  52.554 -23.343  1.00  0.00     0.017 C 
HETATM   17  C24 UNL     1      -1.366  51.807 -23.879  1.00  0.00    -0.031 C 
HETATM   18  C25 UNL     1      -2.420  52.848 -24.363  1.00  0.00     0.016 C 
HETATM   19  C26 UNL     1      -2.060  50.937 -22.753  1.00  0.00     0.024 C 
HETATM   20  C27 UNL     1      -1.114  50.321 -21.695  1.00  0.00     0.010 C 
HETATM   21  C28 UNL     1      -1.837  49.442 -20.644  1.00  0.00     0.011 C 
HETATM   22  C29 UNL     1      -2.733  48.368 -21.298  1.00  0.00    -0.029 C 
HETATM   23  C30 UNL     1      -1.803  47.364 -22.053  1.00  0.00     0.016 C 
ENDROOT
BRANCH   1  24
HETATM   24  C7  UNL     1      -3.148  46.407 -19.471  1.00  0.00    -0.014 C 
HETATM   25  C8  UNL     1      -3.180  46.750 -17.979  1.00  0.00     0.010 C 
BRANCH  24  26
HETATM   26  C6  UNL     1      -3.969  45.113 -19.742  1.00  0.00     0.008 C 
BRANCH  26  27
HETATM   27  C5  UNL     1      -4.300  44.240 -18.524  1.00  0.00     0.028 C 
BRANCH  27  28
HETATM   28  C4  UNL     1      -3.245  43.214 -18.216  1.00  0.00    -0.025 C 
HETATM   29  C2  UNL     1      -3.321  41.881 -18.399  1.00  0.00    -0.091 C 
HETATM   30  C1  UNL     1      -2.181  40.983 -17.993  1.00  0.00     0.042 C 
HETATM   31  C3  UNL     1      -4.491  41.161 -19.011  1.00  0.00     0.042 C 
ENDBRANCH  27  28
ENDBRANCH  26  27
ENDBRANCH  24  26
ENDBRANCH   1  24
TORSDOF 4
ENDMDL
