MODEL 1
REMARK minimizedAffinity -9.21059513
REMARK  8 active torsions:
REMARK  status: ('A' for Active; 'I' for Inactive)
REMARK    1  A    between atoms: C2_2  and  C3_3 
REMARK    2  A    between atoms: C2_2  and  C29_30 
REMARK    3  A    between atoms: C3_3  and  C4_4 
REMARK    4  A    between atoms: C4_4  and  C5_5 
REMARK    5  A    between atoms: C5_5  and  C7_7 
REMARK    6  A    between atoms: C29_30  and  C31_32 
REMARK    7  A    between atoms: C31_32  and  O2_33 
REMARK    8  A    between atoms: O2_33  and  C32_34 
ROOT
HETATM    1  C7  UNL     1      -3.548   8.354  14.355  1.00  0.00    -0.002 C 
HETATM    2  C8  UNL     1      -3.323   7.474  15.627  1.00  0.00     0.006 C 
HETATM    3  C9  UNL     1      -1.884   6.914  15.562  1.00  0.00     0.011 C 
HETATM    4  C10 UNL     1      -1.220   7.724  14.444  1.00  0.00    -0.032 C 
HETATM    5  C11 UNL     1      -0.799   9.094  15.108  1.00  0.00     0.016 C 
HETATM    6  C12 UNL     1       0.090   7.177  13.822  1.00  0.00     0.004 C 
HETATM    7  C13 UNL     1       0.142   5.676  13.376  1.00  0.00     0.007 C 
HETATM    8  C14 UNL     1       0.714   5.432  11.940  1.00  0.00     0.007 C 
HETATM    9  C15 UNL     1       2.008   6.228  11.722  1.00  0.00     0.010 C 
HETATM   10  C16 UNL     1       2.756   6.304  10.391  1.00  0.00     0.018 C 
HETATM   11  C17 UNL     1       1.924   6.973   9.292  1.00  0.00     0.023 C 
HETATM   12  C18 UNL     1       3.191   4.908   9.921  1.00  0.00     0.023 C 
HETATM   13  C19 UNL     1       4.036   7.144  10.664  1.00  0.00     0.135 C 
HETATM   14  O1  UNL     1       4.738   7.547   9.732  1.00  0.00    -0.297 OA
HETATM   15  C20 UNL     1       4.487   7.371  12.124  1.00  0.00     0.080 C 
HETATM   16  C21 UNL     1       3.348   7.667  13.134  1.00  0.00     0.018 C 
HETATM   17  C22 UNL     1       2.027   7.589  12.389  1.00  0.00    -0.026 A 
HETATM   18  C23 UNL     1       1.557   9.006  12.300  1.00  0.00     0.021 A 
HETATM   19  C24 UNL     1       0.500   8.029  12.629  1.00  0.00    -0.027 A 
HETATM   20  C25 UNL     1      -0.645   8.274  11.614  1.00  0.00     0.011 C 
HETATM   21  C26 UNL     1      -1.940   8.798  12.282  1.00  0.00     0.011 C 
HETATM   22  C27 UNL     1      -2.407   7.858  13.407  1.00  0.00    -0.032 C 
HETATM   23  C28 UNL     1      -2.889   6.536  12.742  1.00  0.00     0.016 C 
ENDROOT
BRANCH   1  24
HETATM   24  C5  UNL     1      -5.032   8.338  13.889  1.00  0.00    -0.014 C 
HETATM   25  C6  UNL     1      -6.005   8.671  15.025  1.00  0.00     0.010 C 
BRANCH  24  26
HETATM   26  C4  UNL     1      -5.442   6.995  13.222  1.00  0.00     0.009 C 
BRANCH  26  27
HETATM   27  C3  UNL     1      -6.399   6.125  14.049  1.00  0.00     0.034 C 
BRANCH  27  28
HETATM   28  C2  UNL     1      -7.148   5.105  13.203  1.00  0.00    -0.083 C 
HETATM   29  C1  UNL     1      -8.306   5.463  12.616  1.00  0.00     0.015 C 
BRANCH  28  30
HETATM   30  C29 UNL     1      -6.523   3.707  13.091  1.00  0.00     0.034 C 
HETATM   31  C30 UNL     1      -7.622   2.643  12.988  1.00  0.00     0.017 C 
BRANCH  30  32
HETATM   32  C31 UNL     1      -5.525   3.501  11.929  1.00  0.00     0.187 C 
BRANCH  32  33
HETATM   33  O2  UNL     1      -4.205   3.284  12.454  1.00  0.00    -0.321 OA
BRANCH  33  34
HETATM   34  C32 UNL     1      -3.396   2.546  11.646  1.00  0.00     0.254 C 
HETATM   35  C33 UNL     1      -2.710   3.435  10.655  1.00  0.00     0.126 C 
HETATM   36  O3  UNL     1      -3.244   1.333  11.709  1.00  0.00    -0.266 OA
ENDBRANCH  33  34
ENDBRANCH  32  33
ENDBRANCH  30  32
ENDBRANCH  28  30
ENDBRANCH  27  28
ENDBRANCH  26  27
ENDBRANCH  24  26
ENDBRANCH   1  24
TORSDOF 8
ENDMDL
MODEL 2
REMARK minimizedAffinity -8.94098854
REMARK  8 active torsions:
REMARK  status: ('A' for Active; 'I' for Inactive)
REMARK    1  A    between atoms: C2_2  and  C3_3 
REMARK    2  A    between atoms: C2_2  and  C29_30 
REMARK    3  A    between atoms: C3_3  and  C4_4 
REMARK    4  A    between atoms: C4_4  and  C5_5 
REMARK    5  A    between atoms: C5_5  and  C7_7 
REMARK    6  A    between atoms: C29_30  and  C31_32 
REMARK    7  A    between atoms: C31_32  and  O2_33 
REMARK    8  A    between atoms: O2_33  and  C32_34 
ROOT
HETATM    1  C7  UNL     1      -3.392   7.145  14.602  1.00  0.00    -0.002 C 
HETATM    2  C8  UNL     1      -2.966   5.880  15.414  1.00  0.00     0.006 C 
HETATM    3  C9  UNL     1      -1.537   5.493  14.966  1.00  0.00     0.011 C 
HETATM    4  C10 UNL     1      -1.061   6.705  14.159  1.00  0.00    -0.032 C 
HETATM    5  C11 UNL     1      -0.581   7.762  15.229  1.00  0.00     0.016 C 
HETATM    6  C12 UNL     1       0.159   6.525  13.219  1.00  0.00     0.004 C 
HETATM    7  C13 UNL     1       0.182   5.301  12.242  1.00  0.00     0.007 C 
HETATM    8  C14 UNL     1       0.547   5.645  10.759  1.00  0.00     0.007 C 
HETATM    9  C15 UNL     1       1.777   6.561  10.696  1.00  0.00     0.010 C 
HETATM   10  C16 UNL     1       2.325   7.176   9.408  1.00  0.00     0.018 C 
HETATM   11  C17 UNL     1       1.327   8.138   8.751  1.00  0.00     0.023 C 
HETATM   12  C18 UNL     1       2.721   6.088   8.400  1.00  0.00     0.023 C 
HETATM   13  C19 UNL     1       3.611   7.951   9.814  1.00  0.00     0.135 C 
HETATM   14  O1  UNL     1       4.161   8.720   9.021  1.00  0.00    -0.297 OA
HETATM   15  C20 UNL     1       4.261   7.660  11.184  1.00  0.00     0.080 C 
HETATM   16  C21 UNL     1       3.272   7.478  12.365  1.00  0.00     0.018 C 
HETATM   17  C22 UNL     1       1.860   7.579  11.816  1.00  0.00    -0.026 A 
HETATM   18  C23 UNL     1       1.349   8.890  12.322  1.00  0.00     0.021 A 
HETATM   19  C24 UNL     1       0.373   7.783  12.391  1.00  0.00    -0.027 A 
HETATM   20  C25 UNL     1      -0.912   8.297  11.692  1.00  0.00     0.011 C 
HETATM   21  C26 UNL     1      -2.108   8.439  12.664  1.00  0.00     0.011 C 
HETATM   22  C27 UNL     1      -2.387   7.120  13.403  1.00  0.00    -0.032 C 
HETATM   23  C28 UNL     1      -2.928   6.102  12.358  1.00  0.00     0.016 C 
ENDROOT
BRANCH   1  24
HETATM   24  C5  UNL     1      -4.926   7.190  14.353  1.00  0.00    -0.014 C 
HETATM   25  C6  UNL     1      -5.359   8.455  13.604  1.00  0.00     0.010 C 
BRANCH  24  26
HETATM   26  C4  UNL     1      -5.755   7.043  15.659  1.00  0.00     0.009 C 
BRANCH  26  27
HETATM   27  C3  UNL     1      -6.695   5.830  15.699  1.00  0.00     0.034 C 
BRANCH  27  28
HETATM   28  C2  UNL     1      -7.854   5.948  14.719  1.00  0.00    -0.083 C 
HETATM   29  C1  UNL     1      -8.795   6.888  14.926  1.00  0.00     0.015 C 
BRANCH  28  30
HETATM   30  C29 UNL     1      -7.872   4.955  13.547  1.00  0.00     0.034 C 
HETATM   31  C30 UNL     1      -8.383   5.647  12.277  1.00  0.00     0.017 C 
BRANCH  30  32
HETATM   32  C31 UNL     1      -6.531   4.260  13.225  1.00  0.00     0.187 C 
BRANCH  32  33
HETATM   33  O2  UNL     1      -6.639   3.545  11.983  1.00  0.00    -0.321 OA
BRANCH  33  34
HETATM   34  C32 UNL     1      -6.904   2.217  12.123  1.00  0.00     0.254 C 
HETATM   35  C33 UNL     1      -5.953   1.412  11.292  1.00  0.00     0.126 C 
HETATM   36  O3  UNL     1      -7.788   1.739  12.821  1.00  0.00    -0.266 OA
ENDBRANCH  33  34
ENDBRANCH  32  33
ENDBRANCH  30  32
ENDBRANCH  28  30
ENDBRANCH  27  28
ENDBRANCH  26  27
ENDBRANCH  24  26
ENDBRANCH   1  24
TORSDOF 8
ENDMDL
MODEL 3
REMARK minimizedAffinity -8.57960415
REMARK  8 active torsions:
REMARK  status: ('A' for Active; 'I' for Inactive)
REMARK    1  A    between atoms: C2_2  and  C3_3 
REMARK    2  A    between atoms: C2_2  and  C29_30 
REMARK    3  A    between atoms: C3_3  and  C4_4 
REMARK    4  A    between atoms: C4_4  and  C5_5 
REMARK    5  A    between atoms: C5_5  and  C7_7 
REMARK    6  A    between atoms: C29_30  and  C31_32 
REMARK    7  A    between atoms: C31_32  and  O2_33 
REMARK    8  A    between atoms: O2_33  and  C32_34 
ROOT
HETATM    1  C7  UNL     1       0.218   8.846  14.402  1.00  0.00    -0.002 C 
HETATM    2  C8  UNL     1      -0.275  10.303  14.677  1.00  0.00     0.006 C 
HETATM    3  C9  UNL     1      -1.803  10.246  14.906  1.00  0.00     0.011 C 
HETATM    4  C10 UNL     1      -2.099   8.752  15.071  1.00  0.00    -0.032 C 
HETATM    5  C11 UNL     1      -1.729   8.413  16.568  1.00  0.00     0.016 C 
HETATM    6  C12 UNL     1      -3.565   8.275  14.917  1.00  0.00     0.004 C 
HETATM    7  C13 UNL     1      -4.387   8.757  13.673  1.00  0.00     0.007 C 
HETATM    8  C14 UNL     1      -5.149   7.627  12.905  1.00  0.00     0.007 C 
HETATM    9  C15 UNL     1      -5.907   6.715  13.881  1.00  0.00     0.010 C 
HETATM   10  C16 UNL     1      -6.655   5.448  13.468  1.00  0.00     0.018 C 
HETATM   11  C17 UNL     1      -5.720   4.382  12.885  1.00  0.00     0.023 C 
HETATM   12  C18 UNL     1      -7.761   5.766  12.451  1.00  0.00     0.023 C 
HETATM   13  C19 UNL     1      -7.329   4.905  14.760  1.00  0.00     0.135 C 
HETATM   14  O1  UNL     1      -7.837   3.780  14.783  1.00  0.00    -0.297 OA
HETATM   15  C20 UNL     1      -7.459   5.836  15.986  1.00  0.00     0.080 C 
HETATM   16  C21 UNL     1      -6.223   6.725  16.281  1.00  0.00     0.018 C 
HETATM   17  C22 UNL     1      -5.192   6.472  15.196  1.00  0.00    -0.026 A 
HETATM   18  C23 UNL     1      -4.104   5.705  15.877  1.00  0.00     0.021 A 
HETATM   19  C24 UNL     1      -3.629   6.755  14.953  1.00  0.00    -0.027 A 
HETATM   20  C25 UNL     1      -2.620   6.065  13.999  1.00  0.00     0.011 C 
HETATM   21  C26 UNL     1      -1.174   6.589  14.172  1.00  0.00     0.011 C 
HETATM   22  C27 UNL     1      -1.111   8.118  14.012  1.00  0.00    -0.032 C 
HETATM   23  C28 UNL     1      -1.405   8.444  12.519  1.00  0.00     0.016 C 
ENDROOT
BRANCH   1  24
HETATM   24  C5  UNL     1       1.450   8.815  13.452  1.00  0.00    -0.014 C 
HETATM   25  C6  UNL     1       2.339  10.053  13.609  1.00  0.00     0.010 C 
BRANCH  24  26
HETATM   26  C4  UNL     1       1.057   8.636  11.959  1.00  0.00     0.009 C 
BRANCH  26  27
HETATM   27  C3  UNL     1       2.127   7.972  11.081  1.00  0.00     0.034 C 
BRANCH  27  28
HETATM   28  C2  UNL     1       1.640   6.684  10.431  1.00  0.00    -0.083 C 
HETATM   29  C1  UNL     1       0.657   5.981  11.024  1.00  0.00     0.015 C 
BRANCH  28  30
HETATM   30  C29 UNL     1       2.333   6.264   9.126  1.00  0.00     0.034 C 
HETATM   31  C30 UNL     1       2.762   7.505   8.333  1.00  0.00     0.017 C 
BRANCH  30  32
HETATM   32  C31 UNL     1       3.552   5.328   9.275  1.00  0.00     0.187 C 
BRANCH  32  33
HETATM   33  O2  UNL     1       3.273   4.062   8.654  1.00  0.00    -0.321 OA
BRANCH  33  34
HETATM   34  C32 UNL     1       4.221   3.652   7.768  1.00  0.00     0.254 C 
HETATM   35  C33 UNL     1       3.701   3.766   6.368  1.00  0.00     0.126 C 
HETATM   36  O3  UNL     1       5.338   3.247   8.060  1.00  0.00    -0.266 OA
ENDBRANCH  33  34
ENDBRANCH  32  33
ENDBRANCH  30  32
ENDBRANCH  28  30
ENDBRANCH  27  28
ENDBRANCH  26  27
ENDBRANCH  24  26
ENDBRANCH   1  24
TORSDOF 8
ENDMDL
MODEL 4
REMARK minimizedAffinity -8.54591656
REMARK  8 active torsions:
REMARK  status: ('A' for Active; 'I' for Inactive)
REMARK    1  A    between atoms: C2_2  and  C3_3 
REMARK    2  A    between atoms: C2_2  and  C29_30 
REMARK    3  A    between atoms: C3_3  and  C4_4 
REMARK    4  A    between atoms: C4_4  and  C5_5 
REMARK    5  A    between atoms: C5_5  and  C7_7 
REMARK    6  A    between atoms: C29_30  and  C31_32 
REMARK    7  A    between atoms: C31_32  and  O2_33 
REMARK    8  A    between atoms: O2_33  and  C32_34 
ROOT
HETATM    1  C7  UNL     1      -3.720   7.173  14.279  1.00  0.00    -0.002 C 
HETATM    2  C8  UNL     1      -3.404   6.118  15.388  1.00  0.00     0.006 C 
HETATM    3  C9  UNL     1      -1.897   5.786  15.304  1.00  0.00     0.011 C 
HETATM    4  C10 UNL     1      -1.328   6.869  14.381  1.00  0.00    -0.032 C 
HETATM    5  C11 UNL     1      -1.131   8.140  15.296  1.00  0.00     0.016 C 
HETATM    6  C12 UNL     1       0.065   6.630  13.745  1.00  0.00     0.004 C 
HETATM    7  C13 UNL     1       0.349   5.256  13.047  1.00  0.00     0.007 C 
HETATM    8  C14 UNL     1       0.990   5.357  11.623  1.00  0.00     0.007 C 
HETATM    9  C15 UNL     1       2.160   6.352  11.618  1.00  0.00     0.010 C 
HETATM   10  C16 UNL     1       2.926   6.770  10.362  1.00  0.00     0.018 C 
HETATM   11  C17 UNL     1       2.035   7.504   9.354  1.00  0.00     0.023 C 
HETATM   12  C18 UNL     1       3.574   5.556   9.680  1.00  0.00     0.023 C 
HETATM   13  C19 UNL     1       4.061   7.716  10.847  1.00  0.00     0.135 C 
HETATM   14  O1  UNL     1       4.722   8.375  10.038  1.00  0.00    -0.297 OA
HETATM   15  C20 UNL     1       4.433   7.736  12.346  1.00  0.00     0.080 C 
HETATM   16  C21 UNL     1       3.234   7.684  13.329  1.00  0.00     0.018 C 
HETATM   17  C22 UNL     1       1.961   7.559  12.512  1.00  0.00    -0.026 A 
HETATM   18  C23 UNL     1       1.291   8.889  12.646  1.00  0.00     0.021 A 
HETATM   19  C24 UNL     1       0.379   7.732  12.743  1.00  0.00    -0.027 A 
HETATM   20  C25 UNL     1      -0.760   7.995  11.726  1.00  0.00     0.011 C 
HETATM   21  C26 UNL     1      -2.136   8.204  12.405  1.00  0.00     0.011 C 
HETATM   22  C27 UNL     1      -2.492   7.021  13.321  1.00  0.00    -0.032 C 
HETATM   23  C28 UNL     1      -2.756   5.786  12.411  1.00  0.00     0.016 C 
ENDROOT
BRANCH   1  24
HETATM   24  C5  UNL     1      -5.172   7.036  13.738  1.00  0.00    -0.014 C 
HETATM   25  C6  UNL     1      -6.134   8.037  14.387  1.00  0.00     0.010 C 
BRANCH  24  26
HETATM   26  C4  UNL     1      -5.736   5.595  13.881  1.00  0.00     0.009 C 
BRANCH  26  27
HETATM   27  C3  UNL     1      -7.191   5.513  14.364  1.00  0.00     0.034 C 
BRANCH  27  28
HETATM   28  C2  UNL     1      -8.164   5.158  13.248  1.00  0.00    -0.083 C 
HETATM   29  C1  UNL     1      -8.200   3.893  12.788  1.00  0.00     0.015 C 
BRANCH  28  30
HETATM   30  C29 UNL     1      -9.040   6.297  12.707  1.00  0.00     0.034 C 
HETATM   31  C30 UNL     1      -9.402   6.034  11.240  1.00  0.00     0.017 C 
BRANCH  30  32
HETATM   32  C31 UNL     1     -10.340   6.585  13.492  1.00  0.00     0.187 C 
BRANCH  32  33
HETATM   33  O2  UNL     1     -11.077   7.635  12.844  1.00  0.00    -0.321 OA
BRANCH  33  34
HETATM   34  C32 UNL     1     -12.419   7.596  13.067  1.00  0.00     0.254 C 
HETATM   35  C33 UNL     1     -12.737   6.577  14.118  1.00  0.00     0.126 C 
HETATM   36  O3  UNL     1     -13.254   8.287  12.498  1.00  0.00    -0.266 OA
ENDBRANCH  33  34
ENDBRANCH  32  33
ENDBRANCH  30  32
ENDBRANCH  28  30
ENDBRANCH  27  28
ENDBRANCH  26  27
ENDBRANCH  24  26
ENDBRANCH   1  24
TORSDOF 8
ENDMDL
MODEL 5
REMARK minimizedAffinity -8.45429134
REMARK  8 active torsions:
REMARK  status: ('A' for Active; 'I' for Inactive)
REMARK    1  A    between atoms: C2_2  and  C3_3 
REMARK    2  A    between atoms: C2_2  and  C29_30 
REMARK    3  A    between atoms: C3_3  and  C4_4 
REMARK    4  A    between atoms: C4_4  and  C5_5 
REMARK    5  A    between atoms: C5_5  and  C7_7 
REMARK    6  A    between atoms: C29_30  and  C31_32 
REMARK    7  A    between atoms: C31_32  and  O2_33 
REMARK    8  A    between atoms: O2_33  and  C32_34 
ROOT
HETATM    1  C7  UNL     1      -2.354   3.970  12.547  1.00  0.00    -0.002 C 
HETATM    2  C8  UNL     1      -1.723   4.302  11.156  1.00  0.00     0.006 C 
HETATM    3  C9  UNL     1      -1.019   5.673  11.275  1.00  0.00     0.011 C 
HETATM    4  C10 UNL     1      -0.986   5.945  12.782  1.00  0.00    -0.032 C 
HETATM    5  C11 UNL     1       0.242   5.119  13.332  1.00  0.00     0.016 C 
HETATM    6  C12 UNL     1      -0.722   7.396  13.259  1.00  0.00     0.004 C 
HETATM    7  C13 UNL     1      -1.545   8.562  12.615  1.00  0.00     0.007 C 
HETATM    8  C14 UNL     1      -2.179   9.567  13.634  1.00  0.00     0.007 C 
HETATM    9  C15 UNL     1      -1.154   9.993  14.694  1.00  0.00     0.010 C 
HETATM   10  C16 UNL     1      -1.481  10.873  15.900  1.00  0.00     0.018 C 
HETATM   11  C17 UNL     1      -2.486  10.211  16.850  1.00  0.00     0.023 C 
HETATM   12  C18 UNL     1      -2.024  12.239  15.456  1.00  0.00     0.023 C 
HETATM   13  C19 UNL     1      -0.133  11.106  16.641  1.00  0.00     0.135 C 
HETATM   14  O1  UNL     1      -0.110  11.613  17.766  1.00  0.00    -0.297 OA
HETATM   15  C20 UNL     1       1.190  10.802  15.904  1.00  0.00     0.080 C 
HETATM   16  C21 UNL     1       1.192   9.511  15.045  1.00  0.00     0.018 C 
HETATM   17  C22 UNL     1      -0.194   8.897  15.115  1.00  0.00    -0.026 A 
HETATM   18  C23 UNL     1      -0.025   7.670  15.953  1.00  0.00     0.021 A 
HETATM   19  C24 UNL     1      -0.890   7.490  14.769  1.00  0.00    -0.027 A 
HETATM   20  C25 UNL     1      -2.210   6.868  15.291  1.00  0.00     0.011 C 
HETATM   21  C26 UNL     1      -2.443   5.428  14.771  1.00  0.00     0.011 C 
HETATM   22  C27 UNL     1      -2.391   5.375  13.234  1.00  0.00    -0.032 C 
HETATM   23  C28 UNL     1      -3.642   6.128  12.697  1.00  0.00     0.016 C 
ENDROOT
BRANCH   1  24
HETATM   24  C5  UNL     1      -3.647   3.116  12.413  1.00  0.00    -0.014 C 
HETATM   25  C6  UNL     1      -3.371   1.728  11.825  1.00  0.00     0.010 C 
BRANCH  24  26
HETATM   26  C4  UNL     1      -4.757   3.825  11.589  1.00  0.00     0.009 C 
BRANCH  26  27
HETATM   27  C3  UNL     1      -6.159   3.214  11.728  1.00  0.00     0.034 C 
BRANCH  27  28
HETATM   28  C2  UNL     1      -7.002   3.909  12.788  1.00  0.00    -0.083 C 
HETATM   29  C1  UNL     1      -7.478   3.190  13.822  1.00  0.00     0.015 C 
BRANCH  28  30
HETATM   30  C29 UNL     1      -7.268   5.408  12.587  1.00  0.00     0.034 C 
HETATM   31  C30 UNL     1      -8.688   5.626  12.052  1.00  0.00     0.017 C 
BRANCH  30  32
HETATM   32  C31 UNL     1      -7.064   6.306  13.828  1.00  0.00     0.187 C 
BRANCH  32  33
HETATM   33  O2  UNL     1      -8.322   6.507  14.494  1.00  0.00    -0.321 OA
BRANCH  33  34
HETATM   34  C32 UNL     1      -8.221   6.680  15.840  1.00  0.00     0.254 C 
HETATM   35  C33 UNL     1      -7.004   5.978  16.359  1.00  0.00     0.126 C 
HETATM   36  O3  UNL     1      -9.003   7.313  16.536  1.00  0.00    -0.266 OA
ENDBRANCH  33  34
ENDBRANCH  32  33
ENDBRANCH  30  32
ENDBRANCH  28  30
ENDBRANCH  27  28
ENDBRANCH  26  27
ENDBRANCH  24  26
ENDBRANCH   1  24
TORSDOF 8
ENDMDL
MODEL 6
REMARK minimizedAffinity -8.35046864
REMARK  8 active torsions:
REMARK  status: ('A' for Active; 'I' for Inactive)
REMARK    1  A    between atoms: C2_2  and  C3_3 
REMARK    2  A    between atoms: C2_2  and  C29_30 
REMARK    3  A    between atoms: C3_3  and  C4_4 
REMARK    4  A    between atoms: C4_4  and  C5_5 
REMARK    5  A    between atoms: C5_5  and  C7_7 
REMARK    6  A    between atoms: C29_30  and  C31_32 
REMARK    7  A    between atoms: C31_32  and  O2_33 
REMARK    8  A    between atoms: O2_33  and  C32_34 
ROOT
HETATM    1  C7  UNL     1      -3.308   9.876  16.871  1.00  0.00    -0.002 C 
HETATM    2  C8  UNL     1      -4.628  10.125  16.071  1.00  0.00     0.006 C 
HETATM    3  C9  UNL     1      -4.520   9.354  14.736  1.00  0.00     0.011 C 
HETATM    4  C10 UNL     1      -3.307   8.440  14.930  1.00  0.00    -0.032 C 
HETATM    5  C11 UNL     1      -3.839   7.203  15.754  1.00  0.00     0.016 C 
HETATM    6  C12 UNL     1      -2.651   7.815  13.672  1.00  0.00     0.004 C 
HETATM    7  C13 UNL     1      -2.319   8.744  12.456  1.00  0.00     0.007 C 
HETATM    8  C14 UNL     1      -0.874   8.584  11.877  1.00  0.00     0.007 C 
HETATM    9  C15 UNL     1      -0.520   7.102  11.689  1.00  0.00     0.010 C 
HETATM   10  C16 UNL     1       0.855   6.596  11.252  1.00  0.00     0.018 C 
HETATM   11  C17 UNL     1       1.951   6.934  12.269  1.00  0.00     0.023 C 
HETATM   12  C18 UNL     1       1.243   7.163   9.879  1.00  0.00     0.023 C 
HETATM   13  C19 UNL     1       0.723   5.052  11.118  1.00  0.00     0.135 C 
HETATM   14  O1  UNL     1       1.722   4.342  10.975  1.00  0.00    -0.297 OA
HETATM   15  C20 UNL     1      -0.687   4.423  11.047  1.00  0.00     0.080 C 
HETATM   16  C21 UNL     1      -1.737   5.034  12.011  1.00  0.00     0.018 C 
HETATM   17  C22 UNL     1      -1.080   6.183  12.756  1.00  0.00    -0.026 A 
HETATM   18  C23 UNL     1      -0.911   5.681  14.155  1.00  0.00     0.021 A 
HETATM   19  C24 UNL     1      -1.375   7.080  14.057  1.00  0.00    -0.027 A 
HETATM   20  C25 UNL     1      -0.414   7.916  14.939  1.00  0.00     0.011 C 
HETATM   21  C26 UNL     1      -1.116   8.540  16.169  1.00  0.00     0.011 C 
HETATM   22  C27 UNL     1      -2.334   9.380  15.751  1.00  0.00    -0.032 C 
HETATM   23  C28 UNL     1      -1.802  10.636  15.002  1.00  0.00     0.016 C 
ENDROOT
BRANCH   1  24
HETATM   24  C5  UNL     1      -2.933  11.086  17.772  1.00  0.00    -0.014 C 
HETATM   25  C6  UNL     1      -3.308  12.428  17.134  1.00  0.00     0.010 C 
BRANCH  24  26
HETATM   26  C4  UNL     1      -1.432  11.097  18.174  1.00  0.00     0.009 C 
BRANCH  26  27
HETATM   27  C3  UNL     1      -1.036  12.194  19.173  1.00  0.00     0.034 C 
BRANCH  27  28
HETATM   28  C2  UNL     1       0.460  12.220  19.457  1.00  0.00    -0.083 C 
HETATM   29  C1  UNL     1       1.092  13.407  19.533  1.00  0.00     0.015 C 
BRANCH  28  30
HETATM   30  C29 UNL     1       1.156  10.862  19.626  1.00  0.00     0.034 C 
HETATM   31  C30 UNL     1       2.146  10.629  18.478  1.00  0.00     0.017 C 
BRANCH  30  32
HETATM   32  C31 UNL     1       1.892  10.638  20.966  1.00  0.00     0.187 C 
BRANCH  32  33
HETATM   33  O2  UNL     1       2.393   9.292  21.026  1.00  0.00    -0.321 OA
BRANCH  33  34
HETATM   34  C32 UNL     1       2.262   8.700  22.245  1.00  0.00     0.254 C 
HETATM   35  C33 UNL     1       3.109   9.411  23.256  1.00  0.00     0.126 C 
HETATM   36  O3  UNL     1       1.560   7.729  22.491  1.00  0.00    -0.266 OA
ENDBRANCH  33  34
ENDBRANCH  32  33
ENDBRANCH  30  32
ENDBRANCH  28  30
ENDBRANCH  27  28
ENDBRANCH  26  27
ENDBRANCH  24  26
ENDBRANCH   1  24
TORSDOF 8
ENDMDL
MODEL 7
REMARK minimizedAffinity -8.3491869
REMARK  8 active torsions:
REMARK  status: ('A' for Active; 'I' for Inactive)
REMARK    1  A    between atoms: C2_2  and  C3_3 
REMARK    2  A    between atoms: C2_2  and  C29_30 
REMARK    3  A    between atoms: C3_3  and  C4_4 
REMARK    4  A    between atoms: C4_4  and  C5_5 
REMARK    5  A    between atoms: C5_5  and  C7_7 
REMARK    6  A    between atoms: C29_30  and  C31_32 
REMARK    7  A    between atoms: C31_32  and  O2_33 
REMARK    8  A    between atoms: O2_33  and  C32_34 
ROOT
HETATM    1  C7  UNL     1      -1.191   6.277  11.942  1.00  0.00    -0.002 C 
HETATM    2  C8  UNL     1      -1.916   7.448  12.681  1.00  0.00     0.006 C 
HETATM    3  C9  UNL     1      -0.844   8.492  13.069  1.00  0.00     0.011 C 
HETATM    4  C10 UNL     1       0.397   8.062  12.282  1.00  0.00    -0.032 C 
HETATM    5  C11 UNL     1       0.187   8.626  10.822  1.00  0.00     0.016 C 
HETATM    6  C12 UNL     1       1.773   8.625  12.720  1.00  0.00     0.004 C 
HETATM    7  C13 UNL     1       2.164   8.564  14.236  1.00  0.00     0.007 C 
HETATM    8  C14 UNL     1       3.593   7.997  14.529  1.00  0.00     0.007 C 
HETATM    9  C15 UNL     1       4.637   8.640  13.606  1.00  0.00     0.010 C 
HETATM   10  C16 UNL     1       6.108   8.225  13.553  1.00  0.00     0.018 C 
HETATM   11  C17 UNL     1       6.289   6.778  13.080  1.00  0.00     0.023 C 
HETATM   12  C18 UNL     1       6.782   8.401  14.921  1.00  0.00     0.023 C 
HETATM   13  C19 UNL     1       6.793   9.194  12.548  1.00  0.00     0.135 C 
HETATM   14  O1  UNL     1       7.939   8.979  12.143  1.00  0.00    -0.297 OA
HETATM   15  C20 UNL     1       6.066  10.498  12.149  1.00  0.00     0.080 C 
HETATM   16  C21 UNL     1       4.540  10.361  11.907  1.00  0.00     0.018 C 
HETATM   17  C22 UNL     1       4.143   8.925  12.202  1.00  0.00    -0.026 A 
HETATM   18  C23 UNL     1       3.842   8.331  10.863  1.00  0.00     0.021 A 
HETATM   19  C24 UNL     1       2.889   7.958  11.928  1.00  0.00    -0.027 A 
HETATM   20  C25 UNL     1       2.800   6.411  11.905  1.00  0.00     0.011 C 
HETATM   21  C26 UNL     1       1.403   5.895  11.484  1.00  0.00     0.011 C 
HETATM   22  C27 UNL     1       0.298   6.486  12.376  1.00  0.00    -0.032 C 
HETATM   23  C28 UNL     1       0.464   5.872  13.797  1.00  0.00     0.016 C 
ENDROOT
BRANCH   1  24
HETATM   24  C5  UNL     1      -1.901   4.912  12.172  1.00  0.00    -0.014 C 
HETATM   25  C6  UNL     1      -1.733   3.959  10.983  1.00  0.00     0.010 C 
BRANCH  24  26
HETATM   26  C4  UNL     1      -3.409   5.066  12.513  1.00  0.00     0.009 C 
BRANCH  26  27
HETATM   27  C3  UNL     1      -4.136   3.757  12.851  1.00  0.00     0.034 C 
BRANCH  27  28
HETATM   28  C2  UNL     1      -5.399   3.553  12.025  1.00  0.00    -0.083 C 
HETATM   29  C1  UNL     1      -5.298   3.012  10.796  1.00  0.00     0.015 C 
BRANCH  28  30
HETATM   30  C29 UNL     1      -6.721   4.003  12.662  1.00  0.00     0.034 C 
HETATM   31  C30 UNL     1      -7.549   2.780  13.079  1.00  0.00     0.017 C 
BRANCH  30  32
HETATM   32  C31 UNL     1      -6.602   4.954  13.873  1.00  0.00     0.187 C 
BRANCH  32  33
HETATM   33  O2  UNL     1      -7.913   5.287  14.361  1.00  0.00    -0.321 OA
BRANCH  33  34
HETATM   34  C32 UNL     1      -7.921   5.858  15.597  1.00  0.00     0.254 C 
HETATM   35  C33 UNL     1      -6.526   5.943  16.134  1.00  0.00     0.126 C 
HETATM   36  O3  UNL     1      -8.917   6.247  16.192  1.00  0.00    -0.266 OA
ENDBRANCH  33  34
ENDBRANCH  32  33
ENDBRANCH  30  32
ENDBRANCH  28  30
ENDBRANCH  27  28
ENDBRANCH  26  27
ENDBRANCH  24  26
ENDBRANCH   1  24
TORSDOF 8
ENDMDL
MODEL 8
REMARK minimizedAffinity -8.24224091
REMARK  8 active torsions:
REMARK  status: ('A' for Active; 'I' for Inactive)
REMARK    1  A    between atoms: C2_2  and  C3_3 
REMARK    2  A    between atoms: C2_2  and  C29_30 
REMARK    3  A    between atoms: C3_3  and  C4_4 
REMARK    4  A    between atoms: C4_4  and  C5_5 
REMARK    5  A    between atoms: C5_5  and  C7_7 
REMARK    6  A    between atoms: C29_30  and  C31_32 
REMARK    7  A    between atoms: C31_32  and  O2_33 
REMARK    8  A    between atoms: O2_33  and  C32_34 
ROOT
HETATM    1  C7  UNL     1      -7.210   6.185  13.592  1.00  0.00    -0.002 C 
HETATM    2  C8  UNL     1      -7.404   5.323  14.881  1.00  0.00     0.006 C 
HETATM    3  C9  UNL     1      -6.433   5.862  15.956  1.00  0.00     0.011 C 
HETATM    4  C10 UNL     1      -5.943   7.195  15.381  1.00  0.00    -0.032 C 
HETATM    5  C11 UNL     1      -7.085   8.237  15.701  1.00  0.00     0.016 C 
HETATM    6  C12 UNL     1      -4.662   7.826  15.984  1.00  0.00     0.004 C 
HETATM    7  C13 UNL     1      -3.393   6.926  16.167  1.00  0.00     0.007 C 
HETATM    8  C14 UNL     1      -2.060   7.546  15.631  1.00  0.00     0.007 C 
HETATM    9  C15 UNL     1      -1.907   9.001  16.095  1.00  0.00     0.010 C 
HETATM   10  C16 UNL     1      -0.775   9.929  15.651  1.00  0.00     0.018 C 
HETATM   11  C17 UNL     1      -0.804  10.203  14.143  1.00  0.00     0.023 C 
HETATM   12  C18 UNL     1       0.595   9.355  16.038  1.00  0.00     0.023 C 
HETATM   13  C19 UNL     1      -0.980  11.260  16.430  1.00  0.00     0.135 C 
HETATM   14  O1  UNL     1      -0.340  12.272  16.131  1.00  0.00    -0.297 OA
HETATM   15  C20 UNL     1      -1.912  11.272  17.662  1.00  0.00     0.080 C 
HETATM   16  C21 UNL     1      -3.222  10.455  17.514  1.00  0.00     0.018 C 
HETATM   17  C22 UNL     1      -3.205   9.781  16.154  1.00  0.00    -0.026 A 
HETATM   18  C23 UNL     1      -4.232  10.515  15.353  1.00  0.00     0.021 A 
HETATM   19  C24 UNL     1      -4.250   9.049  15.177  1.00  0.00    -0.027 A 
HETATM   20  C25 UNL     1      -4.190   8.797  13.649  1.00  0.00     0.011 C 
HETATM   21  C26 UNL     1      -5.480   8.145  13.095  1.00  0.00     0.011 C 
HETATM   22  C27 UNL     1      -5.813   6.844  13.844  1.00  0.00    -0.032 C 
HETATM   23  C28 UNL     1      -4.725   5.796  13.469  1.00  0.00     0.016 C 
ENDROOT
BRANCH   1  24
HETATM   24  C5  UNL     1      -7.482   5.369  12.296  1.00  0.00    -0.014 C 
HETATM   25  C6  UNL     1      -8.794   5.773  11.615  1.00  0.00     0.010 C 
BRANCH  24  26
HETATM   26  C4  UNL     1      -7.466   3.833  12.536  1.00  0.00     0.009 C 
BRANCH  26  27
HETATM   27  C3  UNL     1      -6.068   3.206  12.631  1.00  0.00     0.034 C 
BRANCH  27  28
HETATM   28  C2  UNL     1      -5.757   2.277  11.466  1.00  0.00    -0.083 C 
HETATM   29  C1  UNL     1      -6.430   1.117  11.354  1.00  0.00     0.015 C 
BRANCH  28  30
HETATM   30  C29 UNL     1      -4.664   2.736  10.490  1.00  0.00     0.034 C 
HETATM   31  C30 UNL     1      -5.278   3.582   9.368  1.00  0.00     0.017 C 
BRANCH  30  32
HETATM   32  C31 UNL     1      -3.485   3.519  11.109  1.00  0.00     0.187 C 
BRANCH  32  33
HETATM   33  O2  UNL     1      -2.285   3.266  10.360  1.00  0.00    -0.321 OA
BRANCH  33  34
HETATM   34  C32 UNL     1      -1.412   2.419  10.970  1.00  0.00     0.254 C 
HETATM   35  C33 UNL     1      -0.400   3.199  11.753  1.00  0.00     0.126 C 
HETATM   36  O3  UNL     1      -1.438   1.198  10.897  1.00  0.00    -0.266 OA
ENDBRANCH  33  34
ENDBRANCH  32  33
ENDBRANCH  30  32
ENDBRANCH  28  30
ENDBRANCH  27  28
ENDBRANCH  26  27
ENDBRANCH  24  26
ENDBRANCH   1  24
TORSDOF 8
ENDMDL
MODEL 9
REMARK minimizedAffinity -8.10256481
REMARK  8 active torsions:
REMARK  status: ('A' for Active; 'I' for Inactive)
REMARK    1  A    between atoms: C2_2  and  C3_3 
REMARK    2  A    between atoms: C2_2  and  C29_30 
REMARK    3  A    between atoms: C3_3  and  C4_4 
REMARK    4  A    between atoms: C4_4  and  C5_5 
REMARK    5  A    between atoms: C5_5  and  C7_7 
REMARK    6  A    between atoms: C29_30  and  C31_32 
REMARK    7  A    between atoms: C31_32  and  O2_33 
REMARK    8  A    between atoms: O2_33  and  C32_34 
ROOT
HETATM    1  C7  UNL     1      -1.911   7.197  13.291  1.00  0.00    -0.002 C 
HETATM    2  C8  UNL     1      -2.385   8.508  12.584  1.00  0.00     0.006 C 
HETATM    3  C9  UNL     1      -1.132   9.215  12.018  1.00  0.00     0.011 C 
HETATM    4  C10 UNL     1      -0.027   8.160  12.130  1.00  0.00    -0.032 C 
HETATM    5  C11 UNL     1      -0.219   7.214  10.881  1.00  0.00     0.016 C 
HETATM    6  C12 UNL     1       1.447   8.631  12.036  1.00  0.00     0.004 C 
HETATM    7  C13 UNL     1       1.905   9.850  12.907  1.00  0.00     0.007 C 
HETATM    8  C14 UNL     1       3.231   9.630  13.708  1.00  0.00     0.007 C 
HETATM    9  C15 UNL     1       4.317   9.015  12.813  1.00  0.00     0.010 C 
HETATM   10  C16 UNL     1       5.690   8.567  13.313  1.00  0.00     0.018 C 
HETATM   11  C17 UNL     1       5.596   7.421  14.327  1.00  0.00     0.023 C 
HETATM   12  C18 UNL     1       6.459   9.739  13.940  1.00  0.00     0.023 C 
HETATM   13  C19 UNL     1       6.472   8.092  12.056  1.00  0.00     0.135 C 
HETATM   14  O1  UNL     1       7.541   7.485  12.169  1.00  0.00    -0.297 OA
HETATM   15  C20 UNL     1       5.956   8.492  10.656  1.00  0.00     0.080 C 
HETATM   16  C21 UNL     1       4.418   8.421  10.469  1.00  0.00     0.018 C 
HETATM   17  C22 UNL     1       3.801   8.017  11.796  1.00  0.00    -0.026 A 
HETATM   18  C23 UNL     1       3.329   6.614  11.584  1.00  0.00     0.021 A 
HETATM   19  C24 UNL     1       2.387   7.471  12.332  1.00  0.00    -0.027 A 
HETATM   20  C25 UNL     1       2.036   6.697  13.628  1.00  0.00     0.011 C 
HETATM   21  C26 UNL     1       0.550   6.268  13.689  1.00  0.00     0.011 C 
HETATM   22  C27 UNL     1      -0.387   7.474  13.509  1.00  0.00    -0.032 C 
HETATM   23  C28 UNL     1      -0.249   8.368  14.776  1.00  0.00     0.016 C 
ENDROOT
BRANCH   1  24
HETATM   24  C5  UNL     1      -2.829   6.814  14.487  1.00  0.00    -0.014 C 
HETATM   25  C6  UNL     1      -2.296   7.341  15.824  1.00  0.00     0.010 C 
BRANCH  24  26
HETATM   26  C4  UNL     1      -3.082   5.284  14.588  1.00  0.00     0.009 C 
BRANCH  26  27
HETATM   27  C3  UNL     1      -3.048   4.531  13.251  1.00  0.00     0.034 C 
BRANCH  27  28
HETATM   28  C2  UNL     1      -4.435   4.142  12.758  1.00  0.00    -0.083 C 
HETATM   29  C1  UNL     1      -5.487   4.919  13.078  1.00  0.00     0.015 C 
BRANCH  28  30
HETATM   30  C29 UNL     1      -4.537   2.855  11.926  1.00  0.00     0.034 C 
HETATM   31  C30 UNL     1      -5.055   3.176  10.518  1.00  0.00     0.017 C 
BRANCH  30  32
HETATM   32  C31 UNL     1      -3.241   2.025  11.797  1.00  0.00     0.187 C 
BRANCH  32  33
HETATM   33  O2  UNL     1      -2.347   2.659  10.866  1.00  0.00    -0.321 OA
BRANCH  33  34
HETATM   34  C32 UNL     1      -1.042   2.302  11.012  1.00  0.00     0.254 C 
HETATM   35  C33 UNL     1      -0.868   0.848  10.695  1.00  0.00     0.126 C 
HETATM   36  O3  UNL     1      -0.135   3.050  11.351  1.00  0.00    -0.266 OA
ENDBRANCH  33  34
ENDBRANCH  32  33
ENDBRANCH  30  32
ENDBRANCH  28  30
ENDBRANCH  27  28
ENDBRANCH  26  27
ENDBRANCH  24  26
ENDBRANCH   1  24
TORSDOF 8
ENDMDL
