MODEL 1
REMARK minimizedAffinity -6.35069656
REMARK CNNscore 0.453723788
REMARK CNNaffinity 6.40151978
REMARK  12 active torsions:
REMARK  status: ('A' for Active; 'I' for Inactive)
REMARK    1  A    between atoms: C2_2  and  C3_3 
REMARK    2  A    between atoms: C3_3  and  O1_4 
REMARK    3  A    between atoms: C3_3  and  C5_6 
REMARK    4  A    between atoms: C5_6  and  C7_8 
REMARK    5  A    between atoms: C8_10  and  C10_12 
REMARK    6  A    between atoms: C10_12  and  C11_13 
REMARK    7  A    between atoms: C11_13  and  C13_15 
REMARK    8  A    between atoms: C14_16  and  C15_17 
REMARK    9  A    between atoms: C16_18  and  C18_20 
REMARK   10  A    between atoms: C19_22  and  C20_23 
REMARK   11  A    between atoms: C20_23  and  C21_24 
REMARK   12  A    between atoms: C21_24  and  O5_26 
ROOT
HETATM    1  C13 UNL     1      -1.134   8.970  13.654  1.00  0.00    -0.022 C 
HETATM    2  C14 UNL     1      -0.900   8.014  12.740  1.00  0.00    -0.003 C 
ENDROOT
BRANCH   2   3
HETATM    3  C15 UNL     1       0.335   7.930  11.990  1.00  0.00     0.005 C 
HETATM    4  C16 UNL     1       0.517   8.197  10.678  1.00  0.00    -0.055 C 
HETATM    5  C17 UNL     1      -0.574   8.673   9.745  1.00  0.00     0.046 C 
BRANCH   4   6
HETATM    6  C18 UNL     1       1.870   8.080   9.971  1.00  0.00     0.154 C 
HETATM    7  O3  UNL     1       2.762   7.555  10.972  1.00  0.00    -0.375 OA
HETATM    8  C19 UNL     1       4.057   7.243  10.461  1.00  0.00     0.132 C 
HETATM    9  C22 UNL     1       3.947   6.012   9.553  1.00  0.00     0.033 C 
HETATM   10  C23 UNL     1       2.577   5.894   8.885  1.00  0.00     0.009 C 
HETATM   11  C24 UNL     1       1.917   7.255   8.651  1.00  0.00     0.015 C 
HETATM   12  C25 UNL     1       2.640   8.027   7.535  1.00  0.00     0.012 C 
BRANCH   8  13
HETATM   13  C20 UNL     1       4.996   6.971  11.635  1.00  0.00     0.141 C 
BRANCH  13  14
HETATM   14  C21 UNL     1       6.324   7.645  11.434  1.00  0.00     0.141 C 
HETATM   15  O4  UNL     1       6.588   8.828  11.571  1.00  0.00    -0.650 OA
BRANCH  14  16
HETATM   16  O5  UNL     1       7.264   6.788  10.985  1.00  0.00    -0.776 OA
HETATM   17  H34 UNL     1       8.064   7.344  10.889  1.00  0.00     0.167 HD
ENDBRANCH  14  16
ENDBRANCH  13  14
ENDBRANCH   8  13
ENDBRANCH   4   6
ENDBRANCH   2   3
BRANCH   1  18
HETATM   18  C11 UNL     1      -2.407   9.111  14.464  1.00  0.00     0.007 C 
HETATM   19  C12 UNL     1      -2.681  10.585  14.799  1.00  0.00     0.014 C 
BRANCH  18  20
HETATM   20  C10 UNL     1      -3.637   8.478  13.778  1.00  0.00     0.048 C 
BRANCH  20  21
HETATM   21  C8  UNL     1      -4.264   7.338  14.555  1.00  0.00     0.085 A 
HETATM   22  C7  UNL     1      -5.649   6.857  14.101  1.00  0.00     0.163 A 
HETATM   23  O2  UNL     1      -5.467   7.702  15.245  1.00  0.00    -0.369 OA
HETATM   24  C9  UNL     1      -3.351   6.468  15.366  1.00  0.00     0.049 C 
BRANCH  22  25
HETATM   25  C5  UNL     1      -6.233   5.499  14.409  1.00  0.00     0.042 C 
HETATM   26  C6  UNL     1      -5.930   4.524  13.268  1.00  0.00     0.015 C 
BRANCH  25  27
HETATM   27  C3  UNL     1      -7.760   5.562  14.722  1.00  0.00     0.126 C 
BRANCH  27  28
HETATM   28  C2  UNL     1      -8.525   6.638  13.926  1.00  0.00     0.028 C 
HETATM   29  C1  UNL     1      -9.295   6.045  12.748  1.00  0.00     0.007 C 
ENDBRANCH  27  28
BRANCH  27  30
HETATM   30  O1  UNL     1      -8.011   5.806  16.114  1.00  0.00    -0.390 OA
HETATM   31  C4  UNL     1      -8.710   7.017  16.373  1.00  0.00     0.202 C 
ENDBRANCH  27  30
ENDBRANCH  25  27
ENDBRANCH  22  25
ENDBRANCH  20  21
ENDBRANCH  18  20
ENDBRANCH   1  18
TORSDOF 12
ENDMDL
MODEL 2
REMARK minimizedAffinity -6.95298338
REMARK CNNscore 0.363690287
REMARK CNNaffinity 6.34273195
REMARK  12 active torsions:
REMARK  status: ('A' for Active; 'I' for Inactive)
REMARK    1  A    between atoms: C2_2  and  C3_3 
REMARK    2  A    between atoms: C3_3  and  O1_4 
REMARK    3  A    between atoms: C3_3  and  C5_6 
REMARK    4  A    between atoms: C5_6  and  C7_8 
REMARK    5  A    between atoms: C8_10  and  C10_12 
REMARK    6  A    between atoms: C10_12  and  C11_13 
REMARK    7  A    between atoms: C11_13  and  C13_15 
REMARK    8  A    between atoms: C14_16  and  C15_17 
REMARK    9  A    between atoms: C16_18  and  C18_20 
REMARK   10  A    between atoms: C19_22  and  C20_23 
REMARK   11  A    between atoms: C20_23  and  C21_24 
REMARK   12  A    between atoms: C21_24  and  O5_26 
ROOT
HETATM    1  C13 UNL     1      -2.302   8.411  13.651  1.00  0.00    -0.022 C 
HETATM    2  C14 UNL     1      -1.147   7.738  13.529  1.00  0.00    -0.003 C 
ENDROOT
BRANCH   2   3
HETATM    3  C15 UNL     1      -0.340   7.775  12.328  1.00  0.00     0.005 C 
HETATM    4  C16 UNL     1       0.844   8.403  12.156  1.00  0.00    -0.055 C 
HETATM    5  C17 UNL     1       1.564   9.178  13.236  1.00  0.00     0.046 C 
BRANCH   4   6
HETATM    6  C18 UNL     1       1.627   8.383  10.841  1.00  0.00     0.154 C 
HETATM    7  O3  UNL     1       2.953   7.958  11.211  1.00  0.00    -0.375 OA
HETATM    8  C19 UNL     1       3.806   7.745  10.087  1.00  0.00     0.132 C 
HETATM    9  C22 UNL     1       3.338   6.488   9.343  1.00  0.00     0.033 C 
HETATM   10  C23 UNL     1       1.838   6.239   9.492  1.00  0.00     0.009 C 
HETATM   11  C24 UNL     1       1.042   7.534   9.673  1.00  0.00     0.015 C 
HETATM   12  C25 UNL     1       1.003   8.338   8.363  1.00  0.00     0.012 C 
BRANCH   8  13
HETATM   13  C20 UNL     1       5.241   7.581  10.586  1.00  0.00     0.141 C 
BRANCH  13  14
HETATM   14  C21 UNL     1       5.955   8.902  10.626  1.00  0.00     0.141 C 
HETATM   15  O4  UNL     1       5.631   9.942  10.077  1.00  0.00    -0.650 OA
BRANCH  14  16
HETATM   16  O5  UNL     1       7.115   8.829  11.311  1.00  0.00    -0.776 OA
HETATM   17  H34 UNL     1       7.479   9.737  11.255  1.00  0.00     0.167 HD
ENDBRANCH  14  16
ENDBRANCH  13  14
ENDBRANCH   8  13
ENDBRANCH   4   6
ENDBRANCH   2   3
BRANCH   1  18
HETATM   18  C11 UNL     1      -3.191   8.407  14.879  1.00  0.00     0.007 C 
HETATM   19  C12 UNL     1      -4.510   9.143  14.602  1.00  0.00     0.014 C 
BRANCH  18  20
HETATM   20  C10 UNL     1      -3.471   6.988  15.421  1.00  0.00     0.048 C 
BRANCH  20  21
HETATM   21  C8  UNL     1      -4.600   6.264  14.714  1.00  0.00     0.085 A 
HETATM   22  C7  UNL     1      -4.216   5.301  13.583  1.00  0.00     0.163 A 
HETATM   23  O2  UNL     1      -4.733   6.615  13.329  1.00  0.00    -0.369 OA
HETATM   24  C9  UNL     1      -5.911   6.159  15.432  1.00  0.00     0.049 C 
BRANCH  22  25
HETATM   25  C5  UNL     1      -5.087   4.175  13.077  1.00  0.00     0.042 C 
HETATM   26  C6  UNL     1      -4.736   3.852  11.622  1.00  0.00     0.015 C 
BRANCH  25  27
HETATM   27  C3  UNL     1      -6.609   4.471  13.250  1.00  0.00     0.126 C 
BRANCH  27  28
HETATM   28  C2  UNL     1      -7.414   3.307  13.861  1.00  0.00     0.028 C 
HETATM   29  C1  UNL     1      -7.626   2.168  12.868  1.00  0.00     0.007 C 
ENDBRANCH  27  28
BRANCH  27  30
HETATM   30  O1  UNL     1      -7.233   4.811  12.003  1.00  0.00    -0.390 OA
HETATM   31  C4  UNL     1      -8.344   5.689  12.132  1.00  0.00     0.202 C 
ENDBRANCH  27  30
ENDBRANCH  25  27
ENDBRANCH  22  25
ENDBRANCH  20  21
ENDBRANCH  18  20
ENDBRANCH   1  18
TORSDOF 12
ENDMDL
MODEL 3
REMARK minimizedAffinity -7.01328135
REMARK CNNscore 0.359468699
REMARK CNNaffinity 6.57280207
REMARK  12 active torsions:
REMARK  status: ('A' for Active; 'I' for Inactive)
REMARK    1  A    between atoms: C2_2  and  C3_3 
REMARK    2  A    between atoms: C3_3  and  O1_4 
REMARK    3  A    between atoms: C3_3  and  C5_6 
REMARK    4  A    between atoms: C5_6  and  C7_8 
REMARK    5  A    between atoms: C8_10  and  C10_12 
REMARK    6  A    between atoms: C10_12  and  C11_13 
REMARK    7  A    between atoms: C11_13  and  C13_15 
REMARK    8  A    between atoms: C14_16  and  C15_17 
REMARK    9  A    between atoms: C16_18  and  C18_20 
REMARK   10  A    between atoms: C19_22  and  C20_23 
REMARK   11  A    between atoms: C20_23  and  C21_24 
REMARK   12  A    between atoms: C21_24  and  O5_26 
ROOT
HETATM    1  C13 UNL     1      -1.320   6.142  12.860  1.00  0.00    -0.022 C 
HETATM    2  C14 UNL     1      -0.366   7.079  12.735  1.00  0.00    -0.003 C 
ENDROOT
BRANCH   2   3
HETATM    3  C15 UNL     1       0.717   6.975  11.781  1.00  0.00     0.005 C 
HETATM    4  C16 UNL     1       0.786   7.537  10.555  1.00  0.00    -0.055 C 
HETATM    5  C17 UNL     1      -0.284   8.426   9.962  1.00  0.00     0.046 C 
BRANCH   4   6
HETATM    6  C18 UNL     1       1.982   7.369   9.614  1.00  0.00     0.154 C 
HETATM    7  O3  UNL     1       2.099   5.946   9.421  1.00  0.00    -0.375 OA
HETATM    8  C19 UNL     1       3.086   5.591   8.454  1.00  0.00     0.132 C 
HETATM    9  C22 UNL     1       2.580   5.993   7.062  1.00  0.00     0.033 C 
HETATM   10  C23 UNL     1       1.638   7.196   7.102  1.00  0.00     0.009 C 
HETATM   11  C24 UNL     1       1.944   8.144   8.264  1.00  0.00     0.015 C 
HETATM   12  C25 UNL     1       3.258   8.903   8.017  1.00  0.00     0.012 C 
BRANCH   8  13
HETATM   13  C20 UNL     1       3.329   4.085   8.531  1.00  0.00     0.141 C 
BRANCH  13  14
HETATM   14  C21 UNL     1       4.773   3.784   8.821  1.00  0.00     0.141 C 
HETATM   15  O4  UNL     1       5.449   4.197   9.749  1.00  0.00    -0.650 OA
BRANCH  14  16
HETATM   16  O5  UNL     1       5.332   3.017   7.862  1.00  0.00    -0.776 OA
HETATM   17  H34 UNL     1       6.258   2.903   8.161  1.00  0.00     0.167 HD
ENDBRANCH  14  16
ENDBRANCH  13  14
ENDBRANCH   8  13
ENDBRANCH   4   6
ENDBRANCH   2   3
BRANCH   1  18
HETATM   18  C11 UNL     1      -2.474   6.194  13.842  1.00  0.00     0.007 C 
HETATM   19  C12 UNL     1      -2.128   5.436  15.132  1.00  0.00     0.014 C 
BRANCH  18  20
HETATM   20  C10 UNL     1      -2.927   7.634  14.170  1.00  0.00     0.048 C 
BRANCH  20  21
HETATM   21  C8  UNL     1      -4.429   7.832  14.151  1.00  0.00     0.085 A 
HETATM   22  C7  UNL     1      -5.297   6.590  13.905  1.00  0.00     0.163 A 
HETATM   23  O2  UNL     1      -5.033   7.557  12.879  1.00  0.00    -0.369 OA
HETATM   24  C9  UNL     1      -4.974   9.058  14.818  1.00  0.00     0.049 C 
BRANCH  22  25
HETATM   25  C5  UNL     1      -6.752   6.466  14.290  1.00  0.00     0.042 C 
HETATM   26  C6  UNL     1      -6.874   6.118  15.777  1.00  0.00     0.015 C 
BRANCH  25  27
HETATM   27  C3  UNL     1      -7.523   5.447  13.395  1.00  0.00     0.126 C 
BRANCH  27  28
HETATM   28  C2  UNL     1      -8.921   5.925  12.953  1.00  0.00     0.028 C 
HETATM   29  C1  UNL     1      -9.044   6.023  11.435  1.00  0.00     0.007 C 
ENDBRANCH  27  28
BRANCH  27  30
HETATM   30  O1  UNL     1      -7.695   4.181  14.051  1.00  0.00    -0.390 OA
HETATM   31  C4  UNL     1      -7.602   3.061  13.181  1.00  0.00     0.202 C 
ENDBRANCH  27  30
ENDBRANCH  25  27
ENDBRANCH  22  25
ENDBRANCH  20  21
ENDBRANCH  18  20
ENDBRANCH   1  18
TORSDOF 12
ENDMDL
MODEL 4
REMARK minimizedAffinity -7.86402035
REMARK CNNscore 0.318348169
REMARK CNNaffinity 6.3269639
REMARK  12 active torsions:
REMARK  status: ('A' for Active; 'I' for Inactive)
REMARK    1  A    between atoms: C2_2  and  C3_3 
REMARK    2  A    between atoms: C3_3  and  O1_4 
REMARK    3  A    between atoms: C3_3  and  C5_6 
REMARK    4  A    between atoms: C5_6  and  C7_8 
REMARK    5  A    between atoms: C8_10  and  C10_12 
REMARK    6  A    between atoms: C10_12  and  C11_13 
REMARK    7  A    between atoms: C11_13  and  C13_15 
REMARK    8  A    between atoms: C14_16  and  C15_17 
REMARK    9  A    between atoms: C16_18  and  C18_20 
REMARK   10  A    between atoms: C19_22  and  C20_23 
REMARK   11  A    between atoms: C20_23  and  C21_24 
REMARK   12  A    between atoms: C21_24  and  O5_26 
ROOT
HETATM    1  C13 UNL     1      -1.386   5.347  13.669  1.00  0.00    -0.022 C 
HETATM    2  C14 UNL     1      -2.470   5.847  13.054  1.00  0.00    -0.003 C 
ENDROOT
BRANCH   2   3
HETATM    3  C15 UNL     1      -3.821   5.543  13.474  1.00  0.00     0.005 C 
HETATM    4  C16 UNL     1      -4.630   4.574  12.993  1.00  0.00    -0.055 C 
HETATM    5  C17 UNL     1      -4.234   3.589  11.916  1.00  0.00     0.046 C 
BRANCH   4   6
HETATM    6  C18 UNL     1      -6.052   4.329  13.505  1.00  0.00     0.154 C 
HETATM    7  O3  UNL     1      -6.351   5.479  14.319  1.00  0.00    -0.375 OA
HETATM    8  C19 UNL     1      -7.701   5.501  14.782  1.00  0.00     0.132 C 
HETATM    9  C22 UNL     1      -8.626   5.787  13.593  1.00  0.00     0.033 C 
HETATM   10  C23 UNL     1      -8.055   5.284  12.267  1.00  0.00     0.009 C 
HETATM   11  C24 UNL     1      -7.157   4.058  12.442  1.00  0.00     0.015 C 
HETATM   12  C25 UNL     1      -7.991   2.818  12.806  1.00  0.00     0.012 C 
BRANCH   8  13
HETATM   13  C20 UNL     1      -7.835   6.585  15.850  1.00  0.00     0.141 C 
BRANCH  13  14
HETATM   14  C21 UNL     1      -6.875   7.714  15.600  1.00  0.00     0.141 C 
HETATM   15  O4  UNL     1      -7.085   8.749  14.990  1.00  0.00    -0.650 OA
BRANCH  14  16
HETATM   16  O5  UNL     1      -5.643   7.446  16.079  1.00  0.00    -0.776 OA
HETATM   17  H34 UNL     1      -5.122   8.242  15.848  1.00  0.00     0.167 HD
ENDBRANCH  14  16
ENDBRANCH  13  14
ENDBRANCH   8  13
ENDBRANCH   4   6
ENDBRANCH   2   3
BRANCH   1  18
HETATM   18  C11 UNL     1       0.051   5.625  13.273  1.00  0.00     0.007 C 
HETATM   19  C12 UNL     1       0.263   5.370  11.773  1.00  0.00     0.014 C 
BRANCH  18  20
HETATM   20  C10 UNL     1       0.520   7.047  13.649  1.00  0.00     0.048 C 
BRANCH  20  21
HETATM   21  C8  UNL     1       1.289   7.757  12.553  1.00  0.00     0.085 A 
HETATM   22  C7  UNL     1       1.080   7.262  11.115  1.00  0.00     0.163 A 
HETATM   23  O2  UNL     1       2.244   6.923  11.883  1.00  0.00    -0.369 OA
HETATM   24  C9  UNL     1       1.803   9.134  12.848  1.00  0.00     0.049 C 
BRANCH  22  25
HETATM   25  C5  UNL     1       1.362   8.075   9.874  1.00  0.00     0.042 C 
HETATM   26  C6  UNL     1       0.059   8.349   9.118  1.00  0.00     0.015 C 
BRANCH  25  27
HETATM   27  C3  UNL     1       2.433   7.411   8.954  1.00  0.00     0.126 C 
BRANCH  27  28
HETATM   28  C2  UNL     1       2.514   8.017   7.539  1.00  0.00     0.028 C 
HETATM   29  C1  UNL     1       1.843   7.132   6.492  1.00  0.00     0.007 C 
ENDBRANCH  27  28
BRANCH  27  30
HETATM   30  O1  UNL     1       2.206   6.002   8.800  1.00  0.00    -0.390 OA
HETATM   31  C4  UNL     1       3.344   5.198   9.083  1.00  0.00     0.202 C 
ENDBRANCH  27  30
ENDBRANCH  25  27
ENDBRANCH  22  25
ENDBRANCH  20  21
ENDBRANCH  18  20
ENDBRANCH   1  18
TORSDOF 12
ENDMDL
MODEL 5
REMARK minimizedAffinity -7.7076292
REMARK CNNscore 0.315259397
REMARK CNNaffinity 6.39077616
REMARK  12 active torsions:
REMARK  status: ('A' for Active; 'I' for Inactive)
REMARK    1  A    between atoms: C2_2  and  C3_3 
REMARK    2  A    between atoms: C3_3  and  O1_4 
REMARK    3  A    between atoms: C3_3  and  C5_6 
REMARK    4  A    between atoms: C5_6  and  C7_8 
REMARK    5  A    between atoms: C8_10  and  C10_12 
REMARK    6  A    between atoms: C10_12  and  C11_13 
REMARK    7  A    between atoms: C11_13  and  C13_15 
REMARK    8  A    between atoms: C14_16  and  C15_17 
REMARK    9  A    between atoms: C16_18  and  C18_20 
REMARK   10  A    between atoms: C19_22  and  C20_23 
REMARK   11  A    between atoms: C20_23  and  C21_24 
REMARK   12  A    between atoms: C21_24  and  O5_26 
ROOT
HETATM    1  C13 UNL     1      -1.125   8.877  12.626  1.00  0.00    -0.022 C 
HETATM    2  C14 UNL     1      -0.540   7.779  12.120  1.00  0.00    -0.003 C 
ENDROOT
BRANCH   2   3
HETATM    3  C15 UNL     1       0.425   7.828  11.043  1.00  0.00     0.005 C 
HETATM    4  C16 UNL     1       1.196   6.818  10.587  1.00  0.00    -0.055 C 
HETATM    5  C17 UNL     1       1.158   5.405  11.126  1.00  0.00     0.046 C 
BRANCH   4   6
HETATM    6  C18 UNL     1       2.193   6.968   9.435  1.00  0.00     0.154 C 
HETATM    7  O3  UNL     1       2.308   5.646   8.875  1.00  0.00    -0.375 OA
HETATM    8  C19 UNL     1       3.099   5.607   7.688  1.00  0.00     0.132 C 
HETATM    9  C22 UNL     1       2.325   6.293   6.556  1.00  0.00     0.033 C 
HETATM   10  C23 UNL     1       1.377   7.378   7.063  1.00  0.00     0.009 C 
HETATM   11  C24 UNL     1       1.875   8.040   8.350  1.00  0.00     0.015 C 
HETATM   12  C25 UNL     1       3.097   8.930   8.069  1.00  0.00     0.012 C 
BRANCH   8  13
HETATM   13  C20 UNL     1       3.393   4.149   7.342  1.00  0.00     0.141 C 
BRANCH  13  14
HETATM   14  C21 UNL     1       4.261   3.508   8.389  1.00  0.00     0.141 C 
HETATM   15  O4  UNL     1       5.426   3.162   8.282  1.00  0.00    -0.650 OA
BRANCH  14  16
HETATM   16  O5  UNL     1       3.580   3.256   9.526  1.00  0.00    -0.776 OA
HETATM   17  H34 UNL     1       4.244   2.838  10.112  1.00  0.00     0.167 HD
ENDBRANCH  14  16
ENDBRANCH  13  14
ENDBRANCH   8  13
ENDBRANCH   4   6
ENDBRANCH   2   3
BRANCH   1  18
HETATM   18  C11 UNL     1      -2.144   8.887  13.748  1.00  0.00     0.007 C 
HETATM   19  C12 UNL     1      -2.409  10.320  14.233  1.00  0.00     0.014 C 
BRANCH  18  20
HETATM   20  C10 UNL     1      -3.471   8.194  13.368  1.00  0.00     0.048 C 
BRANCH  20  21
HETATM   21  C8  UNL     1      -3.563   6.745  13.805  1.00  0.00     0.085 A 
HETATM   22  C7  UNL     1      -4.302   5.777  12.872  1.00  0.00     0.163 A 
HETATM   23  O2  UNL     1      -4.903   6.304  14.063  1.00  0.00    -0.369 OA
HETATM   24  C9  UNL     1      -2.569   6.264  14.819  1.00  0.00     0.049 C 
BRANCH  22  25
HETATM   25  C5  UNL     1      -4.123   4.277  12.869  1.00  0.00     0.042 C 
HETATM   26  C6  UNL     1      -3.197   3.861  11.723  1.00  0.00     0.015 C 
BRANCH  25  27
HETATM   27  C3  UNL     1      -5.482   3.512  12.819  1.00  0.00     0.126 C 
BRANCH  27  28
HETATM   28  C2  UNL     1      -5.898   3.055  11.406  1.00  0.00     0.028 C 
HETATM   29  C1  UNL     1      -5.897   1.535  11.268  1.00  0.00     0.007 C 
ENDBRANCH  27  28
BRANCH  27  30
HETATM   30  O1  UNL     1      -6.560   4.301  13.345  1.00  0.00    -0.390 OA
HETATM   31  C4  UNL     1      -7.593   4.568  12.406  1.00  0.00     0.202 C 
ENDBRANCH  27  30
ENDBRANCH  25  27
ENDBRANCH  22  25
ENDBRANCH  20  21
ENDBRANCH  18  20
ENDBRANCH   1  18
TORSDOF 12
ENDMDL
MODEL 6
REMARK minimizedAffinity -6.69169617
REMARK CNNscore 0.300292462
REMARK CNNaffinity 6.29009628
REMARK  12 active torsions:
REMARK  status: ('A' for Active; 'I' for Inactive)
REMARK    1  A    between atoms: C2_2  and  C3_3 
REMARK    2  A    between atoms: C3_3  and  O1_4 
REMARK    3  A    between atoms: C3_3  and  C5_6 
REMARK    4  A    between atoms: C5_6  and  C7_8 
REMARK    5  A    between atoms: C8_10  and  C10_12 
REMARK    6  A    between atoms: C10_12  and  C11_13 
REMARK    7  A    between atoms: C11_13  and  C13_15 
REMARK    8  A    between atoms: C14_16  and  C15_17 
REMARK    9  A    between atoms: C16_18  and  C18_20 
REMARK   10  A    between atoms: C19_22  and  C20_23 
REMARK   11  A    between atoms: C20_23  and  C21_24 
REMARK   12  A    between atoms: C21_24  and  O5_26 
ROOT
HETATM    1  C13 UNL     1      -1.725   8.275  13.090  1.00  0.00    -0.022 C 
HETATM    2  C14 UNL     1      -1.612   7.325  12.148  1.00  0.00    -0.003 C 
ENDROOT
BRANCH   2   3
HETATM    3  C15 UNL     1      -0.453   7.202  11.290  1.00  0.00     0.005 C 
HETATM    4  C16 UNL     1       0.692   7.915  11.355  1.00  0.00    -0.055 C 
HETATM    5  C17 UNL     1       0.978   8.979  12.390  1.00  0.00     0.046 C 
BRANCH   4   6
HETATM    6  C18 UNL     1       1.869   7.710  10.397  1.00  0.00     0.154 C 
HETATM    7  O3  UNL     1       3.041   7.907  11.211  1.00  0.00    -0.375 OA
HETATM    8  C19 UNL     1       4.257   7.621  10.521  1.00  0.00     0.132 C 
HETATM    9  C22 UNL     1       4.356   6.107  10.300  1.00  0.00     0.033 C 
HETATM   10  C23 UNL     1       2.987   5.437  10.187  1.00  0.00     0.009 C 
HETATM   11  C24 UNL     1       1.922   6.371   9.605  1.00  0.00     0.015 C 
HETATM   12  C25 UNL     1       2.171   6.616   8.107  1.00  0.00     0.012 C 
BRANCH   8  13
HETATM   13  C20 UNL     1       5.429   8.127  11.361  1.00  0.00     0.141 C 
BRANCH  13  14
HETATM   14  C21 UNL     1       6.484   7.068  11.513  1.00  0.00     0.141 C 
HETATM   15  O4  UNL     1       6.677   6.341  12.473  1.00  0.00    -0.650 OA
BRANCH  14  16
HETATM   16  O5  UNL     1       7.315   7.025  10.451  1.00  0.00    -0.776 OA
HETATM   17  H34 UNL     1       7.948   6.313  10.676  1.00  0.00     0.167 HD
ENDBRANCH  14  16
ENDBRANCH  13  14
ENDBRANCH   8  13
ENDBRANCH   4   6
ENDBRANCH   2   3
BRANCH   1  18
HETATM   18  C11 UNL     1      -2.914   8.456  14.013  1.00  0.00     0.007 C 
HETATM   19  C12 UNL     1      -2.929   9.869  14.615  1.00  0.00     0.014 C 
BRANCH  18  20
HETATM   20  C10 UNL     1      -4.264   8.149  13.329  1.00  0.00     0.048 C 
BRANCH  20  21
HETATM   21  C8  UNL     1      -5.029   6.999  13.954  1.00  0.00     0.085 A 
HETATM   22  C7  UNL     1      -6.435   7.301  14.490  1.00  0.00     0.163 A 
HETATM   23  O2  UNL     1      -5.296   7.174  15.352  1.00  0.00    -0.369 OA
HETATM   24  C9  UNL     1      -4.601   5.608  13.597  1.00  0.00     0.049 C 
BRANCH  22  25
HETATM   25  C5  UNL     1      -7.512   6.267  14.716  1.00  0.00     0.042 C 
HETATM   26  C6  UNL     1      -7.223   5.478  15.997  1.00  0.00     0.015 C 
BRANCH  25  27
HETATM   27  C3  UNL     1      -7.703   5.323  13.489  1.00  0.00     0.126 C 
BRANCH  27  28
HETATM   28  C2  UNL     1      -8.908   5.681  12.597  1.00  0.00     0.028 C 
HETATM   29  C1  UNL     1      -9.931   6.545  13.329  1.00  0.00     0.007 C 
ENDBRANCH  27  28
BRANCH  27  30
HETATM   30  O1  UNL     1      -7.860   3.953  13.888  1.00  0.00    -0.390 OA
HETATM   31  C4  UNL     1      -7.555   3.014  12.865  1.00  0.00     0.202 C 
ENDBRANCH  27  30
ENDBRANCH  25  27
ENDBRANCH  22  25
ENDBRANCH  20  21
ENDBRANCH  18  20
ENDBRANCH   1  18
TORSDOF 12
ENDMDL
MODEL 7
REMARK minimizedAffinity -7.71908569
REMARK CNNscore 0.293700367
REMARK CNNaffinity 6.07244873
REMARK  12 active torsions:
REMARK  status: ('A' for Active; 'I' for Inactive)
REMARK    1  A    between atoms: C2_2  and  C3_3 
REMARK    2  A    between atoms: C3_3  and  O1_4 
REMARK    3  A    between atoms: C3_3  and  C5_6 
REMARK    4  A    between atoms: C5_6  and  C7_8 
REMARK    5  A    between atoms: C8_10  and  C10_12 
REMARK    6  A    between atoms: C10_12  and  C11_13 
REMARK    7  A    between atoms: C11_13  and  C13_15 
REMARK    8  A    between atoms: C14_16  and  C15_17 
REMARK    9  A    between atoms: C16_18  and  C18_20 
REMARK   10  A    between atoms: C19_22  and  C20_23 
REMARK   11  A    between atoms: C20_23  and  C21_24 
REMARK   12  A    between atoms: C21_24  and  O5_26 
ROOT
HETATM    1  C13 UNL     1      -2.096   7.900  13.633  1.00  0.00    -0.022 C 
HETATM    2  C14 UNL     1      -3.210   7.780  12.893  1.00  0.00    -0.003 C 
ENDROOT
BRANCH   2   3
HETATM    3  C15 UNL     1      -4.429   7.183  13.398  1.00  0.00     0.005 C 
HETATM    4  C16 UNL     1      -4.826   5.899  13.268  1.00  0.00    -0.055 C 
HETATM    5  C17 UNL     1      -4.022   4.823  12.573  1.00  0.00     0.046 C 
BRANCH   4   6
HETATM    6  C18 UNL     1      -6.139   5.359  13.841  1.00  0.00     0.154 C 
HETATM    7  O3  UNL     1      -6.712   6.471  14.555  1.00  0.00    -0.375 OA
HETATM    8  C19 UNL     1      -8.022   6.202  15.053  1.00  0.00     0.132 C 
HETATM    9  C22 UNL     1      -8.996   6.135  13.870  1.00  0.00     0.033 C 
HETATM   10  C23 UNL     1      -8.324   5.665  12.580  1.00  0.00     0.009 C 
HETATM   11  C24 UNL     1      -7.147   4.722  12.839  1.00  0.00     0.015 C 
HETATM   12  C25 UNL     1      -7.644   3.355  13.339  1.00  0.00     0.012 C 
BRANCH   8  13
HETATM   13  C20 UNL     1      -8.417   7.315  16.021  1.00  0.00     0.141 C 
BRANCH  13  14
HETATM   14  C21 UNL     1      -8.461   8.647  15.327  1.00  0.00     0.141 C 
HETATM   15  O4  UNL     1      -9.447   9.305  15.038  1.00  0.00    -0.650 OA
BRANCH  14  16
HETATM   16  O5  UNL     1      -7.233   9.063  14.953  1.00  0.00    -0.776 OA
HETATM   17  H34 UNL     1      -7.399   9.922  14.513  1.00  0.00     0.167 HD
ENDBRANCH  14  16
ENDBRANCH  13  14
ENDBRANCH   8  13
ENDBRANCH   4   6
ENDBRANCH   2   3
BRANCH   1  18
HETATM   18  C11 UNL     1      -0.792   8.510  13.159  1.00  0.00     0.007 C 
HETATM   19  C12 UNL     1       0.410   7.759  13.751  1.00  0.00     0.014 C 
BRANCH  18  20
HETATM   20  C10 UNL     1      -0.679   8.578  11.620  1.00  0.00     0.048 C 
BRANCH  20  21
HETATM   21  C8  UNL     1       0.284   7.572  11.023  1.00  0.00     0.085 A 
HETATM   22  C7  UNL     1       1.596   8.117  10.442  1.00  0.00     0.163 A 
HETATM   23  O2  UNL     1       0.490   7.736   9.613  1.00  0.00    -0.369 OA
HETATM   24  C9  UNL     1       0.140   6.141  11.443  1.00  0.00     0.049 C 
BRANCH  22  25
HETATM   25  C5  UNL     1       2.850   7.301  10.231  1.00  0.00     0.042 C 
HETATM   26  C6  UNL     1       4.056   8.025  10.838  1.00  0.00     0.015 C 
BRANCH  25  27
HETATM   27  C3  UNL     1       3.087   6.946   8.731  1.00  0.00     0.126 C 
BRANCH  27  28
HETATM   28  C2  UNL     1       2.377   7.887   7.738  1.00  0.00     0.028 C 
HETATM   29  C1  UNL     1       1.895   7.152   6.490  1.00  0.00     0.007 C 
ENDBRANCH  27  28
BRANCH  27  30
HETATM   30  O1  UNL     1       2.665   5.608   8.425  1.00  0.00    -0.390 OA
HETATM   31  C4  UNL     1       3.383   4.600   9.125  1.00  0.00     0.202 C 
ENDBRANCH  27  30
ENDBRANCH  25  27
ENDBRANCH  22  25
ENDBRANCH  20  21
ENDBRANCH  18  20
ENDBRANCH   1  18
TORSDOF 12
ENDMDL
MODEL 8
REMARK minimizedAffinity -7.49623537
REMARK CNNscore 0.268921107
REMARK CNNaffinity 6.30339766
REMARK  12 active torsions:
REMARK  status: ('A' for Active; 'I' for Inactive)
REMARK    1  A    between atoms: C2_2  and  C3_3 
REMARK    2  A    between atoms: C3_3  and  O1_4 
REMARK    3  A    between atoms: C3_3  and  C5_6 
REMARK    4  A    between atoms: C5_6  and  C7_8 
REMARK    5  A    between atoms: C8_10  and  C10_12 
REMARK    6  A    between atoms: C10_12  and  C11_13 
REMARK    7  A    between atoms: C11_13  and  C13_15 
REMARK    8  A    between atoms: C14_16  and  C15_17 
REMARK    9  A    between atoms: C16_18  and  C18_20 
REMARK   10  A    between atoms: C19_22  and  C20_23 
REMARK   11  A    between atoms: C20_23  and  C21_24 
REMARK   12  A    between atoms: C21_24  and  O5_26 
ROOT
HETATM    1  C13 UNL     1      -2.107   6.737  14.404  1.00  0.00    -0.022 C 
HETATM    2  C14 UNL     1      -2.967   6.727  13.373  1.00  0.00    -0.003 C 
ENDROOT
BRANCH   2   3
HETATM    3  C15 UNL     1      -4.282   6.129  13.451  1.00  0.00     0.005 C 
HETATM    4  C16 UNL     1      -5.328   6.544  14.199  1.00  0.00    -0.055 C 
HETATM    5  C17 UNL     1      -5.308   7.766  15.090  1.00  0.00     0.046 C 
BRANCH   4   6
HETATM    6  C18 UNL     1      -6.688   5.841  14.215  1.00  0.00     0.154 C 
HETATM    7  O3  UNL     1      -7.650   6.902  14.064  1.00  0.00    -0.375 OA
HETATM    8  C19 UNL     1      -8.988   6.429  13.917  1.00  0.00     0.132 C 
HETATM    9  C22 UNL     1      -9.129   5.765  12.542  1.00  0.00     0.033 C 
HETATM   10  C23 UNL     1      -7.817   5.160  12.042  1.00  0.00     0.009 C 
HETATM   11  C24 UNL     1      -6.911   4.695  13.185  1.00  0.00     0.015 C 
HETATM   12  C25 UNL     1      -7.488   3.440  13.861  1.00  0.00     0.012 C 
BRANCH   8  13
HETATM   13  C20 UNL     1      -9.945   7.612  14.052  1.00  0.00     0.141 C 
BRANCH  13  14
HETATM   14  C21 UNL     1     -11.373   7.177  13.878  1.00  0.00     0.141 C 
HETATM   15  O4  UNL     1     -12.186   7.594  13.070  1.00  0.00    -0.650 OA
BRANCH  14  16
HETATM   16  O5  UNL     1     -11.741   6.268  14.804  1.00  0.00    -0.776 OA
HETATM   17  H34 UNL     1     -12.677   6.078  14.588  1.00  0.00     0.167 HD
ENDBRANCH  14  16
ENDBRANCH  13  14
ENDBRANCH   8  13
ENDBRANCH   4   6
ENDBRANCH   2   3
BRANCH   1  18
HETATM   18  C11 UNL     1      -0.718   7.343  14.380  1.00  0.00     0.007 C 
HETATM   19  C12 UNL     1      -0.148   7.460  15.801  1.00  0.00     0.014 C 
BRANCH  18  20
HETATM   20  C10 UNL     1       0.263   6.573  13.468  1.00  0.00     0.048 C 
BRANCH  20  21
HETATM   21  C8  UNL     1       1.033   7.452  12.503  1.00  0.00     0.085 A 
HETATM   22  C7  UNL     1       1.046   7.029  11.027  1.00  0.00     0.163 A 
HETATM   23  O2  UNL     1       2.160   6.801  11.902  1.00  0.00    -0.369 OA
HETATM   24  C9  UNL     1       1.314   8.863  12.924  1.00  0.00     0.049 C 
BRANCH  22  25
HETATM   25  C5  UNL     1       1.337   7.954   9.869  1.00  0.00     0.042 C 
HETATM   26  C6  UNL     1       0.036   8.315   9.145  1.00  0.00     0.015 C 
BRANCH  25  27
HETATM   27  C3  UNL     1       2.398   7.367   8.887  1.00  0.00     0.126 C 
BRANCH  27  28
HETATM   28  C2  UNL     1       2.379   8.002   7.482  1.00  0.00     0.028 C 
HETATM   29  C1  UNL     1       1.838   7.044   6.424  1.00  0.00     0.007 C 
ENDBRANCH  27  28
BRANCH  27  30
HETATM   30  O1  UNL     1       2.244   5.951   8.716  1.00  0.00    -0.390 OA
HETATM   31  C4  UNL     1       3.407   5.199   9.036  1.00  0.00     0.202 C 
ENDBRANCH  27  30
ENDBRANCH  25  27
ENDBRANCH  22  25
ENDBRANCH  20  21
ENDBRANCH  18  20
ENDBRANCH   1  18
TORSDOF 12
ENDMDL
MODEL 9
REMARK minimizedAffinity -7.74662781
REMARK CNNscore 0.24289313
REMARK CNNaffinity 6.12013435
REMARK  12 active torsions:
REMARK  status: ('A' for Active; 'I' for Inactive)
REMARK    1  A    between atoms: C2_2  and  C3_3 
REMARK    2  A    between atoms: C3_3  and  O1_4 
REMARK    3  A    between atoms: C3_3  and  C5_6 
REMARK    4  A    between atoms: C5_6  and  C7_8 
REMARK    5  A    between atoms: C8_10  and  C10_12 
REMARK    6  A    between atoms: C10_12  and  C11_13 
REMARK    7  A    between atoms: C11_13  and  C13_15 
REMARK    8  A    between atoms: C14_16  and  C15_17 
REMARK    9  A    between atoms: C16_18  and  C18_20 
REMARK   10  A    between atoms: C19_22  and  C20_23 
REMARK   11  A    between atoms: C20_23  and  C21_24 
REMARK   12  A    between atoms: C21_24  and  O5_26 
ROOT
HETATM    1  C13 UNL     1      -4.447   4.045  11.628  1.00  0.00    -0.022 C 
HETATM    2  C14 UNL     1      -3.131   3.803  11.742  1.00  0.00    -0.003 C 
ENDROOT
BRANCH   2   3
HETATM    3  C15 UNL     1      -2.139   4.857  11.779  1.00  0.00     0.005 C 
HETATM    4  C16 UNL     1      -0.795   4.717  11.786  1.00  0.00    -0.055 C 
HETATM    5  C17 UNL     1      -0.075   3.388  11.725  1.00  0.00     0.046 C 
BRANCH   4   6
HETATM    6  C18 UNL     1       0.177   5.898  11.825  1.00  0.00     0.154 C 
HETATM    7  O3  UNL     1       1.347   5.434  11.124  1.00  0.00    -0.375 OA
HETATM    8  C19 UNL     1       2.327   6.452  10.933  1.00  0.00     0.132 C 
HETATM    9  C22 UNL     1       1.801   7.458   9.903  1.00  0.00     0.033 C 
HETATM   10  C23 UNL     1       0.275   7.557   9.902  1.00  0.00     0.009 C 
HETATM   11  C24 UNL     1      -0.334   7.263  11.274  1.00  0.00     0.015 C 
HETATM   12  C25 UNL     1      -0.040   8.408  12.259  1.00  0.00     0.012 C 
BRANCH   8  13
HETATM   13  C20 UNL     1       3.622   5.802  10.448  1.00  0.00     0.141 C 
BRANCH  13  14
HETATM   14  C21 UNL     1       3.342   4.727   9.435  1.00  0.00     0.141 C 
HETATM   15  O4  UNL     1       3.295   4.840   8.221  1.00  0.00    -0.650 OA
BRANCH  14  16
HETATM   16  O5  UNL     1       3.052   3.546  10.019  1.00  0.00    -0.776 OA
HETATM   17  H34 UNL     1       2.884   2.945   9.264  1.00  0.00     0.167 HD
ENDBRANCH  14  16
ENDBRANCH  13  14
ENDBRANCH   8  13
ENDBRANCH   4   6
ENDBRANCH   2   3
BRANCH   1  18
HETATM   18  C11 UNL     1      -5.529   2.985  11.579  1.00  0.00     0.007 C 
HETATM   19  C12 UNL     1      -4.915   1.580  11.494  1.00  0.00     0.014 C 
BRANCH  18  20
HETATM   20  C10 UNL     1      -6.515   3.071  12.765  1.00  0.00     0.048 C 
BRANCH  20  21
HETATM   21  C8  UNL     1      -7.013   4.472  13.059  1.00  0.00     0.085 A 
HETATM   22  C7  UNL     1      -6.140   5.351  13.965  1.00  0.00     0.163 A 
HETATM   23  O2  UNL     1      -7.324   4.696  14.441  1.00  0.00    -0.369 OA
HETATM   24  C9  UNL     1      -8.019   5.061  12.117  1.00  0.00     0.049 C 
BRANCH  22  25
HETATM   25  C5  UNL     1      -6.194   6.859  14.013  1.00  0.00     0.042 C 
HETATM   26  C6  UNL     1      -5.116   7.453  13.102  1.00  0.00     0.015 C 
BRANCH  25  27
HETATM   27  C3  UNL     1      -6.090   7.416  15.467  1.00  0.00     0.126 C 
BRANCH  27  28
HETATM   28  C2  UNL     1      -7.258   7.008  16.385  1.00  0.00     0.028 C 
HETATM   29  C1  UNL     1      -8.536   7.782  16.072  1.00  0.00     0.007 C 
ENDBRANCH  27  28
BRANCH  27  30
HETATM   30  O1  UNL     1      -6.014   8.849  15.486  1.00  0.00    -0.390 OA
HETATM   31  C4  UNL     1      -4.731   9.356  15.831  1.00  0.00     0.202 C 
ENDBRANCH  27  30
ENDBRANCH  25  27
ENDBRANCH  22  25
ENDBRANCH  20  21
ENDBRANCH  18  20
ENDBRANCH   1  18
TORSDOF 12
ENDMDL
