MODEL 1
REMARK minimizedAffinity -9.55829048
REMARK  10 active torsions:
REMARK  status: ('A' for Active; 'I' for Inactive)
REMARK    1  A    between atoms: C2_2  and  C3_3 
REMARK    2  A    between atoms: C3_3  and  C5_5 
REMARK    3  A    between atoms: C5_5  and  C6_6 
REMARK    4  A    between atoms: C6_6  and  C8_8 
REMARK    5  A    between atoms: C9_9  and  C11_11 
REMARK    6  A    between atoms: C12_13  and  C13_14 
REMARK    7  A    between atoms: C14_15  and  O2_16 
REMARK    8  A    between atoms: C15_17  and  C16_18 
REMARK    9  A    between atoms: C16_18  and  O3_19 
REMARK   10  A    between atoms: C21_25  and  O5_26 
ROOT
HETATM    1  C13 UNL     1      -0.416   5.988  13.428  1.00  0.00     0.068 C 
HETATM    2  C14 UNL     1       0.887   6.009  13.077  1.00  0.00     0.066 C 
HETATM    3  C15 UNL     1       1.440   5.296  11.855  1.00  0.00     0.098 C 
HETATM    4  C22 UNL     1       0.500   4.130  11.532  1.00  0.00     0.140 C 
HETATM    5  N1  UNL     1      -0.887   4.549  11.484  1.00  0.00    -0.352 N 
HETATM    6  C23 UNL     1      -1.807   3.735  10.710  1.00  0.00     0.152 C 
HETATM    7  C24 UNL     1      -1.409   5.337  12.508  1.00  0.00     0.254 C 
HETATM    8  O6  UNL     1      -2.614   5.534  12.627  1.00  0.00    -0.268 OA
ENDROOT
BRANCH   1   9
HETATM    9  C12 UNL     1      -0.940   6.618  14.700  1.00  0.00     0.163 C 
HETATM   10  O1  UNL     1      -2.229   7.188  14.432  1.00  0.00    -0.371 OA
HETATM   11  C11 UNL     1      -2.760   7.846  15.588  1.00  0.00     0.154 C 
HETATM   12  C27 UNL     1      -1.988   9.171  15.800  1.00  0.00     0.015 C 
HETATM   13  C26 UNL     1      -0.508   9.051  15.386  1.00  0.00     0.010 C 
HETATM   14  C28 UNL     1      -2.109   9.649  17.251  1.00  0.00     0.012 C 
HETATM   15  C25 UNL     1       0.011   7.616  15.388  1.00  0.00     0.037 C 
BRANCH  11  16
HETATM   16  C9  UNL     1      -4.279   7.891  15.410  1.00  0.00    -0.058 C 
HETATM   17  C8  UNL     1      -5.053   6.813  15.155  1.00  0.00    -0.018 C 
HETATM   18  C10 UNL     1      -4.843   9.286  15.547  1.00  0.00     0.046 C 
BRANCH  17  19
HETATM   19  C6  UNL     1      -6.563   6.759  15.015  1.00  0.00     0.005 C 
HETATM   20  C7  UNL     1      -7.150   6.143  16.286  1.00  0.00     0.014 C 
BRANCH  19  21
HETATM   21  C5  UNL     1      -6.916   5.987  13.723  1.00  0.00     0.012 C 
BRANCH  21  22
HETATM   22  C3  UNL     1      -6.499   4.498  13.710  1.00  0.00    -0.018 C 
HETATM   23  C4  UNL     1      -5.532   4.177  12.564  1.00  0.00     0.010 C 
BRANCH  22  24
HETATM   24  C2  UNL     1      -7.735   3.570  13.643  1.00  0.00    -0.000 C 
HETATM   25  C1  UNL     1      -7.565   2.328  12.776  1.00  0.00     0.005 C 
ENDBRANCH  22  24
ENDBRANCH  21  22
ENDBRANCH  19  21
ENDBRANCH  17  19
ENDBRANCH  11  16
ENDBRANCH   1   9
BRANCH   2  26
HETATM   26  O2  UNL     1       1.822   6.670  13.860  1.00  0.00    -0.364 OA
HETATM   27  H22 UNL     1       2.722   6.398  13.591  1.00  0.00     0.217 HD
ENDBRANCH   2  26
BRANCH   3  28
HETATM   28  C16 UNL     1       1.747   6.286  10.680  1.00  0.00     0.095 C 
HETATM   29  C17 UNL     1       0.527   6.972  10.045  1.00  0.00     0.048 C 
HETATM   30  C18 UNL     1       0.932   8.107   9.104  1.00  0.00     0.081 C 
HETATM   31  C19 UNL     1       2.240   7.840   8.390  1.00  0.00     0.129 C 
HETATM   32  O4  UNL     1       2.854   8.755   7.841  1.00  0.00    -0.298 OA
HETATM   33  C20 UNL     1       2.690   6.407   8.253  1.00  0.00     0.113 C 
HETATM   34  C21 UNL     1       2.569   5.602   9.551  1.00  0.00     0.160 C 
BRANCH  28  35
HETATM   35  O3  UNL     1       2.618   7.318  11.219  1.00  0.00    -0.386 OA
HETATM   36  H24 UNL     1       2.082   7.866  11.829  1.00  0.00     0.210 HD
ENDBRANCH  28  35
BRANCH  34  37
HETATM   37  O5  UNL     1       3.878   5.310  10.054  1.00  0.00    -0.392 OA
HETATM   38  H32 UNL     1       4.185   6.143  10.472  1.00  0.00     0.210 HD
ENDBRANCH  34  37
ENDBRANCH   3  28
TORSDOF 10
ENDMDL
MODEL 2
REMARK minimizedAffinity -9.54490471
REMARK  10 active torsions:
REMARK  status: ('A' for Active; 'I' for Inactive)
REMARK    1  A    between atoms: C2_2  and  C3_3 
REMARK    2  A    between atoms: C3_3  and  C5_5 
REMARK    3  A    between atoms: C5_5  and  C6_6 
REMARK    4  A    between atoms: C6_6  and  C8_8 
REMARK    5  A    between atoms: C9_9  and  C11_11 
REMARK    6  A    between atoms: C12_13  and  C13_14 
REMARK    7  A    between atoms: C14_15  and  O2_16 
REMARK    8  A    between atoms: C15_17  and  C16_18 
REMARK    9  A    between atoms: C16_18  and  O3_19 
REMARK   10  A    between atoms: C21_25  and  O5_26 
ROOT
HETATM    1  C13 UNL     1       0.570   7.467  12.478  1.00  0.00     0.068 C 
HETATM    2  C14 UNL     1       1.688   6.756  12.732  1.00  0.00     0.066 C 
HETATM    3  C15 UNL     1       2.721   6.408  11.674  1.00  0.00     0.098 C 
HETATM    4  C22 UNL     1       2.012   6.404  10.316  1.00  0.00     0.140 C 
HETATM    5  N1  UNL     1       1.232   7.609  10.109  1.00  0.00    -0.352 N 
HETATM    6  C23 UNL     1       0.945   7.994   8.739  1.00  0.00     0.152 C 
HETATM    7  C24 UNL     1       0.378   8.063  11.112  1.00  0.00     0.254 C 
HETATM    8  O6  UNL     1      -0.456   8.939  10.909  1.00  0.00    -0.268 OA
ENDROOT
BRANCH   1   9
HETATM    9  C12 UNL     1      -0.501   7.725  13.516  1.00  0.00     0.163 C 
HETATM   10  O1  UNL     1      -1.759   7.266  13.002  1.00  0.00    -0.371 OA
HETATM   11  C11 UNL     1      -2.826   7.528  13.921  1.00  0.00     0.154 C 
HETATM   12  C27 UNL     1      -3.134   9.044  13.900  1.00  0.00     0.015 C 
HETATM   13  C26 UNL     1      -1.866   9.889  13.671  1.00  0.00     0.010 C 
HETATM   14  C28 UNL     1      -3.848   9.475  15.186  1.00  0.00     0.012 C 
HETATM   15  C25 UNL     1      -0.576   9.168  14.049  1.00  0.00     0.037 C 
BRANCH  11  16
HETATM   16  C9  UNL     1      -3.943   6.536  13.591  1.00  0.00    -0.058 C 
HETATM   17  C8  UNL     1      -5.262   6.826  13.630  1.00  0.00    -0.018 C 
HETATM   18  C10 UNL     1      -3.420   5.170  13.213  1.00  0.00     0.046 C 
BRANCH  17  19
HETATM   19  C6  UNL     1      -6.429   5.924  13.271  1.00  0.00     0.005 C 
HETATM   20  C7  UNL     1      -7.555   6.158  14.280  1.00  0.00     0.014 C 
BRANCH  19  21
HETATM   21  C5  UNL     1      -5.931   4.463  13.215  1.00  0.00     0.012 C 
BRANCH  21  22
HETATM   22  C3  UNL     1      -6.674   3.552  12.209  1.00  0.00    -0.018 C 
HETATM   23  C4  UNL     1      -7.637   2.584  12.906  1.00  0.00     0.010 C 
BRANCH  22  24
HETATM   24  C2  UNL     1      -5.679   2.769  11.320  1.00  0.00    -0.000 C 
HETATM   25  C1  UNL     1      -5.883   1.259  11.295  1.00  0.00     0.005 C 
ENDBRANCH  22  24
ENDBRANCH  21  22
ENDBRANCH  19  21
ENDBRANCH  17  19
ENDBRANCH  11  16
ENDBRANCH   1   9
BRANCH   2  26
HETATM   26  O2  UNL     1       1.939   6.259  14.003  1.00  0.00    -0.364 OA
HETATM   27  H22 UNL     1       2.654   5.594  13.955  1.00  0.00     0.217 HD
ENDBRANCH   2  26
BRANCH   3  28
HETATM   28  C16 UNL     1       4.006   7.297  11.785  1.00  0.00     0.095 C 
HETATM   29  C17 UNL     1       3.781   8.814  11.692  1.00  0.00     0.048 C 
HETATM   30  C18 UNL     1       5.034   9.604  12.075  1.00  0.00     0.081 C 
HETATM   31  C19 UNL     1       6.315   8.897  11.692  1.00  0.00     0.129 C 
HETATM   32  O4  UNL     1       7.391   9.236  12.184  1.00  0.00    -0.298 OA
HETATM   33  C20 UNL     1       6.251   7.867  10.591  1.00  0.00     0.113 C 
HETATM   34  C21 UNL     1       5.078   6.893  10.734  1.00  0.00     0.160 C 
BRANCH  28  35
HETATM   35  O3  UNL     1       4.606   7.006  13.078  1.00  0.00    -0.386 OA
HETATM   36  H24 UNL     1       4.020   7.385  13.765  1.00  0.00     0.210 HD
ENDBRANCH  28  35
BRANCH  34  37
HETATM   37  O5  UNL     1       5.576   5.592  11.069  1.00  0.00    -0.392 OA
HETATM   38  H32 UNL     1       5.795   5.638  12.024  1.00  0.00     0.210 HD
ENDBRANCH  34  37
ENDBRANCH   3  28
TORSDOF 10
ENDMDL
MODEL 3
REMARK minimizedAffinity -9.53914547
REMARK  10 active torsions:
REMARK  status: ('A' for Active; 'I' for Inactive)
REMARK    1  A    between atoms: C2_2  and  C3_3 
REMARK    2  A    between atoms: C3_3  and  C5_5 
REMARK    3  A    between atoms: C5_5  and  C6_6 
REMARK    4  A    between atoms: C6_6  and  C8_8 
REMARK    5  A    between atoms: C9_9  and  C11_11 
REMARK    6  A    between atoms: C12_13  and  C13_14 
REMARK    7  A    between atoms: C14_15  and  O2_16 
REMARK    8  A    between atoms: C15_17  and  C16_18 
REMARK    9  A    between atoms: C16_18  and  O3_19 
REMARK   10  A    between atoms: C21_25  and  O5_26 
ROOT
HETATM    1  C13 UNL     1       0.819   7.394  11.953  1.00  0.00     0.068 C 
HETATM    2  C14 UNL     1       1.912   6.712  12.353  1.00  0.00     0.066 C 
HETATM    3  C15 UNL     1       3.050   6.329  11.423  1.00  0.00     0.098 C 
HETATM    4  C22 UNL     1       2.483   6.250  10.001  1.00  0.00     0.140 C 
HETATM    5  N1  UNL     1       1.717   7.432   9.659  1.00  0.00    -0.352 N 
HETATM    6  C23 UNL     1       1.566   7.747   8.249  1.00  0.00     0.152 C 
HETATM    7  C24 UNL     1       0.761   7.921  10.547  1.00  0.00     0.254 C 
HETATM    8  O6  UNL     1      -0.057   8.774  10.218  1.00  0.00    -0.268 OA
ENDROOT
BRANCH   1   9
HETATM    9  C12 UNL     1      -0.354   7.685  12.864  1.00  0.00     0.163 C 
HETATM   10  O1  UNL     1      -1.384   6.720  12.609  1.00  0.00    -0.371 OA
HETATM   11  C11 UNL     1      -2.546   6.973  13.408  1.00  0.00     0.154 C 
HETATM   12  C27 UNL     1      -3.278   8.211  12.838  1.00  0.00     0.015 C 
HETATM   13  C26 UNL     1      -2.295   9.248  12.258  1.00  0.00     0.010 C 
HETATM   14  C28 UNL     1      -4.179   8.851  13.899  1.00  0.00     0.012 C 
HETATM   15  C25 UNL     1      -0.883   9.132  12.824  1.00  0.00     0.037 C 
BRANCH  11  16
HETATM   16  C9  UNL     1      -3.301   5.646  13.517  1.00  0.00    -0.058 C 
HETATM   17  C8  UNL     1      -3.492   4.786  12.493  1.00  0.00    -0.018 C 
HETATM   18  C10 UNL     1      -3.828   5.386  14.909  1.00  0.00     0.046 C 
BRANCH  17  19
HETATM   19  C6  UNL     1      -4.181   3.434  12.523  1.00  0.00     0.005 C 
HETATM   20  C7  UNL     1      -3.348   2.443  11.710  1.00  0.00     0.014 C 
BRANCH  19  21
HETATM   21  C5  UNL     1      -5.630   3.601  12.014  1.00  0.00     0.012 C 
BRANCH  21  22
HETATM   22  C3  UNL     1      -6.688   3.862  13.112  1.00  0.00    -0.018 C 
HETATM   23  C4  UNL     1      -7.842   2.855  13.056  1.00  0.00     0.010 C 
BRANCH  22  24
HETATM   24  C2  UNL     1      -7.236   5.307  13.031  1.00  0.00    -0.000 C 
HETATM   25  C1  UNL     1      -8.498   5.475  12.193  1.00  0.00     0.005 C 
ENDBRANCH  22  24
ENDBRANCH  21  22
ENDBRANCH  19  21
ENDBRANCH  17  19
ENDBRANCH  11  16
ENDBRANCH   1   9
BRANCH   2  26
HETATM   26  O2  UNL     1       2.038   6.280  13.665  1.00  0.00    -0.364 OA
HETATM   27  H22 UNL     1       2.760   5.624  13.723  1.00  0.00     0.217 HD
ENDBRANCH   2  26
BRANCH   3  28
HETATM   28  C16 UNL     1       4.309   7.241  11.619  1.00  0.00     0.095 C 
HETATM   29  C17 UNL     1       4.101   8.738  11.341  1.00  0.00     0.048 C 
HETATM   30  C18 UNL     1       5.290   9.578  11.811  1.00  0.00     0.081 C 
HETATM   31  C19 UNL     1       6.611   8.852  11.683  1.00  0.00     0.129 C 
HETATM   32  O4  UNL     1       7.609   9.253  12.282  1.00  0.00    -0.298 OA
HETATM   33  C20 UNL     1       6.699   7.716  10.695  1.00  0.00     0.113 C 
HETATM   34  C21 UNL     1       5.516   6.746  10.773  1.00  0.00     0.160 C 
BRANCH  28  35
HETATM   35  O3  UNL     1       4.723   7.090  13.005  1.00  0.00    -0.386 OA
HETATM   36  H24 UNL     1       4.048   7.529  13.563  1.00  0.00     0.210 HD
ENDBRANCH  28  35
BRANCH  34  37
HETATM   37  O5  UNL     1       5.961   5.493  11.304  1.00  0.00    -0.392 OA
HETATM   38  H32 UNL     1       6.045   5.638  12.270  1.00  0.00     0.210 HD
ENDBRANCH  34  37
ENDBRANCH   3  28
TORSDOF 10
ENDMDL
MODEL 4
REMARK minimizedAffinity -9.51325417
REMARK  10 active torsions:
REMARK  status: ('A' for Active; 'I' for Inactive)
REMARK    1  A    between atoms: C2_2  and  C3_3 
REMARK    2  A    between atoms: C3_3  and  C5_5 
REMARK    3  A    between atoms: C5_5  and  C6_6 
REMARK    4  A    between atoms: C6_6  and  C8_8 
REMARK    5  A    between atoms: C9_9  and  C11_11 
REMARK    6  A    between atoms: C12_13  and  C13_14 
REMARK    7  A    between atoms: C14_15  and  O2_16 
REMARK    8  A    between atoms: C15_17  and  C16_18 
REMARK    9  A    between atoms: C16_18  and  O3_19 
REMARK   10  A    between atoms: C21_25  and  O5_26 
ROOT
HETATM    1  C13 UNL     1       0.192   7.244  12.002  1.00  0.00     0.068 C 
HETATM    2  C14 UNL     1       1.366   6.647  12.296  1.00  0.00     0.066 C 
HETATM    3  C15 UNL     1       2.530   6.557  11.323  1.00  0.00     0.098 C 
HETATM    4  C22 UNL     1       1.956   6.633   9.904  1.00  0.00     0.140 C 
HETATM    5  N1  UNL     1       1.047   7.751   9.748  1.00  0.00    -0.352 N 
HETATM    6  C23 UNL     1       0.839   8.262   8.404  1.00  0.00     0.152 C 
HETATM    7  C24 UNL     1       0.051   7.973  10.697  1.00  0.00     0.254 C 
HETATM    8  O6  UNL     1      -0.869   8.761  10.501  1.00  0.00    -0.268 OA
ENDROOT
BRANCH   1   9
HETATM    9  C12 UNL     1      -0.994   7.243  12.942  1.00  0.00     0.163 C 
HETATM   10  O1  UNL     1      -1.984   6.340  12.429  1.00  0.00    -0.371 OA
HETATM   11  C11 UNL     1      -3.158   6.331  13.250  1.00  0.00     0.154 C 
HETATM   12  C27 UNL     1      -3.936   7.649  13.014  1.00  0.00     0.015 C 
HETATM   13  C26 UNL     1      -2.993   8.836  12.739  1.00  0.00     0.010 C 
HETATM   14  C28 UNL     1      -4.865   7.954  14.193  1.00  0.00     0.012 C 
HETATM   15  C25 UNL     1      -1.579   8.628  13.274  1.00  0.00     0.037 C 
BRANCH  11  16
HETATM   16  C9  UNL     1      -3.861   4.996  12.998  1.00  0.00    -0.058 C 
HETATM   17  C8  UNL     1      -5.186   4.784  13.158  1.00  0.00    -0.018 C 
HETATM   18  C10 UNL     1      -2.911   3.912  12.545  1.00  0.00     0.046 C 
BRANCH  17  19
HETATM   19  C6  UNL     1      -5.970   3.514  12.884  1.00  0.00     0.005 C 
HETATM   20  C7  UNL     1      -6.055   3.309  11.371  1.00  0.00     0.014 C 
BRANCH  19  21
HETATM   21  C5  UNL     1      -7.345   3.616  13.581  1.00  0.00     0.012 C 
BRANCH  21  22
HETATM   22  C3  UNL     1      -7.728   5.029  14.079  1.00  0.00    -0.018 C 
HETATM   23  C4  UNL     1      -7.661   6.076  12.961  1.00  0.00     0.010 C 
BRANCH  22  24
HETATM   24  C2  UNL     1      -6.843   5.463  15.271  1.00  0.00    -0.000 C 
HETATM   25  C1  UNL     1      -7.512   6.408  16.263  1.00  0.00     0.005 C 
ENDBRANCH  22  24
ENDBRANCH  21  22
ENDBRANCH  19  21
ENDBRANCH  17  19
ENDBRANCH  11  16
ENDBRANCH   1   9
BRANCH   2  26
HETATM   26  O2  UNL     1       1.562   6.033  13.525  1.00  0.00    -0.364 OA
HETATM   27  H22 UNL     1       2.360   5.470  13.482  1.00  0.00     0.217 HD
ENDBRANCH   2  26
BRANCH   3  28
HETATM   28  C16 UNL     1       3.670   7.574  11.667  1.00  0.00     0.095 C 
HETATM   29  C17 UNL     1       3.210   8.955  12.160  1.00  0.00     0.048 C 
HETATM   30  C18 UNL     1       4.370   9.779  12.721  1.00  0.00     0.081 C 
HETATM   31  C19 UNL     1       5.681   9.507  12.015  1.00  0.00     0.129 C 
HETATM   32  O4  UNL     1       6.750   9.847  12.522  1.00  0.00    -0.298 OA
HETATM   33  C20 UNL     1       5.626   8.941  10.618  1.00  0.00     0.113 C 
HETATM   34  C21 UNL     1       4.641   7.777  10.470  1.00  0.00     0.160 C 
BRANCH  28  35
HETATM   35  O3  UNL     1       4.473   6.964  12.715  1.00  0.00    -0.386 OA
HETATM   36  H24 UNL     1       3.934   6.958  13.533  1.00  0.00     0.210 HD
ENDBRANCH  28  35
BRANCH  34  37
HETATM   37  O5  UNL     1       5.369   6.560  10.263  1.00  0.00    -0.392 OA
HETATM   38  H32 UNL     1       5.703   6.306  11.149  1.00  0.00     0.210 HD
ENDBRANCH  34  37
ENDBRANCH   3  28
TORSDOF 10
ENDMDL
MODEL 5
REMARK minimizedAffinity -9.23337364
REMARK  10 active torsions:
REMARK  status: ('A' for Active; 'I' for Inactive)
REMARK    1  A    between atoms: C2_2  and  C3_3 
REMARK    2  A    between atoms: C3_3  and  C5_5 
REMARK    3  A    between atoms: C5_5  and  C6_6 
REMARK    4  A    between atoms: C6_6  and  C8_8 
REMARK    5  A    between atoms: C9_9  and  C11_11 
REMARK    6  A    between atoms: C12_13  and  C13_14 
REMARK    7  A    between atoms: C14_15  and  O2_16 
REMARK    8  A    between atoms: C15_17  and  C16_18 
REMARK    9  A    between atoms: C16_18  and  O3_19 
REMARK   10  A    between atoms: C21_25  and  O5_26 
ROOT
HETATM    1  C13 UNL     1      -0.615   8.222  14.402  1.00  0.00     0.068 C 
HETATM    2  C14 UNL     1      -0.383   8.575  13.121  1.00  0.00     0.066 C 
HETATM    3  C15 UNL     1       1.001   8.867  12.567  1.00  0.00     0.098 C 
HETATM    4  C22 UNL     1       1.885   9.314  13.736  1.00  0.00     0.140 C 
HETATM    5  N1  UNL     1       1.800   8.401  14.859  1.00  0.00    -0.352 N 
HETATM    6  C23 UNL     1       2.914   8.379  15.791  1.00  0.00     0.152 C 
HETATM    7  C24 UNL     1       0.554   7.976  15.314  1.00  0.00     0.254 C 
HETATM    8  O6  UNL     1       0.418   7.388  16.382  1.00  0.00    -0.268 OA
ENDROOT
BRANCH   1   9
HETATM    9  C12 UNL     1      -2.004   8.029  14.969  1.00  0.00     0.163 C 
HETATM   10  O1  UNL     1      -2.784   7.278  14.028  1.00  0.00    -0.371 OA
HETATM   11  C11 UNL     1      -4.130   7.104  14.485  1.00  0.00     0.154 C 
HETATM   12  C27 UNL     1      -4.878   8.452  14.345  1.00  0.00     0.015 C 
HETATM   13  C26 UNL     1      -3.950   9.657  14.598  1.00  0.00     0.010 C 
HETATM   14  C28 UNL     1      -6.096   8.501  15.273  1.00  0.00     0.012 C 
HETATM   15  C25 UNL     1      -2.718   9.314  15.430  1.00  0.00     0.037 C 
BRANCH  11  16
HETATM   16  C9  UNL     1      -4.682   5.870  13.769  1.00  0.00    -0.058 C 
HETATM   17  C8  UNL     1      -5.995   5.584  13.634  1.00  0.00    -0.018 C 
HETATM   18  C10 UNL     1      -3.593   4.979  13.217  1.00  0.00     0.046 C 
BRANCH  17  19
HETATM   19  C6  UNL     1      -6.628   4.415  12.900  1.00  0.00     0.005 C 
HETATM   20  C7  UNL     1      -7.619   3.727  13.840  1.00  0.00     0.014 C 
BRANCH  19  21
HETATM   21  C5  UNL     1      -5.507   3.487  12.381  1.00  0.00     0.012 C 
BRANCH  21  22
HETATM   22  C3  UNL     1      -5.826   2.742  11.063  1.00  0.00    -0.018 C 
HETATM   23  C4  UNL     1      -5.676   1.223  11.205  1.00  0.00     0.010 C 
BRANCH  22  24
HETATM   24  C2  UNL     1      -4.948   3.261   9.900  1.00  0.00    -0.000 C 
HETATM   25  C1  UNL     1      -5.631   3.289   8.537  1.00  0.00     0.005 C 
ENDBRANCH  22  24
ENDBRANCH  21  22
ENDBRANCH  19  21
ENDBRANCH  17  19
ENDBRANCH  11  16
ENDBRANCH   1   9
BRANCH   2  26
HETATM   26  O2  UNL     1      -1.432   8.731  12.227  1.00  0.00    -0.364 OA
HETATM   27  H22 UNL     1      -1.113   9.199  11.430  1.00  0.00     0.217 HD
ENDBRANCH   2  26
BRANCH   3  28
HETATM   28  C16 UNL     1       1.550   7.689  11.692  1.00  0.00     0.095 C 
HETATM   29  C17 UNL     1       1.296   7.801  10.180  1.00  0.00     0.048 C 
HETATM   30  C18 UNL     1       2.088   6.762   9.387  1.00  0.00     0.081 C 
HETATM   31  C19 UNL     1       2.267   5.460  10.137  1.00  0.00     0.129 C 
HETATM   32  O4  UNL     1       3.117   4.643   9.783  1.00  0.00    -0.298 OA
HETATM   33  C20 UNL     1       1.285   5.137  11.235  1.00  0.00     0.113 C 
HETATM   34  C21 UNL     1       1.017   6.312  12.180  1.00  0.00     0.160 C 
BRANCH  28  35
HETATM   35  O3  UNL     1       2.988   7.643  11.907  1.00  0.00    -0.386 OA
HETATM   36  H24 UNL     1       3.375   8.433  11.475  1.00  0.00     0.210 HD
ENDBRANCH  28  35
BRANCH  34  37
HETATM   37  O5  UNL     1       1.588   6.032  13.464  1.00  0.00    -0.392 OA
HETATM   38  H32 UNL     1       2.550   6.195  13.359  1.00  0.00     0.210 HD
ENDBRANCH  34  37
ENDBRANCH   3  28
TORSDOF 10
ENDMDL
MODEL 6
REMARK minimizedAffinity -9.03269482
REMARK  10 active torsions:
REMARK  status: ('A' for Active; 'I' for Inactive)
REMARK    1  A    between atoms: C2_2  and  C3_3 
REMARK    2  A    between atoms: C3_3  and  C5_5 
REMARK    3  A    between atoms: C5_5  and  C6_6 
REMARK    4  A    between atoms: C6_6  and  C8_8 
REMARK    5  A    between atoms: C9_9  and  C11_11 
REMARK    6  A    between atoms: C12_13  and  C13_14 
REMARK    7  A    between atoms: C14_15  and  O2_16 
REMARK    8  A    between atoms: C15_17  and  C16_18 
REMARK    9  A    between atoms: C16_18  and  O3_19 
REMARK   10  A    between atoms: C21_25  and  O5_26 
ROOT
HETATM    1  C13 UNL     1       0.227   8.298  14.118  1.00  0.00     0.068 C 
HETATM    2  C14 UNL     1       0.454   8.643  12.834  1.00  0.00     0.066 C 
HETATM    3  C15 UNL     1       1.842   8.836  12.248  1.00  0.00     0.098 C 
HETATM    4  C22 UNL     1       2.785   9.206  13.399  1.00  0.00     0.140 C 
HETATM    5  N1  UNL     1       2.658   8.293  14.518  1.00  0.00    -0.352 N 
HETATM    6  C23 UNL     1       3.788   8.181  15.422  1.00  0.00     0.152 C 
HETATM    7  C24 UNL     1       1.395   7.959  15.001  1.00  0.00     0.254 C 
HETATM    8  O6  UNL     1       1.240   7.373  16.067  1.00  0.00    -0.268 OA
ENDROOT
BRANCH   1   9
HETATM    9  C12 UNL     1      -1.160   8.205  14.717  1.00  0.00     0.163 C 
HETATM   10  O1  UNL     1      -2.009   7.500  13.801  1.00  0.00    -0.371 OA
HETATM   11  C11 UNL     1      -3.354   7.421  14.289  1.00  0.00     0.154 C 
HETATM   12  C27 UNL     1      -4.012   8.816  14.151  1.00  0.00     0.015 C 
HETATM   13  C26 UNL     1      -2.999   9.957  14.371  1.00  0.00     0.010 C 
HETATM   14  C28 UNL     1      -5.203   8.955  15.105  1.00  0.00     0.012 C 
HETATM   15  C25 UNL     1      -1.775   9.539  15.180  1.00  0.00     0.037 C 
BRANCH  11  16
HETATM   16  C9  UNL     1      -4.003   6.221  13.598  1.00  0.00    -0.058 C 
HETATM   17  C8  UNL     1      -3.321   5.203  13.027  1.00  0.00    -0.018 C 
HETATM   18  C10 UNL     1      -5.513   6.284  13.613  1.00  0.00     0.046 C 
BRANCH  17  19
HETATM   19  C6  UNL     1      -3.881   3.956  12.369  1.00  0.00     0.005 C 
HETATM   20  C7  UNL     1      -3.224   3.791  10.998  1.00  0.00     0.014 C 
BRANCH  19  21
HETATM   21  C5  UNL     1      -5.421   4.067  12.317  1.00  0.00     0.012 C 
BRANCH  21  22
HETATM   22  C3  UNL     1      -6.186   2.749  12.580  1.00  0.00    -0.018 C 
HETATM   23  C4  UNL     1      -6.109   1.786  11.389  1.00  0.00     0.010 C 
BRANCH  22  24
HETATM   24  C2  UNL     1      -7.663   3.022  12.952  1.00  0.00    -0.000 C 
HETATM   25  C1  UNL     1      -8.172   4.414  12.599  1.00  0.00     0.005 C 
ENDBRANCH  22  24
ENDBRANCH  21  22
ENDBRANCH  19  21
ENDBRANCH  17  19
ENDBRANCH  11  16
ENDBRANCH   1   9
BRANCH   2  26
HETATM   26  O2  UNL     1      -0.602   8.885  11.967  1.00  0.00    -0.364 OA
HETATM   27  H22 UNL     1      -0.267   9.334  11.165  1.00  0.00     0.217 HD
ENDBRANCH   2  26
BRANCH   3  28
HETATM   28  C16 UNL     1       2.281   7.627  11.353  1.00  0.00     0.095 C 
HETATM   29  C17 UNL     1       1.797   6.243  11.811  1.00  0.00     0.048 C 
HETATM   30  C18 UNL     1       2.039   5.170  10.749  1.00  0.00     0.081 C 
HETATM   31  C19 UNL     1       3.289   5.421   9.934  1.00  0.00     0.129 C 
HETATM   32  O4  UNL     1       3.468   4.840   8.864  1.00  0.00    -0.298 OA
HETATM   33  C20 UNL     1       4.364   6.289  10.539  1.00  0.00     0.113 C 
HETATM   34  C21 UNL     1       3.825   7.574  11.174  1.00  0.00     0.160 C 
BRANCH  28  35
HETATM   35  O3  UNL     1       1.748   7.877  10.024  1.00  0.00    -0.386 OA
HETATM   36  H24 UNL     1       0.775   7.769  10.072  1.00  0.00     0.210 HD
ENDBRANCH  28  35
BRANCH  34  37
HETATM   37  O5  UNL     1       4.231   8.701  10.388  1.00  0.00    -0.392 OA
HETATM   38  H32 UNL     1       3.630   8.704   9.612  1.00  0.00     0.210 HD
ENDBRANCH  34  37
ENDBRANCH   3  28
TORSDOF 10
ENDMDL
MODEL 7
REMARK minimizedAffinity -8.92940712
REMARK  10 active torsions:
REMARK  status: ('A' for Active; 'I' for Inactive)
REMARK    1  A    between atoms: C2_2  and  C3_3 
REMARK    2  A    between atoms: C3_3  and  C5_5 
REMARK    3  A    between atoms: C5_5  and  C6_6 
REMARK    4  A    between atoms: C6_6  and  C8_8 
REMARK    5  A    between atoms: C9_9  and  C11_11 
REMARK    6  A    between atoms: C12_13  and  C13_14 
REMARK    7  A    between atoms: C14_15  and  O2_16 
REMARK    8  A    between atoms: C15_17  and  C16_18 
REMARK    9  A    between atoms: C16_18  and  O3_19 
REMARK   10  A    between atoms: C21_25  and  O5_26 
ROOT
HETATM    1  C13 UNL     1       1.024   7.802  12.439  1.00  0.00     0.068 C 
HETATM    2  C14 UNL     1       2.200   7.207  12.725  1.00  0.00     0.066 C 
HETATM    3  C15 UNL     1       3.248   6.868  11.678  1.00  0.00     0.098 C 
HETATM    4  C22 UNL     1       2.527   6.706  10.335  1.00  0.00     0.140 C 
HETATM    5  N1  UNL     1       1.647   7.824  10.055  1.00  0.00    -0.352 N 
HETATM    6  C23 UNL     1       1.314   8.082   8.665  1.00  0.00     0.152 C 
HETATM    7  C24 UNL     1       0.769   8.278  11.037  1.00  0.00     0.254 C 
HETATM    8  O6  UNL     1      -0.137   9.065  10.784  1.00  0.00    -0.268 OA
ENDROOT
BRANCH   1   9
HETATM    9  C12 UNL     1      -0.053   8.047  13.473  1.00  0.00     0.163 C 
HETATM   10  O1  UNL     1      -1.329   7.758  12.884  1.00  0.00    -0.371 OA
HETATM   11  C11 UNL     1      -2.398   8.019  13.801  1.00  0.00     0.154 C 
HETATM   12  C27 UNL     1      -2.573   9.551  13.934  1.00  0.00     0.015 C 
HETATM   13  C26 UNL     1      -1.229  10.298  13.824  1.00  0.00     0.010 C 
HETATM   14  C28 UNL     1      -3.288   9.909  15.241  1.00  0.00     0.012 C 
HETATM   15  C25 UNL     1      -0.019   9.428  14.154  1.00  0.00     0.037 C 
BRANCH  11  16
HETATM   16  C9  UNL     1      -3.587   7.171  13.342  1.00  0.00    -0.058 C 
HETATM   17  C8  UNL     1      -3.569   5.826  13.222  1.00  0.00    -0.018 C 
HETATM   18  C10 UNL     1      -4.809   8.002  13.026  1.00  0.00     0.046 C 
BRANCH  17  19
HETATM   19  C6  UNL     1      -4.709   4.907  12.825  1.00  0.00     0.005 C 
HETATM   20  C7  UNL     1      -5.856   5.093  13.819  1.00  0.00     0.014 C 
BRANCH  19  21
HETATM   21  C5  UNL     1      -4.177   3.458  12.744  1.00  0.00     0.012 C 
BRANCH  21  22
HETATM   22  C3  UNL     1      -4.159   2.841  11.326  1.00  0.00    -0.018 C 
HETATM   23  C4  UNL     1      -3.418   3.726  10.317  1.00  0.00     0.010 C 
BRANCH  22  24
HETATM   24  C2  UNL     1      -5.592   2.544  10.825  1.00  0.00    -0.000 C 
HETATM   25  C1  UNL     1      -6.183   1.221  11.301  1.00  0.00     0.005 C 
ENDBRANCH  22  24
ENDBRANCH  21  22
ENDBRANCH  19  21
ENDBRANCH  17  19
ENDBRANCH  11  16
ENDBRANCH   1   9
BRANCH   2  26
HETATM   26  O2  UNL     1       2.506   6.827  14.024  1.00  0.00    -0.364 OA
HETATM   27  H22 UNL     1       3.273   6.222  14.013  1.00  0.00     0.217 HD
ENDBRANCH   2  26
BRANCH   3  28
HETATM   28  C16 UNL     1       4.455   7.866  11.702  1.00  0.00     0.095 C 
HETATM   29  C17 UNL     1       4.866   8.454  10.344  1.00  0.00     0.048 C 
HETATM   30  C18 UNL     1       5.860   9.606  10.495  1.00  0.00     0.081 C 
HETATM   31  C19 UNL     1       6.790   9.430  11.675  1.00  0.00     0.129 C 
HETATM   32  O4  UNL     1       7.434  10.382  12.115  1.00  0.00    -0.298 OA
HETATM   33  C20 UNL     1       7.007   8.033  12.200  1.00  0.00     0.113 C 
HETATM   34  C21 UNL     1       5.711   7.234  12.366  1.00  0.00     0.160 C 
BRANCH  28  35
HETATM   35  O3  UNL     1       4.071   8.965  12.574  1.00  0.00    -0.386 OA
HETATM   36  H24 UNL     1       3.375   9.477  12.112  1.00  0.00     0.210 HD
ENDBRANCH  28  35
BRANCH  34  37
HETATM   37  O5  UNL     1       5.443   7.044  13.760  1.00  0.00    -0.392 OA
HETATM   38  H32 UNL     1       5.082   7.901  14.072  1.00  0.00     0.210 HD
ENDBRANCH  34  37
ENDBRANCH   3  28
TORSDOF 10
ENDMDL
MODEL 8
REMARK minimizedAffinity -8.8862896
REMARK  10 active torsions:
REMARK  status: ('A' for Active; 'I' for Inactive)
REMARK    1  A    between atoms: C2_2  and  C3_3 
REMARK    2  A    between atoms: C3_3  and  C5_5 
REMARK    3  A    between atoms: C5_5  and  C6_6 
REMARK    4  A    between atoms: C6_6  and  C8_8 
REMARK    5  A    between atoms: C9_9  and  C11_11 
REMARK    6  A    between atoms: C12_13  and  C13_14 
REMARK    7  A    between atoms: C14_15  and  O2_16 
REMARK    8  A    between atoms: C15_17  and  C16_18 
REMARK    9  A    between atoms: C16_18  and  O3_19 
REMARK   10  A    between atoms: C21_25  and  O5_26 
ROOT
HETATM    1  C13 UNL     1      -1.733   5.278  12.622  1.00  0.00     0.068 C 
HETATM    2  C14 UNL     1      -1.647   5.444  13.958  1.00  0.00     0.066 C 
HETATM    3  C15 UNL     1      -0.391   5.923  14.666  1.00  0.00     0.098 C 
HETATM    4  C22 UNL     1       0.808   5.559  13.784  1.00  0.00     0.140 C 
HETATM    5  N1  UNL     1       0.618   5.983  12.411  1.00  0.00    -0.352 N 
HETATM    6  C23 UNL     1       1.807   6.187  11.602  1.00  0.00     0.152 C 
HETATM    7  C24 UNL     1      -0.580   5.704  11.758  1.00  0.00     0.254 C 
HETATM    8  O6  UNL     1      -0.708   5.843  10.546  1.00  0.00    -0.268 OA
ENDROOT
BRANCH   1   9
HETATM    9  C12 UNL     1      -2.956   4.707  11.937  1.00  0.00     0.163 C 
HETATM   10  O1  UNL     1      -4.010   4.588  12.902  1.00  0.00    -0.371 OA
HETATM   11  C11 UNL     1      -5.184   4.004  12.324  1.00  0.00     0.154 C 
HETATM   12  C27 UNL     1      -4.929   2.493  12.109  1.00  0.00     0.015 C 
HETATM   13  C26 UNL     1      -3.460   2.200  11.745  1.00  0.00     0.010 C 
HETATM   14  C28 UNL     1      -5.875   1.925  11.046  1.00  0.00     0.012 C 
HETATM   15  C25 UNL     1      -2.728   3.401  11.152  1.00  0.00     0.037 C 
BRANCH  11  16
HETATM   16  C9  UNL     1      -6.365   4.443  13.192  1.00  0.00    -0.058 C 
HETATM   17  C8  UNL     1      -6.526   5.685  13.697  1.00  0.00    -0.018 C 
HETATM   18  C10 UNL     1      -7.355   3.328  13.439  1.00  0.00     0.046 C 
BRANCH  17  19
HETATM   19  C6  UNL     1      -7.685   6.218  14.520  1.00  0.00     0.005 C 
HETATM   20  C7  UNL     1      -7.733   5.457  15.846  1.00  0.00     0.014 C 
BRANCH  19  21
HETATM   21  C5  UNL     1      -8.981   6.109  13.687  1.00  0.00     0.012 C 
BRANCH  21  22
HETATM   22  C3  UNL     1      -9.932   7.324  13.785  1.00  0.00    -0.018 C 
HETATM   23  C4  UNL     1     -10.212   7.726  15.237  1.00  0.00     0.010 C 
BRANCH  22  24
HETATM   24  C2  UNL     1     -11.261   7.058  13.038  1.00  0.00    -0.000 C 
HETATM   25  C1  UNL     1     -12.478   6.861  13.934  1.00  0.00     0.005 C 
ENDBRANCH  22  24
ENDBRANCH  21  22
ENDBRANCH  19  21
ENDBRANCH  17  19
ENDBRANCH  11  16
ENDBRANCH   1   9
BRANCH   2  26
HETATM   26  O2  UNL     1      -2.720   5.139  14.782  1.00  0.00    -0.364 OA
HETATM   27  H22 UNL     1      -2.416   5.100  15.710  1.00  0.00     0.217 HD
ENDBRANCH   2  26
BRANCH   3  28
HETATM   28  C16 UNL     1      -0.497   7.422  15.110  1.00  0.00     0.095 C 
HETATM   29  C17 UNL     1      -1.215   8.363  14.130  1.00  0.00     0.048 C 
HETATM   30  C18 UNL     1      -1.506   9.728  14.755  1.00  0.00     0.081 C 
HETATM   31  C19 UNL     1      -0.447  10.159  15.746  1.00  0.00     0.129 C 
HETATM   32  O4  UNL     1      -0.669  11.066  16.547  1.00  0.00    -0.298 OA
HETATM   33  C20 UNL     1       0.925   9.545  15.625  1.00  0.00     0.113 C 
HETATM   34  C21 UNL     1       0.899   8.025  15.438  1.00  0.00     0.160 C 
BRANCH  28  35
HETATM   35  O3  UNL     1      -1.226   7.435  16.368  1.00  0.00    -0.386 OA
HETATM   36  H24 UNL     1      -2.157   7.201  16.171  1.00  0.00     0.210 HD
ENDBRANCH  28  35
BRANCH  34  37
HETATM   37  O5  UNL     1       1.403   7.390  16.619  1.00  0.00    -0.392 OA
HETATM   38  H32 UNL     1       0.668   7.432  17.267  1.00  0.00     0.210 HD
ENDBRANCH  34  37
ENDBRANCH   3  28
TORSDOF 10
ENDMDL
MODEL 9
REMARK minimizedAffinity -8.87625885
REMARK  10 active torsions:
REMARK  status: ('A' for Active; 'I' for Inactive)
REMARK    1  A    between atoms: C2_2  and  C3_3 
REMARK    2  A    between atoms: C3_3  and  C5_5 
REMARK    3  A    between atoms: C5_5  and  C6_6 
REMARK    4  A    between atoms: C6_6  and  C8_8 
REMARK    5  A    between atoms: C9_9  and  C11_11 
REMARK    6  A    between atoms: C12_13  and  C13_14 
REMARK    7  A    between atoms: C14_15  and  O2_16 
REMARK    8  A    between atoms: C15_17  and  C16_18 
REMARK    9  A    between atoms: C16_18  and  O3_19 
REMARK   10  A    between atoms: C21_25  and  O5_26 
ROOT
HETATM    1  C13 UNL     1      -6.418   5.717  14.687  1.00  0.00     0.068 C 
HETATM    2  C14 UNL     1      -7.377   5.869  15.624  1.00  0.00     0.066 C 
HETATM    3  C15 UNL     1      -7.670   7.187  16.320  1.00  0.00     0.098 C 
HETATM    4  C22 UNL     1      -6.389   8.028  16.283  1.00  0.00     0.140 C 
HETATM    5  N1  UNL     1      -5.825   8.094  14.949  1.00  0.00    -0.352 N 
HETATM    6  C23 UNL     1      -4.961   9.221  14.642  1.00  0.00     0.152 C 
HETATM    7  C24 UNL     1      -5.674   6.929  14.201  1.00  0.00     0.254 C 
HETATM    8  O6  UNL     1      -5.010   6.899  13.170  1.00  0.00    -0.268 OA
ENDROOT
BRANCH   1   9
HETATM    9  C12 UNL     1      -6.068   4.380  14.071  1.00  0.00     0.163 C 
HETATM   10  O1  UNL     1      -5.257   4.608  12.910  1.00  0.00    -0.371 OA
HETATM   11  C11 UNL     1      -4.932   3.379  12.250  1.00  0.00     0.154 C 
HETATM   12  C27 UNL     1      -6.196   2.861  11.521  1.00  0.00     0.015 C 
HETATM   13  C26 UNL     1      -7.487   3.198  12.292  1.00  0.00     0.010 C 
HETATM   14  C28 UNL     1      -6.098   1.354  11.260  1.00  0.00     0.012 C 
HETATM   15  C25 UNL     1      -7.261   3.450  13.780  1.00  0.00     0.037 C 
BRANCH  11  16
HETATM   16  C9  UNL     1      -3.660   3.637  11.440  1.00  0.00    -0.058 C 
HETATM   17  C8  UNL     1      -2.450   3.905  11.977  1.00  0.00    -0.018 C 
HETATM   18  C10 UNL     1      -3.893   3.568   9.948  1.00  0.00     0.046 C 
BRANCH  17  19
HETATM   19  C6  UNL     1      -1.133   4.123  11.255  1.00  0.00     0.005 C 
HETATM   20  C7  UNL     1      -0.192   2.968  11.596  1.00  0.00     0.014 C 
BRANCH  19  21
HETATM   21  C5  UNL     1      -0.581   5.515  11.633  1.00  0.00     0.012 C 
BRANCH  21  22
HETATM   22  C3  UNL     1       0.951   5.675  11.504  1.00  0.00    -0.018 C 
HETATM   23  C4  UNL     1       1.542   6.534  12.627  1.00  0.00     0.010 C 
BRANCH  22  24
HETATM   24  C2  UNL     1       1.341   6.256  10.124  1.00  0.00    -0.000 C 
HETATM   25  C1  UNL     1       1.290   7.776  10.025  1.00  0.00     0.005 C 
ENDBRANCH  22  24
ENDBRANCH  21  22
ENDBRANCH  19  21
ENDBRANCH  17  19
ENDBRANCH  11  16
ENDBRANCH   1   9
BRANCH   2  26
HETATM   26  O2  UNL     1      -8.141   4.789  16.039  1.00  0.00    -0.364 OA
HETATM   27  H22 UNL     1      -8.614   5.023  16.862  1.00  0.00     0.217 HD
ENDBRANCH   2  26
BRANCH   3  28
HETATM   28  C16 UNL     1      -8.967   7.873  15.770  1.00  0.00     0.095 C 
HETATM   29  C17 UNL     1      -9.911   8.468  16.827  1.00  0.00     0.048 C 
HETATM   30  C18 UNL     1     -10.998   9.341  16.198  1.00  0.00     0.081 C 
HETATM   31  C19 UNL     1     -11.430   8.850  14.834  1.00  0.00     0.129 C 
HETATM   32  O4  UNL     1     -12.060   9.585  14.072  1.00  0.00    -0.298 OA
HETATM   33  C20 UNL     1     -11.191   7.400  14.497  1.00  0.00     0.113 C 
HETATM   34  C21 UNL     1      -9.787   6.911  14.864  1.00  0.00     0.160 C 
BRANCH  28  35
HETATM   35  O3  UNL     1      -8.531   8.949  14.894  1.00  0.00    -0.386 OA
HETATM   36  H24 UNL     1      -8.140   9.647  15.458  1.00  0.00     0.210 HD
ENDBRANCH  28  35
BRANCH  34  37
HETATM   37  O5  UNL     1      -9.039   6.665  13.667  1.00  0.00    -0.392 OA
HETATM   38  H32 UNL     1      -8.765   7.551  13.348  1.00  0.00     0.210 HD
ENDBRANCH  34  37
ENDBRANCH   3  28
TORSDOF 10
ENDMDL
