MODEL 1
REMARK minimizedAffinity -7.63216257
REMARK CNNscore 0.207158208
REMARK CNNaffinity 7.14040709
REMARK  15 active torsions:
REMARK  status: ('A' for Active; 'I' for Inactive)
REMARK    1  A    between atoms: C2_2  and  C3_3 
REMARK    2  A    between atoms: C3_3  and  C4_4 
REMARK    3  A    between atoms: C4_4  and  O1_5 
REMARK    4  A    between atoms: C4_4  and  C5_6 
REMARK    5  A    between atoms: C5_6  and  C6_7 
REMARK    6  A    between atoms: C6_7  and  O2_8 
REMARK    7  A    between atoms: C6_7  and  C7_9 
REMARK    8  A    between atoms: C7_9  and  C8_10 
REMARK    9  A    between atoms: C8_10  and  C9_12 
REMARK   10  A    between atoms: C9_12  and  C10_13 
REMARK   11  A    between atoms: C10_13  and  C11_14 
REMARK   12  A    between atoms: C25_29  and  O5_30 
REMARK   13  A    between atoms: C29_34  and  C30_35 
REMARK   14  A    between atoms: C30_35  and  N1_36 
REMARK   15  A    between atoms: C30_35  and  N2_37 
ROOT
HETATM    1  C11 UNL     1      -7.863   6.160  14.849  1.00  0.00    -0.055 A 
HETATM    2  C12 UNL     1      -6.996   7.036  14.179  1.00  0.00     0.010 A 
HETATM    3  C13 UNL     1      -7.035   8.411  14.433  1.00  0.00     0.041 A 
HETATM    4  C14 UNL     1      -7.963   8.942  15.329  1.00  0.00     0.120 A 
HETATM    5  O4  UNL     1      -7.856  10.308  15.497  1.00  0.00    -0.258 OA
HETATM    6  C15 UNL     1      -8.945  10.887  15.992  1.00  0.00     0.061 C 
HETATM    7  C16 UNL     1     -10.015  11.179  16.469  1.00  0.00    -0.064 C 
HETATM    8  C17 UNL     1     -11.324  11.219  17.143  1.00  0.00     0.044 C 
HETATM    9  C18 UNL     1     -12.230  12.265  16.444  1.00  0.00     0.024 C 
HETATM   10  C19 UNL     1     -13.176  12.772  17.525  1.00  0.00     0.002 C 
HETATM   11  C20 UNL     1     -12.442  12.596  18.847  1.00  0.00     0.002 C 
HETATM   12  C21 UNL     1     -11.123  11.905  18.515  1.00  0.00     0.024 C 
HETATM   13  C22 UNL     1     -11.913   9.751  17.298  1.00  0.00     0.135 C 
HETATM   14  C23 UNL     1     -13.379   9.687  17.007  1.00  0.00    -0.093 C 
HETATM   15  C24 UNL     1     -14.520   9.629  16.625  1.00  0.00    -0.069 C 
HETATM   16  C25 UNL     1     -15.885   9.539  16.066  1.00  0.00     0.230 C 
HETATM   17  C26 UNL     1     -16.201   8.118  15.613  1.00  0.00    -0.011 A 
HETATM   18  C27 UNL     1     -16.541   7.176  16.603  1.00  0.00     0.012 A 
HETATM   19  C28 UNL     1     -16.769   5.831  16.295  1.00  0.00     0.012 A 
HETATM   20  C29 UNL     1     -16.675   5.362  14.984  1.00  0.00     0.004 A 
HETATM   21  C31 UNL     1     -16.327   6.294  13.989  1.00  0.00     0.019 A 
HETATM   22  C32 UNL     1     -16.112   7.663  14.267  1.00  0.00    -0.043 A 
HETATM   23  C33 UNL     1     -15.770   8.547  13.075  1.00  0.00     0.080 C 
HETATM   24  C34 UNL     1     -14.318   8.716  12.832  1.00  0.00    -0.025 C 
HETATM   25  C35 UNL     1     -13.216   8.466  13.529  1.00  0.00     0.015 C 
HETATM   26  C36 UNL     1     -12.754   7.889  14.796  1.00  0.00     0.107 C 
HETATM   27  N3  UNL     1     -11.630   8.430  15.155  1.00  0.00    -0.335 N 
HETATM   28  C37 UNL     1     -11.192   9.283  13.985  1.00  0.00     0.123 C 
HETATM   29  C38 UNL     1     -12.134   9.251  13.047  1.00  0.00     0.060 C 
HETATM   30  N4  UNL     1     -12.453   9.858  11.890  1.00  0.00    -0.364 N 
ATOM     31  H4  UNL     1     -11.860  10.415  11.274  1.00  0.00     0.165 HD
HETATM   32  C39 UNL     1     -13.720   9.553  11.758  1.00  0.00     0.096 C 
HETATM   33  C40 UNL     1     -11.149   8.550  16.551  1.00  0.00     0.251 C 
HETATM   34  O6  UNL     1      -9.745   8.536  16.912  1.00  0.00    -0.321 OA
HETATM   35  C41 UNL     1      -8.862   8.070  15.966  1.00  0.00     0.106 A 
HETATM   36  C42 UNL     1      -8.805   6.691  15.739  1.00  0.00     0.047 A 
ENDROOT
BRANCH   1  37
HETATM   37  C10 UNL     1      -7.724   4.662  14.648  1.00  0.00     0.046 C 
BRANCH  37  38
HETATM   38  C9  UNL     1      -8.108   4.172  13.254  1.00  0.00     0.083 C 
BRANCH  38  39
HETATM   39  C8  UNL     1      -7.246   3.015  12.790  1.00  0.00     0.129 C 
HETATM   40  O3  UNL     1      -7.691   1.863  12.856  1.00  0.00    -0.298 OA
BRANCH  39  41
HETATM   41  C7  UNL     1      -5.830   3.275  12.318  1.00  0.00     0.110 C 
BRANCH  41  42
HETATM   42  C6  UNL     1      -5.244   2.236  11.353  1.00  0.00     0.127 C 
BRANCH  42  43
HETATM   43  C5  UNL     1      -3.780   1.872  11.687  1.00  0.00     0.063 C 
BRANCH  43  44
HETATM   44  C4  UNL     1      -2.717   2.878  11.211  1.00  0.00     0.120 C 
BRANCH  44  45
HETATM   45  C3  UNL     1      -2.676   4.184  12.023  1.00  0.00     0.031 C 
BRANCH  45  46
HETATM   46  C2  UNL     1      -1.402   4.979  11.746  1.00  0.00    -0.002 C 
HETATM   47  C1  UNL     1      -0.167   4.127  11.989  1.00  0.00     0.005 C 
ENDBRANCH  45  46
ENDBRANCH  44  45
BRANCH  44  48
HETATM   48  O1  UNL     1      -2.897   3.146   9.822  1.00  0.00    -0.395 OA
HETATM   49  H9  UNL     1      -3.551   3.874   9.735  1.00  0.00     0.210 HD
ENDBRANCH  44  48
ENDBRANCH  43  44
ENDBRANCH  42  43
BRANCH  42  50
HETATM   50  O2  UNL     1      -5.396   2.622   9.989  1.00  0.00    -0.395 OA
HETATM   51  H13 UNL     1      -4.733   3.299   9.776  1.00  0.00     0.210 HD
ENDBRANCH  42  50
ENDBRANCH  41  42
ENDBRANCH  39  41
ENDBRANCH  38  39
ENDBRANCH  37  38
ENDBRANCH   1  37
BRANCH  16  52
HETATM   52  O5  UNL     1     -16.835   9.968  17.034  1.00  0.00    -0.379 OA
HETATM   53  H32 UNL     1     -16.362  10.114  17.876  1.00  0.00     0.211 HD
ENDBRANCH  16  52
BRANCH  20  54
HETATM   54  C30 UNL     1     -16.872   3.891  14.654  1.00  0.00     0.479 C 
BRANCH  54  55
HETATM   55  N1  UNL     1     -17.327   3.651  13.314  1.00  0.00     0.116 N 
HETATM   56  H36 UNL     1     -17.618   2.669  13.279  1.00  0.00     0.316 HD
HETATM   57  H37 UNL     1     -16.507   3.686  12.704  1.00  0.00     0.316 HD
ENDBRANCH  54  55
BRANCH  54  58
HETATM   58  N2  UNL     1     -15.656   3.129  14.688  1.00  0.00     0.116 N 
HETATM   59  H38 UNL     1     -14.922   3.679  14.246  1.00  0.00     0.316 HD
HETATM   60  H39 UNL     1     -15.364   2.996  15.649  1.00  0.00     0.316 HD
ENDBRANCH  54  58
ENDBRANCH  20  54
TORSDOF 15
ENDMDL
MODEL 2
REMARK minimizedAffinity -7.89415264
REMARK CNNscore 0.167044953
REMARK CNNaffinity 6.38767815
REMARK  15 active torsions:
REMARK  status: ('A' for Active; 'I' for Inactive)
REMARK    1  A    between atoms: C2_2  and  C3_3 
REMARK    2  A    between atoms: C3_3  and  C4_4 
REMARK    3  A    between atoms: C4_4  and  O1_5 
REMARK    4  A    between atoms: C4_4  and  C5_6 
REMARK    5  A    between atoms: C5_6  and  C6_7 
REMARK    6  A    between atoms: C6_7  and  O2_8 
REMARK    7  A    between atoms: C6_7  and  C7_9 
REMARK    8  A    between atoms: C7_9  and  C8_10 
REMARK    9  A    between atoms: C8_10  and  C9_12 
REMARK   10  A    between atoms: C9_12  and  C10_13 
REMARK   11  A    between atoms: C10_13  and  C11_14 
REMARK   12  A    between atoms: C25_29  and  O5_30 
REMARK   13  A    between atoms: C29_34  and  C30_35 
REMARK   14  A    between atoms: C30_35  and  N1_36 
REMARK   15  A    between atoms: C30_35  and  N2_37 
ROOT
HETATM    1  C11 UNL     1     -14.673   7.159  21.329  1.00  0.00    -0.055 A 
HETATM    2  C12 UNL     1     -15.269   8.198  22.060  1.00  0.00     0.010 A 
HETATM    3  C13 UNL     1     -16.062   9.156  21.420  1.00  0.00     0.041 A 
HETATM    4  C14 UNL     1     -16.244   9.119  20.038  1.00  0.00     0.120 A 
HETATM    5  O4  UNL     1     -17.077  10.111  19.559  1.00  0.00    -0.258 OA
HETATM    6  C15 UNL     1     -16.943  10.361  18.261  1.00  0.00     0.061 C 
HETATM    7  C16 UNL     1     -16.671  10.389  17.084  1.00  0.00    -0.064 C 
HETATM    8  C17 UNL     1     -16.237  10.115  15.704  1.00  0.00     0.044 C 
HETATM    9  C18 UNL     1     -15.750  11.432  15.048  1.00  0.00     0.024 C 
HETATM   10  C19 UNL     1     -16.017  11.269  13.558  1.00  0.00     0.002 C 
HETATM   11  C20 UNL     1     -17.181  10.295  13.440  1.00  0.00     0.002 C 
HETATM   12  C21 UNL     1     -17.505   9.843  14.860  1.00  0.00     0.024 C 
HETATM   13  C22 UNL     1     -15.231   8.885  15.672  1.00  0.00     0.135 C 
HETATM   14  C23 UNL     1     -14.079   9.109  14.744  1.00  0.00    -0.093 C 
HETATM   15  C24 UNL     1     -13.088   9.368  14.111  1.00  0.00    -0.069 C 
HETATM   16  C25 UNL     1     -11.832   9.722  13.417  1.00  0.00     0.230 C 
HETATM   17  C26 UNL     1     -10.670   8.870  13.914  1.00  0.00    -0.011 A 
HETATM   18  C27 UNL     1     -10.571   7.551  13.428  1.00  0.00     0.012 A 
HETATM   19  C28 UNL     1      -9.588   6.668  13.885  1.00  0.00     0.012 A 
HETATM   20  C29 UNL     1      -8.653   7.059  14.844  1.00  0.00     0.004 A 
HETATM   21  C31 UNL     1      -8.750   8.371  15.343  1.00  0.00     0.019 A 
HETATM   22  C32 UNL     1      -9.718   9.292  14.884  1.00  0.00    -0.043 A 
HETATM   23  C33 UNL     1      -9.673  10.683  15.504  1.00  0.00     0.080 C 
HETATM   24  C34 UNL     1     -10.553  10.860  16.682  1.00  0.00    -0.025 C 
HETATM   25  C35 UNL     1     -11.554  10.169  17.216  1.00  0.00     0.015 C 
HETATM   26  C36 UNL     1     -12.314   8.925  17.060  1.00  0.00     0.107 C 
HETATM   27  N3  UNL     1     -13.517   9.069  17.529  1.00  0.00    -0.335 N 
HETATM   28  C37 UNL     1     -13.531  10.414  18.219  1.00  0.00     0.123 C 
HETATM   29  C38 UNL     1     -12.355  11.009  18.036  1.00  0.00     0.060 C 
HETATM   30  N4  UNL     1     -11.767  12.203  18.229  1.00  0.00    -0.364 N 
ATOM     31  H4  UNL     1     -12.061  12.973  18.831  1.00  0.00     0.165 HD
HETATM   32  C39 UNL     1     -10.719  12.124  17.446  1.00  0.00     0.096 C 
HETATM   33  C40 UNL     1     -14.704   8.307  17.077  1.00  0.00     0.251 C 
HETATM   34  O6  UNL     1     -15.819   7.983  17.946  1.00  0.00    -0.321 OA
HETATM   35  C41 UNL     1     -15.610   8.105  19.300  1.00  0.00     0.106 A 
HETATM   36  C42 UNL     1     -14.842   7.127  19.940  1.00  0.00     0.047 A 
ENDROOT
BRANCH   1  37
HETATM   37  C10 UNL     1     -13.916   6.064  22.058  1.00  0.00     0.046 C 
BRANCH  37  38
HETATM   38  C9  UNL     1     -14.736   4.808  22.342  1.00  0.00     0.083 C 
BRANCH  38  39
HETATM   39  C8  UNL     1     -13.883   3.555  22.370  1.00  0.00     0.129 C 
HETATM   40  O3  UNL     1     -13.695   2.924  21.322  1.00  0.00    -0.298 OA
BRANCH  39  41
HETATM   41  C7  UNL     1     -13.328   3.054  23.688  1.00  0.00     0.110 C 
BRANCH  41  42
HETATM   42  C6  UNL     1     -14.313   2.287  24.582  1.00  0.00     0.127 C 
BRANCH  42  43
HETATM   43  C5  UNL     1     -14.504   2.951  25.964  1.00  0.00     0.063 C 
BRANCH  43  44
HETATM   44  C4  UNL     1     -13.977   2.149  27.168  1.00  0.00     0.120 C 
BRANCH  44  45
HETATM   45  C3  UNL     1     -12.460   1.892  27.139  1.00  0.00     0.031 C 
BRANCH  45  46
HETATM   46  C2  UNL     1     -11.836   2.057  28.522  1.00  0.00    -0.002 C 
HETATM   47  C1  UNL     1     -12.182   3.414  29.115  1.00  0.00     0.005 C 
ENDBRANCH  45  46
ENDBRANCH  44  45
BRANCH  44  48
HETATM   48  O1  UNL     1     -14.700   0.925  27.284  1.00  0.00    -0.395 OA
HETATM   49  H9  UNL     1     -14.262   0.258  26.712  1.00  0.00     0.210 HD
ENDBRANCH  44  48
ENDBRANCH  43  44
ENDBRANCH  42  43
BRANCH  42  50
HETATM   50  O2  UNL     1     -13.971   0.908  24.699  1.00  0.00    -0.395 OA
HETATM   51  H13 UNL     1     -13.229   0.817  25.317  1.00  0.00     0.210 HD
ENDBRANCH  42  50
ENDBRANCH  41  42
ENDBRANCH  39  41
ENDBRANCH  38  39
ENDBRANCH  37  38
ENDBRANCH   1  37
BRANCH  16  52
HETATM   52  O5  UNL     1     -11.993   9.563  12.012  1.00  0.00    -0.379 OA
HETATM   53  H32 UNL     1     -12.864   9.150  11.854  1.00  0.00     0.211 HD
ENDBRANCH  16  52
BRANCH  20  54
HETATM   54  C30 UNL     1      -7.616   6.085  15.381  1.00  0.00     0.479 C 
BRANCH  54  55
HETATM   55  N1  UNL     1      -6.819   6.615  16.451  1.00  0.00     0.116 N 
HETATM   56  H36 UNL     1      -6.039   5.962  16.581  1.00  0.00     0.316 HD
HETATM   57  H37 UNL     1      -7.364   6.519  17.311  1.00  0.00     0.316 HD
ENDBRANCH  54  55
BRANCH  54  58
HETATM   58  N2  UNL     1      -8.188   4.920  15.994  1.00  0.00     0.116 N 
HETATM   59  H38 UNL     1      -8.983   5.213  16.558  1.00  0.00     0.316 HD
HETATM   60  H39 UNL     1      -8.564   4.308  15.279  1.00  0.00     0.316 HD
ENDBRANCH  54  58
ENDBRANCH  20  54
TORSDOF 15
ENDMDL
MODEL 3
REMARK minimizedAffinity -7.60088301
REMARK CNNscore 0.133409247
REMARK CNNaffinity 5.567698
REMARK  15 active torsions:
REMARK  status: ('A' for Active; 'I' for Inactive)
REMARK    1  A    between atoms: C2_2  and  C3_3 
REMARK    2  A    between atoms: C3_3  and  C4_4 
REMARK    3  A    between atoms: C4_4  and  O1_5 
REMARK    4  A    between atoms: C4_4  and  C5_6 
REMARK    5  A    between atoms: C5_6  and  C6_7 
REMARK    6  A    between atoms: C6_7  and  O2_8 
REMARK    7  A    between atoms: C6_7  and  C7_9 
REMARK    8  A    between atoms: C7_9  and  C8_10 
REMARK    9  A    between atoms: C8_10  and  C9_12 
REMARK   10  A    between atoms: C9_12  and  C10_13 
REMARK   11  A    between atoms: C10_13  and  C11_14 
REMARK   12  A    between atoms: C25_29  and  O5_30 
REMARK   13  A    between atoms: C29_34  and  C30_35 
REMARK   14  A    between atoms: C30_35  and  N1_36 
REMARK   15  A    between atoms: C30_35  and  N2_37 
ROOT
HETATM    1  C11 UNL     1     -14.184   8.193  21.980  1.00  0.00    -0.055 A 
HETATM    2  C12 UNL     1     -14.703   9.306  22.658  1.00  0.00     0.010 A 
HETATM    3  C13 UNL     1     -15.522  10.226  21.995  1.00  0.00     0.041 A 
HETATM    4  C14 UNL     1     -15.808  10.074  20.638  1.00  0.00     0.120 A 
HETATM    5  O4  UNL     1     -16.655  11.041  20.135  1.00  0.00    -0.258 OA
HETATM    6  C15 UNL     1     -16.614  11.174  18.814  1.00  0.00     0.061 C 
HETATM    7  C16 UNL     1     -16.431  11.093  17.623  1.00  0.00    -0.064 C 
HETATM    8  C17 UNL     1     -16.106  10.689  16.245  1.00  0.00     0.044 C 
HETATM    9  C18 UNL     1     -15.644  11.931  15.441  1.00  0.00     0.024 C 
HETATM   10  C19 UNL     1     -16.025  11.646  13.994  1.00  0.00     0.002 C 
HETATM   11  C20 UNL     1     -17.214  10.696  14.048  1.00  0.00     0.002 C 
HETATM   12  C21 UNL     1     -17.439  10.378  15.523  1.00  0.00     0.024 C 
HETATM   13  C22 UNL     1     -15.130   9.434  16.248  1.00  0.00     0.135 C 
HETATM   14  C23 UNL     1     -14.047   9.546  15.222  1.00  0.00    -0.093 C 
HETATM   15  C24 UNL     1     -13.101   9.723  14.498  1.00  0.00    -0.069 C 
HETATM   16  C25 UNL     1     -11.894   9.983  13.686  1.00  0.00     0.230 C 
HETATM   17  C26 UNL     1     -10.716   9.147  14.170  1.00  0.00    -0.011 A 
HETATM   18  C27 UNL     1     -10.680   7.789  13.797  1.00  0.00     0.012 A 
HETATM   19  C28 UNL     1      -9.683   6.923  14.257  1.00  0.00     0.012 A 
HETATM   20  C29 UNL     1      -8.671   7.371  15.108  1.00  0.00     0.004 A 
HETATM   21  C31 UNL     1      -8.704   8.724  15.493  1.00  0.00     0.019 A 
HETATM   22  C32 UNL     1      -9.685   9.626  15.027  1.00  0.00    -0.043 A 
HETATM   23  C33 UNL     1      -9.566  11.064  15.516  1.00  0.00     0.080 C 
HETATM   24  C34 UNL     1     -10.351  11.366  16.735  1.00  0.00    -0.025 C 
HETATM   25  C35 UNL     1     -11.323  10.751  17.399  1.00  0.00     0.015 C 
HETATM   26  C36 UNL     1     -12.117   9.518  17.410  1.00  0.00     0.107 C 
HETATM   27  N3  UNL     1     -13.278   9.734  17.951  1.00  0.00    -0.335 N 
HETATM   28  C37 UNL     1     -13.214  11.134  18.519  1.00  0.00     0.123 C 
HETATM   29  C38 UNL     1     -12.044  11.680  18.199  1.00  0.00     0.060 C 
HETATM   30  N4  UNL     1     -11.419  12.870  18.241  1.00  0.00    -0.364 N 
ATOM     31  H4  UNL     1     -11.652  13.696  18.793  1.00  0.00     0.165 HD
HETATM   32  C39 UNL     1     -10.435  12.696  17.394  1.00  0.00     0.096 C 
HETATM   33  C40 UNL     1     -14.511   8.967  17.657  1.00  0.00     0.251 C 
HETATM   34  O6  UNL     1     -15.564   8.749  18.629  1.00  0.00    -0.321 OA
HETATM   35  C41 UNL     1     -15.251   8.983  19.949  1.00  0.00     0.106 A 
HETATM   36  C42 UNL     1     -14.457   8.044  20.615  1.00  0.00     0.047 A 
ENDROOT
BRANCH   1  37
HETATM   37  C10 UNL     1     -13.396   7.146  22.746  1.00  0.00     0.046 C 
BRANCH  37  38
HETATM   38  C9  UNL     1     -12.949   7.582  24.139  1.00  0.00     0.083 C 
BRANCH  38  39
HETATM   39  C8  UNL     1     -11.548   8.162  24.141  1.00  0.00     0.129 C 
HETATM   40  O3  UNL     1     -10.626   7.523  23.619  1.00  0.00    -0.298 OA
BRANCH  39  41
HETATM   41  C7  UNL     1     -11.282   9.479  24.840  1.00  0.00     0.110 C 
BRANCH  41  42
HETATM   42  C6  UNL     1     -12.294  10.601  24.566  1.00  0.00     0.127 C 
BRANCH  42  43
HETATM   43  C5  UNL     1     -11.750  11.668  23.591  1.00  0.00     0.063 C 
BRANCH  43  44
HETATM   44  C4  UNL     1     -10.220  11.710  23.433  1.00  0.00     0.120 C 
BRANCH  44  45
HETATM   45  C3  UNL     1      -9.522  12.748  24.329  1.00  0.00     0.031 C 
BRANCH  45  46
HETATM   46  C2  UNL     1      -8.284  13.334  23.653  1.00  0.00    -0.002 C 
HETATM   47  C1  UNL     1      -7.890  14.656  24.294  1.00  0.00     0.005 C 
ENDBRANCH  45  46
ENDBRANCH  44  45
BRANCH  44  48
HETATM   48  O1  UNL     1      -9.883  11.912  22.062  1.00  0.00    -0.395 OA
HETATM   49  H9  UNL     1      -9.876  12.879  21.889  1.00  0.00     0.210 HD
ENDBRANCH  44  48
ENDBRANCH  43  44
ENDBRANCH  42  43
BRANCH  42  50
HETATM   50  O2  UNL     1     -12.789  11.184  25.770  1.00  0.00    -0.395 OA
HETATM   51  H13 UNL     1     -12.116  11.783  26.131  1.00  0.00     0.210 HD
ENDBRANCH  42  50
ENDBRANCH  41  42
ENDBRANCH  39  41
ENDBRANCH  38  39
ENDBRANCH  37  38
ENDBRANCH   1  37
BRANCH  16  52
HETATM   52  O5  UNL     1     -12.163   9.706  12.316  1.00  0.00    -0.379 OA
HETATM   53  H32 UNL     1     -13.051   9.304  12.259  1.00  0.00     0.211 HD
ENDBRANCH  16  52
BRANCH  20  54
HETATM   54  C30 UNL     1      -7.616   6.420  15.651  1.00  0.00     0.479 C 
BRANCH  54  55
HETATM   55  N1  UNL     1      -7.061   6.826  16.912  1.00  0.00     0.116 N 
HETATM   56  H36 UNL     1      -6.235   6.238  17.067  1.00  0.00     0.316 HD
HETATM   57  H37 UNL     1      -7.714   6.529  17.640  1.00  0.00     0.316 HD
ENDBRANCH  54  55
BRANCH  54  58
HETATM   58  N2  UNL     1      -8.127   5.116  15.966  1.00  0.00     0.116 N 
HETATM   59  H38 UNL     1      -9.028   5.229  16.426  1.00  0.00     0.316 HD
HETATM   60  H39 UNL     1      -8.313   4.607  15.109  1.00  0.00     0.316 HD
ENDBRANCH  54  58
ENDBRANCH  20  54
TORSDOF 15
ENDMDL
MODEL 4
REMARK minimizedAffinity -9.5048027
REMARK CNNscore 0.129170194
REMARK CNNaffinity 6.79961634
REMARK  15 active torsions:
REMARK  status: ('A' for Active; 'I' for Inactive)
REMARK    1  A    between atoms: C2_2  and  C3_3 
REMARK    2  A    between atoms: C3_3  and  C4_4 
REMARK    3  A    between atoms: C4_4  and  O1_5 
REMARK    4  A    between atoms: C4_4  and  C5_6 
REMARK    5  A    between atoms: C5_6  and  C6_7 
REMARK    6  A    between atoms: C6_7  and  O2_8 
REMARK    7  A    between atoms: C6_7  and  C7_9 
REMARK    8  A    between atoms: C7_9  and  C8_10 
REMARK    9  A    between atoms: C8_10  and  C9_12 
REMARK   10  A    between atoms: C9_12  and  C10_13 
REMARK   11  A    between atoms: C10_13  and  C11_14 
REMARK   12  A    between atoms: C25_29  and  O5_30 
REMARK   13  A    between atoms: C29_34  and  C30_35 
REMARK   14  A    between atoms: C30_35  and  N1_36 
REMARK   15  A    between atoms: C30_35  and  N2_37 
ROOT
HETATM    1  C11 UNL     1       2.884   7.300   9.445  1.00  0.00    -0.055 A 
HETATM    2  C12 UNL     1       3.435   6.033   9.686  1.00  0.00     0.010 A 
HETATM    3  C13 UNL     1       2.678   5.032  10.304  1.00  0.00     0.041 A 
HETATM    4  C14 UNL     1       1.373   5.288  10.726  1.00  0.00     0.120 A 
HETATM    5  O4  UNL     1       0.745   4.193  11.288  1.00  0.00    -0.258 OA
HETATM    6  C15 UNL     1      -0.298   4.493  12.054  1.00  0.00     0.061 C 
HETATM    7  C16 UNL     1      -1.209   4.996  12.666  1.00  0.00    -0.064 C 
HETATM    8  C17 UNL     1      -2.278   5.858  13.199  1.00  0.00     0.044 C 
HETATM    9  C18 UNL     1      -2.423   5.613  14.723  1.00  0.00     0.024 C 
HETATM   10  C19 UNL     1      -3.881   5.909  15.047  1.00  0.00     0.002 C 
HETATM   11  C20 UNL     1      -4.662   5.644  13.767  1.00  0.00     0.002 C 
HETATM   12  C21 UNL     1      -3.628   5.289  12.702  1.00  0.00     0.024 C 
HETATM   13  C22 UNL     1      -2.063   7.362  12.733  1.00  0.00     0.135 C 
HETATM   14  C23 UNL     1      -2.333   8.347  13.827  1.00  0.00    -0.093 C 
HETATM   15  C24 UNL     1      -2.409   9.110  14.756  1.00  0.00    -0.069 C 
HETATM   16  C25 UNL     1      -2.406  10.032  15.911  1.00  0.00     0.230 C 
HETATM   17  C26 UNL     1      -1.593  11.286  15.610  1.00  0.00    -0.011 A 
HETATM   18  C27 UNL     1      -2.195  12.280  14.813  1.00  0.00     0.012 A 
HETATM   19  C28 UNL     1      -1.502  13.428  14.418  1.00  0.00     0.012 A 
HETATM   20  C29 UNL     1      -0.178  13.643  14.802  1.00  0.00     0.004 A 
HETATM   21  C31 UNL     1       0.435  12.652  15.590  1.00  0.00     0.019 A 
HETATM   22  C32 UNL     1      -0.247  11.492  16.023  1.00  0.00    -0.043 A 
HETATM   23  C33 UNL     1       0.549  10.528  16.894  1.00  0.00     0.080 C 
HETATM   24  C34 UNL     1       1.226   9.442  16.148  1.00  0.00    -0.025 C 
HETATM   25  C35 UNL     1       1.139   8.957  14.915  1.00  0.00     0.015 C 
HETATM   26  C36 UNL     1       0.459   9.169  13.633  1.00  0.00     0.107 C 
HETATM   27  N3  UNL     1       0.363   8.049  12.982  1.00  0.00    -0.335 N 
HETATM   28  C37 UNL     1       1.187   7.049  13.761  1.00  0.00     0.123 C 
HETATM   29  C38 UNL     1       1.645   7.629  14.866  1.00  0.00     0.060 C 
HETATM   30  N4  UNL     1       2.273   7.307  16.012  1.00  0.00    -0.364 N 
ATOM     31  H4  UNL     1       2.799   6.464  16.239  1.00  0.00     0.165 HD
HETATM   32  C39 UNL     1       2.033   8.355  16.761  1.00  0.00     0.096 C 
HETATM   33  C40 UNL     1      -0.687   7.729  11.987  1.00  0.00     0.251 C 
HETATM   34  O6  UNL     1      -0.469   6.849  10.856  1.00  0.00    -0.321 OA
HETATM   35  C41 UNL     1       0.837   6.571  10.525  1.00  0.00     0.106 A 
HETATM   36  C42 UNL     1       1.580   7.564   9.880  1.00  0.00     0.047 A 
ENDROOT
BRANCH   1  37
HETATM   37  C10 UNL     1       3.681   8.332   8.668  1.00  0.00     0.046 C 
BRANCH  37  38
HETATM   38  C9  UNL     1       4.607   9.193   9.524  1.00  0.00     0.083 C 
BRANCH  38  39
HETATM   39  C8  UNL     1       4.775   8.643  10.927  1.00  0.00     0.129 C 
HETATM   40  O3  UNL     1       3.900   8.863  11.774  1.00  0.00    -0.298 OA
BRANCH  39  41
HETATM   41  C7  UNL     1       6.038   7.892  11.293  1.00  0.00     0.110 C 
BRANCH  41  42
HETATM   42  C6  UNL     1       5.882   6.792  12.352  1.00  0.00     0.127 C 
BRANCH  42  43
HETATM   43  C5  UNL     1       6.718   7.065  13.622  1.00  0.00     0.063 C 
BRANCH  43  44
HETATM   44  C4  UNL     1       6.008   7.864  14.730  1.00  0.00     0.120 C 
BRANCH  44  45
HETATM   45  C3  UNL     1       6.960   8.651  15.648  1.00  0.00     0.031 C 
BRANCH  45  46
HETATM   46  C2  UNL     1       8.417   8.481  15.226  1.00  0.00    -0.002 C 
HETATM   47  C1  UNL     1       9.234   7.848  16.341  1.00  0.00     0.005 C 
ENDBRANCH  45  46
ENDBRANCH  44  45
BRANCH  44  48
HETATM   48  O1  UNL     1       5.170   6.995  15.489  1.00  0.00    -0.395 OA
HETATM   49  H9  UNL     1       5.715   6.591  16.200  1.00  0.00     0.210 HD
ENDBRANCH  44  48
ENDBRANCH  43  44
ENDBRANCH  42  43
BRANCH  42  50
HETATM   50  O2  UNL     1       6.134   5.493  11.820  1.00  0.00    -0.395 OA
HETATM   51  H13 UNL     1       7.092   5.369  11.730  1.00  0.00     0.210 HD
ENDBRANCH  42  50
ENDBRANCH  41  42
ENDBRANCH  39  41
ENDBRANCH  38  39
ENDBRANCH  37  38
ENDBRANCH   1  37
BRANCH  16  52
HETATM   52  O5  UNL     1      -3.741  10.382  16.255  1.00  0.00    -0.379 OA
HETATM   53  H32 UNL     1      -4.334  10.014  15.572  1.00  0.00     0.211 HD
ENDBRANCH  16  52
BRANCH  20  54
HETATM   54  C30 UNL     1       0.594  14.866  14.330  1.00  0.00     0.479 C 
BRANCH  54  55
HETATM   55  N1  UNL     1       0.873  14.870  12.922  1.00  0.00     0.116 N 
HETATM   56  H36 UNL     1       1.561  15.614  12.766  1.00  0.00     0.316 HD
HETATM   57  H37 UNL     1       0.033  15.209  12.448  1.00  0.00     0.316 HD
ENDBRANCH  54  55
BRANCH  54  58
HETATM   58  N2  UNL     1      -0.129  16.095  14.487  1.00  0.00     0.116 N 
HETATM   59  H38 UNL     1      -1.094  15.936  14.206  1.00  0.00     0.316 HD
HETATM   60  H39 UNL     1      -0.162  16.349  15.467  1.00  0.00     0.316 HD
ENDBRANCH  54  58
ENDBRANCH  20  54
TORSDOF 15
ENDMDL
MODEL 5
REMARK minimizedAffinity -7.09268093
REMARK CNNscore 0.120756224
REMARK CNNaffinity 6.09447622
REMARK  15 active torsions:
REMARK  status: ('A' for Active; 'I' for Inactive)
REMARK    1  A    between atoms: C2_2  and  C3_3 
REMARK    2  A    between atoms: C3_3  and  C4_4 
REMARK    3  A    between atoms: C4_4  and  O1_5 
REMARK    4  A    between atoms: C4_4  and  C5_6 
REMARK    5  A    between atoms: C5_6  and  C6_7 
REMARK    6  A    between atoms: C6_7  and  O2_8 
REMARK    7  A    between atoms: C6_7  and  C7_9 
REMARK    8  A    between atoms: C7_9  and  C8_10 
REMARK    9  A    between atoms: C8_10  and  C9_12 
REMARK   10  A    between atoms: C9_12  and  C10_13 
REMARK   11  A    between atoms: C10_13  and  C11_14 
REMARK   12  A    between atoms: C25_29  and  O5_30 
REMARK   13  A    between atoms: C29_34  and  C30_35 
REMARK   14  A    between atoms: C30_35  and  N1_36 
REMARK   15  A    between atoms: C30_35  and  N2_37 
ROOT
HETATM    1  C11 UNL     1     -16.643   6.461  19.862  1.00  0.00    -0.055 A 
HETATM    2  C12 UNL     1     -17.558   7.397  20.365  1.00  0.00     0.010 A 
HETATM    3  C13 UNL     1     -18.247   8.256  19.502  1.00  0.00     0.041 A 
HETATM    4  C14 UNL     1     -18.009   8.223  18.128  1.00  0.00     0.120 A 
HETATM    5  O4  UNL     1     -18.789   9.106  17.407  1.00  0.00    -0.258 OA
HETATM    6  C15 UNL     1     -18.314   9.397  16.200  1.00  0.00     0.061 C 
HETATM    7  C16 UNL     1     -17.715   9.485  15.155  1.00  0.00    -0.064 C 
HETATM    8  C17 UNL     1     -16.863   9.299  13.969  1.00  0.00     0.044 C 
HETATM    9  C18 UNL     1     -16.383  10.681  13.459  1.00  0.00     0.024 C 
HETATM   10  C19 UNL     1     -16.177  10.514  11.960  1.00  0.00     0.002 C 
HETATM   11  C20 UNL     1     -17.116   9.398  11.524  1.00  0.00     0.002 C 
HETATM   12  C21 UNL     1     -17.781   8.878  12.796  1.00  0.00     0.024 C 
HETATM   13  C22 UNL     1     -15.739   8.212  14.258  1.00  0.00     0.135 C 
HETATM   14  C23 UNL     1     -14.406   8.604  13.704  1.00  0.00    -0.093 C 
HETATM   15  C24 UNL     1     -13.315   9.004  13.384  1.00  0.00    -0.069 C 
HETATM   16  C25 UNL     1     -11.970   9.535  13.083  1.00  0.00     0.230 C 
HETATM   17  C26 UNL     1     -10.903   8.833  13.915  1.00  0.00    -0.011 A 
HETATM   18  C27 UNL     1     -10.493   7.549  13.505  1.00  0.00     0.012 A 
HETATM   19  C28 UNL     1      -9.580   6.794  14.248  1.00  0.00     0.012 A 
HETATM   20  C29 UNL     1      -9.027   7.285  15.431  1.00  0.00     0.004 A 
HETATM   21  C31 UNL     1      -9.438   8.563  15.853  1.00  0.00     0.019 A 
HETATM   22  C32 UNL     1     -10.342   9.357  15.113  1.00  0.00    -0.043 A 
HETATM   23  C33 UNL     1     -10.663  10.729  15.692  1.00  0.00     0.080 C 
HETATM   24  C34 UNL     1     -11.866  10.765  16.556  1.00  0.00    -0.025 C 
HETATM   25  C35 UNL     1     -12.879   9.938  16.786  1.00  0.00     0.015 C 
HETATM   26  C36 UNL     1     -13.389   8.608  16.439  1.00  0.00     0.107 C 
HETATM   27  N3  UNL     1     -14.684   8.583  16.531  1.00  0.00    -0.335 N 
HETATM   28  C37 UNL     1     -15.077   9.901  17.161  1.00  0.00     0.123 C 
HETATM   29  C38 UNL     1     -13.989  10.648  17.319  1.00  0.00     0.060 C 
HETATM   30  N4  UNL     1     -13.646  11.905  17.653  1.00  0.00    -0.364 N 
ATOM     31  H4  UNL     1     -14.202  12.617  18.127  1.00  0.00     0.165 HD
HETATM   32  C39 UNL     1     -12.414  11.981  17.213  1.00  0.00     0.096 C 
HETATM   33  C40 UNL     1     -15.576   7.680  15.766  1.00  0.00     0.251 C 
HETATM   34  O6  UNL     1     -16.844   7.195  16.276  1.00  0.00    -0.321 OA
HETATM   35  C41 UNL     1     -17.059   7.317  17.629  1.00  0.00     0.106 A 
HETATM   36  C42 UNL     1     -16.391   6.435  18.485  1.00  0.00     0.047 A 
ENDROOT
BRANCH   1  37
HETATM   37  C10 UNL     1     -15.995   5.461  20.802  1.00  0.00     0.046 C 
BRANCH  37  38
HETATM   38  C9  UNL     1     -15.858   5.943  22.244  1.00  0.00     0.083 C 
BRANCH  38  39
HETATM   39  C8  UNL     1     -14.412   6.157  22.647  1.00  0.00     0.129 C 
HETATM   40  O3  UNL     1     -13.893   5.394  23.471  1.00  0.00    -0.298 OA
BRANCH  39  41
HETATM   41  C7  UNL     1     -13.644   7.338  22.090  1.00  0.00     0.110 C 
BRANCH  41  42
HETATM   42  C6  UNL     1     -13.299   8.447  23.094  1.00  0.00     0.127 C 
BRANCH  42  43
HETATM   43  C5  UNL     1     -11.861   8.325  23.645  1.00  0.00     0.063 C 
BRANCH  43  44
HETATM   44  C4  UNL     1     -10.862   9.383  23.142  1.00  0.00     0.120 C 
BRANCH  44  45
HETATM   45  C3  UNL     1     -11.054  10.778  23.762  1.00  0.00     0.031 C 
BRANCH  45  46
HETATM   46  C2  UNL     1     -10.258  11.843  23.011  1.00  0.00    -0.002 C 
HETATM   47  C1  UNL     1      -9.337  12.599  23.955  1.00  0.00     0.005 C 
ENDBRANCH  45  46
ENDBRANCH  44  45
BRANCH  44  48
HETATM   48  O1  UNL     1     -10.906   9.448  21.718  1.00  0.00    -0.395 OA
HETATM   49  H9  UNL     1     -11.619  10.074  21.464  1.00  0.00     0.210 HD
ENDBRANCH  44  48
ENDBRANCH  43  44
ENDBRANCH  42  43
BRANCH  42  50
HETATM   50  O2  UNL     1     -14.262   8.543  24.141  1.00  0.00    -0.395 OA
HETATM   51  H13 UNL     1     -14.112   7.824  24.776  1.00  0.00     0.210 HD
ENDBRANCH  42  50
ENDBRANCH  41  42
ENDBRANCH  39  41
ENDBRANCH  38  39
ENDBRANCH  37  38
ENDBRANCH   1  37
BRANCH  16  52
HETATM   52  O5  UNL     1     -11.688   9.384  11.696  1.00  0.00    -0.379 OA
HETATM   53  H32 UNL     1     -12.412   8.863  11.298  1.00  0.00     0.211 HD
ENDBRANCH  16  52
BRANCH  20  54
HETATM   54  C30 UNL     1      -8.074   6.445  16.268  1.00  0.00     0.479 C 
BRANCH  54  55
HETATM   55  N1  UNL     1      -7.964   5.082  15.832  1.00  0.00     0.116 N 
HETATM   56  H36 UNL     1      -7.474   4.579  16.579  1.00  0.00     0.316 HD
HETATM   57  H37 UNL     1      -7.304   5.066  15.051  1.00  0.00     0.316 HD
ENDBRANCH  54  55
BRANCH  54  58
HETATM   58  N2  UNL     1      -6.710   6.885  16.195  1.00  0.00     0.116 N 
HETATM   59  H38 UNL     1      -6.501   7.119  15.227  1.00  0.00     0.316 HD
HETATM   60  H39 UNL     1      -6.600   7.745  16.720  1.00  0.00     0.316 HD
ENDBRANCH  54  58
ENDBRANCH  20  54
TORSDOF 15
ENDMDL
MODEL 6
REMARK minimizedAffinity -7.13477993
REMARK CNNscore 0.117017418
REMARK CNNaffinity 5.56962156
REMARK  15 active torsions:
REMARK  status: ('A' for Active; 'I' for Inactive)
REMARK    1  A    between atoms: C2_2  and  C3_3 
REMARK    2  A    between atoms: C3_3  and  C4_4 
REMARK    3  A    between atoms: C4_4  and  O1_5 
REMARK    4  A    between atoms: C4_4  and  C5_6 
REMARK    5  A    between atoms: C5_6  and  C6_7 
REMARK    6  A    between atoms: C6_7  and  O2_8 
REMARK    7  A    between atoms: C6_7  and  C7_9 
REMARK    8  A    between atoms: C7_9  and  C8_10 
REMARK    9  A    between atoms: C8_10  and  C9_12 
REMARK   10  A    between atoms: C9_12  and  C10_13 
REMARK   11  A    between atoms: C10_13  and  C11_14 
REMARK   12  A    between atoms: C25_29  and  O5_30 
REMARK   13  A    between atoms: C29_34  and  C30_35 
REMARK   14  A    between atoms: C30_35  and  N1_36 
REMARK   15  A    between atoms: C30_35  and  N2_37 
ROOT
HETATM    1  C11 UNL     1      -7.256 -10.451  11.446  1.00  0.00    -0.055 A 
HETATM    2  C12 UNL     1      -6.398 -11.297  12.165  1.00  0.00     0.010 A 
HETATM    3  C13 UNL     1      -6.906 -12.385  12.883  1.00  0.00     0.041 A 
HETATM    4  C14 UNL     1      -8.279 -12.627  12.928  1.00  0.00     0.120 A 
HETATM    5  O4  UNL     1      -8.623 -13.754  13.648  1.00  0.00    -0.258 OA
HETATM    6  C15 UNL     1      -9.887 -13.781  14.056  1.00  0.00     0.061 C 
HETATM    7  C16 UNL     1     -11.058 -13.601  14.286  1.00  0.00    -0.064 C 
HETATM    8  C17 UNL     1     -12.471 -13.185  14.303  1.00  0.00     0.044 C 
HETATM    9  C18 UNL     1     -12.985 -13.171  15.765  1.00  0.00     0.024 C 
HETATM   10  C19 UNL     1     -14.478 -13.461  15.676  1.00  0.00     0.002 C 
HETATM   11  C20 UNL     1     -14.677 -14.268  14.401  1.00  0.00     0.002 C 
HETATM   12  C21 UNL     1     -13.309 -14.352  13.730  1.00  0.00     0.024 C 
HETATM   13  C22 UNL     1     -12.666 -11.849  13.463  1.00  0.00     0.135 C 
HETATM   14  C23 UNL     1     -13.591 -10.881  14.131  1.00  0.00    -0.093 C 
HETATM   15  C24 UNL     1     -14.215 -10.059  14.752  1.00  0.00    -0.069 C 
HETATM   16  C25 UNL     1     -14.894  -9.019  15.552  1.00  0.00     0.230 C 
HETATM   17  C26 UNL     1     -14.525  -7.622  15.065  1.00  0.00    -0.011 A 
HETATM   18  C27 UNL     1     -15.160  -7.146  13.901  1.00  0.00     0.012 A 
HETATM   19  C28 UNL     1     -14.830  -5.912  13.333  1.00  0.00     0.012 A 
HETATM   20  C29 UNL     1     -13.855  -5.090  13.901  1.00  0.00     0.004 A 
HETATM   21  C31 UNL     1     -13.209  -5.561  15.059  1.00  0.00     0.019 A 
HETATM   22  C32 UNL     1     -13.537  -6.794  15.668  1.00  0.00    -0.043 A 
HETATM   23  C33 UNL     1     -12.765  -7.147  16.932  1.00  0.00     0.080 C 
HETATM   24  C34 UNL     1     -11.553  -7.968  16.703  1.00  0.00    -0.025 C 
HETATM   25  C35 UNL     1     -11.077  -8.671  15.682  1.00  0.00     0.015 C 
HETATM   26  C36 UNL     1     -11.354  -9.014  14.284  1.00  0.00     0.107 C 
HETATM   27  N3  UNL     1     -10.843 -10.172  13.993  1.00  0.00    -0.335 N 
HETATM   28  C37 UNL     1     -10.005 -10.563  15.189  1.00  0.00     0.123 C 
HETATM   29  C38 UNL     1     -10.147  -9.644  16.140  1.00  0.00     0.060 C 
HETATM   30  N4  UNL     1      -9.835  -9.446  17.433  1.00  0.00    -0.364 N 
ATOM     31  H4  UNL     1      -9.143  -9.930  18.006  1.00  0.00     0.165 HD
HETATM   32  C39 UNL     1     -10.648  -8.474  17.768  1.00  0.00     0.096 C 
HETATM   33  C40 UNL     1     -11.349 -11.087  12.944  1.00  0.00     0.251 C 
HETATM   34  O6  UNL     1     -10.496 -11.993  12.200  1.00  0.00    -0.321 OA
HETATM   35  C41 UNL     1      -9.142 -11.753  12.246  1.00  0.00     0.106 A 
HETATM   36  C42 UNL     1      -8.636 -10.683  11.501  1.00  0.00     0.047 A 
ENDROOT
BRANCH   1  37
HETATM   37  C10 UNL     1      -6.675  -9.349  10.579  1.00  0.00     0.046 C 
BRANCH  37  38
HETATM   38  C9  UNL     1      -5.252  -9.610  10.092  1.00  0.00     0.083 C 
BRANCH  38  39
HETATM   39  C8  UNL     1      -5.213 -10.109   8.661  1.00  0.00     0.129 C 
HETATM   40  O3  UNL     1      -6.061 -10.924   8.280  1.00  0.00    -0.298 OA
BRANCH  39  41
HETATM   41  C7  UNL     1      -4.100  -9.657   7.739  1.00  0.00     0.110 C 
BRANCH  41  42
HETATM   42  C6  UNL     1      -4.342  -9.874   6.239  1.00  0.00     0.127 C 
BRANCH  42  43
HETATM   43  C5  UNL     1      -3.111  -9.514   5.378  1.00  0.00     0.063 C 
BRANCH  43  44
HETATM   44  C4  UNL     1      -2.686 -10.573   4.345  1.00  0.00     0.120 C 
BRANCH  44  45
HETATM   45  C3  UNL     1      -3.784 -10.940   3.331  1.00  0.00     0.031 C 
BRANCH  45  46
HETATM   46  C2  UNL     1      -3.772 -10.005   2.124  1.00  0.00    -0.002 C 
HETATM   47  C1  UNL     1      -4.474 -10.642   0.936  1.00  0.00     0.005 C 
ENDBRANCH  45  46
ENDBRANCH  44  45
BRANCH  44  48
HETATM   48  O1  UNL     1      -2.203 -11.734   5.017  1.00  0.00    -0.395 OA
HETATM   49  H9  UNL     1      -2.972 -12.312   5.217  1.00  0.00     0.210 HD
ENDBRANCH  44  48
ENDBRANCH  43  44
ENDBRANCH  42  43
BRANCH  42  50
HETATM   50  O2  UNL     1      -5.520  -9.211   5.783  1.00  0.00    -0.395 OA
HETATM   51  H13 UNL     1      -5.333  -8.264   5.688  1.00  0.00     0.210 HD
ENDBRANCH  42  50
ENDBRANCH  41  42
ENDBRANCH  39  41
ENDBRANCH  38  39
ENDBRANCH  37  38
ENDBRANCH   1  37
BRANCH  16  52
HETATM   52  O5  UNL     1     -16.304  -9.204  15.491  1.00  0.00    -0.379 OA
HETATM   53  H32 UNL     1     -16.486  -9.910  14.842  1.00  0.00     0.211 HD
ENDBRANCH  16  52
BRANCH  20  54
HETATM   54  C30 UNL     1     -13.458  -3.772  13.256  1.00  0.00     0.479 C 
BRANCH  54  55
HETATM   55  N1  UNL     1     -14.444  -2.738  13.389  1.00  0.00     0.116 N 
HETATM   56  H36 UNL     1     -14.163  -1.986  12.751  1.00  0.00     0.316 HD
HETATM   57  H37 UNL     1     -14.328  -2.327  14.318  1.00  0.00     0.316 HD
ENDBRANCH  54  55
BRANCH  54  58
HETATM   58  N2  UNL     1     -12.311  -3.160  13.864  1.00  0.00     0.116 N 
HETATM   59  H38 UNL     1     -12.398  -3.252  14.874  1.00  0.00     0.316 HD
HETATM   60  H39 UNL     1     -11.475  -3.672  13.609  1.00  0.00     0.316 HD
ENDBRANCH  54  58
ENDBRANCH  20  54
TORSDOF 15
ENDMDL
MODEL 7
REMARK minimizedAffinity -7.4629035
REMARK CNNscore 0.103955708
REMARK CNNaffinity 5.01576614
REMARK  15 active torsions:
REMARK  status: ('A' for Active; 'I' for Inactive)
REMARK    1  A    between atoms: C2_2  and  C3_3 
REMARK    2  A    between atoms: C3_3  and  C4_4 
REMARK    3  A    between atoms: C4_4  and  O1_5 
REMARK    4  A    between atoms: C4_4  and  C5_6 
REMARK    5  A    between atoms: C5_6  and  C6_7 
REMARK    6  A    between atoms: C6_7  and  O2_8 
REMARK    7  A    between atoms: C6_7  and  C7_9 
REMARK    8  A    between atoms: C7_9  and  C8_10 
REMARK    9  A    between atoms: C8_10  and  C9_12 
REMARK   10  A    between atoms: C9_12  and  C10_13 
REMARK   11  A    between atoms: C10_13  and  C11_14 
REMARK   12  A    between atoms: C25_29  and  O5_30 
REMARK   13  A    between atoms: C29_34  and  C30_35 
REMARK   14  A    between atoms: C30_35  and  N1_36 
REMARK   15  A    between atoms: C30_35  and  N2_37 
ROOT
HETATM    1  C11 UNL     1     -10.173  -9.040   5.507  1.00  0.00    -0.055 A 
HETATM    2  C12 UNL     1     -10.108 -10.025   6.503  1.00  0.00     0.010 A 
HETATM    3  C13 UNL     1      -8.919 -10.726   6.736  1.00  0.00     0.041 A 
HETATM    4  C14 UNL     1      -7.788 -10.484   5.957  1.00  0.00     0.120 A 
HETATM    5  O4  UNL     1      -6.686 -11.229   6.328  1.00  0.00    -0.258 OA
HETATM    6  C15 UNL     1      -5.754 -11.338   5.387  1.00  0.00     0.061 C 
HETATM    7  C16 UNL     1      -5.049 -11.273   4.409  1.00  0.00    -0.064 C 
HETATM    8  C17 UNL     1      -4.363 -10.921   3.155  1.00  0.00     0.044 C 
HETATM    9  C18 UNL     1      -3.896 -12.216   2.443  1.00  0.00     0.024 C 
HETATM   10  C19 UNL     1      -2.659 -11.821   1.648  1.00  0.00     0.002 C 
HETATM   11  C20 UNL     1      -2.047 -10.633   2.378  1.00  0.00     0.002 C 
HETATM   12  C21 UNL     1      -2.993 -10.306   3.529  1.00  0.00     0.024 C 
HETATM   13  C22 UNL     1      -5.249  -9.914   2.301  1.00  0.00     0.135 C 
HETATM   14  C23 UNL     1      -5.243 -10.240   0.841  1.00  0.00    -0.093 C 
HETATM   15  C24 UNL     1      -5.346 -10.606  -0.302  1.00  0.00    -0.069 C 
HETATM   16  C25 UNL     1      -5.551 -11.108  -1.676  1.00  0.00     0.230 C 
HETATM   17  C26 UNL     1      -6.844 -10.565  -2.273  1.00  0.00    -0.011 A 
HETATM   18  C27 UNL     1      -6.837  -9.240  -2.754  1.00  0.00     0.012 A 
HETATM   19  C28 UNL     1      -7.993  -8.628  -3.245  1.00  0.00     0.012 A 
HETATM   20  C29 UNL     1      -9.211  -9.307  -3.286  1.00  0.00     0.004 A 
HETATM   21  C31 UNL     1      -9.230 -10.627  -2.799  1.00  0.00     0.019 A 
HETATM   22  C32 UNL     1      -8.073 -11.280  -2.317  1.00  0.00    -0.043 A 
HETATM   23  C33 UNL     1      -8.256 -12.719  -1.852  1.00  0.00     0.080 C 
HETATM   24  C34 UNL     1      -8.531 -12.866  -0.404  1.00  0.00    -0.025 C 
HETATM   25  C35 UNL     1      -8.443 -12.065   0.653  1.00  0.00     0.015 C 
HETATM   26  C36 UNL     1      -8.119 -10.688   1.037  1.00  0.00     0.107 C 
HETATM   27  N3  UNL     1      -7.671 -10.654   2.256  1.00  0.00    -0.335 N 
HETATM   28  C37 UNL     1      -7.878 -12.046   2.810  1.00  0.00     0.123 C 
HETATM   29  C38 UNL     1      -8.357 -12.829   1.849  1.00  0.00     0.060 C 
HETATM   30  N4  UNL     1      -8.611 -14.129   1.613  1.00  0.00    -0.364 N 
ATOM     31  H4  UNL     1      -8.701 -14.895   2.281  1.00  0.00     0.165 HD
HETATM   32  C39 UNL     1      -8.713 -14.159   0.307  1.00  0.00     0.096 C 
HETATM   33  C40 UNL     1      -6.751  -9.626   2.797  1.00  0.00     0.251 C 
HETATM   34  O6  UNL     1      -6.758  -9.203   4.183  1.00  0.00    -0.321 OA
HETATM   35  C41 UNL     1      -7.867  -9.529   4.929  1.00  0.00     0.106 A 
HETATM   36  C42 UNL     1      -9.044  -8.804   4.714  1.00  0.00     0.047 A 
ENDROOT
BRANCH   1  37
HETATM   37  C10 UNL     1     -11.434  -8.210   5.350  1.00  0.00     0.046 C 
BRANCH  37  38
HETATM   38  C9  UNL     1     -11.946  -7.584   6.645  1.00  0.00     0.083 C 
BRANCH  38  39
HETATM   39  C8  UNL     1     -12.787  -6.347   6.396  1.00  0.00     0.129 C 
HETATM   40  O3  UNL     1     -12.722  -5.781   5.298  1.00  0.00    -0.298 OA
BRANCH  39  41
HETATM   41  C7  UNL     1     -13.641  -5.782   7.512  1.00  0.00     0.110 C 
BRANCH  41  42
HETATM   42  C6  UNL     1     -14.281  -4.414   7.240  1.00  0.00     0.127 C 
BRANCH  42  43
HETATM   43  C5  UNL     1     -14.903  -3.785   8.507  1.00  0.00     0.063 C 
BRANCH  43  44
HETATM   44  C4  UNL     1     -13.910  -3.397   9.617  1.00  0.00     0.120 C 
BRANCH  44  45
HETATM   45  C3  UNL     1     -14.429  -3.647  11.044  1.00  0.00     0.031 C 
BRANCH  45  46
HETATM   46  C2  UNL     1     -14.274  -2.409  11.924  1.00  0.00    -0.002 C 
HETATM   47  C1  UNL     1     -15.623  -1.760  12.190  1.00  0.00     0.005 C 
ENDBRANCH  45  46
ENDBRANCH  44  45
BRANCH  44  48
HETATM   48  O1  UNL     1     -13.510  -2.038   9.451  1.00  0.00    -0.395 OA
HETATM   49  H9  UNL     1     -14.166  -1.469   9.910  1.00  0.00     0.210 HD
ENDBRANCH  44  48
ENDBRANCH  43  44
ENDBRANCH  42  43
BRANCH  42  50
HETATM   50  O2  UNL     1     -15.210  -4.460   6.160  1.00  0.00    -0.395 OA
HETATM   51  H13 UNL     1     -16.036  -4.864   6.470  1.00  0.00     0.210 HD
ENDBRANCH  42  50
ENDBRANCH  41  42
ENDBRANCH  39  41
ENDBRANCH  38  39
ENDBRANCH  37  38
ENDBRANCH   1  37
BRANCH  16  52
HETATM   52  O5  UNL     1      -4.443 -10.748  -2.494  1.00  0.00    -0.379 OA
HETATM   53  H32 UNL     1      -3.864 -10.158  -1.974  1.00  0.00     0.211 HD
ENDBRANCH  16  52
BRANCH  20  54
HETATM   54  C30 UNL     1     -10.482  -8.626  -3.771  1.00  0.00     0.479 C 
BRANCH  54  55
HETATM   55  N1  UNL     1     -10.344  -7.211  -3.971  1.00  0.00     0.116 N 
HETATM   56  H36 UNL     1     -11.293  -6.842  -4.088  1.00  0.00     0.316 HD
HETATM   57  H37 UNL     1      -9.913  -7.076  -4.888  1.00  0.00     0.316 HD
ENDBRANCH  54  55
BRANCH  54  58
HETATM   58  N2  UNL     1     -10.905  -9.063  -5.070  1.00  0.00     0.116 N 
HETATM   59  H38 UNL     1     -10.083  -9.139  -5.665  1.00  0.00     0.316 HD
HETATM   60  H39 UNL     1     -11.291  -9.998  -5.007  1.00  0.00     0.316 HD
ENDBRANCH  54  58
ENDBRANCH  20  54
TORSDOF 15
ENDMDL
MODEL 8
REMARK minimizedAffinity -7.14426374
REMARK CNNscore 0.0870134309
REMARK CNNaffinity 4.36488199
REMARK  15 active torsions:
REMARK  status: ('A' for Active; 'I' for Inactive)
REMARK    1  A    between atoms: C2_2  and  C3_3 
REMARK    2  A    between atoms: C3_3  and  C4_4 
REMARK    3  A    between atoms: C4_4  and  O1_5 
REMARK    4  A    between atoms: C4_4  and  C5_6 
REMARK    5  A    between atoms: C5_6  and  C6_7 
REMARK    6  A    between atoms: C6_7  and  O2_8 
REMARK    7  A    between atoms: C6_7  and  C7_9 
REMARK    8  A    between atoms: C7_9  and  C8_10 
REMARK    9  A    between atoms: C8_10  and  C9_12 
REMARK   10  A    between atoms: C9_12  and  C10_13 
REMARK   11  A    between atoms: C10_13  and  C11_14 
REMARK   12  A    between atoms: C25_29  and  O5_30 
REMARK   13  A    between atoms: C29_34  and  C30_35 
REMARK   14  A    between atoms: C30_35  and  N1_36 
REMARK   15  A    between atoms: C30_35  and  N2_37 
ROOT
HETATM    1  C11 UNL     1       7.082  13.542  14.428  1.00  0.00    -0.055 A 
HETATM    2  C12 UNL     1       7.947  14.644  14.359  1.00  0.00     0.010 A 
HETATM    3  C13 UNL     1       8.765  14.977  15.445  1.00  0.00     0.041 A 
HETATM    4  C14 UNL     1       8.708  14.241  16.629  1.00  0.00     0.120 A 
HETATM    5  O4  UNL     1       9.598  14.670  17.594  1.00  0.00    -0.258 OA
HETATM    6  C15 UNL     1       9.293  14.289  18.830  1.00  0.00     0.061 C 
HETATM    7  C16 UNL     1       8.838  13.808  19.840  1.00  0.00    -0.064 C 
HETATM    8  C17 UNL     1       8.144  13.008  20.863  1.00  0.00     0.044 C 
HETATM    9  C18 UNL     1       7.771  13.918  22.060  1.00  0.00     0.024 C 
HETATM   10  C19 UNL     1       7.758  13.006  23.279  1.00  0.00     0.002 C 
HETATM   11  C20 UNL     1       8.717  11.866  22.965  1.00  0.00     0.002 C 
HETATM   12  C21 UNL     1       9.196  12.093  21.534  1.00  0.00     0.024 C 
HETATM   13  C22 UNL     1       6.964  12.169  20.206  1.00  0.00     0.135 C 
HETATM   14  C23 UNL     1       5.726  12.166  21.045  1.00  0.00    -0.093 C 
HETATM   15  C24 UNL     1       4.697  12.300  21.658  1.00  0.00    -0.069 C 
HETATM   16  C25 UNL     1       3.416  12.544  22.353  1.00  0.00     0.230 C 
HETATM   17  C26 UNL     1       2.232  12.314  21.422  1.00  0.00    -0.011 A 
HETATM   18  C27 UNL     1       1.847  10.982  21.169  1.00  0.00     0.012 A 
HETATM   19  C28 UNL     1       0.825  10.668  20.268  1.00  0.00     0.012 A 
HETATM   20  C29 UNL     1       0.135  11.666  19.578  1.00  0.00     0.004 A 
HETATM   21  C31 UNL     1       0.520  12.998  19.817  1.00  0.00     0.019 A 
HETATM   22  C32 UNL     1       1.533  13.347  20.737  1.00  0.00    -0.043 A 
HETATM   23  C33 UNL     1       1.811  14.836  20.901  1.00  0.00     0.080 C 
HETATM   24  C34 UNL     1       2.890  15.359  20.031  1.00  0.00    -0.025 C 
HETATM   25  C35 UNL     1       3.843  14.808  19.288  1.00  0.00     0.015 C 
HETATM   26  C36 UNL     1       4.360  13.510  18.844  1.00  0.00     0.107 C 
HETATM   27  N3  UNL     1       5.631  13.593  18.590  1.00  0.00    -0.335 N 
HETATM   28  C37 UNL     1       5.972  15.064  18.674  1.00  0.00     0.123 C 
HETATM   29  C38 UNL     1       4.892  15.740  19.055  1.00  0.00     0.060 C 
HETATM   30  N4  UNL     1       4.540  16.976  19.453  1.00  0.00    -0.364 N 
ATOM     31  H4  UNL     1       5.048  17.853  19.341  1.00  0.00     0.165 HD
HETATM   32  C39 UNL     1       3.379  16.763  20.021  1.00  0.00     0.096 C 
HETATM   33  C40 UNL     1       6.592  12.468  18.671  1.00  0.00     0.251 C 
HETATM   34  O6  UNL     1       7.769  12.366  17.831  1.00  0.00    -0.321 OA
HETATM   35  C41 UNL     1       7.808  13.166  16.713  1.00  0.00     0.106 A 
HETATM   36  C42 UNL     1       7.012  12.811  15.619  1.00  0.00     0.047 A 
ENDROOT
BRANCH   1  37
HETATM   37  C10 UNL     1       6.291  13.129  13.200  1.00  0.00     0.046 C 
BRANCH  37  38
HETATM   38  C9  UNL     1       7.133  12.528  12.077  1.00  0.00     0.083 C 
BRANCH  38  39
HETATM   39  C8  UNL     1       6.865  11.049  11.880  1.00  0.00     0.129 C 
HETATM   40  O3  UNL     1       6.042  10.690  11.029  1.00  0.00    -0.298 OA
BRANCH  39  41
HETATM   41  C7  UNL     1       7.553  10.036  12.771  1.00  0.00     0.110 C 
BRANCH  41  42
HETATM   42  C6  UNL     1       6.912   8.642  12.820  1.00  0.00     0.127 C 
BRANCH  42  43
HETATM   43  C5  UNL     1       7.261   7.871  14.113  1.00  0.00     0.063 C 
BRANCH  43  44
HETATM   44  C4  UNL     1       7.506   8.738  15.361  1.00  0.00     0.120 C 
BRANCH  44  45
HETATM   45  C3  UNL     1       8.990   9.040  15.637  1.00  0.00     0.031 C 
BRANCH  45  46
HETATM   46  C2  UNL     1       9.897   7.933  15.104  1.00  0.00    -0.002 C 
HETATM   47  C1  UNL     1      10.795   8.455  13.993  1.00  0.00     0.005 C 
ENDBRANCH  45  46
ENDBRANCH  44  45
BRANCH  44  48
HETATM   48  O1  UNL     1       6.889   8.134  16.496  1.00  0.00    -0.395 OA
HETATM   49  H9  UNL     1       7.524   7.490  16.881  1.00  0.00     0.210 HD
ENDBRANCH  44  48
ENDBRANCH  43  44
ENDBRANCH  42  43
BRANCH  42  50
HETATM   50  O2  UNL     1       7.201   7.876  11.652  1.00  0.00    -0.395 OA
HETATM   51  H13 UNL     1       8.109   7.539  11.711  1.00  0.00     0.210 HD
ENDBRANCH  42  50
ENDBRANCH  41  42
ENDBRANCH  39  41
ENDBRANCH  38  39
ENDBRANCH  37  38
ENDBRANCH   1  37
BRANCH  16  52
HETATM   52  O5  UNL     1       3.315  11.698  23.494  1.00  0.00    -0.379 OA
HETATM   53  H32 UNL     1       4.072  11.080  23.477  1.00  0.00     0.211 HD
ENDBRANCH  16  52
BRANCH  20  54
HETATM   54  C30 UNL     1      -0.940  11.324  18.559  1.00  0.00     0.479 C 
BRANCH  54  55
HETATM   55  N1  UNL     1      -1.455  12.463  17.853  1.00  0.00     0.116 N 
HETATM   56  H36 UNL     1      -2.297  12.142  17.362  1.00  0.00     0.316 HD
HETATM   57  H37 UNL     1      -0.798  12.674  17.099  1.00  0.00     0.316 HD
ENDBRANCH  54  55
BRANCH  54  58
HETATM   58  N2  UNL     1      -0.467  10.503  17.481  1.00  0.00     0.116 N 
HETATM   59  H38 UNL     1       0.446  10.848  17.194  1.00  0.00     0.316 HD
HETATM   60  H39 UNL     1      -0.316   9.558  17.813  1.00  0.00     0.316 HD
ENDBRANCH  54  58
ENDBRANCH  20  54
TORSDOF 15
ENDMDL
MODEL 9
REMARK minimizedAffinity -7.88327885
REMARK CNNscore 0.0850501209
REMARK CNNaffinity 5.70909643
REMARK  15 active torsions:
REMARK  status: ('A' for Active; 'I' for Inactive)
REMARK    1  A    between atoms: C2_2  and  C3_3 
REMARK    2  A    between atoms: C3_3  and  C4_4 
REMARK    3  A    between atoms: C4_4  and  O1_5 
REMARK    4  A    between atoms: C4_4  and  C5_6 
REMARK    5  A    between atoms: C5_6  and  C6_7 
REMARK    6  A    between atoms: C6_7  and  O2_8 
REMARK    7  A    between atoms: C6_7  and  C7_9 
REMARK    8  A    between atoms: C7_9  and  C8_10 
REMARK    9  A    between atoms: C8_10  and  C9_12 
REMARK   10  A    between atoms: C9_12  and  C10_13 
REMARK   11  A    between atoms: C10_13  and  C11_14 
REMARK   12  A    between atoms: C25_29  and  O5_30 
REMARK   13  A    between atoms: C29_34  and  C30_35 
REMARK   14  A    between atoms: C30_35  and  N1_36 
REMARK   15  A    between atoms: C30_35  and  N2_37 
ROOT
HETATM    1  C11 UNL     1      -5.273 -10.057   6.134  1.00  0.00    -0.055 A 
HETATM    2  C12 UNL     1      -5.119 -11.433   6.357  1.00  0.00     0.010 A 
HETATM    3  C13 UNL     1      -5.106 -12.333   5.286  1.00  0.00     0.041 A 
HETATM    4  C14 UNL     1      -5.284 -11.882   3.978  1.00  0.00     0.120 A 
HETATM    5  O4  UNL     1      -5.213 -12.882   3.029  1.00  0.00    -0.258 OA
HETATM    6  C15 UNL     1      -5.776 -12.576   1.865  1.00  0.00     0.061 C 
HETATM    7  C16 UNL     1      -6.310 -12.070   0.907  1.00  0.00    -0.064 C 
HETATM    8  C17 UNL     1      -6.878 -11.172  -0.112  1.00  0.00     0.044 C 
HETATM    9  C18 UNL     1      -8.108 -11.851  -0.767  1.00  0.00     0.024 C 
HETATM   10  C19 UNL     1      -8.180 -11.289  -2.181  1.00  0.00     0.002 C 
HETATM   11  C20 UNL     1      -6.757 -10.897  -2.553  1.00  0.00     0.002 C 
HETATM   12  C21 UNL     1      -5.904 -11.154  -1.314  1.00  0.00     0.024 C 
HETATM   13  C22 UNL     1      -7.100  -9.718   0.491  1.00  0.00     0.135 C 
HETATM   14  C23 UNL     1      -8.398  -9.110   0.063  1.00  0.00    -0.093 C 
HETATM   15  C24 UNL     1      -9.507  -8.702  -0.170  1.00  0.00    -0.069 C 
HETATM   16  C25 UNL     1     -10.898  -8.245  -0.372  1.00  0.00     0.230 C 
HETATM   17  C26 UNL     1     -11.305  -7.235   0.694  1.00  0.00    -0.011 A 
HETATM   18  C27 UNL     1     -10.846  -5.911   0.551  1.00  0.00     0.012 A 
HETATM   19  C28 UNL     1     -11.100  -4.934   1.517  1.00  0.00     0.012 A 
HETATM   20  C29 UNL     1     -11.829  -5.227   2.671  1.00  0.00     0.004 A 
HETATM   21  C31 UNL     1     -12.284  -6.549   2.827  1.00  0.00     0.019 A 
HETATM   22  C32 UNL     1     -12.061  -7.553   1.858  1.00  0.00    -0.043 A 
HETATM   23  C33 UNL     1     -12.643  -8.927   2.164  1.00  0.00     0.080 C 
HETATM   24  C34 UNL     1     -11.708  -9.852   2.846  1.00  0.00    -0.025 C 
HETATM   25  C35 UNL     1     -10.399  -9.865   3.068  1.00  0.00     0.015 C 
HETATM   26  C36 UNL     1      -9.184  -9.068   2.872  1.00  0.00     0.107 C 
HETATM   27  N3  UNL     1      -8.144  -9.843   2.796  1.00  0.00    -0.335 N 
HETATM   28  C37 UNL     1      -8.636 -11.228   3.151  1.00  0.00     0.123 C 
HETATM   29  C38 UNL     1      -9.953 -11.189   3.331  1.00  0.00     0.060 C 
HETATM   30  N4  UNL     1     -10.992 -12.026   3.503  1.00  0.00    -0.364 N 
ATOM     31  H4  UNL     1     -10.985 -13.007   3.781  1.00  0.00     0.165 HD
HETATM   32  C39 UNL     1     -12.015 -11.257   3.223  1.00  0.00     0.096 C 
HETATM   33  C40 UNL     1      -6.892  -9.519   2.073  1.00  0.00     0.251 C 
HETATM   34  O6  UNL     1      -5.589 -10.007   2.482  1.00  0.00    -0.321 OA
HETATM   35  C41 UNL     1      -5.484 -10.508   3.758  1.00  0.00     0.106 A 
HETATM   36  C42 UNL     1      -5.466  -9.602   4.824  1.00  0.00     0.047 A 
ENDROOT
BRANCH   1  37
HETATM   37  C10 UNL     1      -5.166  -9.089   7.297  1.00  0.00     0.046 C 
BRANCH  37  38
HETATM   38  C9  UNL     1      -6.367  -9.094   8.239  1.00  0.00     0.083 C 
BRANCH  38  39
HETATM   39  C8  UNL     1      -5.983  -9.439   9.664  1.00  0.00     0.129 C 
HETATM   40  O3  UNL     1      -5.199 -10.373   9.873  1.00  0.00    -0.298 OA
BRANCH  39  41
HETATM   41  C7  UNL     1      -6.614  -8.684  10.816  1.00  0.00     0.110 C 
BRANCH  41  42
HETATM   42  C6  UNL     1      -6.495  -9.344  12.197  1.00  0.00     0.127 C 
BRANCH  42  43
HETATM   43  C5  UNL     1      -7.636 -10.348  12.476  1.00  0.00     0.063 C 
BRANCH  43  44
HETATM   44  C4  UNL     1      -8.820  -9.802  13.296  1.00  0.00     0.120 C 
BRANCH  44  45
HETATM   45  C3  UNL     1     -10.049 -10.728  13.321  1.00  0.00     0.031 C 
BRANCH  45  46
HETATM   46  C2  UNL     1     -10.491 -11.036  14.750  1.00  0.00    -0.002 C 
HETATM   47  C1  UNL     1     -10.729 -12.527  14.935  1.00  0.00     0.005 C 
ENDBRANCH  45  46
ENDBRANCH  44  45
BRANCH  44  48
HETATM   48  O1  UNL     1      -9.171  -8.502  12.827  1.00  0.00    -0.395 OA
HETATM   49  H9  UNL     1      -9.801  -8.607  12.081  1.00  0.00     0.210 HD
ENDBRANCH  44  48
ENDBRANCH  43  44
ENDBRANCH  42  43
BRANCH  42  50
HETATM   50  O2  UNL     1      -6.366  -8.384  13.243  1.00  0.00    -0.395 OA
HETATM   51  H13 UNL     1      -7.236  -7.995  13.425  1.00  0.00     0.210 HD
ENDBRANCH  42  50
ENDBRANCH  41  42
ENDBRANCH  39  41
ENDBRANCH  38  39
ENDBRANCH  37  38
ENDBRANCH   1  37
BRANCH  16  52
HETATM   52  O5  UNL     1     -11.037  -7.675  -1.668  1.00  0.00    -0.379 OA
HETATM   53  H32 UNL     1     -10.149  -7.622  -2.070  1.00  0.00     0.211 HD
ENDBRANCH  16  52
BRANCH  20  54
HETATM   54  C30 UNL     1     -12.062  -4.179   3.748  1.00  0.00     0.479 C 
BRANCH  54  55
HETATM   55  N1  UNL     1     -12.377  -2.876   3.234  1.00  0.00     0.116 N 
HETATM   56  H36 UNL     1     -12.305  -2.228   4.025  1.00  0.00     0.316 HD
HETATM   57  H37 UNL     1     -13.374  -2.874   3.006  1.00  0.00     0.316 HD
ENDBRANCH  54  55
BRANCH  54  58
HETATM   58  N2  UNL     1     -13.205  -4.450   4.572  1.00  0.00     0.116 N 
HETATM   59  H38 UNL     1     -13.962  -4.773   3.973  1.00  0.00     0.316 HD
HETATM   60  H39 UNL     1     -12.999  -5.219   5.199  1.00  0.00     0.316 HD
ENDBRANCH  54  58
ENDBRANCH  20  54
TORSDOF 15
ENDMDL
