MODEL 1
REMARK minimizedAffinity -7.35534811
REMARK CNNscore 0.57237184
REMARK CNNaffinity 6.14844894
REMARK  0 active torsions:
REMARK  status: ('A' for Active; 'I' for Inactive)
ROOT
HETATM    1  C1  UNL     1      -8.691  47.915 -27.809  1.00  0.00     0.023 C 
HETATM    2  C2  UNL     1      -8.892  46.533 -27.147  1.00  0.00     0.017 C 
HETATM    3  C3  UNL     1      -7.804  45.619 -27.771  1.00  0.00     0.023 C 
HETATM    4  C4  UNL     1      -8.644  46.673 -25.639  1.00  0.00     0.135 C 
HETATM    5  O1  UNL     1      -7.563  46.384 -25.124  1.00  0.00    -0.297 OA
HETATM    6  C5  UNL     1      -9.744  47.290 -24.801  1.00  0.00     0.080 C 
HETATM    7  C6  UNL     1     -11.111  46.671 -25.079  1.00  0.00     0.017 C 
HETATM    8  C7  UNL     1     -11.519  46.630 -26.587  1.00  0.00    -0.035 C 
HETATM    9  C8  UNL     1     -11.720  48.094 -27.052  1.00  0.00     0.016 C 
HETATM   10  C9  UNL     1     -10.343  45.927 -27.363  1.00  0.00     0.009 C 
HETATM   11  C10 UNL     1     -10.306  44.393 -27.099  1.00  0.00     0.007 C 
HETATM   12  C11 UNL     1     -11.604  43.715 -26.679  1.00  0.00     0.011 C 
HETATM   13  C12 UNL     1     -12.881  44.367 -27.234  1.00  0.00    -0.032 C 
HETATM   14  C13 UNL     1     -12.777  44.336 -28.790  1.00  0.00     0.016 C 
HETATM   15  C14 UNL     1     -12.928  45.841 -26.707  1.00  0.00     0.003 C 
HETATM   16  C15 UNL     1     -14.084  46.594 -27.420  1.00  0.00     0.006 C 
HETATM   17  C16 UNL     1     -15.371  45.773 -27.608  1.00  0.00     0.006 C 
HETATM   18  C17 UNL     1     -15.461  44.592 -26.640  1.00  0.00    -0.000 C 
HETATM   19  C18 UNL     1     -16.818  43.857 -26.601  1.00  0.00     0.009 C 
HETATM   20  C19 UNL     1     -18.130  44.647 -26.679  1.00  0.00     0.067 C 
HETATM   21  C20 UNL     1     -19.189  43.535 -26.906  1.00  0.00     0.140 C 
HETATM   22  C21 UNL     1     -18.417  42.249 -27.258  1.00  0.00     0.042 C 
HETATM   23  C22 UNL     1     -17.009  42.740 -27.641  1.00  0.00    -0.037 C 
HETATM   24  C23 UNL     1     -17.045  43.193 -29.117  1.00  0.00     0.015 C 
HETATM   25  C24 UNL     1     -15.910  41.695 -27.428  1.00  0.00     0.010 C 
HETATM   26  C25 UNL     1     -14.517  42.320 -27.600  1.00  0.00     0.011 C 
HETATM   27  C26 UNL     1     -14.224  43.590 -26.723  1.00  0.00    -0.032 C 
HETATM   28  C27 UNL     1     -14.028  43.051 -25.264  1.00  0.00     0.016 C 
HETATM   29  O2  UNL     1     -19.910  43.337 -25.675  1.00  0.00    -0.313 OA
HETATM   30  C28 UNL     1     -19.599  44.324 -24.784  1.00  0.00     0.297 C 
HETATM   31  O3  UNL     1     -20.038  44.427 -23.651  1.00  0.00    -0.262 OA
HETATM   32  C29 UNL     1     -18.604  45.221 -25.395  1.00  0.00     0.175 A 
HETATM   33  C30 UNL     1     -17.921  46.336 -24.647  1.00  0.00     0.218 A 
HETATM   34  O4  UNL     1     -19.030  46.593 -25.515  1.00  0.00    -0.364 OA
ENDROOT
TORSDOF 0
ENDMDL
MODEL 2
REMARK minimizedAffinity -7.70742369
REMARK CNNscore 0.484632552
REMARK CNNaffinity 6.39558029
REMARK  0 active torsions:
REMARK  status: ('A' for Active; 'I' for Inactive)
ROOT
HETATM    1  C1  UNL     1       5.450  56.832  -3.391  1.00  0.00     0.023 C 
HETATM    2  C2  UNL     1       5.255  57.467  -4.787  1.00  0.00     0.017 C 
HETATM    3  C3  UNL     1       4.475  58.784  -4.532  1.00  0.00     0.023 C 
HETATM    4  C4  UNL     1       6.636  57.791  -5.372  1.00  0.00     0.135 C 
HETATM    5  O1  UNL     1       7.128  58.919  -5.304  1.00  0.00    -0.297 OA
HETATM    6  C5  UNL     1       7.440  56.646  -5.951  1.00  0.00     0.080 C 
HETATM    7  C6  UNL     1       6.625  55.781  -6.908  1.00  0.00     0.017 C 
HETATM    8  C7  UNL     1       5.264  55.270  -6.335  1.00  0.00    -0.035 C 
HETATM    9  C8  UNL     1       5.587  54.278  -5.190  1.00  0.00     0.016 C 
HETATM   10  C9  UNL     1       4.483  56.533  -5.811  1.00  0.00     0.009 C 
HETATM   11  C10 UNL     1       3.924  57.397  -6.978  1.00  0.00     0.007 C 
HETATM   12  C11 UNL     1       3.675  56.709  -8.314  1.00  0.00     0.011 C 
HETATM   13  C12 UNL     1       3.298  55.222  -8.213  1.00  0.00    -0.032 C 
HETATM   14  C13 UNL     1       2.001  55.132  -7.350  1.00  0.00     0.016 C 
HETATM   15  C14 UNL     1       4.486  54.478  -7.514  1.00  0.00     0.003 C 
HETATM   16  C15 UNL     1       4.052  53.020  -7.199  1.00  0.00     0.006 C 
HETATM   17  C16 UNL     1       3.224  52.340  -8.302  1.00  0.00     0.006 C 
HETATM   18  C17 UNL     1       3.410  53.002  -9.668  1.00  0.00    -0.000 C 
HETATM   19  C18 UNL     1       2.802  52.245 -10.869  1.00  0.00     0.009 C 
HETATM   20  C19 UNL     1       2.888  50.716 -10.946  1.00  0.00     0.067 C 
HETATM   21  C20 UNL     1       1.922  50.376 -12.113  1.00  0.00     0.140 C 
HETATM   22  C21 UNL     1       1.118  51.654 -12.415  1.00  0.00     0.042 C 
HETATM   23  C22 UNL     1       1.322  52.538 -11.171  1.00  0.00    -0.037 C 
HETATM   24  C23 UNL     1       0.314  52.086 -10.091  1.00  0.00     0.015 C 
HETATM   25  C24 UNL     1       1.178  54.037 -11.445  1.00  0.00     0.010 C 
HETATM   26  C25 UNL     1       1.625  54.865 -10.231  1.00  0.00     0.011 C 
HETATM   27  C26 UNL     1       3.066  54.558  -9.688  1.00  0.00    -0.032 C 
HETATM   28  C27 UNL     1       4.047  55.187 -10.736  1.00  0.00     0.016 C 
HETATM   29  O2  UNL     1       2.710  50.024 -13.266  1.00  0.00    -0.313 OA
HETATM   30  C28 UNL     1       4.021  49.882 -12.914  1.00  0.00     0.297 C 
HETATM   31  O3  UNL     1       4.937  49.599 -13.669  1.00  0.00    -0.262 OA
HETATM   32  C29 UNL     1       4.164  50.177 -11.479  1.00  0.00     0.175 A 
HETATM   33  C30 UNL     1       5.494  50.264 -10.777  1.00  0.00     0.218 A 
HETATM   34  O4  UNL     1       4.685  49.086 -10.693  1.00  0.00    -0.364 OA
ENDROOT
TORSDOF 0
ENDMDL
MODEL 3
REMARK minimizedAffinity -7.68246651
REMARK CNNscore 0.422549933
REMARK CNNaffinity 5.76839066
REMARK  0 active torsions:
REMARK  status: ('A' for Active; 'I' for Inactive)
ROOT
HETATM    1  C1  UNL     1     -18.742  43.672 -24.178  1.00  0.00     0.023 C 
HETATM    2  C2  UNL     1     -18.447  44.523 -25.434  1.00  0.00     0.017 C 
HETATM    3  C3  UNL     1     -19.509  44.091 -26.480  1.00  0.00     0.023 C 
HETATM    4  C4  UNL     1     -18.645  46.002 -25.078  1.00  0.00     0.135 C 
HETATM    5  O1  UNL     1     -19.690  46.603 -25.335  1.00  0.00    -0.297 OA
HETATM    6  C5  UNL     1     -17.547  46.689 -24.294  1.00  0.00     0.080 C 
HETATM    7  C6  UNL     1     -16.162  46.446 -24.885  1.00  0.00     0.017 C 
HETATM    8  C7  UNL     1     -15.809  44.944 -25.136  1.00  0.00    -0.035 C 
HETATM    9  C8  UNL     1     -15.700  44.258 -23.751  1.00  0.00     0.016 C 
HETATM   10  C9  UNL     1     -16.976  44.335 -26.000  1.00  0.00     0.009 C 
HETATM   11  C10 UNL     1     -16.925  44.826 -27.476  1.00  0.00     0.007 C 
HETATM   12  C11 UNL     1     -15.579  45.284 -28.024  1.00  0.00     0.011 C 
HETATM   13  C12 UNL     1     -14.359  44.582 -27.407  1.00  0.00    -0.032 C 
HETATM   14  C13 UNL     1     -14.520  43.054 -27.677  1.00  0.00     0.016 C 
HETATM   15  C14 UNL     1     -14.367  44.880 -25.869  1.00  0.00     0.003 C 
HETATM   16  C15 UNL     1     -13.278  44.012 -25.182  1.00  0.00     0.006 C 
HETATM   17  C16 UNL     1     -11.960  43.891 -25.964  1.00  0.00     0.006 C 
HETATM   18  C17 UNL     1     -11.773  45.020 -26.980  1.00  0.00    -0.000 C 
HETATM   19  C18 UNL     1     -10.380  45.107 -27.639  1.00  0.00     0.009 C 
HETATM   20  C19 UNL     1      -9.113  44.854 -26.811  1.00  0.00     0.067 C 
HETATM   21  C20 UNL     1      -8.009  44.748 -27.897  1.00  0.00     0.140 C 
HETATM   22  C21 UNL     1      -8.726  44.626 -29.255  1.00  0.00     0.042 C 
HETATM   23  C22 UNL     1     -10.171  44.238 -28.890  1.00  0.00    -0.037 C 
HETATM   24  C23 UNL     1     -10.213  42.710 -28.664  1.00  0.00     0.015 C 
HETATM   25  C24 UNL     1     -11.207  44.653 -29.939  1.00  0.00     0.010 C 
HETATM   26  C25 UNL     1     -12.635  44.453 -29.411  1.00  0.00     0.011 C 
HETATM   27  C26 UNL     1     -12.959  45.142 -28.037  1.00  0.00    -0.032 C 
HETATM   28  C27 UNL     1     -13.073  46.672 -28.358  1.00  0.00     0.016 C 
HETATM   29  O2  UNL     1      -7.233  45.961 -27.874  1.00  0.00    -0.313 OA
HETATM   30  C28 UNL     1      -7.560  46.708 -26.779  1.00  0.00     0.297 C 
HETATM   31  O3  UNL     1      -7.085  47.792 -26.486  1.00  0.00    -0.262 OA
HETATM   32  C29 UNL     1      -8.622  46.015 -26.030  1.00  0.00     0.175 A 
HETATM   33  C30 UNL     1      -9.332  46.618 -24.846  1.00  0.00     0.218 A 
HETATM   34  O4  UNL     1      -8.271  45.673 -24.673  1.00  0.00    -0.364 OA
ENDROOT
TORSDOF 0
ENDMDL
MODEL 4
REMARK minimizedAffinity -7.34226513
REMARK CNNscore 0.41010797
REMARK CNNaffinity 5.48163366
REMARK  0 active torsions:
REMARK  status: ('A' for Active; 'I' for Inactive)
ROOT
HETATM    1  C1  UNL     1      -9.052  42.478 -30.280  1.00  0.00     0.023 C 
HETATM    2  C2  UNL     1      -9.114  43.937 -29.775  1.00  0.00     0.017 C 
HETATM    3  C3  UNL     1      -7.656  44.297 -29.383  1.00  0.00     0.023 C 
HETATM    4  C4  UNL     1      -9.573  44.834 -30.933  1.00  0.00     0.135 C 
HETATM    5  O1  UNL     1      -8.775  45.467 -31.626  1.00  0.00    -0.297 OA
HETATM    6  C5  UNL     1     -11.048  44.837 -31.276  1.00  0.00     0.080 C 
HETATM    7  C6  UNL     1     -11.936  45.023 -30.050  1.00  0.00     0.017 C 
HETATM    8  C7  UNL     1     -11.643  44.040 -28.871  1.00  0.00    -0.035 C 
HETATM    9  C8  UNL     1     -12.034  42.619 -29.347  1.00  0.00     0.016 C 
HETATM   10  C9  UNL     1     -10.105  44.148 -28.554  1.00  0.00     0.009 C 
HETATM   11  C10 UNL     1      -9.753  45.479 -27.828  1.00  0.00     0.007 C 
HETATM   12  C11 UNL     1     -10.858  46.171 -27.039  1.00  0.00     0.011 C 
HETATM   13  C12 UNL     1     -11.910  45.225 -26.439  1.00  0.00    -0.032 C 
HETATM   14  C13 UNL     1     -11.158  44.239 -25.492  1.00  0.00     0.016 C 
HETATM   15  C14 UNL     1     -12.587  44.455 -27.622  1.00  0.00     0.003 C 
HETATM   16  C15 UNL     1     -13.497  43.338 -27.042  1.00  0.00     0.006 C 
HETATM   17  C16 UNL     1     -14.297  43.741 -25.792  1.00  0.00     0.006 C 
HETATM   18  C17 UNL     1     -14.449  45.257 -25.655  1.00  0.00    -0.000 C 
HETATM   19  C18 UNL     1     -15.429  45.738 -24.564  1.00  0.00     0.009 C 
HETATM   20  C19 UNL     1     -16.751  44.997 -24.327  1.00  0.00     0.067 C 
HETATM   21  C20 UNL     1     -17.256  45.611 -22.995  1.00  0.00     0.140 C 
HETATM   22  C21 UNL     1     -16.080  46.406 -22.395  1.00  0.00     0.042 C 
HETATM   23  C22 UNL     1     -14.843  45.887 -23.150  1.00  0.00    -0.037 C 
HETATM   24  C23 UNL     1     -14.382  44.579 -22.471  1.00  0.00     0.015 C 
HETATM   25  C24 UNL     1     -13.690  46.893 -23.214  1.00  0.00     0.010 C 
HETATM   26  C25 UNL     1     -12.592  46.411 -24.173  1.00  0.00     0.011 C 
HETATM   27  C26 UNL     1     -13.065  46.048 -25.626  1.00  0.00    -0.032 C 
HETATM   28  C27 UNL     1     -13.357  47.420 -26.323  1.00  0.00     0.016 C 
HETATM   29  O2  UNL     1     -18.339  46.513 -23.292  1.00  0.00    -0.313 OA
HETATM   30  C28 UNL     1     -18.723  46.373 -24.594  1.00  0.00     0.297 C 
HETATM   31  O3  UNL     1     -19.607  47.003 -25.149  1.00  0.00    -0.262 OA
HETATM   32  C29 UNL     1     -17.860  45.370 -25.240  1.00  0.00     0.175 A 
HETATM   33  C30 UNL     1     -17.899  45.067 -26.715  1.00  0.00     0.218 A 
HETATM   34  O4  UNL     1     -18.564  44.226 -25.766  1.00  0.00    -0.364 OA
ENDROOT
TORSDOF 0
ENDMDL
MODEL 5
REMARK minimizedAffinity -6.68324995
REMARK CNNscore 0.363683939
REMARK CNNaffinity 5.9693923
REMARK  0 active torsions:
REMARK  status: ('A' for Active; 'I' for Inactive)
ROOT
HETATM    1  C1  UNL     1       6.482  63.714 -14.616  1.00  0.00     0.023 C 
HETATM    2  C2  UNL     1       7.204  65.004 -15.064  1.00  0.00     0.017 C 
HETATM    3  C3  UNL     1       6.888  65.146 -16.577  1.00  0.00     0.023 C 
HETATM    4  C4  UNL     1       6.603  66.190 -14.298  1.00  0.00     0.135 C 
HETATM    5  O1  UNL     1       5.734  66.913 -14.789  1.00  0.00    -0.297 OA
HETATM    6  C5  UNL     1       7.034  66.389 -12.860  1.00  0.00     0.080 C 
HETATM    7  C6  UNL     1       8.549  66.333 -12.688  1.00  0.00     0.017 C 
HETATM    8  C7  UNL     1       9.235  65.070 -13.304  1.00  0.00    -0.035 C 
HETATM    9  C8  UNL     1       8.765  63.843 -12.483  1.00  0.00     0.016 C 
HETATM   10  C9  UNL     1       8.770  64.981 -14.806  1.00  0.00     0.009 C 
HETATM   11  C10 UNL     1       9.455  66.062 -15.691  1.00  0.00     0.007 C 
HETATM   12  C11 UNL     1      10.794  66.619 -15.223  1.00  0.00     0.011 C 
HETATM   13  C12 UNL     1      11.652  65.635 -14.411  1.00  0.00    -0.032 C 
HETATM   14  C13 UNL     1      11.914  64.393 -15.318  1.00  0.00     0.016 C 
HETATM   15  C14 UNL     1      10.836  65.234 -13.136  1.00  0.00     0.003 C 
HETATM   16  C15 UNL     1      11.577  64.080 -12.407  1.00  0.00     0.006 C 
HETATM   17  C16 UNL     1      13.108  64.221 -12.363  1.00  0.00     0.006 C 
HETATM   18  C17 UNL     1      13.571  65.663 -12.574  1.00  0.00    -0.000 C 
HETATM   19  C18 UNL     1      15.069  65.933 -12.314  1.00  0.00     0.009 C 
HETATM   20  C19 UNL     1      15.786  65.258 -11.138  1.00  0.00     0.067 C 
HETATM   21  C20 UNL     1      17.281  65.560 -11.427  1.00  0.00     0.140 C 
HETATM   22  C21 UNL     1      17.358  66.093 -12.871  1.00  0.00     0.042 C 
HETATM   23  C22 UNL     1      16.014  65.685 -13.501  1.00  0.00    -0.037 C 
HETATM   24  C23 UNL     1      16.132  64.219 -13.973  1.00  0.00     0.015 C 
HETATM   25  C24 UNL     1      15.575  66.586 -14.659  1.00  0.00     0.010 C 
HETATM   26  C25 UNL     1      14.131  66.274 -15.081  1.00  0.00     0.011 C 
HETATM   27  C26 UNL     1      13.059  66.317 -13.934  1.00  0.00    -0.032 C 
HETATM   28  C27 UNL     1      12.854  67.837 -13.613  1.00  0.00     0.016 C 
HETATM   29  O2  UNL     1      17.721  66.585 -10.516  1.00  0.00    -0.313 OA
HETATM   30  C28 UNL     1      16.773  66.800  -9.557  1.00  0.00     0.297 C 
HETATM   31  O3  UNL     1      16.846  67.612  -8.651  1.00  0.00    -0.262 OA
HETATM   32  C29 UNL     1      15.619  65.925  -9.824  1.00  0.00     0.175 A 
HETATM   33  C30 UNL     1      14.326  65.999  -9.054  1.00  0.00     0.218 A 
HETATM   34  O4  UNL     1      15.310  65.002  -8.759  1.00  0.00    -0.364 OA
ENDROOT
TORSDOF 0
ENDMDL
MODEL 6
REMARK minimizedAffinity -7.54397297
REMARK CNNscore 0.35908848
REMARK CNNaffinity 6.19735575
REMARK  0 active torsions:
REMARK  status: ('A' for Active; 'I' for Inactive)
ROOT
HETATM    1  C1  UNL     1      -2.139  50.385 -11.665  1.00  0.00     0.023 C 
HETATM    2  C2  UNL     1      -1.883  51.889 -11.912  1.00  0.00     0.017 C 
HETATM    3  C3  UNL     1      -1.065  51.954 -13.229  1.00  0.00     0.023 C 
HETATM    4  C4  UNL     1      -3.235  52.588 -12.110  1.00  0.00     0.135 C 
HETATM    5  O1  UNL     1      -3.689  52.830 -13.229  1.00  0.00    -0.297 OA
HETATM    6  C5  UNL     1      -4.061  52.880 -10.875  1.00  0.00     0.080 C 
HETATM    7  C6  UNL     1      -3.250  53.552  -9.771  1.00  0.00     0.017 C 
HETATM    8  C7  UNL     1      -1.924  52.817  -9.390  1.00  0.00    -0.035 C 
HETATM    9  C8  UNL     1      -2.314  51.469  -8.737  1.00  0.00     0.016 C 
HETATM   10  C9  UNL     1      -1.115  52.608 -10.725  1.00  0.00     0.009 C 
HETATM   11  C10 UNL     1      -0.493  53.938 -11.243  1.00  0.00     0.007 C 
HETATM   12  C11 UNL     1      -0.231  55.042 -10.226  1.00  0.00     0.011 C 
HETATM   13  C12 UNL     1       0.091  54.547  -8.806  1.00  0.00    -0.032 C 
HETATM   14  C13 UNL     1       1.359  53.644  -8.908  1.00  0.00     0.016 C 
HETATM   15  C14 UNL     1      -1.141  53.724  -8.300  1.00  0.00     0.003 C 
HETATM   16  C15 UNL     1      -0.767  53.028  -6.963  1.00  0.00     0.006 C 
HETATM   17  C16 UNL     1       0.068  53.888  -5.999  1.00  0.00     0.006 C 
HETATM   18  C17 UNL     1      -0.057  55.385  -6.289  1.00  0.00    -0.000 C 
HETATM   19  C18 UNL     1       0.558  56.327  -5.232  1.00  0.00     0.009 C 
HETATM   20  C19 UNL     1       0.422  56.011  -3.737  1.00  0.00     0.067 C 
HETATM   21  C20 UNL     1       1.407  57.014  -3.082  1.00  0.00     0.140 C 
HETATM   22  C21 UNL     1       2.264  57.606  -4.217  1.00  0.00     0.042 C 
HETATM   23  C22 UNL     1       2.055  56.640  -5.397  1.00  0.00    -0.037 C 
HETATM   24  C23 UNL     1       3.017  55.445  -5.214  1.00  0.00     0.015 C 
HETATM   25  C24 UNL     1       2.259  57.286  -6.771  1.00  0.00     0.010 C 
HETATM   26  C25 UNL     1       1.807  56.343  -7.896  1.00  0.00     0.011 C 
HETATM   27  C26 UNL     1       0.342  55.792  -7.778  1.00  0.00    -0.032 C 
HETATM   28  C27 UNL     1      -0.587  57.001  -8.139  1.00  0.00     0.016 C 
HETATM   29  O2  UNL     1       0.640  58.066  -2.465  1.00  0.00    -0.313 OA
HETATM   30  C28 UNL     1      -0.684  57.737  -2.453  1.00  0.00     0.297 C 
HETATM   31  O3  UNL     1      -1.587  58.425  -2.009  1.00  0.00    -0.262 OA
HETATM   32  C29 UNL     1      -0.857  56.432  -3.113  1.00  0.00     0.175 A 
HETATM   33  C30 UNL     1      -2.202  55.825  -3.414  1.00  0.00     0.218 A 
HETATM   34  O4  UNL     1      -1.438  55.411  -2.276  1.00  0.00    -0.364 OA
ENDROOT
TORSDOF 0
ENDMDL
MODEL 7
REMARK minimizedAffinity -8.25681686
REMARK CNNscore 0.33915171
REMARK CNNaffinity 6.45086432
REMARK  0 active torsions:
REMARK  status: ('A' for Active; 'I' for Inactive)
ROOT
HETATM    1  C1  UNL     1      -3.615  50.730 -10.766  1.00  0.00     0.023 C 
HETATM    2  C2  UNL     1      -2.805  51.748 -11.599  1.00  0.00     0.017 C 
HETATM    3  C3  UNL     1      -2.680  51.116 -13.011  1.00  0.00     0.023 C 
HETATM    4  C4  UNL     1      -3.607  53.054 -11.688  1.00  0.00     0.135 C 
HETATM    5  O1  UNL     1      -4.307  53.326 -12.665  1.00  0.00    -0.297 OA
HETATM    6  C5  UNL     1      -3.603  53.964 -10.478  1.00  0.00     0.080 C 
HETATM    7  C6  UNL     1      -2.198  54.216  -9.938  1.00  0.00     0.017 C 
HETATM    8  C7  UNL     1      -1.357  52.928  -9.665  1.00  0.00    -0.035 C 
HETATM    9  C8  UNL     1      -2.031  52.176  -8.491  1.00  0.00     0.016 C 
HETATM   10  C9  UNL     1      -1.376  52.078 -10.991  1.00  0.00     0.009 C 
HETATM   11  C10 UNL     1      -0.476  52.703 -12.096  1.00  0.00     0.007 C 
HETATM   12  C11 UNL     1       0.670  53.602 -11.652  1.00  0.00     0.011 C 
HETATM   13  C12 UNL     1       1.271  53.252 -10.281  1.00  0.00    -0.032 C 
HETATM   14  C13 UNL     1       1.788  51.782 -10.366  1.00  0.00     0.016 C 
HETATM   15  C14 UNL     1       0.130  53.382  -9.216  1.00  0.00     0.003 C 
HETATM   16  C15 UNL     1       0.643  52.827  -7.859  1.00  0.00     0.006 C 
HETATM   17  C16 UNL     1       2.097  53.194  -7.519  1.00  0.00     0.006 C 
HETATM   18  C17 UNL     1       2.590  54.418  -8.291  1.00  0.00    -0.000 C 
HETATM   19  C18 UNL     1       3.951  54.993  -7.842  1.00  0.00     0.009 C 
HETATM   20  C19 UNL     1       4.310  55.061  -6.353  1.00  0.00     0.067 C 
HETATM   21  C20 UNL     1       5.823  55.406  -6.379  1.00  0.00     0.140 C 
HETATM   22  C21 UNL     1       6.303  55.204  -7.829  1.00  0.00     0.042 C 
HETATM   23  C22 UNL     1       5.196  54.357  -8.483  1.00  0.00    -0.037 C 
HETATM   24  C23 UNL     1       5.453  52.876  -8.128  1.00  0.00     0.015 C 
HETATM   25  C24 UNL     1       5.096  54.534 -10.001  1.00  0.00     0.010 C 
HETATM   26  C25 UNL     1       3.833  53.855 -10.552  1.00  0.00     0.011 C 
HETATM   27  C26 UNL     1       2.480  54.274  -9.875  1.00  0.00    -0.032 C 
HETATM   28  C27 UNL     1       2.181  55.719 -10.403  1.00  0.00     0.016 C 
HETATM   29  O2  UNL     1       5.979  56.791  -6.014  1.00  0.00    -0.313 OA
HETATM   30  C28 UNL     1       4.797  57.290  -5.548  1.00  0.00     0.297 C 
HETATM   31  O3  UNL     1       4.604  58.433  -5.172  1.00  0.00    -0.262 OA
HETATM   32  C29 UNL     1       3.773  56.235  -5.622  1.00  0.00     0.175 A 
HETATM   33  C30 UNL     1       2.314  56.472  -5.330  1.00  0.00     0.218 A 
HETATM   34  O4  UNL     1       3.181  55.886  -4.353  1.00  0.00    -0.364 OA
ENDROOT
TORSDOF 0
ENDMDL
MODEL 8
REMARK minimizedAffinity -6.84471178
REMARK CNNscore 0.335947186
REMARK CNNaffinity 5.61585045
REMARK  0 active torsions:
REMARK  status: ('A' for Active; 'I' for Inactive)
ROOT
HETATM    1  C1  UNL     1       4.418  58.128  -2.560  1.00  0.00     0.023 C 
HETATM    2  C2  UNL     1       4.615  58.522  -4.041  1.00  0.00     0.017 C 
HETATM    3  C3  UNL     1       3.691  59.750  -4.264  1.00  0.00     0.023 C 
HETATM    4  C4  UNL     1       6.078  58.934  -4.246  1.00  0.00     0.135 C 
HETATM    5  O1  UNL     1       6.433  60.114  -4.239  1.00  0.00    -0.297 OA
HETATM    6  C5  UNL     1       7.110  57.831  -4.351  1.00  0.00     0.080 C 
HETATM    7  C6  UNL     1       6.703  56.737  -5.334  1.00  0.00     0.017 C 
HETATM    8  C7  UNL     1       5.277  56.143  -5.101  1.00  0.00    -0.035 C 
HETATM    9  C8  UNL     1       5.308  55.379  -3.755  1.00  0.00     0.016 C 
HETATM   10  C9  UNL     1       4.274  57.356  -5.062  1.00  0.00     0.009 C 
HETATM   11  C10 UNL     1       4.037  57.961  -6.476  1.00  0.00     0.007 C 
HETATM   12  C11 UNL     1       4.269  57.059  -7.681  1.00  0.00     0.011 C 
HETATM   13  C12 UNL     1       3.999  55.566  -7.431  1.00  0.00    -0.032 C 
HETATM   14  C13 UNL     1       2.510  55.435  -6.983  1.00  0.00     0.016 C 
HETATM   15  C14 UNL     1       4.967  55.093  -6.295  1.00  0.00     0.003 C 
HETATM   16  C15 UNL     1       4.575  53.653  -5.866  1.00  0.00     0.006 C 
HETATM   17  C16 UNL     1       4.186  52.718  -7.023  1.00  0.00     0.006 C 
HETATM   18  C17 UNL     1       4.732  53.191  -8.371  1.00  0.00    -0.000 C 
HETATM   19  C18 UNL     1       4.588  52.195  -9.541  1.00  0.00     0.009 C 
HETATM   20  C19 UNL     1       4.815  50.696  -9.316  1.00  0.00     0.067 C 
HETATM   21  C20 UNL     1       4.288  50.066 -10.633  1.00  0.00     0.140 C 
HETATM   22  C21 UNL     1       3.517  51.172 -11.380  1.00  0.00     0.042 C 
HETATM   23  C22 UNL     1       3.256  52.246 -10.308  1.00  0.00    -0.037 C 
HETATM   24  C23 UNL     1       2.002  51.829  -9.508  1.00  0.00     0.015 C 
HETATM   25  C24 UNL     1       3.084  53.658 -10.876  1.00  0.00     0.010 C 
HETATM   26  C25 UNL     1       3.066  54.705  -9.752  1.00  0.00     0.011 C 
HETATM   27  C26 UNL     1       4.288  54.670  -8.767  1.00  0.00    -0.032 C 
HETATM   28  C27 UNL     1       5.492  55.262  -9.577  1.00  0.00     0.016 C 
HETATM   29  O2  UNL     1       5.419  49.656 -11.425  1.00  0.00    -0.313 OA
HETATM   30  C28 UNL     1       6.564  49.739 -10.686  1.00  0.00     0.297 C 
HETATM   31  O3  UNL     1       7.687  49.470 -11.077  1.00  0.00    -0.262 OA
HETATM   32  C29 UNL     1       6.231  50.255  -9.348  1.00  0.00     0.175 A 
HETATM   33  C30 UNL     1       7.268  50.616  -8.316  1.00  0.00     0.218 A 
HETATM   34  O4  UNL     1       6.570  49.367  -8.263  1.00  0.00    -0.364 OA
ENDROOT
TORSDOF 0
ENDMDL
MODEL 9
REMARK minimizedAffinity -7.11084366
REMARK CNNscore 0.288045555
REMARK CNNaffinity 6.58754015
REMARK  0 active torsions:
REMARK  status: ('A' for Active; 'I' for Inactive)
ROOT
HETATM    1  C1  UNL     1       6.466  54.382  -4.709  1.00  0.00     0.023 C 
HETATM    2  C2  UNL     1       5.675  55.479  -5.456  1.00  0.00     0.017 C 
HETATM    3  C3  UNL     1       5.137  56.423  -4.348  1.00  0.00     0.023 C 
HETATM    4  C4  UNL     1       6.645  56.249  -6.362  1.00  0.00     0.135 C 
HETATM    5  O1  UNL     1       7.147  57.321  -6.022  1.00  0.00    -0.297 OA
HETATM    6  C5  UNL     1       7.061  55.594  -7.662  1.00  0.00     0.080 C 
HETATM    7  C6  UNL     1       5.874  55.058  -8.456  1.00  0.00     0.017 C 
HETATM    8  C7  UNL     1       4.909  54.128  -7.650  1.00  0.00    -0.035 C 
HETATM    9  C8  UNL     1       5.690  52.834  -7.313  1.00  0.00     0.016 C 
HETATM   10  C9  UNL     1       4.492  54.915  -6.352  1.00  0.00     0.009 C 
HETATM   11  C10 UNL     1       3.488  56.063  -6.664  1.00  0.00     0.007 C 
HETATM   12  C11 UNL     1       2.636  55.937  -7.920  1.00  0.00     0.011 C 
HETATM   13  C12 UNL     1       2.303  54.494  -8.332  1.00  0.00    -0.032 C 
HETATM   14  C13 UNL     1       1.541  53.838  -7.139  1.00  0.00     0.016 C 
HETATM   15  C14 UNL     1       3.656  53.754  -8.604  1.00  0.00     0.003 C 
HETATM   16  C15 UNL     1       3.370  52.241  -8.809  1.00  0.00     0.006 C 
HETATM   17  C16 UNL     1       2.110  51.928  -9.633  1.00  0.00     0.006 C 
HETATM   18  C17 UNL     1       1.671  53.104 -10.507  1.00  0.00    -0.000 C 
HETATM   19  C18 UNL     1       0.559  52.800 -11.534  1.00  0.00     0.009 C 
HETATM   20  C19 UNL     1       0.555  51.472 -12.301  1.00  0.00     0.067 C 
HETATM   21  C20 UNL     1      -0.846  51.465 -12.968  1.00  0.00     0.140 C 
HETATM   22  C21 UNL     1      -1.661  52.594 -12.308  1.00  0.00     0.042 C 
HETATM   23  C22 UNL     1      -0.885  52.924 -11.020  1.00  0.00    -0.037 C 
HETATM   24  C23 UNL     1      -1.303  51.907  -9.936  1.00  0.00     0.015 C 
HETATM   25  C24 UNL     1      -1.094  54.356 -10.521  1.00  0.00     0.010 C 
HETATM   26  C25 UNL     1      -0.117  54.690  -9.384  1.00  0.00     0.011 C 
HETATM   27  C26 UNL     1       1.403  54.450  -9.695  1.00  0.00    -0.032 C 
HETATM   28  C27 UNL     1       1.816  55.609 -10.666  1.00  0.00     0.016 C 
HETATM   29  O2  UNL     1      -0.683  51.752 -14.370  1.00  0.00    -0.313 OA
HETATM   30  C28 UNL     1       0.639  51.713 -14.707  1.00  0.00     0.297 C 
HETATM   31  O3  UNL     1       1.100  51.923 -15.816  1.00  0.00    -0.262 OA
HETATM   32  C29 UNL     1       1.430  51.426 -13.498  1.00  0.00     0.175 A 
HETATM   33  C30 UNL     1       2.936  51.457 -13.465  1.00  0.00     0.218 A 
HETATM   34  O4  UNL     1       2.220  50.222 -13.573  1.00  0.00    -0.364 OA
ENDROOT
TORSDOF 0
ENDMDL
