MODEL 1
REMARK minimizedAffinity -11.6178999
REMARK CNNscore 0.469566584
REMARK CNNaffinity 8.19770145
REMARK  13 active torsions:
REMARK  status: ('A' for Active; 'I' for Inactive)
REMARK    1  A    between atoms: C5_6  and  C6_7 
REMARK    2  A    between atoms: C5_6  and  C27_31 
REMARK    3  A    between atoms: C18_19  and  O2_20 
REMARK    4  A    between atoms: C23_25  and  O3_26 
REMARK    5  A    between atoms: C28_33  and  C29_34 
REMARK    6  A    between atoms: C29_34  and  O6_36 
REMARK    7  A    between atoms: C29_34  and  C31_37 
REMARK    8  A    between atoms: C31_37  and  C33_39 
REMARK    9  A    between atoms: C31_37  and  C34_41 
REMARK   10  A    between atoms: C33_39  and  O7_40 
REMARK   11  A    between atoms: C34_41  and  C35_42 
REMARK   12  A    between atoms: C35_42  and  C36_43 
REMARK   13  A    between atoms: C39_47  and  N2_48 
ROOT
HETATM    1  C1  UNL     1       0.209   8.384   8.549  1.00  0.00     0.010 C 
HETATM    2  C2  UNL     1       0.838   7.824   9.828  1.00  0.00    -0.014 C 
HETATM    3  C3  UNL     1       2.332   7.533   9.629  1.00  0.00     0.030 C 
HETATM    4  C4  UNL     1       2.681   6.083   9.942  1.00  0.00     0.169 C 
HETATM    5  O1  UNL     1       2.215   5.718  11.237  1.00  0.00    -0.377 OA
HETATM    6  C5  UNL     1       0.774   5.787  11.434  1.00  0.00     0.094 C 
HETATM    7  C41 UNL     1       0.095   6.567  10.279  1.00  0.00     0.045 C 
ENDROOT
BRANCH   6   8
HETATM    8  C6  UNL     1       0.628   6.326  12.902  1.00  0.00     0.035 C 
HETATM    9  C7  UNL     1       1.975   6.471  13.720  1.00  0.00     0.016 C 
HETATM   10  C8  UNL     1       1.767   7.687  14.636  1.00  0.00     0.026 C 
HETATM   11  C9  UNL     1       2.428   7.754  15.999  1.00  0.00     0.013 C 
HETATM   12  C18 UNL     1       0.251   7.720  14.779  1.00  0.00     0.094 C 
HETATM   13  C10 UNL     1       1.964   9.049  16.713  1.00  0.00     0.043 C 
HETATM   14  C11 UNL     1       0.513   9.454  16.470  1.00  0.00    -0.006 C 
HETATM   15  C12 UNL     1      -0.289   8.860  15.564  1.00  0.00    -0.030 C 
HETATM   16  C26 UNL     1      -0.054  10.491  17.378  1.00  0.00     0.161 C 
HETATM   17  C13 UNL     1      -1.772   9.124  15.403  1.00  0.00     0.027 C 
HETATM   18  C14 UNL     1      -2.370   8.711  14.015  1.00  0.00     0.011 C 
HETATM   19  C19 UNL     1      -2.158  10.582  15.839  1.00  0.00    -0.026 C 
HETATM   20  C15 UNL     1      -1.735   7.473  13.339  1.00  0.00     0.014 C 
HETATM   21  C16 UNL     1      -0.203   7.603  13.303  1.00  0.00    -0.002 C 
HETATM   22  C17 UNL     1       0.177   8.850  12.466  1.00  0.00     0.019 C 
HETATM   23  C20 UNL     1      -1.668  11.636  14.810  1.00  0.00     0.016 C 
HETATM   24  C21 UNL     1      -3.712  10.675  15.939  1.00  0.00     0.013 C 
HETATM   25  C25 UNL     1      -1.499  10.951  17.207  1.00  0.00     0.071 C 
HETATM   26  C22 UNL     1      -4.174  11.653  17.013  1.00  0.00     0.032 C 
HETATM   27  C23 UNL     1      -3.697  11.228  18.406  1.00  0.00     0.119 C 
HETATM   28  C24 UNL     1      -2.360  10.481  18.385  1.00  0.00     0.045 C 
HETATM   29  O4  UNL     1       0.652  10.944  18.278  1.00  0.00    -0.292 OA
BRANCH  27  30
HETATM   30  O3  UNL     1      -3.545  12.402  19.199  1.00  0.00    -0.396 OA
HETATM   31  H34 UNL     1      -4.422  12.813  19.300  1.00  0.00     0.210 HD
ENDBRANCH  27  30
BRANCH  12  32
HETATM   32  O2  UNL     1      -0.188   6.552  15.506  1.00  0.00    -0.384 OA
HETATM   33  H25 UNL     1       0.060   6.670  16.438  1.00  0.00     0.211 HD
ENDBRANCH  12  32
ENDBRANCH   6   8
BRANCH   6  34
HETATM   34  C27 UNL     1       0.203   4.365  11.393  1.00  0.00     0.189 A 
HETATM   35  O5  UNL     1      -0.412   3.914  12.612  1.00  0.00    -0.369 OA
HETATM   36  C28 UNL     1      -1.287   4.091  11.488  1.00  0.00     0.189 A 
BRANCH  36  37
HETATM   37  C29 UNL     1      -1.986   2.828  11.005  1.00  0.00     0.092 C 
HETATM   38  C30 UNL     1      -1.182   1.562  11.348  1.00  0.00     0.049 C 
BRANCH  37  39
HETATM   39  O6  UNL     1      -1.941   2.895   9.571  1.00  0.00    -0.387 OA
HETATM   40  H43 UNL     1      -2.809   3.224   9.255  1.00  0.00     0.210 HD
ENDBRANCH  37  39
BRANCH  37  41
HETATM   41  C31 UNL     1      -3.512   2.745  11.507  1.00  0.00     0.011 C 
HETATM   42  C32 UNL     1      -3.945   1.277  11.736  1.00  0.00     0.020 C 
BRANCH  41  43
HETATM   43  C33 UNL     1      -4.453   3.341  10.422  1.00  0.00     0.176 C 
BRANCH  43  44
HETATM   44  O7  UNL     1      -5.507   2.423  10.125  1.00  0.00    -0.400 OA
HETATM   45  H49 UNL     1      -6.232   2.947   9.732  1.00  0.00     0.209 HD
ENDBRANCH  43  44
ENDBRANCH  41  43
BRANCH  41  46
HETATM   46  C34 UNL     1      -3.680   3.542  12.848  1.00  0.00     0.019 C 
BRANCH  46  47
HETATM   47  C35 UNL     1      -4.167   4.995  12.732  1.00  0.00     0.039 C 
BRANCH  47  48
HETATM   48  C36 UNL     1      -5.571   5.120  13.287  1.00  0.00    -0.054 A 
HETATM   49  C37 UNL     1      -5.877   6.104  14.231  1.00  0.00     0.024 A 
HETATM   50  C38 UNL     1      -7.156   6.162  14.763  1.00  0.00     0.090 A 
HETATM   51  N1  UNL     1      -8.076   5.277  14.363  1.00  0.00    -0.357 N 
HETATM   52  C39 UNL     1      -7.833   4.317  13.469  1.00  0.00     0.077 A 
HETATM   53  H56 UNL     1      -9.016   5.294  14.748  1.00  0.00     0.166 HD
HETATM   54  C40 UNL     1      -6.569   4.214  12.908  1.00  0.00     0.049 A 
BRANCH  52  55
HETATM   55  N2  UNL     1      -8.879   3.458  13.163  1.00  0.00    -0.289 NA
HETATM   56  H57 UNL     1      -9.059   3.458  12.155  1.00  0.00     0.125 HD
HETATM   57  H58 UNL     1      -8.626   2.491  13.377  1.00  0.00     0.125 HD
ENDBRANCH  52  55
ENDBRANCH  47  48
ENDBRANCH  46  47
ENDBRANCH  41  46
ENDBRANCH  37  41
ENDBRANCH  36  37
ENDBRANCH   6  34
TORSDOF 13
ENDMDL
MODEL 2
REMARK minimizedAffinity -8.19694233
REMARK CNNscore 0.445653051
REMARK CNNaffinity 7.3079505
REMARK  13 active torsions:
REMARK  status: ('A' for Active; 'I' for Inactive)
REMARK    1  A    between atoms: C5_6  and  C6_7 
REMARK    2  A    between atoms: C5_6  and  C27_31 
REMARK    3  A    between atoms: C18_19  and  O2_20 
REMARK    4  A    between atoms: C23_25  and  O3_26 
REMARK    5  A    between atoms: C28_33  and  C29_34 
REMARK    6  A    between atoms: C29_34  and  O6_36 
REMARK    7  A    between atoms: C29_34  and  C31_37 
REMARK    8  A    between atoms: C31_37  and  C33_39 
REMARK    9  A    between atoms: C31_37  and  C34_41 
REMARK   10  A    between atoms: C33_39  and  O7_40 
REMARK   11  A    between atoms: C34_41  and  C35_42 
REMARK   12  A    between atoms: C35_42  and  C36_43 
REMARK   13  A    between atoms: C39_47  and  N2_48 
ROOT
HETATM    1  C1  UNL     1     -16.193   9.421  25.268  1.00  0.00     0.010 C 
HETATM    2  C2  UNL     1     -15.744   9.252  23.814  1.00  0.00    -0.014 C 
HETATM    3  C3  UNL     1     -16.951   9.137  22.873  1.00  0.00     0.030 C 
HETATM    4  C4  UNL     1     -16.915   7.857  22.047  1.00  0.00     0.169 C 
HETATM    5  O1  UNL     1     -15.670   7.726  21.368  1.00  0.00    -0.377 OA
HETATM    6  C5  UNL     1     -14.492   7.634  22.219  1.00  0.00     0.094 C 
HETATM    7  C41 UNL     1     -14.831   8.035  23.678  1.00  0.00     0.045 C 
ENDROOT
BRANCH   6   8
HETATM    8  C6  UNL     1     -13.408   8.459  21.438  1.00  0.00     0.035 C 
HETATM    9  C7  UNL     1     -13.828   8.957  19.995  1.00  0.00     0.016 C 
HETATM   10  C8  UNL     1     -13.118  10.306  19.807  1.00  0.00     0.026 C 
HETATM   11  C9  UNL     1     -12.662  10.758  18.433  1.00  0.00     0.013 C 
HETATM   12  C18 UNL     1     -11.925  10.170  20.745  1.00  0.00     0.094 C 
HETATM   13  C10 UNL     1     -11.911  12.105  18.578  1.00  0.00     0.043 C 
HETATM   14  C11 UNL     1     -11.052  12.253  19.830  1.00  0.00    -0.006 C 
HETATM   15  C12 UNL     1     -11.060  11.374  20.852  1.00  0.00    -0.030 C 
HETATM   16  C26 UNL     1     -10.077  13.381  19.846  1.00  0.00     0.161 C 
HETATM   17  C13 UNL     1     -10.114  11.398  22.035  1.00  0.00     0.027 C 
HETATM   18  C14 UNL     1     -10.614  10.614  23.297  1.00  0.00     0.011 C 
HETATM   19  C19 UNL     1      -9.620  12.853  22.359  1.00  0.00    -0.026 C 
HETATM   20  C15 UNL     1     -11.465   9.352  23.025  1.00  0.00     0.014 C 
HETATM   21  C16 UNL     1     -12.606   9.672  22.043  1.00  0.00    -0.002 C 
HETATM   22  C17 UNL     1     -13.529  10.743  22.676  1.00  0.00     0.019 C 
HETATM   23  C20 UNL     1     -10.745  13.709  23.002  1.00  0.00     0.016 C 
HETATM   24  C21 UNL     1      -8.434  12.760  23.367  1.00  0.00     0.013 C 
HETATM   25  C25 UNL     1      -9.177  13.597  21.060  1.00  0.00     0.071 C 
HETATM   26  C22 UNL     1      -7.417  13.881  23.182  1.00  0.00     0.032 C 
HETATM   27  C23 UNL     1      -6.779  13.840  21.790  1.00  0.00     0.119 C 
HETATM   28  C24 UNL     1      -7.717  13.289  20.711  1.00  0.00     0.045 C 
HETATM   29  O4  UNL     1      -9.995  14.109  18.859  1.00  0.00    -0.292 OA
BRANCH  27  30
HETATM   30  O3  UNL     1      -6.411  15.169  21.432  1.00  0.00    -0.396 OA
HETATM   31  H34 UNL     1      -5.732  15.474  22.059  1.00  0.00     0.210 HD
ENDBRANCH  27  30
BRANCH  12  32
HETATM   32  O2  UNL     1     -11.039   9.144  20.247  1.00  0.00    -0.384 OA
HETATM   33  H25 UNL     1     -10.584   9.495  19.465  1.00  0.00     0.211 HD
ENDBRANCH  12  32
ENDBRANCH   6   8
BRANCH   6  34
HETATM   34  C27 UNL     1     -14.032   6.172  22.266  1.00  0.00     0.189 A 
HETATM   35  O5  UNL     1     -13.077   5.862  23.296  1.00  0.00    -0.369 OA
HETATM   36  C28 UNL     1     -14.372   5.256  23.427  1.00  0.00     0.189 A 
BRANCH  36  37
HETATM   37  C29 UNL     1     -14.385   3.735  23.379  1.00  0.00     0.092 C 
HETATM   38  C30 UNL     1     -13.776   3.199  22.070  1.00  0.00     0.049 C 
BRANCH  37  39
HETATM   39  O6  UNL     1     -15.772   3.370  23.296  1.00  0.00    -0.387 OA
HETATM   40  H43 UNL     1     -16.073   3.118  24.193  1.00  0.00     0.210 HD
ENDBRANCH  37  39
BRANCH  37  41
HETATM   41  C31 UNL     1     -13.717   3.076  24.685  1.00  0.00     0.011 C 
HETATM   42  C32 UNL     1     -12.195   2.872  24.492  1.00  0.00     0.020 C 
BRANCH  41  43
HETATM   43  C33 UNL     1     -14.342   1.676  24.943  1.00  0.00     0.176 C 
BRANCH  43  44
HETATM   44  O7  UNL     1     -15.768   1.760  24.921  1.00  0.00    -0.400 OA
HETATM   45  H49 UNL     1     -16.098   0.859  24.737  1.00  0.00     0.209 HD
ENDBRANCH  43  44
ENDBRANCH  41  43
BRANCH  41  46
HETATM   46  C34 UNL     1     -13.955   3.999  25.932  1.00  0.00     0.019 C 
BRANCH  46  47
HETATM   47  C35 UNL     1     -14.694   3.372  27.125  1.00  0.00     0.039 C 
BRANCH  47  48
HETATM   48  C36 UNL     1     -13.829   3.439  28.367  1.00  0.00    -0.054 A 
HETATM   49  C37 UNL     1     -12.860   2.463  28.611  1.00  0.00     0.024 A 
HETATM   50  C38 UNL     1     -12.119   2.518  29.782  1.00  0.00     0.090 A 
HETATM   51  N1  UNL     1     -12.344   3.504  30.658  1.00  0.00    -0.357 N 
HETATM   52  C39 UNL     1     -13.261   4.455  30.473  1.00  0.00     0.077 A 
HETATM   53  H56 UNL     1     -11.822   3.556  31.527  1.00  0.00     0.166 HD
HETATM   54  C40 UNL     1     -14.030   4.445  29.319  1.00  0.00     0.049 A 
BRANCH  52  55
HETATM   55  N2  UNL     1     -13.397   5.404  31.477  1.00  0.00    -0.289 NA
HETATM   56  H57 UNL     1     -13.277   6.347  31.096  1.00  0.00     0.125 HD
HETATM   57  H58 UNL     1     -14.348   5.400  31.851  1.00  0.00     0.125 HD
ENDBRANCH  52  55
ENDBRANCH  47  48
ENDBRANCH  46  47
ENDBRANCH  41  46
ENDBRANCH  37  41
ENDBRANCH  36  37
ENDBRANCH   6  34
TORSDOF 13
ENDMDL
MODEL 3
REMARK minimizedAffinity -10.1147156
REMARK CNNscore 0.385734856
REMARK CNNaffinity 7.03280115
REMARK  13 active torsions:
REMARK  status: ('A' for Active; 'I' for Inactive)
REMARK    1  A    between atoms: C5_6  and  C6_7 
REMARK    2  A    between atoms: C5_6  and  C27_31 
REMARK    3  A    between atoms: C18_19  and  O2_20 
REMARK    4  A    between atoms: C23_25  and  O3_26 
REMARK    5  A    between atoms: C28_33  and  C29_34 
REMARK    6  A    between atoms: C29_34  and  O6_36 
REMARK    7  A    between atoms: C29_34  and  C31_37 
REMARK    8  A    between atoms: C31_37  and  C33_39 
REMARK    9  A    between atoms: C31_37  and  C34_41 
REMARK   10  A    between atoms: C33_39  and  O7_40 
REMARK   11  A    between atoms: C34_41  and  C35_42 
REMARK   12  A    between atoms: C35_42  and  C36_43 
REMARK   13  A    between atoms: C39_47  and  N2_48 
ROOT
HETATM    1  C1  UNL     1      -4.055  11.235  19.053  1.00  0.00     0.010 C 
HETATM    2  C2  UNL     1      -2.748  11.473  18.292  1.00  0.00    -0.014 C 
HETATM    3  C3  UNL     1      -2.812  12.771  17.475  1.00  0.00     0.030 C 
HETATM    4  C4  UNL     1      -2.533  12.533  15.996  1.00  0.00     0.169 C 
HETATM    5  O1  UNL     1      -1.309  11.827  15.817  1.00  0.00    -0.377 OA
HETATM    6  C5  UNL     1      -1.253  10.498  16.409  1.00  0.00     0.094 C 
HETATM    7  C41 UNL     1      -2.433  10.280  17.392  1.00  0.00     0.045 C 
ENDROOT
BRANCH   6   8
HETATM    8  C6  UNL     1       0.216  10.398  16.954  1.00  0.00     0.035 C 
HETATM    9  C7  UNL     1       1.348  10.235  15.858  1.00  0.00     0.016 C 
HETATM   10  C8  UNL     1       2.571  10.975  16.423  1.00  0.00     0.026 C 
HETATM   11  C9  UNL     1       3.977  10.504  16.104  1.00  0.00     0.013 C 
HETATM   12  C18 UNL     1       2.315  10.910  17.923  1.00  0.00     0.094 C 
HETATM   13  C10 UNL     1       4.984  11.391  16.879  1.00  0.00     0.043 C 
HETATM   14  C11 UNL     1       4.547  11.824  18.275  1.00  0.00    -0.006 C 
HETATM   15  C12 UNL     1       3.307  11.624  18.768  1.00  0.00    -0.030 C 
HETATM   16  C26 UNL     1       5.601  12.394  19.161  1.00  0.00     0.161 C 
HETATM   17  C13 UNL     1       2.880  11.894  20.196  1.00  0.00     0.027 C 
HETATM   18  C14 UNL     1       1.335  12.060  20.403  1.00  0.00     0.011 C 
HETATM   19  C19 UNL     1       3.724  13.044  20.852  1.00  0.00    -0.026 C 
HETATM   20  C15 UNL     1       0.428  11.214  19.480  1.00  0.00     0.014 C 
HETATM   21  C16 UNL     1       0.845  11.385  18.008  1.00  0.00    -0.002 C 
HETATM   22  C17 UNL     1       0.677  12.872  17.608  1.00  0.00     0.019 C 
HETATM   23  C20 UNL     1       3.341  14.435  20.277  1.00  0.00     0.016 C 
HETATM   24  C21 UNL     1       3.444  13.052  22.386  1.00  0.00     0.013 C 
HETATM   25  C25 UNL     1       5.248  12.848  20.575  1.00  0.00     0.071 C 
HETATM   26  C22 UNL     1       4.649  13.503  23.202  1.00  0.00     0.032 C 
HETATM   27  C23 UNL     1       5.846  12.566  23.006  1.00  0.00     0.119 C 
HETATM   28  C24 UNL     1       5.890  11.923  21.616  1.00  0.00     0.045 C 
HETATM   29  O4  UNL     1       6.755  12.464  18.743  1.00  0.00    -0.292 OA
BRANCH  27  30
HETATM   30  O3  UNL     1       7.038  13.325  23.189  1.00  0.00    -0.396 OA
HETATM   31  H34 UNL     1       7.057  13.640  24.110  1.00  0.00     0.210 HD
ENDBRANCH  27  30
BRANCH  12  32
HETATM   32  O2  UNL     1       2.400   9.538  18.365  1.00  0.00    -0.384 OA
HETATM   33  H25 UNL     1       3.335   9.277  18.354  1.00  0.00     0.211 HD
ENDBRANCH  12  32
ENDBRANCH   6   8
BRANCH   6  34
HETATM   34  C27 UNL     1      -1.417   9.457  15.296  1.00  0.00     0.189 A 
HETATM   35  O5  UNL     1      -1.437   8.087  15.734  1.00  0.00    -0.369 OA
HETATM   36  C28 UNL     1      -2.659   8.592  15.176  1.00  0.00     0.189 A 
BRANCH  36  37
HETATM   37  C29 UNL     1      -3.131   7.894  13.908  1.00  0.00     0.092 C 
HETATM   38  C30 UNL     1      -2.408   8.427  12.658  1.00  0.00     0.049 C 
BRANCH  37  39
HETATM   39  O6  UNL     1      -4.494   8.313  13.730  1.00  0.00    -0.387 OA
HETATM   40  H43 UNL     1      -5.077   7.601  14.068  1.00  0.00     0.210 HD
ENDBRANCH  37  39
BRANCH  37  41
HETATM   41  C31 UNL     1      -3.056   6.293  14.029  1.00  0.00     0.011 C 
HETATM   42  C32 UNL     1      -3.455   5.821  15.448  1.00  0.00     0.020 C 
BRANCH  41  43
HETATM   43  C33 UNL     1      -1.597   5.816  13.777  1.00  0.00     0.176 C 
BRANCH  43  44
HETATM   44  O7  UNL     1      -1.022   5.328  14.991  1.00  0.00    -0.400 OA
HETATM   45  H49 UNL     1      -0.284   4.742  14.733  1.00  0.00     0.209 HD
ENDBRANCH  43  44
ENDBRANCH  41  43
BRANCH  41  46
HETATM   46  C34 UNL     1      -4.017   5.629  12.981  1.00  0.00     0.019 C 
BRANCH  46  47
HETATM   47  C35 UNL     1      -3.635   4.227  12.483  1.00  0.00     0.039 C 
BRANCH  47  48
HETATM   48  C36 UNL     1      -4.874   3.368  12.341  1.00  0.00    -0.054 A 
HETATM   49  C37 UNL     1      -4.830   2.172  11.621  1.00  0.00     0.024 A 
HETATM   50  C38 UNL     1      -5.991   1.431  11.461  1.00  0.00     0.090 A 
HETATM   51  N1  UNL     1      -7.134   1.874  11.999  1.00  0.00    -0.357 N 
HETATM   52  C39 UNL     1      -7.229   3.011  12.690  1.00  0.00     0.077 A 
HETATM   53  H56 UNL     1      -7.999   1.353  11.884  1.00  0.00     0.166 HD
HETATM   54  C40 UNL     1      -6.097   3.790  12.877  1.00  0.00     0.049 A 
BRANCH  52  55
HETATM   55  N2  UNL     1      -8.483   3.353  13.174  1.00  0.00    -0.289 NA
HETATM   56  H57 UNL     1      -8.450   3.495  14.187  1.00  0.00     0.125 HD
HETATM   57  H58 UNL     1      -8.779   4.258  12.800  1.00  0.00     0.125 HD
ENDBRANCH  52  55
ENDBRANCH  47  48
ENDBRANCH  46  47
ENDBRANCH  41  46
ENDBRANCH  37  41
ENDBRANCH  36  37
ENDBRANCH   6  34
TORSDOF 13
ENDMDL
MODEL 4
REMARK minimizedAffinity -9.26670933
REMARK CNNscore 0.353810549
REMARK CNNaffinity 6.89979029
REMARK  13 active torsions:
REMARK  status: ('A' for Active; 'I' for Inactive)
REMARK    1  A    between atoms: C5_6  and  C6_7 
REMARK    2  A    between atoms: C5_6  and  C27_31 
REMARK    3  A    between atoms: C18_19  and  O2_20 
REMARK    4  A    between atoms: C23_25  and  O3_26 
REMARK    5  A    between atoms: C28_33  and  C29_34 
REMARK    6  A    between atoms: C29_34  and  O6_36 
REMARK    7  A    between atoms: C29_34  and  C31_37 
REMARK    8  A    between atoms: C31_37  and  C33_39 
REMARK    9  A    between atoms: C31_37  and  C34_41 
REMARK   10  A    between atoms: C33_39  and  O7_40 
REMARK   11  A    between atoms: C34_41  and  C35_42 
REMARK   12  A    between atoms: C35_42  and  C36_43 
REMARK   13  A    between atoms: C39_47  and  N2_48 
ROOT
HETATM    1  C1  UNL     1       0.948  11.008  20.389  1.00  0.00     0.010 C 
HETATM    2  C2  UNL     1       0.899  10.758  18.880  1.00  0.00    -0.014 C 
HETATM    3  C3  UNL     1       1.620  11.873  18.111  1.00  0.00     0.030 C 
HETATM    4  C4  UNL     1       0.715  12.538  17.080  1.00  0.00     0.169 C 
HETATM    5  O1  UNL     1       0.125  11.567  16.222  1.00  0.00    -0.377 OA
HETATM    6  C5  UNL     1      -0.734  10.587  16.871  1.00  0.00     0.094 C 
HETATM    7  C41 UNL     1      -0.548  10.622  18.410  1.00  0.00     0.045 C 
ENDROOT
BRANCH   6   8
HETATM    8  C6  UNL     1      -0.423   9.255  16.100  1.00  0.00     0.035 C 
HETATM    9  C7  UNL     1      -1.518   8.118  16.218  1.00  0.00     0.016 C 
HETATM   10  C8  UNL     1      -1.488   7.381  14.871  1.00  0.00     0.026 C 
HETATM   11  C9  UNL     1      -1.800   5.899  14.790  1.00  0.00     0.013 C 
HETATM   12  C18 UNL     1      -0.067   7.653  14.393  1.00  0.00     0.094 C 
HETATM   13  C10 UNL     1      -1.605   5.431  13.326  1.00  0.00     0.043 C 
HETATM   14  C11 UNL     1      -0.450   6.081  12.570  1.00  0.00    -0.006 C 
HETATM   15  C12 UNL     1       0.262   7.124  13.044  1.00  0.00    -0.030 C 
HETATM   16  C26 UNL     1      -0.035   5.435  11.293  1.00  0.00     0.161 C 
HETATM   17  C13 UNL     1       1.509   7.695  12.402  1.00  0.00     0.027 C 
HETATM   18  C14 UNL     1       1.863   9.159  12.833  1.00  0.00     0.011 C 
HETATM   19  C19 UNL     1       1.516   7.484  10.846  1.00  0.00    -0.026 C 
HETATM   20  C15 UNL     1       1.503   9.550  14.285  1.00  0.00     0.014 C 
HETATM   21  C16 UNL     1       0.042   9.183  14.597  1.00  0.00    -0.002 C 
HETATM   22  C17 UNL     1      -0.890   9.976  13.645  1.00  0.00     0.019 C 
HETATM   23  C20 UNL     1       0.498   8.417  10.137  1.00  0.00     0.016 C 
HETATM   24  C21 UNL     1       2.942   7.811  10.307  1.00  0.00     0.013 C 
HETATM   25  C25 UNL     1       1.115   6.020  10.477  1.00  0.00     0.071 C 
HETATM   26  C22 UNL     1       3.317   6.973   9.090  1.00  0.00     0.032 C 
HETATM   27  C23 UNL     1       3.335   5.476   9.420  1.00  0.00     0.119 C 
HETATM   28  C24 UNL     1       2.329   5.085  10.507  1.00  0.00     0.045 C 
HETATM   29  O4  UNL     1      -0.615   4.414  10.927  1.00  0.00    -0.292 OA
BRANCH  27  30
HETATM   30  O3  UNL     1       3.018   4.758   8.231  1.00  0.00    -0.396 OA
HETATM   31  H34 UNL     1       3.722   4.925   7.580  1.00  0.00     0.210 HD
ENDBRANCH  27  30
BRANCH  12  32
HETATM   32  O2  UNL     1       0.868   6.987  15.269  1.00  0.00    -0.384 OA
HETATM   33  H25 UNL     1       0.822   6.035  15.089  1.00  0.00     0.211 HD
ENDBRANCH  12  32
ENDBRANCH   6   8
BRANCH   6  34
HETATM   34  C27 UNL     1      -2.197  10.959  16.602  1.00  0.00     0.189 A 
HETATM   35  O5  UNL     1      -3.092  10.777  17.713  1.00  0.00    -0.369 OA
HETATM   36  C28 UNL     1      -2.872  12.131  17.291  1.00  0.00     0.189 A 
BRANCH  36  37
HETATM   37  C29 UNL     1      -4.107  12.863  16.785  1.00  0.00     0.092 C 
HETATM   38  C30 UNL     1      -5.155  11.889  16.215  1.00  0.00     0.049 C 
BRANCH  37  39
HETATM   39  O6  UNL     1      -3.663  13.610  15.640  1.00  0.00    -0.387 OA
HETATM   40  H43 UNL     1      -3.509  14.535  15.924  1.00  0.00     0.210 HD
ENDBRANCH  37  39
BRANCH  37  41
HETATM   41  C31 UNL     1      -4.723  13.857  17.889  1.00  0.00     0.011 C 
HETATM   42  C32 UNL     1      -6.100  14.402  17.441  1.00  0.00     0.020 C 
BRANCH  41  43
HETATM   43  C33 UNL     1      -3.780  15.080  18.076  1.00  0.00     0.176 C 
BRANCH  43  44
HETATM   44  O7  UNL     1      -4.211  16.165  17.252  1.00  0.00    -0.400 OA
HETATM   45  H49 UNL     1      -3.836  16.978  17.644  1.00  0.00     0.209 HD
ENDBRANCH  43  44
ENDBRANCH  41  43
BRANCH  41  46
HETATM   46  C34 UNL     1      -4.890  13.104  19.255  1.00  0.00     0.019 C 
BRANCH  46  47
HETATM   47  C35 UNL     1      -5.089  13.976  20.505  1.00  0.00     0.039 C 
BRANCH  47  48
HETATM   48  C36 UNL     1      -6.374  13.591  21.209  1.00  0.00    -0.054 A 
HETATM   49  C37 UNL     1      -6.384  13.353  22.586  1.00  0.00     0.024 A 
HETATM   50  C38 UNL     1      -7.562  12.950  23.197  1.00  0.00     0.090 A 
HETATM   51  N1  UNL     1      -8.668  12.797  22.460  1.00  0.00    -0.357 N 
HETATM   52  C39 UNL     1      -8.708  13.008  21.143  1.00  0.00     0.077 A 
HETATM   53  H56 UNL     1      -9.538  12.491  22.885  1.00  0.00     0.166 HD
HETATM   54  C40 UNL     1      -7.556  13.410  20.483  1.00  0.00     0.049 A 
BRANCH  52  55
HETATM   55  N2  UNL     1      -9.921  12.791  20.505  1.00  0.00    -0.289 NA
HETATM   56  H57 UNL     1     -10.213  13.631  19.997  1.00  0.00     0.125 HD
HETATM   57  H58 UNL     1      -9.825  12.076  19.781  1.00  0.00     0.125 HD
ENDBRANCH  52  55
ENDBRANCH  47  48
ENDBRANCH  46  47
ENDBRANCH  41  46
ENDBRANCH  37  41
ENDBRANCH  36  37
ENDBRANCH   6  34
TORSDOF 13
ENDMDL
MODEL 5
REMARK minimizedAffinity -7.82039118
REMARK CNNscore 0.314862251
REMARK CNNaffinity 6.21723223
REMARK  13 active torsions:
REMARK  status: ('A' for Active; 'I' for Inactive)
REMARK    1  A    between atoms: C5_6  and  C6_7 
REMARK    2  A    between atoms: C5_6  and  C27_31 
REMARK    3  A    between atoms: C18_19  and  O2_20 
REMARK    4  A    between atoms: C23_25  and  O3_26 
REMARK    5  A    between atoms: C28_33  and  C29_34 
REMARK    6  A    between atoms: C29_34  and  O6_36 
REMARK    7  A    between atoms: C29_34  and  C31_37 
REMARK    8  A    between atoms: C31_37  and  C33_39 
REMARK    9  A    between atoms: C31_37  and  C34_41 
REMARK   10  A    between atoms: C33_39  and  O7_40 
REMARK   11  A    between atoms: C34_41  and  C35_42 
REMARK   12  A    between atoms: C35_42  and  C36_43 
REMARK   13  A    between atoms: C39_47  and  N2_48 
ROOT
HETATM    1  C1  UNL     1     -17.219  -6.704   9.314  1.00  0.00     0.010 C 
HETATM    2  C2  UNL     1     -16.705  -5.347   9.802  1.00  0.00    -0.014 C 
HETATM    3  C3  UNL     1     -15.234  -5.142   9.417  1.00  0.00     0.030 C 
HETATM    4  C4  UNL     1     -14.358  -4.855  10.631  1.00  0.00     0.169 C 
HETATM    5  O1  UNL     1     -14.885  -3.774  11.393  1.00  0.00    -0.377 OA
HETATM    6  C5  UNL     1     -16.212  -3.983  11.954  1.00  0.00     0.094 C 
HETATM    7  C41 UNL     1     -16.895  -5.220  11.313  1.00  0.00     0.045 C 
ENDROOT
BRANCH   6   8
HETATM    8  C6  UNL     1     -16.900  -2.579  11.810  1.00  0.00     0.035 C 
HETATM    9  C7  UNL     1     -18.458  -2.600  11.526  1.00  0.00     0.016 C 
HETATM   10  C8  UNL     1     -19.017  -1.355  12.232  1.00  0.00     0.026 C 
HETATM   11  C9  UNL     1     -20.220  -0.621  11.672  1.00  0.00     0.013 C 
HETATM   12  C18 UNL     1     -17.802  -0.438  12.267  1.00  0.00     0.094 C 
HETATM   13  C10 UNL     1     -20.490   0.628  12.549  1.00  0.00     0.043 C 
HETATM   14  C11 UNL     1     -19.252   1.342  13.083  1.00  0.00    -0.006 C 
HETATM   15  C12 UNL     1     -18.001   0.853  12.976  1.00  0.00    -0.030 C 
HETATM   16  C26 UNL     1     -19.457   2.707  13.648  1.00  0.00     0.161 C 
HETATM   17  C13 UNL     1     -16.736   1.598  13.349  1.00  0.00     0.027 C 
HETATM   18  C14 UNL     1     -15.485   0.689  13.605  1.00  0.00     0.011 C 
HETATM   19  C19 UNL     1     -16.989   2.647  14.489  1.00  0.00    -0.026 C 
HETATM   20  C15 UNL     1     -15.391  -0.600  12.756  1.00  0.00     0.014 C 
HETATM   21  C16 UNL     1     -16.712  -1.386  12.821  1.00  0.00    -0.002 C 
HETATM   22  C17 UNL     1     -16.978  -1.802  14.290  1.00  0.00     0.019 C 
HETATM   23  C20 UNL     1     -17.210   1.958  15.863  1.00  0.00     0.016 C 
HETATM   24  C21 UNL     1     -15.738   3.573  14.599  1.00  0.00     0.013 C 
HETATM   25  C25 UNL     1     -18.270   3.492  14.199  1.00  0.00     0.071 C 
HETATM   26  C22 UNL     1     -16.092   4.990  15.033  1.00  0.00     0.032 C 
HETATM   27  C23 UNL     1     -17.022   5.673  14.026  1.00  0.00     0.119 C 
HETATM   28  C24 UNL     1     -17.954   4.695  13.303  1.00  0.00     0.045 C 
HETATM   29  O4  UNL     1     -20.586   3.193  13.634  1.00  0.00    -0.292 OA
BRANCH  27  30
HETATM   30  O3  UNL     1     -17.821   6.619  14.732  1.00  0.00    -0.396 OA
HETATM   31  H34 UNL     1     -17.230   7.300  15.097  1.00  0.00     0.210 HD
ENDBRANCH  27  30
BRANCH  12  32
HETATM   32  O2  UNL     1     -17.456  -0.049  10.920  1.00  0.00    -0.384 OA
HETATM   33  H25 UNL     1     -18.123   0.585  10.611  1.00  0.00     0.211 HD
ENDBRANCH  12  32
ENDBRANCH   6   8
BRANCH   6  34
HETATM   34  C27 UNL     1     -16.073  -4.291  13.449  1.00  0.00     0.189 A 
HETATM   35  O5  UNL     1     -16.544  -5.587  13.857  1.00  0.00    -0.369 OA
HETATM   36  C28 UNL     1     -15.131  -5.362  13.968  1.00  0.00     0.189 A 
BRANCH  36  37
HETATM   37  C29 UNL     1     -14.571  -5.438  15.381  1.00  0.00     0.092 C 
HETATM   38  C30 UNL     1     -15.611  -5.978  16.380  1.00  0.00     0.049 C 
BRANCH  37  39
HETATM   39  O6  UNL     1     -14.373  -4.073  15.784  1.00  0.00    -0.387 OA
HETATM   40  H43 UNL     1     -13.425  -3.856  15.664  1.00  0.00     0.210 HD
ENDBRANCH  37  39
BRANCH  37  41
HETATM   41  C31 UNL     1     -13.179  -6.241  15.444  1.00  0.00     0.011 C 
HETATM   42  C32 UNL     1     -11.980  -5.269  15.568  1.00  0.00     0.020 C 
BRANCH  41  43
HETATM   43  C33 UNL     1     -12.983  -7.052  14.132  1.00  0.00     0.176 C 
BRANCH  43  44
HETATM   44  O7  UNL     1     -11.795  -6.625  13.462  1.00  0.00    -0.400 OA
HETATM   45  H49 UNL     1     -11.530  -7.357  12.871  1.00  0.00     0.209 HD
ENDBRANCH  43  44
ENDBRANCH  41  43
BRANCH  41  46
HETATM   46  C34 UNL     1     -13.177  -7.215  16.673  1.00  0.00     0.019 C 
BRANCH  46  47
HETATM   47  C35 UNL     1     -12.590  -8.617  16.443  1.00  0.00     0.039 C 
BRANCH  47  48
HETATM   48  C36 UNL     1     -11.566  -8.936  17.513  1.00  0.00    -0.054 A 
HETATM   49  C37 UNL     1     -10.409  -8.163  17.641  1.00  0.00     0.024 A 
HETATM   50  C38 UNL     1      -9.462  -8.509  18.592  1.00  0.00     0.090 A 
HETATM   51  N1  UNL     1      -9.672  -9.575  19.373  1.00  0.00    -0.357 N 
HETATM   52  C39 UNL     1     -10.756 -10.347  19.286  1.00  0.00     0.077 A 
HETATM   53  H56 UNL     1      -8.985  -9.853  20.068  1.00  0.00     0.166 HD
HETATM   54  C40 UNL     1     -11.733 -10.046  18.349  1.00  0.00     0.049 A 
BRANCH  52  55
HETATM   55  N2  UNL     1     -10.830 -11.432  20.148  1.00  0.00    -0.289 NA
HETATM   56  H57 UNL     1     -11.692 -11.394  20.699  1.00  0.00     0.125 HD
HETATM   57  H58 UNL     1     -10.903 -12.306  19.623  1.00  0.00     0.125 HD
ENDBRANCH  52  55
ENDBRANCH  47  48
ENDBRANCH  46  47
ENDBRANCH  41  46
ENDBRANCH  37  41
ENDBRANCH  36  37
ENDBRANCH   6  34
TORSDOF 13
ENDMDL
MODEL 6
REMARK minimizedAffinity -10.9720373
REMARK CNNscore 0.287647039
REMARK CNNaffinity 7.12885523
REMARK  13 active torsions:
REMARK  status: ('A' for Active; 'I' for Inactive)
REMARK    1  A    between atoms: C5_6  and  C6_7 
REMARK    2  A    between atoms: C5_6  and  C27_31 
REMARK    3  A    between atoms: C18_19  and  O2_20 
REMARK    4  A    between atoms: C23_25  and  O3_26 
REMARK    5  A    between atoms: C28_33  and  C29_34 
REMARK    6  A    between atoms: C29_34  and  O6_36 
REMARK    7  A    between atoms: C29_34  and  C31_37 
REMARK    8  A    between atoms: C31_37  and  C33_39 
REMARK    9  A    between atoms: C31_37  and  C34_41 
REMARK   10  A    between atoms: C33_39  and  O7_40 
REMARK   11  A    between atoms: C34_41  and  C35_42 
REMARK   12  A    between atoms: C35_42  and  C36_43 
REMARK   13  A    between atoms: C39_47  and  N2_48 
ROOT
HETATM    1  C1  UNL     1       0.754   7.878   8.306  1.00  0.00     0.010 C 
HETATM    2  C2  UNL     1       1.786   7.777   9.432  1.00  0.00    -0.014 C 
HETATM    3  C3  UNL     1       2.355   6.355   9.534  1.00  0.00     0.030 C 
HETATM    4  C4  UNL     1       2.167   5.760  10.924  1.00  0.00     0.169 C 
HETATM    5  O1  UNL     1       2.682   6.634  11.924  1.00  0.00    -0.377 OA
HETATM    6  C5  UNL     1       2.047   7.942  12.008  1.00  0.00     0.094 C 
HETATM    7  C41 UNL     1       1.168   8.211  10.760  1.00  0.00     0.045 C 
ENDROOT
BRANCH   6   8
HETATM    8  C6  UNL     1       3.243   8.912  12.316  1.00  0.00     0.035 C 
HETATM    9  C7  UNL     1       2.871  10.236  13.101  1.00  0.00     0.016 C 
HETATM   10  C8  UNL     1       4.092  10.545  13.981  1.00  0.00     0.026 C 
HETATM   11  C9  UNL     1       4.467  11.977  14.314  1.00  0.00     0.013 C 
HETATM   12  C18 UNL     1       5.217   9.866  13.210  1.00  0.00     0.094 C 
HETATM   13  C10 UNL     1       5.779  11.967  15.137  1.00  0.00     0.043 C 
HETATM   14  C11 UNL     1       6.803  10.909  14.738  1.00  0.00    -0.006 C 
HETATM   15  C12 UNL     1       6.553   9.918  13.860  1.00  0.00    -0.030 C 
HETATM   16  C26 UNL     1       8.183  11.074  15.279  1.00  0.00     0.161 C 
HETATM   17  C13 UNL     1       7.583   8.948  13.319  1.00  0.00     0.027 C 
HETATM   18  C14 UNL     1       6.994   7.622  12.726  1.00  0.00     0.011 C 
HETATM   19  C19 UNL     1       8.754   8.710  14.337  1.00  0.00    -0.026 C 
HETATM   20  C15 UNL     1       5.614   7.734  12.037  1.00  0.00     0.014 C 
HETATM   21  C16 UNL     1       4.614   8.465  12.950  1.00  0.00    -0.002 C 
HETATM   22  C17 UNL     1       4.431   7.646  14.252  1.00  0.00     0.019 C 
HETATM   23  C20 UNL     1       8.298   7.844  15.543  1.00  0.00     0.016 C 
HETATM   24  C21 UNL     1       9.907   7.960  13.601  1.00  0.00     0.013 C 
HETATM   25  C25 UNL     1       9.269  10.062  14.925  1.00  0.00     0.071 C 
HETATM   26  C22 UNL     1      11.285   8.330  14.137  1.00  0.00     0.032 C 
HETATM   27  C23 UNL     1      11.581   9.822  13.953  1.00  0.00     0.119 C 
HETATM   28  C24 UNL     1      10.326  10.699  14.016  1.00  0.00     0.045 C 
HETATM   29  O4  UNL     1       8.432  12.049  15.987  1.00  0.00    -0.292 OA
BRANCH  27  30
HETATM   30  O3  UNL     1      12.467  10.229  14.992  1.00  0.00    -0.396 OA
HETATM   31  H34 UNL     1      13.305   9.747  14.880  1.00  0.00     0.210 HD
ENDBRANCH  27  30
BRANCH  12  32
HETATM   32  O2  UNL     1       5.412  10.544  11.950  1.00  0.00    -0.384 OA
HETATM   33  H25 UNL     1       5.839  11.397  12.132  1.00  0.00     0.211 HD
ENDBRANCH  12  32
ENDBRANCH   6   8
BRANCH   6  34
HETATM   34  C27 UNL     1       1.104   7.955  13.216  1.00  0.00     0.189 A 
HETATM   35  O5  UNL     1      -0.163   8.602  12.999  1.00  0.00    -0.369 OA
HETATM   36  C28 UNL     1      -0.204   7.185  13.227  1.00  0.00     0.189 A 
BRANCH  36  37
HETATM   37  C29 UNL     1      -0.964   6.750  14.472  1.00  0.00     0.092 C 
HETATM   38  C30 UNL     1      -0.565   7.581  15.705  1.00  0.00     0.049 C 
BRANCH  37  39
HETATM   39  O6  UNL     1      -0.481   5.429  14.767  1.00  0.00    -0.387 OA
HETATM   40  H43 UNL     1      -1.132   4.784  14.421  1.00  0.00     0.210 HD
ENDBRANCH  37  39
BRANCH  37  41
HETATM   41  C31 UNL     1      -2.554   6.717  14.236  1.00  0.00     0.011 C 
HETATM   42  C32 UNL     1      -2.959   7.603  13.034  1.00  0.00     0.020 C 
BRANCH  41  43
HETATM   43  C33 UNL     1      -3.281   7.281  15.491  1.00  0.00     0.176 C 
BRANCH  43  44
HETATM   44  O7  UNL     1      -3.623   6.218  16.382  1.00  0.00    -0.400 OA
HETATM   45  H49 UNL     1      -3.744   6.622  17.264  1.00  0.00     0.209 HD
ENDBRANCH  43  44
ENDBRANCH  41  43
BRANCH  41  46
HETATM   46  C34 UNL     1      -3.027   5.246  13.969  1.00  0.00     0.019 C 
BRANCH  46  47
HETATM   47  C35 UNL     1      -3.887   5.012  12.717  1.00  0.00     0.039 C 
BRANCH  47  48
HETATM   48  C36 UNL     1      -5.304   4.653  13.117  1.00  0.00    -0.054 A 
HETATM   49  C37 UNL     1      -6.021   5.467  13.996  1.00  0.00     0.024 A 
HETATM   50  C38 UNL     1      -7.296   5.088  14.388  1.00  0.00     0.090 A 
HETATM   51  N1  UNL     1      -7.818   3.949  13.917  1.00  0.00    -0.357 N 
HETATM   52  C39 UNL     1      -7.171   3.136  13.080  1.00  0.00     0.077 A 
HETATM   53  H56 UNL     1      -8.745   3.646  14.201  1.00  0.00     0.166 HD
HETATM   54  C40 UNL     1      -5.893   3.469  12.659  1.00  0.00     0.049 A 
BRANCH  52  55
HETATM   55  N2  UNL     1      -7.830   1.979  12.689  1.00  0.00    -0.289 NA
HETATM   56  H57 UNL     1      -7.889   1.928  11.668  1.00  0.00     0.125 HD
HETATM   57  H58 UNL     1      -7.293   1.151  12.955  1.00  0.00     0.125 HD
ENDBRANCH  52  55
ENDBRANCH  47  48
ENDBRANCH  46  47
ENDBRANCH  41  46
ENDBRANCH  37  41
ENDBRANCH  36  37
ENDBRANCH   6  34
TORSDOF 13
ENDMDL
MODEL 7
REMARK minimizedAffinity -11.439064
REMARK CNNscore 0.230649173
REMARK CNNaffinity 7.66633034
REMARK  13 active torsions:
REMARK  status: ('A' for Active; 'I' for Inactive)
REMARK    1  A    between atoms: C5_6  and  C6_7 
REMARK    2  A    between atoms: C5_6  and  C27_31 
REMARK    3  A    between atoms: C18_19  and  O2_20 
REMARK    4  A    between atoms: C23_25  and  O3_26 
REMARK    5  A    between atoms: C28_33  and  C29_34 
REMARK    6  A    between atoms: C29_34  and  O6_36 
REMARK    7  A    between atoms: C29_34  and  C31_37 
REMARK    8  A    between atoms: C31_37  and  C33_39 
REMARK    9  A    between atoms: C31_37  and  C34_41 
REMARK   10  A    between atoms: C33_39  and  O7_40 
REMARK   11  A    between atoms: C34_41  and  C35_42 
REMARK   12  A    between atoms: C35_42  and  C36_43 
REMARK   13  A    between atoms: C39_47  and  N2_48 
ROOT
HETATM    1  C1  UNL     1      -1.608  13.212  15.877  1.00  0.00     0.010 C 
HETATM    2  C2  UNL     1      -1.831  11.698  15.858  1.00  0.00    -0.014 C 
HETATM    3  C3  UNL     1      -1.670  11.097  17.262  1.00  0.00     0.030 C 
HETATM    4  C4  UNL     1      -0.618   9.996  17.298  1.00  0.00     0.169 C 
HETATM    5  O1  UNL     1      -0.878   9.012  16.303  1.00  0.00    -0.377 OA
HETATM    6  C5  UNL     1      -0.853   9.483  14.925  1.00  0.00     0.094 C 
HETATM    7  C41 UNL     1      -0.874  11.032  14.870  1.00  0.00     0.045 C 
ENDROOT
BRANCH   6   8
HETATM    8  C6  UNL     1      -2.020   8.684  14.241  1.00  0.00     0.035 C 
HETATM    9  C7  UNL     1      -1.638   7.255  13.677  1.00  0.00     0.016 C 
HETATM   10  C8  UNL     1      -2.897   6.394  13.860  1.00  0.00     0.026 C 
HETATM   11  C9  UNL     1      -3.225   5.281  12.884  1.00  0.00     0.013 C 
HETATM   12  C18 UNL     1      -4.001   7.445  13.859  1.00  0.00     0.094 C 
HETATM   13  C10 UNL     1      -4.587   4.658  13.282  1.00  0.00     0.043 C 
HETATM   14  C11 UNL     1      -5.632   5.635  13.813  1.00  0.00    -0.006 C 
HETATM   15  C12 UNL     1      -5.372   6.926  14.102  1.00  0.00    -0.030 C 
HETATM   16  C26 UNL     1      -7.034   5.137  13.897  1.00  0.00     0.161 C 
HETATM   17  C13 UNL     1      -6.409   7.964  14.478  1.00  0.00     0.027 C 
HETATM   18  C14 UNL     1      -5.846   9.218  15.231  1.00  0.00     0.011 C 
HETATM   19  C19 UNL     1      -7.653   7.318  15.185  1.00  0.00    -0.026 C 
HETATM   20  C15 UNL     1      -4.420   9.669  14.837  1.00  0.00     0.014 C 
HETATM   21  C16 UNL     1      -3.448   8.477  14.871  1.00  0.00    -0.002 C 
HETATM   22  C17 UNL     1      -3.388   7.919  16.315  1.00  0.00     0.019 C 
HETATM   23  C20 UNL     1      -7.317   6.859  16.630  1.00  0.00     0.016 C 
HETATM   24  C21 UNL     1      -8.790   8.384  15.259  1.00  0.00     0.013 C 
HETATM   25  C25 UNL     1      -8.142   6.051  14.414  1.00  0.00     0.071 C 
HETATM   26  C22 UNL     1     -10.181   7.767  15.177  1.00  0.00     0.032 C 
HETATM   27  C23 UNL     1     -10.394   7.029  13.851  1.00  0.00     0.119 C 
HETATM   28  C24 UNL     1      -9.106   6.424  13.282  1.00  0.00     0.045 C 
HETATM   29  O4  UNL     1      -7.283   3.993  13.520  1.00  0.00    -0.292 OA
BRANCH  27  30
HETATM   30  O3  UNL     1     -11.326   5.975  14.076  1.00  0.00    -0.396 OA
HETATM   31  H34 UNL     1     -12.176   6.373  14.332  1.00  0.00     0.210 HD
ENDBRANCH  27  30
BRANCH  12  32
HETATM   32  O2  UNL     1      -4.082   8.054  12.553  1.00  0.00    -0.384 OA
HETATM   33  H25 UNL     1      -4.479   7.408  11.946  1.00  0.00     0.211 HD
ENDBRANCH  12  32
ENDBRANCH   6   8
BRANCH   6  34
HETATM   34  C27 UNL     1       0.465   9.043  14.278  1.00  0.00     0.189 A 
HETATM   35  O5  UNL     1       0.743   7.634  14.346  1.00  0.00    -0.369 OA
HETATM   36  C28 UNL     1       0.504   8.171  13.037  1.00  0.00     0.189 A 
BRANCH  36  37
HETATM   37  C29 UNL     1       1.672   8.064  12.068  1.00  0.00     0.092 C 
HETATM   38  C30 UNL     1       2.952   7.570  12.767  1.00  0.00     0.049 C 
BRANCH  37  39
HETATM   39  O6  UNL     1       1.977   9.416  11.690  1.00  0.00    -0.387 OA
HETATM   40  H43 UNL     1       1.564   9.589  10.819  1.00  0.00     0.210 HD
ENDBRANCH  37  39
BRANCH  37  41
HETATM   41  C31 UNL     1       1.307   7.196  10.764  1.00  0.00     0.011 C 
HETATM   42  C32 UNL     1       0.027   7.732  10.078  1.00  0.00     0.020 C 
BRANCH  41  43
HETATM   43  C33 UNL     1       1.027   5.723  11.178  1.00  0.00     0.176 C 
BRANCH  43  44
HETATM   44  O7  UNL     1      -0.287   5.337  10.769  1.00  0.00    -0.400 OA
HETATM   45  H49 UNL     1      -0.290   4.361  10.726  1.00  0.00     0.209 HD
ENDBRANCH  43  44
ENDBRANCH  41  43
BRANCH  41  46
HETATM   46  C34 UNL     1       2.493   7.241   9.739  1.00  0.00     0.019 C 
BRANCH  46  47
HETATM   47  C35 UNL     1       2.174   6.829   8.293  1.00  0.00     0.039 C 
BRANCH  47  48
HETATM   48  C36 UNL     1       2.933   5.570   7.930  1.00  0.00    -0.054 A 
HETATM   49  C37 UNL     1       2.969   5.120   6.608  1.00  0.00     0.024 A 
HETATM   50  C38 UNL     1       3.626   3.936   6.310  1.00  0.00     0.090 A 
HETATM   51  N1  UNL     1       4.215   3.244   7.293  1.00  0.00    -0.357 N 
HETATM   52  C39 UNL     1       4.205   3.630   8.570  1.00  0.00     0.077 A 
HETATM   53  H56 UNL     1       4.692   2.368   7.099  1.00  0.00     0.166 HD
HETATM   54  C40 UNL     1       3.559   4.806   8.921  1.00  0.00     0.049 A 
BRANCH  52  55
HETATM   55  N2  UNL     1       4.841   2.802   9.485  1.00  0.00    -0.289 NA
HETATM   56  H57 UNL     1       5.552   3.324  10.005  1.00  0.00     0.125 HD
HETATM   57  H58 UNL     1       4.185   2.484  10.201  1.00  0.00     0.125 HD
ENDBRANCH  52  55
ENDBRANCH  47  48
ENDBRANCH  46  47
ENDBRANCH  41  46
ENDBRANCH  37  41
ENDBRANCH  36  37
ENDBRANCH   6  34
TORSDOF 13
ENDMDL
MODEL 8
REMARK minimizedAffinity -7.999506
REMARK CNNscore 0.224572241
REMARK CNNaffinity 6.3621459
REMARK  13 active torsions:
REMARK  status: ('A' for Active; 'I' for Inactive)
REMARK    1  A    between atoms: C5_6  and  C6_7 
REMARK    2  A    between atoms: C5_6  and  C27_31 
REMARK    3  A    between atoms: C18_19  and  O2_20 
REMARK    4  A    between atoms: C23_25  and  O3_26 
REMARK    5  A    between atoms: C28_33  and  C29_34 
REMARK    6  A    between atoms: C29_34  and  O6_36 
REMARK    7  A    between atoms: C29_34  and  C31_37 
REMARK    8  A    between atoms: C31_37  and  C33_39 
REMARK    9  A    between atoms: C31_37  and  C34_41 
REMARK   10  A    between atoms: C33_39  and  O7_40 
REMARK   11  A    between atoms: C34_41  and  C35_42 
REMARK   12  A    between atoms: C35_42  and  C36_43 
REMARK   13  A    between atoms: C39_47  and  N2_48 
ROOT
HETATM    1  C1  UNL     1       2.775  13.062  23.297  1.00  0.00     0.010 C 
HETATM    2  C2  UNL     1       2.685  12.215  22.025  1.00  0.00    -0.014 C 
HETATM    3  C3  UNL     1       2.861  10.723  22.342  1.00  0.00     0.030 C 
HETATM    4  C4  UNL     1       4.004  10.099  21.550  1.00  0.00     0.169 C 
HETATM    5  O1  UNL     1       3.856  10.355  20.157  1.00  0.00    -0.377 OA
HETATM    6  C5  UNL     1       3.875  11.757  19.766  1.00  0.00     0.094 C 
HETATM    7  C41 UNL     1       3.721  12.679  21.003  1.00  0.00     0.045 C 
ENDROOT
BRANCH   6   8
HETATM    8  C6  UNL     1       2.801  11.836  18.623  1.00  0.00     0.035 C 
HETATM    9  C7  UNL     1       2.983  10.807  17.434  1.00  0.00     0.016 C 
HETATM   10  C8  UNL     1       1.559  10.462  16.972  1.00  0.00     0.026 C 
HETATM   11  C9  UNL     1       1.273  10.130  15.520  1.00  0.00     0.013 C 
HETATM   12  C18 UNL     1       0.779  11.700  17.397  1.00  0.00     0.094 C 
HETATM   13  C10 UNL     1      -0.252   9.913  15.352  1.00  0.00     0.043 C 
HETATM   14  C11 UNL     1      -1.146  10.821  16.190  1.00  0.00    -0.006 C 
HETATM   15  C12 UNL     1      -0.686  11.643  17.154  1.00  0.00    -0.030 C 
HETATM   16  C26 UNL     1      -2.590  10.866  15.822  1.00  0.00     0.161 C 
HETATM   17  C13 UNL     1      -1.514  12.671  17.897  1.00  0.00     0.027 C 
HETATM   18  C14 UNL     1      -0.913  13.140  19.266  1.00  0.00     0.011 C 
HETATM   19  C19 UNL     1      -3.024  12.250  17.989  1.00  0.00    -0.026 C 
HETATM   20  C15 UNL     1       0.630  13.194  19.353  1.00  0.00     0.014 C 
HETATM   21  C16 UNL     1       1.245  11.871  18.863  1.00  0.00    -0.002 C 
HETATM   22  C17 UNL     1       0.756  10.720  19.779  1.00  0.00     0.019 C 
HETATM   23  C20 UNL     1      -3.232  11.083  18.992  1.00  0.00     0.016 C 
HETATM   24  C21 UNL     1      -3.852  13.477  18.482  1.00  0.00     0.013 C 
HETATM   25  C25 UNL     1      -3.553  11.753  16.606  1.00  0.00     0.071 C 
HETATM   26  C22 UNL     1      -5.265  13.499  17.912  1.00  0.00     0.032 C 
HETATM   27  C23 UNL     1      -5.256  13.595  16.383  1.00  0.00     0.119 C 
HETATM   28  C24 UNL     1      -4.038  12.922  15.742  1.00  0.00     0.045 C 
HETATM   29  O4  UNL     1      -2.980  10.201  14.863  1.00  0.00    -0.292 OA
BRANCH  27  30
HETATM   30  O3  UNL     1      -6.433  12.959  15.892  1.00  0.00    -0.396 OA
HETATM   31  H34 UNL     1      -7.203  13.460  16.214  1.00  0.00     0.210 HD
ENDBRANCH  27  30
BRANCH  12  32
HETATM   32  O2  UNL     1       1.221  12.835  16.621  1.00  0.00    -0.384 OA
HETATM   33  H25 UNL     1       0.875  12.733  15.720  1.00  0.00     0.211 HD
ENDBRANCH  12  32
ENDBRANCH   6   8
BRANCH   6  34
HETATM   34  C27 UNL     1       5.243  12.079  19.153  1.00  0.00     0.189 A 
HETATM   35  O5  UNL     1       5.613  13.468  19.170  1.00  0.00    -0.369 OA
HETATM   36  C28 UNL     1       6.402  12.591  19.988  1.00  0.00     0.189 A 
BRANCH  36  37
HETATM   37  C29 UNL     1       7.873  12.499  19.610  1.00  0.00     0.092 C 
HETATM   38  C30 UNL     1       8.115  12.911  18.146  1.00  0.00     0.049 C 
BRANCH  37  39
HETATM   39  O6  UNL     1       8.184  11.097  19.636  1.00  0.00    -0.387 OA
HETATM   40  H43 UNL     1       8.625  10.899  20.488  1.00  0.00     0.210 HD
ENDBRANCH  37  39
BRANCH  37  41
HETATM   41  C31 UNL     1       8.819  13.294  20.639  1.00  0.00     0.011 C 
HETATM   42  C32 UNL     1       9.478  14.519  19.960  1.00  0.00     0.020 C 
BRANCH  41  43
HETATM   43  C33 UNL     1       9.966  12.362  21.123  1.00  0.00     0.176 C 
BRANCH  43  44
HETATM   44  O7  UNL     1      11.218  12.805  20.594  1.00  0.00    -0.400 OA
HETATM   45  H49 UNL     1      11.912  12.436  21.175  1.00  0.00     0.209 HD
ENDBRANCH  43  44
ENDBRANCH  41  43
BRANCH  41  46
HETATM   46  C34 UNL     1       7.980  13.783  21.871  1.00  0.00     0.019 C 
BRANCH  46  47
HETATM   47  C35 UNL     1       7.633  15.279  21.922  1.00  0.00     0.039 C 
BRANCH  47  48
HETATM   48  C36 UNL     1       8.465  15.971  22.983  1.00  0.00    -0.054 A 
HETATM   49  C37 UNL     1       9.433  16.912  22.623  1.00  0.00     0.024 A 
HETATM   50  C38 UNL     1      10.217  17.491  23.609  1.00  0.00     0.090 A 
HETATM   51  N1  UNL     1      10.034  17.140  24.887  1.00  0.00    -0.357 N 
HETATM   52  C39 UNL     1       9.127  16.244  25.280  1.00  0.00     0.077 A 
HETATM   53  H56 UNL     1      10.606  17.543  25.624  1.00  0.00     0.166 HD
HETATM   54  C40 UNL     1       8.319  15.634  24.333  1.00  0.00     0.049 A 
BRANCH  52  55
HETATM   55  N2  UNL     1       9.062  15.964  26.638  1.00  0.00    -0.289 NA
HETATM   56  H57 UNL     1       8.114  16.121  26.991  1.00  0.00     0.125 HD
HETATM   57  H58 UNL     1       9.237  14.972  26.811  1.00  0.00     0.125 HD
ENDBRANCH  52  55
ENDBRANCH  47  48
ENDBRANCH  46  47
ENDBRANCH  41  46
ENDBRANCH  37  41
ENDBRANCH  36  37
ENDBRANCH   6  34
TORSDOF 13
ENDMDL
MODEL 9
REMARK minimizedAffinity -7.97374868
REMARK CNNscore 0.193288565
REMARK CNNaffinity 6.45252848
REMARK  13 active torsions:
REMARK  status: ('A' for Active; 'I' for Inactive)
REMARK    1  A    between atoms: C5_6  and  C6_7 
REMARK    2  A    between atoms: C5_6  and  C27_31 
REMARK    3  A    between atoms: C18_19  and  O2_20 
REMARK    4  A    between atoms: C23_25  and  O3_26 
REMARK    5  A    between atoms: C28_33  and  C29_34 
REMARK    6  A    between atoms: C29_34  and  O6_36 
REMARK    7  A    between atoms: C29_34  and  C31_37 
REMARK    8  A    between atoms: C31_37  and  C33_39 
REMARK    9  A    between atoms: C31_37  and  C34_41 
REMARK   10  A    between atoms: C33_39  and  O7_40 
REMARK   11  A    between atoms: C34_41  and  C35_42 
REMARK   12  A    between atoms: C35_42  and  C36_43 
REMARK   13  A    between atoms: C39_47  and  N2_48 
ROOT
HETATM    1  C1  UNL     1      -1.295  14.809  13.038  1.00  0.00     0.010 C 
HETATM    2  C2  UNL     1      -1.091  14.368  14.490  1.00  0.00    -0.014 C 
HETATM    3  C3  UNL     1       0.237  13.617  14.658  1.00  0.00     0.030 C 
HETATM    4  C4  UNL     1       0.040  12.227  15.251  1.00  0.00     0.169 C 
HETATM    5  O1  UNL     1      -0.716  12.292  16.456  1.00  0.00    -0.377 OA
HETATM    6  C5  UNL     1      -2.067  12.820  16.329  1.00  0.00     0.094 C 
HETATM    7  C41 UNL     1      -2.264  13.507  14.953  1.00  0.00     0.045 C 
ENDROOT
BRANCH   6   8
HETATM    8  C6  UNL     1      -2.254  13.671  17.635  1.00  0.00     0.035 C 
HETATM    9  C7  UNL     1      -1.673  15.144  17.587  1.00  0.00     0.016 C 
HETATM   10  C8  UNL     1      -2.620  15.984  18.458  1.00  0.00     0.026 C 
HETATM   11  C9  UNL     1      -2.102  17.175  19.241  1.00  0.00     0.013 C 
HETATM   12  C18 UNL     1      -3.195  14.936  19.402  1.00  0.00     0.094 C 
HETATM   13  C10 UNL     1      -3.265  17.760  20.081  1.00  0.00     0.043 C 
HETATM   14  C11 UNL     1      -4.240  16.741  20.663  1.00  0.00    -0.006 C 
HETATM   15  C12 UNL     1      -4.232  15.431  20.345  1.00  0.00    -0.030 C 
HETATM   16  C26 UNL     1      -5.166  17.229  21.724  1.00  0.00     0.161 C 
HETATM   17  C13 UNL     1      -5.073  14.364  21.014  1.00  0.00     0.027 C 
HETATM   18  C14 UNL     1      -5.264  13.052  20.178  1.00  0.00     0.011 C 
HETATM   19  C19 UNL     1      -6.419  14.946  21.577  1.00  0.00    -0.026 C 
HETATM   20  C15 UNL     1      -4.077  12.637  19.277  1.00  0.00     0.014 C 
HETATM   21  C16 UNL     1      -3.616  13.823  18.412  1.00  0.00    -0.002 C 
HETATM   22  C17 UNL     1      -4.783  14.258  17.492  1.00  0.00     0.019 C 
HETATM   23  C20 UNL     1      -7.417  15.282  20.437  1.00  0.00     0.016 C 
HETATM   24  C21 UNL     1      -7.072  13.876  22.505  1.00  0.00     0.013 C 
HETATM   25  C25 UNL     1      -6.170  16.272  22.362  1.00  0.00     0.071 C 
HETATM   26  C22 UNL     1      -7.866  14.497  23.648  1.00  0.00     0.032 C 
HETATM   27  C23 UNL     1      -6.972  15.343  24.561  1.00  0.00     0.119 C 
HETATM   28  C24 UNL     1      -5.798  15.995  23.823  1.00  0.00     0.045 C 
HETATM   29  O4  UNL     1      -5.086  18.400  22.091  1.00  0.00    -0.292 OA
BRANCH  27  30
HETATM   30  O3  UNL     1      -7.773  16.373  25.134  1.00  0.00    -0.396 OA
HETATM   31  H34 UNL     1      -8.451  15.953  25.691  1.00  0.00     0.210 HD
ENDBRANCH  27  30
BRANCH  12  32
HETATM   32  O2  UNL     1      -2.147  14.438  20.262  1.00  0.00    -0.384 OA
HETATM   33  H25 UNL     1      -1.935  15.132  20.907  1.00  0.00     0.211 HD
ENDBRANCH  12  32
ENDBRANCH   6   8
BRANCH   6  34
HETATM   34  C27 UNL     1      -3.058  11.652  16.378  1.00  0.00     0.189 A 
HETATM   35  O5  UNL     1      -4.056  11.649  15.343  1.00  0.00    -0.369 OA
HETATM   36  C28 UNL     1      -3.099  10.581  15.304  1.00  0.00     0.189 A 
BRANCH  36  37
HETATM   37  C29 UNL     1      -3.678   9.183  15.470  1.00  0.00     0.092 C 
HETATM   38  C30 UNL     1      -5.217   9.202  15.499  1.00  0.00     0.049 C 
BRANCH  37  39
HETATM   39  O6  UNL     1      -3.306   8.774  16.796  1.00  0.00    -0.387 OA
HETATM   40  H43 UNL     1      -2.520   8.193  16.724  1.00  0.00     0.210 HD
ENDBRANCH  37  39
BRANCH  37  41
HETATM   41  C31 UNL     1      -3.093   8.148  14.387  1.00  0.00     0.011 C 
HETATM   42  C32 UNL     1      -2.393   6.954  15.079  1.00  0.00     0.020 C 
BRANCH  41  43
HETATM   43  C33 UNL     1      -2.029   8.859  13.504  1.00  0.00     0.176 C 
BRANCH  43  44
HETATM   44  O7  UNL     1      -2.462   8.895  12.143  1.00  0.00    -0.400 OA
HETATM   45  H49 UNL     1      -1.968   9.621  11.712  1.00  0.00     0.209 HD
ENDBRANCH  43  44
ENDBRANCH  41  43
BRANCH  41  46
HETATM   46  C34 UNL     1      -4.254   7.605  13.482  1.00  0.00     0.019 C 
BRANCH  46  47
HETATM   47  C35 UNL     1      -4.333   6.082  13.298  1.00  0.00     0.039 C 
BRANCH  47  48
HETATM   48  C36 UNL     1      -5.776   5.624  13.353  1.00  0.00    -0.054 A 
HETATM   49  C37 UNL     1      -6.790   6.515  13.710  1.00  0.00     0.024 A 
HETATM   50  C38 UNL     1      -8.095   6.058  13.805  1.00  0.00     0.090 A 
HETATM   51  N1  UNL     1      -8.362   4.771  13.553  1.00  0.00    -0.357 N 
HETATM   52  C39 UNL     1      -7.429   3.880  13.212  1.00  0.00     0.077 A 
HETATM   53  H56 UNL     1      -9.309   4.412  13.628  1.00  0.00     0.166 HD
HETATM   54  C40 UNL     1      -6.107   4.287  13.106  1.00  0.00     0.049 A 
BRANCH  52  55
HETATM   55  N2  UNL     1      -7.849   2.575  12.998  1.00  0.00    -0.289 NA
HETATM   56  H57 UNL     1      -7.572   2.259  12.064  1.00  0.00     0.125 HD
HETATM   57  H58 UNL     1      -7.373   1.934  13.636  1.00  0.00     0.125 HD
ENDBRANCH  52  55
ENDBRANCH  47  48
ENDBRANCH  46  47
ENDBRANCH  41  46
ENDBRANCH  37  41
ENDBRANCH  36  37
ENDBRANCH   6  34
TORSDOF 13
ENDMDL
