MODEL 1
REMARK minimizedAffinity -9.13251591
REMARK CNNscore 0.670611084
REMARK CNNaffinity 7.11554956
REMARK  12 active torsions:
REMARK  status: ('A' for Active; 'I' for Inactive)
REMARK    1  A    between atoms: C2_2  and  C3_3 
REMARK    2  A    between atoms: C2_2  and  C9_10 
REMARK    3  A    between atoms: C3_3  and  C4_4 
REMARK    4  A    between atoms: C5_5  and  C6_6 
REMARK    5  A    between atoms: C6_6  and  O1_9 
REMARK    6  A    between atoms: C27_29  and  O3_30 
REMARK    7  A    between atoms: O3_30  and  C28_31 
REMARK    8  A    between atoms: C29_33  and  C30_34 
REMARK    9  A    between atoms: C30_34  and  O5_35 
REMARK   10  A    between atoms: C31_36  and  O6_37 
REMARK   11  A    between atoms: C32_38  and  O7_39 
REMARK   12  A    between atoms: C33_40  and  O8_41 
ROOT
HETATM    1  C9  UNL     1      -2.295  12.785  17.772  1.00  0.00    -0.002 C 
HETATM    2  C10 UNL     1      -1.259  12.292  18.820  1.00  0.00     0.006 C 
HETATM    3  C11 UNL     1      -0.962  10.808  18.491  1.00  0.00     0.011 C 
HETATM    4  C12 UNL     1      -1.576  10.581  17.092  1.00  0.00    -0.029 C 
HETATM    5  C13 UNL     1      -0.512  11.120  16.079  1.00  0.00     0.016 C 
HETATM    6  C14 UNL     1      -1.972   9.113  16.745  1.00  0.00     0.028 C 
HETATM    7  C15 UNL     1      -0.784   8.169  16.718  1.00  0.00    -0.021 C 
HETATM    8  C16 UNL     1      -0.561   7.331  15.691  1.00  0.00     0.008 C 
HETATM    9  C17 UNL     1      -1.497   7.283  14.489  1.00  0.00     0.092 C 
HETATM   10  O2  UNL     1      -2.684   6.643  15.009  1.00  0.00    -0.374 OA
HETATM   11  C18 UNL     1      -3.606   7.657  15.430  1.00  0.00     0.179 C 
HETATM   12  C19 UNL     1      -2.857   9.013  15.420  1.00  0.00    -0.004 C 
HETATM   13  C20 UNL     1      -3.903  10.153  15.275  1.00  0.00     0.014 C 
HETATM   14  C21 UNL     1      -3.514  11.546  15.803  1.00  0.00     0.011 C 
HETATM   15  C22 UNL     1      -2.875  11.458  17.198  1.00  0.00    -0.032 C 
HETATM   16  C23 UNL     1      -3.946  10.887  18.176  1.00  0.00     0.016 C 
HETATM   17  C24 UNL     1      -1.928   8.752  14.207  1.00  0.00     0.036 C 
HETATM   18  C25 UNL     1      -2.534   8.925  12.816  1.00  0.00     0.011 C 
HETATM   19  C26 UNL     1      -1.537   8.530  11.724  1.00  0.00     0.033 C 
HETATM   20  C27 UNL     1      -0.449   7.538  12.174  1.00  0.00     0.136 C 
HETATM   21  C34 UNL     1      -0.995   6.504  13.205  1.00  0.00     0.014 C 
HETATM   22  C35 UNL     1      -2.130   5.657  12.562  1.00  0.00     0.021 C 
HETATM   23  C36 UNL     1       0.120   5.477  13.527  1.00  0.00     0.021 C 
ENDROOT
BRANCH  20  24
HETATM   24  O3  UNL     1       0.080   6.839  11.035  1.00  0.00    -0.352 OA
BRANCH  24  25
HETATM   25  C28 UNL     1       1.500   6.976  10.858  1.00  0.00     0.292 C 
HETATM   26  O4  UNL     1       1.792   8.163  10.130  1.00  0.00    -0.348 OA
HETATM   27  C29 UNL     1       3.084   8.212   9.488  1.00  0.00     0.179 C 
HETATM   28  C31 UNL     1       4.080   7.129   9.935  1.00  0.00     0.180 C 
HETATM   29  C32 UNL     1       3.474   5.719   9.927  1.00  0.00     0.183 C 
HETATM   30  C33 UNL     1       1.949   5.733  10.074  1.00  0.00     0.204 C 
BRANCH  27  31
HETATM   31  C30 UNL     1       2.847   8.195   7.971  1.00  0.00     0.198 C 
BRANCH  31  32
HETATM   32  O5  UNL     1       1.443   8.243   7.707  1.00  0.00    -0.398 OA
HETATM   33  H46 UNL     1       1.037   7.607   8.328  1.00  0.00     0.209 HD
ENDBRANCH  31  32
ENDBRANCH  27  31
BRANCH  28  34
HETATM   34  O6  UNL     1       4.488   7.439  11.280  1.00  0.00    -0.390 OA
HETATM   35  H48 UNL     1       5.298   6.926  11.461  1.00  0.00     0.210 HD
ENDBRANCH  28  34
BRANCH  29  36
HETATM   36  O7  UNL     1       3.827   5.046   8.710  1.00  0.00    -0.390 OA
HETATM   37  H50 UNL     1       3.410   4.163   8.765  1.00  0.00     0.210 HD
ENDBRANCH  29  36
BRANCH  30  38
HETATM   38  O8  UNL     1       1.530   4.513  10.709  1.00  0.00    -0.388 OA
HETATM   39  H52 UNL     1       0.588   4.664  10.931  1.00  0.00     0.210 HD
ENDBRANCH  30  38
ENDBRANCH  24  25
ENDBRANCH  20  24
BRANCH   1  40
HETATM   40  C2  UNL     1      -3.284  13.899  18.236  1.00  0.00    -0.010 C 
HETATM   41  C1  UNL     1      -2.767  14.496  19.560  1.00  0.00     0.010 C 
BRANCH  40  42
HETATM   42  C3  UNL     1      -4.756  13.459  18.431  1.00  0.00     0.031 C 
BRANCH  42  43
HETATM   43  C4  UNL     1      -5.375  13.592  19.805  1.00  0.00    -0.027 C 
HETATM   44  C5  UNL     1      -6.680  13.632  20.134  1.00  0.00     0.006 C 
BRANCH  44  45
HETATM   45  C6  UNL     1      -7.265  13.722  21.526  1.00  0.00     0.068 C 
HETATM   46  C7  UNL     1      -8.576  12.935  21.604  1.00  0.00     0.050 C 
HETATM   47  C8  UNL     1      -6.261  13.192  22.549  1.00  0.00     0.050 C 
BRANCH  45  48
HETATM   48  O1  UNL     1      -7.546  15.078  21.869  1.00  0.00    -0.387 OA
HETATM   49  H15 UNL     1      -8.227  15.392  21.249  1.00  0.00     0.211 HD
ENDBRANCH  45  48
ENDBRANCH  44  45
ENDBRANCH  42  43
ENDBRANCH  40  42
ENDBRANCH   1  40
TORSDOF 12
ENDMDL
MODEL 2
REMARK minimizedAffinity -8.22302437
REMARK CNNscore 0.668137491
REMARK CNNaffinity 7.01711702
REMARK  12 active torsions:
REMARK  status: ('A' for Active; 'I' for Inactive)
REMARK    1  A    between atoms: C2_2  and  C3_3 
REMARK    2  A    between atoms: C2_2  and  C9_10 
REMARK    3  A    between atoms: C3_3  and  C4_4 
REMARK    4  A    between atoms: C5_5  and  C6_6 
REMARK    5  A    between atoms: C6_6  and  O1_9 
REMARK    6  A    between atoms: C27_29  and  O3_30 
REMARK    7  A    between atoms: O3_30  and  C28_31 
REMARK    8  A    between atoms: C29_33  and  C30_34 
REMARK    9  A    between atoms: C30_34  and  O5_35 
REMARK   10  A    between atoms: C31_36  and  O6_37 
REMARK   11  A    between atoms: C32_38  and  O7_39 
REMARK   12  A    between atoms: C33_40  and  O8_41 
ROOT
HETATM    1  C9  UNL     1      -1.964  13.000  17.780  1.00  0.00    -0.002 C 
HETATM    2  C10 UNL     1      -1.016  12.425  18.868  1.00  0.00     0.006 C 
HETATM    3  C11 UNL     1      -0.841  10.918  18.556  1.00  0.00     0.011 C 
HETATM    4  C12 UNL     1      -1.420  10.736  17.135  1.00  0.00    -0.029 C 
HETATM    5  C13 UNL     1      -0.276  11.170  16.161  1.00  0.00     0.016 C 
HETATM    6  C14 UNL     1      -1.932   9.306  16.779  1.00  0.00     0.028 C 
HETATM    7  C15 UNL     1      -0.833   8.260  16.801  1.00  0.00    -0.021 C 
HETATM    8  C16 UNL     1      -0.648   7.398  15.786  1.00  0.00     0.008 C 
HETATM    9  C17 UNL     1      -1.539   7.425  14.550  1.00  0.00     0.092 C 
HETATM   10  O2  UNL     1      -2.797   6.897  15.027  1.00  0.00    -0.374 OA
HETATM   11  C18 UNL     1      -3.640   7.993  15.409  1.00  0.00     0.179 C 
HETATM   12  C19 UNL     1      -2.773   9.276  15.423  1.00  0.00    -0.004 C 
HETATM   13  C20 UNL     1      -3.707  10.504  15.233  1.00  0.00     0.014 C 
HETATM   14  C21 UNL     1      -3.215  11.860  15.770  1.00  0.00     0.011 C 
HETATM   15  C22 UNL     1      -2.639  11.726  17.189  1.00  0.00    -0.032 C 
HETATM   16  C23 UNL     1      -3.792  11.260  18.128  1.00  0.00     0.016 C 
HETATM   17  C24 UNL     1      -1.826   8.925  14.247  1.00  0.00     0.036 C 
HETATM   18  C25 UNL     1      -2.362   9.142  12.833  1.00  0.00     0.011 C 
HETATM   19  C26 UNL     1      -1.365   8.651  11.781  1.00  0.00     0.033 C 
HETATM   20  C27 UNL     1      -0.387   7.569  12.276  1.00  0.00     0.136 C 
HETATM   21  C34 UNL     1      -1.062   6.595  13.289  1.00  0.00     0.014 C 
HETATM   22  C35 UNL     1      -2.243   5.848  12.608  1.00  0.00     0.021 C 
HETATM   23  C36 UNL     1      -0.055   5.476  13.657  1.00  0.00     0.021 C 
ENDROOT
BRANCH  20  24
HETATM   24  O3  UNL     1       0.120   6.817  11.160  1.00  0.00    -0.352 OA
BRANCH  24  25
HETATM   25  C28 UNL     1       1.533   6.960  10.937  1.00  0.00     0.292 C 
HETATM   26  O4  UNL     1       1.796   8.143  10.194  1.00  0.00    -0.348 OA
HETATM   27  C29 UNL     1       3.067   8.194   9.510  1.00  0.00     0.179 C 
HETATM   28  C31 UNL     1       4.082   7.118   9.933  1.00  0.00     0.180 C 
HETATM   29  C32 UNL     1       3.482   5.706   9.953  1.00  0.00     0.183 C 
HETATM   30  C33 UNL     1       1.963   5.713  10.148  1.00  0.00     0.204 C 
BRANCH  27  31
HETATM   31  C30 UNL     1       2.783   8.166   8.002  1.00  0.00     0.198 C 
BRANCH  31  32
HETATM   32  O5  UNL     1       1.372   8.231   7.782  1.00  0.00    -0.398 OA
HETATM   33  H46 UNL     1       0.977   7.606   8.421  1.00  0.00     0.209 HD
ENDBRANCH  31  32
ENDBRANCH  27  31
BRANCH  28  34
HETATM   34  O6  UNL     1       4.530   7.438  11.262  1.00  0.00    -0.390 OA
HETATM   35  H48 UNL     1       5.348   6.930  11.421  1.00  0.00     0.210 HD
ENDBRANCH  28  34
BRANCH  29  36
HETATM   36  O7  UNL     1       3.800   5.027   8.730  1.00  0.00    -0.390 OA
HETATM   37  H50 UNL     1       3.389   4.143   8.803  1.00  0.00     0.210 HD
ENDBRANCH  29  36
BRANCH  30  38
HETATM   38  O8  UNL     1       1.570   4.496  10.803  1.00  0.00    -0.388 OA
HETATM   39  H52 UNL     1       0.634   4.644  11.053  1.00  0.00     0.210 HD
ENDBRANCH  30  38
ENDBRANCH  24  25
ENDBRANCH  20  24
BRANCH   1  40
HETATM   40  C2  UNL     1      -2.866  14.202  18.201  1.00  0.00    -0.010 C 
HETATM   41  C1  UNL     1      -2.523  14.589  19.654  1.00  0.00     0.010 C 
BRANCH  40  42
HETATM   42  C3  UNL     1      -4.394  13.970  18.098  1.00  0.00     0.031 C 
BRANCH  42  43
HETATM   43  C4  UNL     1      -5.210  14.900  17.227  1.00  0.00    -0.027 C 
HETATM   44  C5  UNL     1      -6.332  14.628  16.535  1.00  0.00     0.006 C 
BRANCH  44  45
HETATM   45  C6  UNL     1      -7.148  15.596  15.707  1.00  0.00     0.068 C 
HETATM   46  C7  UNL     1      -7.873  14.853  14.583  1.00  0.00     0.050 C 
HETATM   47  C8  UNL     1      -8.150  16.328  16.598  1.00  0.00     0.050 C 
BRANCH  45  48
HETATM   48  O1  UNL     1      -6.308  16.584  15.111  1.00  0.00    -0.387 OA
HETATM   49  H15 UNL     1      -5.710  16.117  14.502  1.00  0.00     0.211 HD
ENDBRANCH  45  48
ENDBRANCH  44  45
ENDBRANCH  42  43
ENDBRANCH  40  42
ENDBRANCH   1  40
TORSDOF 12
ENDMDL
MODEL 3
REMARK minimizedAffinity -7.98623323
REMARK CNNscore 0.541554928
REMARK CNNaffinity 6.8665204
REMARK  12 active torsions:
REMARK  status: ('A' for Active; 'I' for Inactive)
REMARK    1  A    between atoms: C2_2  and  C3_3 
REMARK    2  A    between atoms: C2_2  and  C9_10 
REMARK    3  A    between atoms: C3_3  and  C4_4 
REMARK    4  A    between atoms: C5_5  and  C6_6 
REMARK    5  A    between atoms: C6_6  and  O1_9 
REMARK    6  A    between atoms: C27_29  and  O3_30 
REMARK    7  A    between atoms: O3_30  and  C28_31 
REMARK    8  A    between atoms: C29_33  and  C30_34 
REMARK    9  A    between atoms: C30_34  and  O5_35 
REMARK   10  A    between atoms: C31_36  and  O6_37 
REMARK   11  A    between atoms: C32_38  and  O7_39 
REMARK   12  A    between atoms: C33_40  and  O8_41 
ROOT
HETATM    1  C9  UNL     1      -1.638  13.131  17.349  1.00  0.00    -0.002 C 
HETATM    2  C10 UNL     1      -0.954  12.490  18.588  1.00  0.00     0.006 C 
HETATM    3  C11 UNL     1      -0.987  10.957  18.373  1.00  0.00     0.011 C 
HETATM    4  C12 UNL     1      -1.388  10.771  16.893  1.00  0.00    -0.029 C 
HETATM    5  C13 UNL     1      -0.066  10.956  16.078  1.00  0.00     0.016 C 
HETATM    6  C14 UNL     1      -2.073   9.418  16.531  1.00  0.00     0.028 C 
HETATM    7  C15 UNL     1      -1.173   8.217  16.760  1.00  0.00    -0.021 C 
HETATM    8  C16 UNL     1      -0.994   7.270  15.823  1.00  0.00     0.008 C 
HETATM    9  C17 UNL     1      -1.691   7.351  14.470  1.00  0.00     0.092 C 
HETATM   10  O2  UNL     1      -3.072   7.059  14.782  1.00  0.00    -0.374 OA
HETATM   11  C18 UNL     1      -3.769   8.295  14.988  1.00  0.00     0.179 C 
HETATM   12  C19 UNL     1      -2.714   9.426  15.069  1.00  0.00    -0.004 C 
HETATM   13  C20 UNL     1      -3.401  10.769  14.691  1.00  0.00     0.014 C 
HETATM   14  C21 UNL     1      -2.772  12.065  15.232  1.00  0.00     0.011 C 
HETATM   15  C22 UNL     1      -2.425  11.940  16.724  1.00  0.00    -0.032 C 
HETATM   16  C23 UNL     1      -3.756  11.723  17.505  1.00  0.00     0.016 C 
HETATM   17  C24 UNL     1      -1.686   8.854  14.061  1.00  0.00     0.036 C 
HETATM   18  C25 UNL     1      -1.981   9.054  12.576  1.00  0.00     0.011 C 
HETATM   19  C26 UNL     1      -0.943   8.345  11.704  1.00  0.00     0.033 C 
HETATM   20  C27 UNL     1      -0.232   7.160  12.383  1.00  0.00     0.136 C 
HETATM   21  C34 UNL     1      -1.188   6.374  13.331  1.00  0.00     0.014 C 
HETATM   22  C35 UNL     1      -2.371   5.775  12.519  1.00  0.00     0.021 C 
HETATM   23  C36 UNL     1      -0.438   5.140  13.892  1.00  0.00     0.021 C 
ENDROOT
BRANCH  20  24
HETATM   24  O3  UNL     1       0.294   6.265  11.389  1.00  0.00    -0.352 OA
BRANCH  24  25
HETATM   25  C28 UNL     1       1.508   6.713  10.765  1.00  0.00     0.292 C 
HETATM   26  O4  UNL     1       1.729   6.002   9.553  1.00  0.00    -0.348 OA
HETATM   27  C29 UNL     1       3.086   5.998   9.058  1.00  0.00     0.179 C 
HETATM   28  C31 UNL     1       4.029   7.015   9.722  1.00  0.00     0.180 C 
HETATM   29  C32 UNL     1       3.964   6.976  11.255  1.00  0.00     0.183 C 
HETATM   30  C33 UNL     1       2.631   6.430  11.775  1.00  0.00     0.204 C 
BRANCH  27  31
HETATM   31  C30 UNL     1       3.612   4.560   9.161  1.00  0.00     0.198 C 
BRANCH  31  32
HETATM   32  O5  UNL     1       3.646   3.969   7.860  1.00  0.00    -0.398 OA
HETATM   33  H46 UNL     1       2.796   4.208   7.441  1.00  0.00     0.209 HD
ENDBRANCH  31  32
ENDBRANCH  27  31
BRANCH  28  34
HETATM   34  O6  UNL     1       3.635   8.328   9.285  1.00  0.00    -0.390 OA
HETATM   35  H48 UNL     1       4.376   8.931   9.482  1.00  0.00     0.210 HD
ENDBRANCH  28  34
BRANCH  29  36
HETATM   36  O7  UNL     1       5.037   6.173  11.766  1.00  0.00    -0.390 OA
HETATM   37  H50 UNL     1       4.938   6.185  12.739  1.00  0.00     0.210 HD
ENDBRANCH  29  36
BRANCH  30  38
HETATM   38  O8  UNL     1       2.358   7.009  13.062  1.00  0.00    -0.388 OA
HETATM   39  H52 UNL     1       1.429   6.762  13.250  1.00  0.00     0.210 HD
ENDBRANCH  30  38
ENDBRANCH  24  25
ENDBRANCH  20  24
BRANCH   1  40
HETATM   40  C2  UNL     1      -2.381  14.484  17.580  1.00  0.00    -0.010 C 
HETATM   41  C1  UNL     1      -2.371  15.282  16.261  1.00  0.00     0.010 C 
BRANCH  40  42
HETATM   42  C3  UNL     1      -1.816  15.382  18.708  1.00  0.00     0.031 C 
BRANCH  42  43
HETATM   43  C4  UNL     1      -2.719  15.742  19.867  1.00  0.00    -0.027 C 
HETATM   44  C5  UNL     1      -2.381  15.980  21.148  1.00  0.00     0.006 C 
BRANCH  44  45
HETATM   45  C6  UNL     1      -3.307  16.381  22.274  1.00  0.00     0.068 C 
HETATM   46  C7  UNL     1      -2.765  17.618  22.994  1.00  0.00     0.050 C 
HETATM   47  C8  UNL     1      -4.708  16.652  21.726  1.00  0.00     0.050 C 
BRANCH  45  48
HETATM   48  O1  UNL     1      -3.423  15.330  23.232  1.00  0.00    -0.387 OA
HETATM   49  H15 UNL     1      -2.539  15.200  23.618  1.00  0.00     0.211 HD
ENDBRANCH  45  48
ENDBRANCH  44  45
ENDBRANCH  42  43
ENDBRANCH  40  42
ENDBRANCH   1  40
TORSDOF 12
ENDMDL
MODEL 4
REMARK minimizedAffinity -8.24178123
REMARK CNNscore 0.45075047
REMARK CNNaffinity 6.91988611
REMARK  12 active torsions:
REMARK  status: ('A' for Active; 'I' for Inactive)
REMARK    1  A    between atoms: C2_2  and  C3_3 
REMARK    2  A    between atoms: C2_2  and  C9_10 
REMARK    3  A    between atoms: C3_3  and  C4_4 
REMARK    4  A    between atoms: C5_5  and  C6_6 
REMARK    5  A    between atoms: C6_6  and  O1_9 
REMARK    6  A    between atoms: C27_29  and  O3_30 
REMARK    7  A    between atoms: O3_30  and  C28_31 
REMARK    8  A    between atoms: C29_33  and  C30_34 
REMARK    9  A    between atoms: C30_34  and  O5_35 
REMARK   10  A    between atoms: C31_36  and  O6_37 
REMARK   11  A    between atoms: C32_38  and  O7_39 
REMARK   12  A    between atoms: C33_40  and  O8_41 
ROOT
HETATM    1  C9  UNL     1      -1.606  13.123  17.454  1.00  0.00    -0.002 C 
HETATM    2  C10 UNL     1      -0.864  12.470  18.653  1.00  0.00     0.006 C 
HETATM    3  C11 UNL     1      -0.885  10.940  18.413  1.00  0.00     0.011 C 
HETATM    4  C12 UNL     1      -1.345  10.775  16.947  1.00  0.00    -0.029 C 
HETATM    5  C13 UNL     1      -0.060  10.991  16.082  1.00  0.00     0.016 C 
HETATM    6  C14 UNL     1      -2.027   9.418  16.590  1.00  0.00     0.028 C 
HETATM    7  C15 UNL     1      -1.103   8.227  16.761  1.00  0.00    -0.021 C 
HETATM    8  C16 UNL     1      -0.951   7.298  15.800  1.00  0.00     0.008 C 
HETATM    9  C17 UNL     1      -1.704   7.393  14.479  1.00  0.00     0.092 C 
HETATM   10  O2  UNL     1      -3.067   7.077  14.842  1.00  0.00    -0.374 OA
HETATM   11  C18 UNL     1      -3.771   8.300  15.097  1.00  0.00     0.179 C 
HETATM   12  C19 UNL     1      -2.728   9.444  15.156  1.00  0.00    -0.004 C 
HETATM   13  C20 UNL     1      -3.446  10.783  14.829  1.00  0.00     0.014 C 
HETATM   14  C21 UNL     1      -2.812  12.078  15.367  1.00  0.00     0.011 C 
HETATM   15  C22 UNL     1      -2.402  11.932  16.841  1.00  0.00    -0.032 C 
HETATM   16  C23 UNL     1      -3.697  11.684  17.672  1.00  0.00     0.016 C 
HETATM   17  C24 UNL     1      -1.734   8.902  14.096  1.00  0.00     0.036 C 
HETATM   18  C25 UNL     1      -2.092   9.124  12.628  1.00  0.00     0.011 C 
HETATM   19  C26 UNL     1      -1.082   8.444  11.702  1.00  0.00     0.033 C 
HETATM   20  C27 UNL     1      -0.329   7.257  12.331  1.00  0.00     0.136 C 
HETATM   21  C34 UNL     1      -1.236   6.442  13.303  1.00  0.00     0.014 C 
HETATM   22  C35 UNL     1      -2.443   5.841  12.529  1.00  0.00     0.021 C 
HETATM   23  C36 UNL     1      -0.447   5.208  13.811  1.00  0.00     0.021 C 
ENDROOT
BRANCH  20  24
HETATM   24  O3  UNL     1       0.166   6.386  11.301  1.00  0.00    -0.352 OA
BRANCH  24  25
HETATM   25  C28 UNL     1       1.411   6.802  10.715  1.00  0.00     0.292 C 
HETATM   26  O4  UNL     1       1.688   6.034   9.551  1.00  0.00    -0.348 OA
HETATM   27  C29 UNL     1       3.066   6.005   9.121  1.00  0.00     0.179 C 
HETATM   28  C31 UNL     1       3.981   7.049   9.783  1.00  0.00     0.180 C 
HETATM   29  C32 UNL     1       3.842   7.084  11.311  1.00  0.00     0.183 C 
HETATM   30  C33 UNL     1       2.483   6.565  11.791  1.00  0.00     0.204 C 
BRANCH  27  31
HETATM   31  C30 UNL     1       3.581   4.572   9.318  1.00  0.00     0.198 C 
BRANCH  31  32
HETATM   32  O5  UNL     1       3.493   3.860   8.082  1.00  0.00    -0.398 OA
HETATM   33  H46 UNL     1       2.612   4.075   7.717  1.00  0.00     0.209 HD
ENDBRANCH  31  32
ENDBRANCH  27  31
BRANCH  28  34
HETATM   34  O6  UNL     1       3.613   8.341   9.266  1.00  0.00    -0.390 OA
HETATM   35  H48 UNL     1       4.347   8.952   9.470  1.00  0.00     0.210 HD
ENDBRANCH  28  34
BRANCH  29  36
HETATM   36  O7  UNL     1       4.886   6.303  11.910  1.00  0.00    -0.390 OA
HETATM   37  H50 UNL     1       4.740   6.362  12.875  1.00  0.00     0.210 HD
ENDBRANCH  29  36
BRANCH  30  38
HETATM   38  O8  UNL     1       2.151   7.204  13.035  1.00  0.00    -0.388 OA
HETATM   39  H52 UNL     1       1.213   6.968  13.188  1.00  0.00     0.210 HD
ENDBRANCH  30  38
ENDBRANCH  24  25
ENDBRANCH  20  24
BRANCH   1  40
HETATM   40  C2  UNL     1      -2.356  14.461  17.739  1.00  0.00    -0.010 C 
HETATM   41  C1  UNL     1      -2.813  14.464  19.212  1.00  0.00     0.010 C 
BRANCH  40  42
HETATM   42  C3  UNL     1      -3.580  14.756  16.838  1.00  0.00     0.031 C 
BRANCH  42  43
HETATM   43  C4  UNL     1      -3.531  15.957  15.921  1.00  0.00    -0.027 C 
HETATM   44  C5  UNL     1      -4.077  16.099  14.699  1.00  0.00     0.006 C 
BRANCH  44  45
HETATM   45  C6  UNL     1      -4.044  17.333  13.824  1.00  0.00     0.068 C 
HETATM   46  C7  UNL     1      -5.461  17.869  13.608  1.00  0.00     0.050 C 
HETATM   47  C8  UNL     1      -3.160  18.403  14.465  1.00  0.00     0.050 C 
BRANCH  45  48
HETATM   48  O1  UNL     1      -3.488  17.033  12.545  1.00  0.00    -0.387 OA
HETATM   49  H15 UNL     1      -4.086  16.394  12.120  1.00  0.00     0.211 HD
ENDBRANCH  45  48
ENDBRANCH  44  45
ENDBRANCH  42  43
ENDBRANCH  40  42
ENDBRANCH   1  40
TORSDOF 12
ENDMDL
MODEL 5
REMARK minimizedAffinity -9.48594189
REMARK CNNscore 0.443343282
REMARK CNNaffinity 7.21715021
REMARK  12 active torsions:
REMARK  status: ('A' for Active; 'I' for Inactive)
REMARK    1  A    between atoms: C2_2  and  C3_3 
REMARK    2  A    between atoms: C2_2  and  C9_10 
REMARK    3  A    between atoms: C3_3  and  C4_4 
REMARK    4  A    between atoms: C5_5  and  C6_6 
REMARK    5  A    between atoms: C6_6  and  O1_9 
REMARK    6  A    between atoms: C27_29  and  O3_30 
REMARK    7  A    between atoms: O3_30  and  C28_31 
REMARK    8  A    between atoms: C29_33  and  C30_34 
REMARK    9  A    between atoms: C30_34  and  O5_35 
REMARK   10  A    between atoms: C31_36  and  O6_37 
REMARK   11  A    between atoms: C32_38  and  O7_39 
REMARK   12  A    between atoms: C33_40  and  O8_41 
ROOT
HETATM    1  C9  UNL     1      -1.672   6.396  12.828  1.00  0.00    -0.002 C 
HETATM    2  C10 UNL     1      -1.631   5.015  12.118  1.00  0.00     0.006 C 
HETATM    3  C11 UNL     1      -0.275   4.935  11.373  1.00  0.00     0.011 C 
HETATM    4  C12 UNL     1       0.553   6.114  11.930  1.00  0.00    -0.029 C 
HETATM    5  C13 UNL     1       1.153   5.600  13.280  1.00  0.00     0.016 C 
HETATM    6  C14 UNL     1       1.680   6.662  11.000  1.00  0.00     0.028 C 
HETATM    7  C15 UNL     1       2.759   5.636  10.709  1.00  0.00    -0.021 C 
HETATM    8  C16 UNL     1       4.067   5.917  10.847  1.00  0.00     0.008 C 
HETATM    9  C17 UNL     1       4.538   7.291  11.306  1.00  0.00     0.092 C 
HETATM   10  O2  UNL     1       4.276   8.138  10.164  1.00  0.00    -0.374 OA
HETATM   11  C18 UNL     1       2.989   8.749  10.331  1.00  0.00     0.179 C 
HETATM   12  C19 UNL     1       2.281   8.047  11.517  1.00  0.00    -0.004 C 
HETATM   13  C20 UNL     1       1.216   9.018  12.099  1.00  0.00     0.014 C 
HETATM   14  C21 UNL     1       0.028   8.398  12.857  1.00  0.00     0.011 C 
HETATM   15  C22 UNL     1      -0.566   7.206  12.089  1.00  0.00    -0.032 C 
HETATM   16  C23 UNL     1      -1.123   7.743  10.736  1.00  0.00     0.016 C 
HETATM   17  C24 UNL     1       3.528   7.763  12.393  1.00  0.00     0.036 C 
HETATM   18  C25 UNL     1       4.070   8.922  13.228  1.00  0.00     0.011 C 
HETATM   19  C26 UNL     1       5.359   8.528  13.952  1.00  0.00     0.033 C 
HETATM   20  C27 UNL     1       6.144   7.380  13.290  1.00  0.00     0.136 C 
HETATM   21  C34 UNL     1       6.056   7.436  11.734  1.00  0.00     0.014 C 
HETATM   22  C35 UNL     1       6.681   8.760  11.211  1.00  0.00     0.021 C 
HETATM   23  C36 UNL     1       6.953   6.321  11.139  1.00  0.00     0.021 C 
ENDROOT
BRANCH  20  24
HETATM   24  O3  UNL     1       7.524   7.432  13.689  1.00  0.00    -0.352 OA
BRANCH  24  25
HETATM   25  C28 UNL     1       7.955   8.712  14.180  1.00  0.00     0.292 C 
HETATM   26  O4  UNL     1       8.981   9.238  13.347  1.00  0.00    -0.348 OA
HETATM   27  C29 UNL     1       9.816  10.259  13.935  1.00  0.00     0.179 C 
HETATM   28  C31 UNL     1       9.291  10.858  15.251  1.00  0.00     0.180 C 
HETATM   29  C32 UNL     1       8.867   9.789  16.267  1.00  0.00     0.183 C 
HETATM   30  C33 UNL     1       8.483   8.463  15.602  1.00  0.00     0.204 C 
BRANCH  27  31
HETATM   31  C30 UNL     1      11.227   9.672  14.084  1.00  0.00     0.198 C 
BRANCH  31  32
HETATM   32  O5  UNL     1      11.223   8.308  13.657  1.00  0.00    -0.398 OA
HETATM   33  H46 UNL     1      10.425   7.909  14.055  1.00  0.00     0.209 HD
ENDBRANCH  31  32
ENDBRANCH  27  31
BRANCH  28  34
HETATM   34  O6  UNL     1       8.142  11.664  14.936  1.00  0.00    -0.390 OA
HETATM   35  H48 UNL     1       7.977  12.243  15.704  1.00  0.00     0.210 HD
ENDBRANCH  28  34
BRANCH  29  36
HETATM   36  O7  UNL     1       9.929   9.560  17.202  1.00  0.00    -0.390 OA
HETATM   37  H50 UNL     1       9.601   8.871  17.814  1.00  0.00     0.210 HD
ENDBRANCH  29  36
BRANCH  30  38
HETATM   38  O8  UNL     1       7.518   7.788  16.426  1.00  0.00    -0.388 OA
HETATM   39  H52 UNL     1       7.190   7.054  15.867  1.00  0.00     0.210 HD
ENDBRANCH  30  38
ENDBRANCH  24  25
ENDBRANCH  20  24
BRANCH   1  40
HETATM   40  C2  UNL     1      -3.079   7.045  13.018  1.00  0.00    -0.010 C 
HETATM   41  C1  UNL     1      -2.999   8.063  14.173  1.00  0.00     0.010 C 
BRANCH  40  42
HETATM   42  C3  UNL     1      -4.244   6.064  13.300  1.00  0.00     0.031 C 
BRANCH  42  43
HETATM   43  C4  UNL     1      -4.223   4.705  12.635  1.00  0.00    -0.027 C 
HETATM   44  C5  UNL     1      -5.243   4.037  12.066  1.00  0.00     0.006 C 
BRANCH  44  45
HETATM   45  C6  UNL     1      -5.177   2.695  11.371  1.00  0.00     0.068 C 
HETATM   46  C7  UNL     1      -3.855   1.994  11.692  1.00  0.00     0.050 C 
HETATM   47  C8  UNL     1      -6.361   1.828  11.799  1.00  0.00     0.050 C 
BRANCH  45  48
HETATM   48  O1  UNL     1      -5.258   2.854   9.955  1.00  0.00    -0.387 OA
HETATM   49  H15 UNL     1      -4.472   3.359   9.682  1.00  0.00     0.211 HD
ENDBRANCH  45  48
ENDBRANCH  44  45
ENDBRANCH  42  43
ENDBRANCH  40  42
ENDBRANCH   1  40
TORSDOF 12
ENDMDL
MODEL 6
REMARK minimizedAffinity -9.5425024
REMARK CNNscore 0.431609392
REMARK CNNaffinity 7.32213068
REMARK  12 active torsions:
REMARK  status: ('A' for Active; 'I' for Inactive)
REMARK    1  A    between atoms: C2_2  and  C3_3 
REMARK    2  A    between atoms: C2_2  and  C9_10 
REMARK    3  A    between atoms: C3_3  and  C4_4 
REMARK    4  A    between atoms: C5_5  and  C6_6 
REMARK    5  A    between atoms: C6_6  and  O1_9 
REMARK    6  A    between atoms: C27_29  and  O3_30 
REMARK    7  A    between atoms: O3_30  and  C28_31 
REMARK    8  A    between atoms: C29_33  and  C30_34 
REMARK    9  A    between atoms: C30_34  and  O5_35 
REMARK   10  A    between atoms: C31_36  and  O6_37 
REMARK   11  A    between atoms: C32_38  and  O7_39 
REMARK   12  A    between atoms: C33_40  and  O8_41 
ROOT
HETATM    1  C9  UNL     1      -2.388   5.463  13.721  1.00  0.00    -0.002 C 
HETATM    2  C10 UNL     1      -1.179   5.590  12.754  1.00  0.00     0.006 C 
HETATM    3  C11 UNL     1      -0.626   7.028  12.916  1.00  0.00     0.011 C 
HETATM    4  C12 UNL     1      -1.315   7.578  14.185  1.00  0.00    -0.029 C 
HETATM    5  C13 UNL     1      -0.483   7.019  15.385  1.00  0.00     0.016 C 
HETATM    6  C14 UNL     1      -1.444   9.129  14.280  1.00  0.00     0.028 C 
HETATM    7  C15 UNL     1      -0.100   9.834  14.327  1.00  0.00    -0.021 C 
HETATM    8  C16 UNL     1       0.184  10.766  15.253  1.00  0.00     0.008 C 
HETATM    9  C17 UNL     1      -0.835  11.170  16.311  1.00  0.00     0.092 C 
HETATM   10  O2  UNL     1      -1.816  11.927  15.566  1.00  0.00    -0.374 OA
HETATM   11  C18 UNL     1      -2.876  11.045  15.173  1.00  0.00     0.179 C 
HETATM   12  C19 UNL     1      -2.415   9.593  15.458  1.00  0.00    -0.004 C 
HETATM   13  C20 UNL     1      -3.676   8.699  15.623  1.00  0.00     0.014 C 
HETATM   14  C21 UNL     1      -3.522   7.194  15.340  1.00  0.00     0.011 C 
HETATM   15  C22 UNL     1      -2.746   6.946  14.036  1.00  0.00    -0.032 C 
HETATM   16  C23 UNL     1      -3.583   7.544  12.864  1.00  0.00     0.016 C 
HETATM   17  C24 UNL     1      -1.574   9.866  16.731  1.00  0.00     0.036 C 
HETATM   18  C25 UNL     1      -2.334  10.024  18.047  1.00  0.00     0.011 C 
HETATM   19  C26 UNL     1      -1.389  10.396  19.191  1.00  0.00     0.033 C 
HETATM   20  C27 UNL     1      -0.088  11.092  18.752  1.00  0.00     0.136 C 
HETATM   21  C34 UNL     1      -0.316  12.035  17.531  1.00  0.00     0.014 C 
HETATM   22  C35 UNL     1      -1.316  13.163  17.908  1.00  0.00     0.021 C 
HETATM   23  C36 UNL     1       1.007  12.778  17.216  1.00  0.00     0.021 C 
ENDROOT
BRANCH  20  24
HETATM   24  O3  UNL     1       0.458  11.851  19.844  1.00  0.00    -0.352 OA
BRANCH  24  25
HETATM   25  C28 UNL     1       1.800  11.491  20.210  1.00  0.00     0.292 C 
HETATM   26  O4  UNL     1       1.895  10.086  20.407  1.00  0.00    -0.348 OA
HETATM   27  C29 UNL     1       3.014   9.630  21.199  1.00  0.00     0.179 C 
HETATM   28  C31 UNL     1       4.111  10.679  21.448  1.00  0.00     0.180 C 
HETATM   29  C32 UNL     1       3.554  12.023  21.938  1.00  0.00     0.183 C 
HETATM   30  C33 UNL     1       2.098  12.246  21.515  1.00  0.00     0.204 C 
BRANCH  27  31
HETATM   31  C30 UNL     1       2.451   9.054  22.506  1.00  0.00     0.198 C 
BRANCH  31  32
HETATM   32  O5  UNL     1       1.761   7.833  22.231  1.00  0.00    -0.398 OA
HETATM   33  H46 UNL     1       1.219   8.011  21.438  1.00  0.00     0.209 HD
ENDBRANCH  31  32
ENDBRANCH  27  31
BRANCH  28  34
HETATM   34  O6  UNL     1       4.795  10.900  20.201  1.00  0.00    -0.390 OA
HETATM   35  H48 UNL     1       5.638  11.346  20.410  1.00  0.00     0.210 HD
ENDBRANCH  28  34
BRANCH  29  36
HETATM   36  O7  UNL     1       3.648  12.095  23.367  1.00  0.00    -0.390 OA
HETATM   37  H50 UNL     1       3.276  12.965  23.614  1.00  0.00     0.210 HD
ENDBRANCH  29  36
BRANCH  30  38
HETATM   38  O8  UNL     1       1.859  13.657  21.389  1.00  0.00    -0.388 OA
HETATM   39  H52 UNL     1       0.985  13.720  20.952  1.00  0.00     0.210 HD
ENDBRANCH  30  38
ENDBRANCH  24  25
ENDBRANCH  20  24
BRANCH   1  40
HETATM   40  C2  UNL     1      -3.529   4.489  13.292  1.00  0.00    -0.010 C 
HETATM   41  C1  UNL     1      -2.962   3.491  12.262  1.00  0.00     0.010 C 
BRANCH  40  42
HETATM   42  C3  UNL     1      -4.796   5.151  12.696  1.00  0.00     0.031 C 
BRANCH  42  43
HETATM   43  C4  UNL     1      -6.049   5.208  13.542  1.00  0.00    -0.027 C 
HETATM   44  C5  UNL     1      -6.800   6.280  13.853  1.00  0.00     0.006 C 
BRANCH  44  45
HETATM   45  C6  UNL     1      -8.074   6.293  14.668  1.00  0.00     0.068 C 
HETATM   46  C7  UNL     1      -7.880   5.514  15.971  1.00  0.00     0.050 C 
HETATM   47  C8  UNL     1      -8.489   7.735  14.964  1.00  0.00     0.050 C 
BRANCH  45  48
HETATM   48  O1  UNL     1      -9.143   5.683  13.947  1.00  0.00    -0.387 OA
HETATM   49  H15 UNL     1      -8.897   4.752  13.811  1.00  0.00     0.211 HD
ENDBRANCH  45  48
ENDBRANCH  44  45
ENDBRANCH  42  43
ENDBRANCH  40  42
ENDBRANCH   1  40
TORSDOF 12
ENDMDL
MODEL 7
REMARK minimizedAffinity -9.8702364
REMARK CNNscore 0.412365288
REMARK CNNaffinity 7.20534134
REMARK  12 active torsions:
REMARK  status: ('A' for Active; 'I' for Inactive)
REMARK    1  A    between atoms: C2_2  and  C3_3 
REMARK    2  A    between atoms: C2_2  and  C9_10 
REMARK    3  A    between atoms: C3_3  and  C4_4 
REMARK    4  A    between atoms: C5_5  and  C6_6 
REMARK    5  A    between atoms: C6_6  and  O1_9 
REMARK    6  A    between atoms: C27_29  and  O3_30 
REMARK    7  A    between atoms: O3_30  and  C28_31 
REMARK    8  A    between atoms: C29_33  and  C30_34 
REMARK    9  A    between atoms: C30_34  and  O5_35 
REMARK   10  A    between atoms: C31_36  and  O6_37 
REMARK   11  A    between atoms: C32_38  and  O7_39 
REMARK   12  A    between atoms: C33_40  and  O8_41 
ROOT
HETATM    1  C9  UNL     1      -3.128   7.035  14.678  1.00  0.00    -0.002 C 
HETATM    2  C10 UNL     1      -3.253   5.512  14.399  1.00  0.00     0.006 C 
HETATM    3  C11 UNL     1      -2.162   5.157  13.358  1.00  0.00     0.011 C 
HETATM    4  C12 UNL     1      -1.243   6.397  13.308  1.00  0.00    -0.029 C 
HETATM    5  C13 UNL     1      -0.270   6.242  14.523  1.00  0.00     0.016 C 
HETATM    6  C14 UNL     1      -0.442   6.607  11.986  1.00  0.00     0.028 C 
HETATM    7  C15 UNL     1       0.538   5.483  11.702  1.00  0.00    -0.021 C 
HETATM    8  C16 UNL     1       1.823   5.720  11.384  1.00  0.00     0.008 C 
HETATM    9  C17 UNL     1       2.368   7.140  11.290  1.00  0.00     0.092 C 
HETATM   10  O2  UNL     1       1.769   7.654  10.079  1.00  0.00    -0.374 OA
HETATM   11  C18 UNL     1       0.566   8.355  10.422  1.00  0.00     0.179 C 
HETATM   12  C19 UNL     1       0.244   8.046  11.905  1.00  0.00    -0.004 C 
HETATM   13  C20 UNL     1      -0.638   9.195  12.468  1.00  0.00     0.014 C 
HETATM   14  C21 UNL     1      -1.545   8.873  13.670  1.00  0.00     0.011 C 
HETATM   15  C22 UNL     1      -2.299   7.550  13.463  1.00  0.00    -0.032 C 
HETATM   16  C23 UNL     1      -3.232   7.723  12.227  1.00  0.00     0.016 C 
HETATM   17  C24 UNL     1       1.695   7.947  12.440  1.00  0.00     0.036 C 
HETATM   18  C25 UNL     1       2.420   9.259  12.732  1.00  0.00     0.011 C 
HETATM   19  C26 UNL     1       3.872   9.010  13.146  1.00  0.00     0.033 C 
HETATM   20  C27 UNL     1       4.468   7.684  12.638  1.00  0.00     0.136 C 
HETATM   21  C34 UNL     1       3.940   7.314  11.218  1.00  0.00     0.014 C 
HETATM   22  C35 UNL     1       4.354   8.408  10.193  1.00  0.00     0.021 C 
HETATM   23  C36 UNL     1       4.661   6.032  10.731  1.00  0.00     0.021 C 
ENDROOT
BRANCH  20  24
HETATM   24  O3  UNL     1       5.902   7.769  12.604  1.00  0.00    -0.352 OA
BRANCH  24  25
HETATM   25  C28 UNL     1       6.471   8.654  13.583  1.00  0.00     0.292 C 
HETATM   26  O4  UNL     1       7.622   9.300  13.052  1.00  0.00    -0.348 OA
HETATM   27  C29 UNL     1       8.545   9.847  14.018  1.00  0.00     0.179 C 
HETATM   28  C31 UNL     1       8.010   9.939  15.457  1.00  0.00     0.180 C 
HETATM   29  C32 UNL     1       7.362   8.633  15.939  1.00  0.00     0.183 C 
HETATM   30  C33 UNL     1       6.847   7.770  14.782  1.00  0.00     0.204 C 
BRANCH  27  31
HETATM   31  C30 UNL     1       9.843   9.032  13.930  1.00  0.00     0.198 C 
BRANCH  31  32
HETATM   32  O5  UNL     1       9.587   7.800  13.252  1.00  0.00    -0.398 OA
HETATM   33  H46 UNL     1       8.755   7.457  13.634  1.00  0.00     0.209 HD
ENDBRANCH  31  32
ENDBRANCH  27  31
BRANCH  28  34
HETATM   34  O6  UNL     1       7.014  10.977  15.488  1.00  0.00    -0.390 OA
HETATM   35  H48 UNL     1       6.874  11.214  16.424  1.00  0.00     0.210 HD
ENDBRANCH  28  34
BRANCH  29  36
HETATM   36  O7  UNL     1       8.306   7.878  16.710  1.00  0.00    -0.390 OA
HETATM   37  H50 UNL     1       7.837   7.064  16.981  1.00  0.00     0.210 HD
ENDBRANCH  29  36
BRANCH  30  38
HETATM   38  O8  UNL     1       5.736   6.984  15.244  1.00  0.00    -0.388 OA
HETATM   39  H52 UNL     1       5.351   6.601  14.429  1.00  0.00     0.210 HD
ENDBRANCH  30  38
ENDBRANCH  24  25
ENDBRANCH  20  24
BRANCH   1  40
HETATM   40  C2  UNL     1      -4.440   7.786  15.065  1.00  0.00    -0.010 C 
HETATM   41  C1  UNL     1      -4.128   8.757  16.221  1.00  0.00     0.010 C 
BRANCH  40  42
HETATM   42  C3  UNL     1      -5.635   6.891  15.477  1.00  0.00     0.031 C 
BRANCH  42  43
HETATM   43  C4  UNL     1      -6.492   6.282  14.390  1.00  0.00    -0.027 C 
HETATM   44  C5  UNL     1      -6.644   4.982  14.075  1.00  0.00     0.006 C 
BRANCH  44  45
HETATM   45  C6  UNL     1      -7.544   4.403  13.006  1.00  0.00     0.068 C 
HETATM   46  C7  UNL     1      -8.254   5.526  12.244  1.00  0.00     0.050 C 
HETATM   47  C8  UNL     1      -6.725   3.541  12.046  1.00  0.00     0.050 C 
BRANCH  45  48
HETATM   48  O1  UNL     1      -8.542   3.565  13.584  1.00  0.00    -0.387 OA
HETATM   49  H15 UNL     1      -9.095   4.131  14.151  1.00  0.00     0.211 HD
ENDBRANCH  45  48
ENDBRANCH  44  45
ENDBRANCH  42  43
ENDBRANCH  40  42
ENDBRANCH   1  40
TORSDOF 12
ENDMDL
MODEL 8
REMARK minimizedAffinity -8.26116467
REMARK CNNscore 0.395699739
REMARK CNNaffinity 7.02868986
REMARK  12 active torsions:
REMARK  status: ('A' for Active; 'I' for Inactive)
REMARK    1  A    between atoms: C2_2  and  C3_3 
REMARK    2  A    between atoms: C2_2  and  C9_10 
REMARK    3  A    between atoms: C3_3  and  C4_4 
REMARK    4  A    between atoms: C5_5  and  C6_6 
REMARK    5  A    between atoms: C6_6  and  O1_9 
REMARK    6  A    between atoms: C27_29  and  O3_30 
REMARK    7  A    between atoms: O3_30  and  C28_31 
REMARK    8  A    between atoms: C29_33  and  C30_34 
REMARK    9  A    between atoms: C30_34  and  O5_35 
REMARK   10  A    between atoms: C31_36  and  O6_37 
REMARK   11  A    between atoms: C32_38  and  O7_39 
REMARK   12  A    between atoms: C33_40  and  O8_41 
ROOT
HETATM    1  C9  UNL     1      -1.545   5.863  12.268  1.00  0.00    -0.002 C 
HETATM    2  C10 UNL     1      -2.315   4.912  13.225  1.00  0.00     0.006 C 
HETATM    3  C11 UNL     1      -2.395   5.626  14.597  1.00  0.00     0.011 C 
HETATM    4  C12 UNL     1      -1.963   7.082  14.312  1.00  0.00    -0.029 C 
HETATM    5  C13 UNL     1      -3.241   7.793  13.757  1.00  0.00     0.016 C 
HETATM    6  C14 UNL     1      -1.375   7.873  15.521  1.00  0.00     0.028 C 
HETATM    7  C15 UNL     1      -2.372   8.062  16.649  1.00  0.00    -0.021 C 
HETATM    8  C16 UNL     1      -2.595   9.262  17.212  1.00  0.00     0.008 C 
HETATM    9  C17 UNL     1      -1.852  10.507  16.744  1.00  0.00     0.092 C 
HETATM   10  O2  UNL     1      -0.508  10.307  17.238  1.00  0.00    -0.374 OA
HETATM   11  C18 UNL     1       0.276   9.698  16.203  1.00  0.00     0.179 C 
HETATM   12  C19 UNL     1      -0.690   9.246  15.080  1.00  0.00    -0.004 C 
HETATM   13  C20 UNL     1       0.110   9.152  13.750  1.00  0.00     0.014 C 
HETATM   14  C21 UNL     1      -0.432   8.211  12.660  1.00  0.00     0.011 C 
HETATM   15  C22 UNL     1      -0.834   6.848  13.245  1.00  0.00    -0.032 C 
HETATM   16  C23 UNL     1       0.451   6.179  13.820  1.00  0.00     0.016 C 
HETATM   17  C24 UNL     1      -1.728  10.391  15.196  1.00  0.00     0.036 C 
HETATM   18  C25 UNL     1      -1.372  11.723  14.538  1.00  0.00     0.011 C 
HETATM   19  C26 UNL     1      -2.434  12.785  14.827  1.00  0.00     0.033 C 
HETATM   20  C27 UNL     1      -3.256  12.543  16.107  1.00  0.00     0.136 C 
HETATM   21  C34 UNL     1      -2.394  11.910  17.241  1.00  0.00     0.014 C 
HETATM   22  C35 UNL     1      -1.236  12.871  17.632  1.00  0.00     0.021 C 
HETATM   23  C36 UNL     1      -3.255  11.796  18.524  1.00  0.00     0.021 C 
ENDROOT
BRANCH  20  24
HETATM   24  O3  UNL     1      -3.818  13.781  16.573  1.00  0.00    -0.352 OA
BRANCH  24  25
HETATM   25  C28 UNL     1      -5.187  13.996  16.192  1.00  0.00     0.292 C 
HETATM   26  O4  UNL     1      -5.252  14.791  15.016  1.00  0.00    -0.348 OA
HETATM   27  C29 UNL     1      -6.506  15.463  14.771  1.00  0.00     0.179 C 
HETATM   28  C31 UNL     1      -7.687  14.980  15.630  1.00  0.00     0.180 C 
HETATM   29  C32 UNL     1      -7.346  14.900  17.124  1.00  0.00     0.183 C 
HETATM   30  C33 UNL     1      -5.845  14.721  17.377  1.00  0.00     0.204 C 
BRANCH  27  31
HETATM   31  C30 UNL     1      -6.259  16.971  14.915  1.00  0.00     0.198 C 
BRANCH  31  32
HETATM   32  O5  UNL     1      -6.346  17.594  13.632  1.00  0.00    -0.398 OA
HETATM   33  H46 UNL     1      -5.842  17.017  13.025  1.00  0.00     0.209 HD
ENDBRANCH  31  32
ENDBRANCH  27  31
BRANCH  28  34
HETATM   34  O6  UNL     1      -8.047  13.662  15.177  1.00  0.00    -0.390 OA
HETATM   35  H48 UNL     1      -8.938  13.472  15.525  1.00  0.00     0.210 HD
ENDBRANCH  28  34
BRANCH  29  36
HETATM   36  O7  UNL     1      -7.800  16.086  17.790  1.00  0.00    -0.390 OA
HETATM   37  H50 UNL     1      -7.551  15.976  18.729  1.00  0.00     0.210 HD
ENDBRANCH  29  36
BRANCH  30  38
HETATM   38  O8  UNL     1      -5.661  14.014  18.614  1.00  0.00    -0.388 OA
HETATM   39  H52 UNL     1      -4.709  13.781  18.623  1.00  0.00     0.210 HD
ENDBRANCH  30  38
ENDBRANCH  24  25
ENDBRANCH  20  24
BRANCH   1  40
HETATM   40  C2  UNL     1      -0.706   5.191  11.137  1.00  0.00    -0.010 C 
HETATM   41  C1  UNL     1      -1.048   3.688  11.099  1.00  0.00     0.010 C 
BRANCH  40  42
HETATM   42  C3  UNL     1       0.830   5.349  11.249  1.00  0.00     0.031 C 
BRANCH  42  43
HETATM   43  C4  UNL     1       1.568   6.055  10.133  1.00  0.00    -0.027 C 
HETATM   44  C5  UNL     1       1.214   7.173   9.472  1.00  0.00     0.006 C 
BRANCH  44  45
HETATM   45  C6  UNL     1       1.999   7.877   8.388  1.00  0.00     0.068 C 
HETATM   46  C7  UNL     1       3.443   8.104   8.840  1.00  0.00     0.050 C 
HETATM   47  C8  UNL     1       1.964   7.054   7.101  1.00  0.00     0.050 C 
BRANCH  45  48
HETATM   48  O1  UNL     1       1.425   9.150   8.095  1.00  0.00    -0.387 OA
HETATM   49  H15 UNL     1       1.501   9.688   8.902  1.00  0.00     0.211 HD
ENDBRANCH  45  48
ENDBRANCH  44  45
ENDBRANCH  42  43
ENDBRANCH  40  42
ENDBRANCH   1  40
TORSDOF 12
ENDMDL
MODEL 9
REMARK minimizedAffinity -8.97053146
REMARK CNNscore 0.351470739
REMARK CNNaffinity 7.23204947
REMARK  12 active torsions:
REMARK  status: ('A' for Active; 'I' for Inactive)
REMARK    1  A    between atoms: C2_2  and  C3_3 
REMARK    2  A    between atoms: C2_2  and  C9_10 
REMARK    3  A    between atoms: C3_3  and  C4_4 
REMARK    4  A    between atoms: C5_5  and  C6_6 
REMARK    5  A    between atoms: C6_6  and  O1_9 
REMARK    6  A    between atoms: C27_29  and  O3_30 
REMARK    7  A    between atoms: O3_30  and  C28_31 
REMARK    8  A    between atoms: C29_33  and  C30_34 
REMARK    9  A    between atoms: C30_34  and  O5_35 
REMARK   10  A    between atoms: C31_36  and  O6_37 
REMARK   11  A    between atoms: C32_38  and  O7_39 
REMARK   12  A    between atoms: C33_40  and  O8_41 
ROOT
HETATM    1  C9  UNL     1      -7.838   7.672  14.426  1.00  0.00    -0.002 C 
HETATM    2  C10 UNL     1      -7.360   8.980  15.114  1.00  0.00     0.006 C 
HETATM    3  C11 UNL     1      -5.833   8.841  15.327  1.00  0.00     0.011 C 
HETATM    4  C12 UNL     1      -5.423   7.617  14.479  1.00  0.00    -0.029 C 
HETATM    5  C13 UNL     1      -5.269   8.156  13.019  1.00  0.00     0.016 C 
HETATM    6  C14 UNL     1      -4.131   6.869  14.928  1.00  0.00     0.028 C 
HETATM    7  C15 UNL     1      -2.886   7.734  14.844  1.00  0.00    -0.021 C 
HETATM    8  C16 UNL     1      -1.762   7.309  14.241  1.00  0.00     0.008 C 
HETATM    9  C17 UNL     1      -1.676   5.928  13.605  1.00  0.00     0.092 C 
HETATM   10  O2  UNL     1      -1.637   5.033  14.740  1.00  0.00    -0.374 OA
HETATM   11  C18 UNL     1      -2.973   4.595  15.026  1.00  0.00     0.179 C 
HETATM   12  C19 UNL     1      -3.946   5.465  14.192  1.00  0.00    -0.004 C 
HETATM   13  C20 UNL     1      -5.271   4.676  14.000  1.00  0.00     0.014 C 
HETATM   14  C21 UNL     1      -6.551   5.489  13.735  1.00  0.00     0.011 C 
HETATM   15  C22 UNL     1      -6.667   6.682  14.697  1.00  0.00    -0.032 C 
HETATM   16  C23 UNL     1      -6.785   6.114  16.144  1.00  0.00     0.016 C 
HETATM   17  C24 UNL     1      -3.058   5.663  12.937  1.00  0.00     0.036 C 
HETATM   18  C25 UNL     1      -3.009   4.516  11.931  1.00  0.00     0.011 C 
HETATM   19  C26 UNL     1      -2.013   4.807  10.806  1.00  0.00     0.033 C 
HETATM   20  C27 UNL     1      -0.895   5.799  11.177  1.00  0.00     0.136 C 
HETATM   21  C34 UNL     1      -0.441   5.635  12.659  1.00  0.00     0.014 C 
HETATM   22  C35 UNL     1       0.138   4.210  12.887  1.00  0.00     0.021 C 
HETATM   23  C36 UNL     1       0.754   6.586  12.927  1.00  0.00     0.021 C 
ENDROOT
BRANCH  20  24
HETATM   24  O3  UNL     1       0.236   5.612  10.310  1.00  0.00    -0.352 OA
BRANCH  24  25
HETATM   25  C28 UNL     1       1.375   6.428  10.631  1.00  0.00     0.292 C 
HETATM   26  O4  UNL     1       1.354   7.626   9.865  1.00  0.00    -0.348 OA
HETATM   27  C29 UNL     1       2.615   8.315   9.728  1.00  0.00     0.179 C 
HETATM   28  C31 UNL     1       3.727   7.843  10.680  1.00  0.00     0.180 C 
HETATM   29  C32 UNL     1       3.891   6.317  10.697  1.00  0.00     0.183 C 
HETATM   30  C33 UNL     1       2.611   5.582  10.285  1.00  0.00     0.204 C 
BRANCH  27  31
HETATM   31  C30 UNL     1       3.034   8.226   8.254  1.00  0.00     0.198 C 
BRANCH  31  32
HETATM   32  O5  UNL     1       1.981   7.625   7.495  1.00  0.00    -0.398 OA
HETATM   33  H46 UNL     1       1.682   6.859   8.022  1.00  0.00     0.209 HD
ENDBRANCH  31  32
ENDBRANCH  27  31
BRANCH  28  34
HETATM   34  O6  UNL     1       3.378   8.275  12.008  1.00  0.00    -0.390 OA
HETATM   35  H48 UNL     1       4.187   8.217  12.551  1.00  0.00     0.210 HD
ENDBRANCH  28  34
BRANCH  29  36
HETATM   36  O7  UNL     1       4.960   5.934   9.821  1.00  0.00    -0.390 OA
HETATM   37  H50 UNL     1       5.010   4.959   9.873  1.00  0.00     0.210 HD
ENDBRANCH  29  36
BRANCH  30  38
HETATM   38  O8  UNL     1       2.583   4.296  10.927  1.00  0.00    -0.388 OA
HETATM   39  H52 UNL     1       1.676   3.963  10.767  1.00  0.00     0.210 HD
ENDBRANCH  30  38
ENDBRANCH  24  25
ENDBRANCH  20  24
BRANCH   1  40
HETATM   40  C2  UNL     1      -9.298   7.213  14.732  1.00  0.00    -0.010 C 
HETATM   41  C1  UNL     1      -9.889   6.573  13.460  1.00  0.00     0.010 C 
BRANCH  40  42
HETATM   42  C3  UNL     1     -10.265   8.316  15.228  1.00  0.00     0.031 C 
BRANCH  42  43
HETATM   43  C4  UNL     1     -11.018   9.133  14.202  1.00  0.00    -0.027 C 
HETATM   44  C5  UNL     1     -12.323   9.073  13.878  1.00  0.00     0.006 C 
BRANCH  44  45
HETATM   45  C6  UNL     1     -13.053   9.937  12.874  1.00  0.00     0.068 C 
HETATM   46  C7  UNL     1     -14.463   9.394  12.631  1.00  0.00     0.050 C 
HETATM   47  C8  UNL     1     -13.114  11.380  13.375  1.00  0.00     0.050 C 
BRANCH  45  48
HETATM   48  O1  UNL     1     -12.366   9.950  11.624  1.00  0.00    -0.387 OA
HETATM   49  H15 UNL     1     -12.380   9.039  11.283  1.00  0.00     0.211 HD
ENDBRANCH  45  48
ENDBRANCH  44  45
ENDBRANCH  42  43
ENDBRANCH  40  42
ENDBRANCH   1  40
TORSDOF 12
ENDMDL
