MODEL 1
REMARK minimizedAffinity -7.58375931
REMARK CNNscore 0.771876097
REMARK CNNaffinity 7.05828333
REMARK  4 active torsions:
REMARK  status: ('A' for Active; 'I' for Inactive)
REMARK    1  A    between atoms: C4_4  and  C5_5 
REMARK    2  A    between atoms: C5_5  and  C6_6 
REMARK    3  A    between atoms: C6_6  and  C7_7 
REMARK    4  A    between atoms: C7_7  and  C9_9 
ROOT
HETATM    1  C9  UNL     1      -1.909  52.193  -9.802  1.00  0.00    -0.002 C 
HETATM    2  C10 UNL     1      -1.690  51.177  -8.656  1.00  0.00     0.007 C 
HETATM    3  C11 UNL     1      -0.269  51.435  -8.103  1.00  0.00     0.015 C 
HETATM    4  C12 UNL     1       0.414  52.330  -9.163  1.00  0.00    -0.013 C 
HETATM    5  C13 UNL     1       0.943  51.364 -10.272  1.00  0.00     0.021 C 
HETATM    6  C14 UNL     1       1.619  53.188  -8.783  1.00  0.00    -0.070 C 
HETATM    7  C15 UNL     1       2.343  52.955  -7.675  1.00  0.00    -0.022 C 
HETATM    8  C16 UNL     1       3.642  53.628  -7.359  1.00  0.00     0.035 C 
HETATM    9  C17 UNL     1       4.256  54.409  -8.552  1.00  0.00     0.032 C 
HETATM   10  C18 UNL     1       5.634  55.092  -8.175  1.00  0.00     0.068 C 
HETATM   11  C19 UNL     1       6.393  54.421  -7.010  1.00  0.00     0.047 C 
HETATM   12  C20 UNL     1       6.604  55.018  -9.379  1.00  0.00     0.047 C 
HETATM   13  O1  UNL     1       5.491  56.498  -7.900  1.00  0.00    -0.310 OA
HETATM   14  C21 UNL     1       4.555  56.822  -6.975  1.00  0.00     0.259 C 
HETATM   15  O2  UNL     1       4.659  56.632  -5.774  1.00  0.00    -0.265 OA
HETATM   16  C22 UNL     1       3.359  57.402  -7.659  1.00  0.00     0.112 C 
HETATM   17  C23 UNL     1       2.465  56.309  -8.239  1.00  0.00     0.020 C 
HETATM   18  C24 UNL     1       3.123  55.295  -9.243  1.00  0.00    -0.029 C 
HETATM   19  C25 UNL     1       3.666  56.087 -10.455  1.00  0.00     0.016 C 
HETATM   20  C26 UNL     1       2.028  54.260  -9.805  1.00  0.00     0.024 C 
HETATM   21  C27 UNL     1       0.823  54.952 -10.522  1.00  0.00     0.010 C 
HETATM   22  C28 UNL     1      -0.399  54.063 -10.811  1.00  0.00     0.011 C 
HETATM   23  C29 UNL     1      -0.792  53.251  -9.569  1.00  0.00    -0.029 C 
HETATM   24  C30 UNL     1      -1.170  54.240  -8.428  1.00  0.00     0.016 C 
ENDROOT
BRANCH   1  25
HETATM   25  C7  UNL     1      -3.370  52.596 -10.145  1.00  0.00    -0.014 C 
HETATM   26  C8  UNL     1      -3.398  54.052 -10.644  1.00  0.00     0.010 C 
BRANCH  25  27
HETATM   27  C6  UNL     1      -4.276  51.695 -11.016  1.00  0.00     0.008 C 
BRANCH  27  28
HETATM   28  C5  UNL     1      -4.660  50.282 -10.555  1.00  0.00     0.028 C 
BRANCH  28  29
HETATM   29  C4  UNL     1      -6.077  50.149 -10.071  1.00  0.00    -0.025 C 
HETATM   30  C2  UNL     1      -7.002  49.242 -10.442  1.00  0.00    -0.091 C 
HETATM   31  C1  UNL     1      -6.783  48.125 -11.424  1.00  0.00     0.042 C 
HETATM   32  C3  UNL     1      -8.391  49.283  -9.858  1.00  0.00     0.042 C 
ENDBRANCH  28  29
ENDBRANCH  27  28
ENDBRANCH  25  27
ENDBRANCH   1  25
TORSDOF 4
ENDMDL
MODEL 2
REMARK minimizedAffinity -7.02022982
REMARK CNNscore 0.573563576
REMARK CNNaffinity 6.90659523
REMARK  4 active torsions:
REMARK  status: ('A' for Active; 'I' for Inactive)
REMARK    1  A    between atoms: C4_4  and  C5_5 
REMARK    2  A    between atoms: C5_5  and  C6_6 
REMARK    3  A    between atoms: C6_6  and  C7_7 
REMARK    4  A    between atoms: C7_7  and  C9_9 
ROOT
HETATM    1  C9  UNL     1      -1.749  52.422  -9.801  1.00  0.00    -0.002 C 
HETATM    2  C10 UNL     1      -1.700  51.580  -8.504  1.00  0.00     0.007 C 
HETATM    3  C11 UNL     1      -0.301  51.807  -7.883  1.00  0.00     0.015 C 
HETATM    4  C12 UNL     1       0.530  52.471  -9.005  1.00  0.00    -0.013 C 
HETATM    5  C13 UNL     1       1.042  51.307  -9.914  1.00  0.00     0.021 C 
HETATM    6  C14 UNL     1       1.778  53.279  -8.661  1.00  0.00    -0.070 C 
HETATM    7  C15 UNL     1       2.402  53.164  -7.477  1.00  0.00    -0.022 C 
HETATM    8  C16 UNL     1       3.732  53.772  -7.160  1.00  0.00     0.035 C 
HETATM    9  C17 UNL     1       4.493  54.309  -8.402  1.00  0.00     0.032 C 
HETATM   10  C18 UNL     1       5.899  54.930  -8.021  1.00  0.00     0.068 C 
HETATM   11  C19 UNL     1       6.514  54.390  -6.712  1.00  0.00     0.047 C 
HETATM   12  C20 UNL     1       6.937  54.596  -9.119  1.00  0.00     0.047 C 
HETATM   13  O1  UNL     1       5.865  56.369  -7.969  1.00  0.00    -0.310 OA
HETATM   14  C21 UNL     1       4.903  56.905  -7.181  1.00  0.00     0.259 C 
HETATM   15  O2  UNL     1       4.908  56.895  -5.960  1.00  0.00    -0.265 OA
HETATM   16  C22 UNL     1       3.813  57.465  -8.036  1.00  0.00     0.112 C 
HETATM   17  C23 UNL     1       2.865  56.370  -8.518  1.00  0.00     0.020 C 
HETATM   18  C24 UNL     1       3.494  55.164  -9.305  1.00  0.00    -0.029 C 
HETATM   19  C25 UNL     1       4.187  55.715 -10.573  1.00  0.00     0.016 C 
HETATM   20  C26 UNL     1       2.351  54.145  -9.794  1.00  0.00     0.024 C 
HETATM   21  C27 UNL     1       1.264  54.811 -10.700  1.00  0.00     0.010 C 
HETATM   22  C28 UNL     1      -0.011  53.988 -10.951  1.00  0.00     0.011 C 
HETATM   23  C29 UNL     1      -0.559  53.411  -9.639  1.00  0.00    -0.029 C 
HETATM   24  C30 UNL     1      -0.922  54.591  -8.690  1.00  0.00     0.016 C 
ENDROOT
BRANCH   1  25
HETATM   25  C7  UNL     1      -3.141  52.881 -10.317  1.00  0.00    -0.014 C 
HETATM   26  C8  UNL     1      -3.115  54.397 -10.586  1.00  0.00     0.010 C 
BRANCH  25  27
HETATM   27  C6  UNL     1      -3.873  52.129 -11.453  1.00  0.00     0.008 C 
BRANCH  27  28
HETATM   28  C5  UNL     1      -3.465  52.324 -12.919  1.00  0.00     0.028 C 
BRANCH  28  29
HETATM   29  C4  UNL     1      -2.013  52.053 -13.203  1.00  0.00    -0.025 C 
HETATM   30  C2  UNL     1      -1.363  50.874 -13.164  1.00  0.00    -0.091 C 
HETATM   31  C1  UNL     1      -1.990  49.543 -12.850  1.00  0.00     0.042 C 
HETATM   32  C3  UNL     1       0.113  50.804 -13.459  1.00  0.00     0.042 C 
ENDBRANCH  28  29
ENDBRANCH  27  28
ENDBRANCH  25  27
ENDBRANCH   1  25
TORSDOF 4
ENDMDL
MODEL 3
REMARK minimizedAffinity -7.92620373
REMARK CNNscore 0.556505561
REMARK CNNaffinity 6.69470072
REMARK  4 active torsions:
REMARK  status: ('A' for Active; 'I' for Inactive)
REMARK    1  A    between atoms: C4_4  and  C5_5 
REMARK    2  A    between atoms: C5_5  and  C6_6 
REMARK    3  A    between atoms: C6_6  and  C7_7 
REMARK    4  A    between atoms: C7_7  and  C9_9 
ROOT
HETATM    1  C9  UNL     1       1.559  55.705  -7.542  1.00  0.00    -0.002 C 
HETATM    2  C10 UNL     1       2.339  54.500  -6.964  1.00  0.00     0.007 C 
HETATM    3  C11 UNL     1       1.574  53.229  -7.400  1.00  0.00     0.015 C 
HETATM    4  C12 UNL     1       0.202  53.740  -7.898  1.00  0.00    -0.013 C 
HETATM    5  C13 UNL     1      -0.683  53.923  -6.623  1.00  0.00     0.021 C 
HETATM    6  C14 UNL     1      -0.640  52.885  -8.841  1.00  0.00    -0.070 C 
HETATM    7  C15 UNL     1      -0.430  51.567  -8.993  1.00  0.00    -0.022 C 
HETATM    8  C16 UNL     1      -1.343  50.647  -9.741  1.00  0.00     0.035 C 
HETATM    9  C17 UNL     1      -2.722  51.269 -10.087  1.00  0.00     0.032 C 
HETATM   10  C18 UNL     1      -3.659  50.257 -10.865  1.00  0.00     0.068 C 
HETATM   11  C19 UNL     1      -3.343  48.765 -10.624  1.00  0.00     0.047 C 
HETATM   12  C20 UNL     1      -5.125  50.435 -10.403  1.00  0.00     0.047 C 
HETATM   13  O1  UNL     1      -3.682  50.512 -12.282  1.00  0.00    -0.310 OA
HETATM   14  C21 UNL     1      -2.473  50.570 -12.889  1.00  0.00     0.259 C 
HETATM   15  O2  UNL     1      -1.750  49.610 -13.108  1.00  0.00    -0.265 OA
HETATM   16  C22 UNL     1      -2.139  51.993 -13.201  1.00  0.00     0.112 C 
HETATM   17  C23 UNL     1      -1.603  52.722 -11.971  1.00  0.00     0.020 C 
HETATM   18  C24 UNL     1      -2.507  52.732 -10.687  1.00  0.00    -0.029 C 
HETATM   19  C25 UNL     1      -3.848  53.418 -11.036  1.00  0.00     0.016 C 
HETATM   20  C26 UNL     1      -1.823  53.597  -9.517  1.00  0.00     0.024 C 
HETATM   21  C27 UNL     1      -1.527  55.078  -9.924  1.00  0.00     0.010 C 
HETATM   22  C28 UNL     1      -0.608  55.873  -8.982  1.00  0.00     0.011 C 
HETATM   23  C29 UNL     1       0.645  55.062  -8.624  1.00  0.00    -0.029 C 
HETATM   24  C30 UNL     1       1.433  54.762  -9.933  1.00  0.00     0.016 C 
ENDROOT
BRANCH   1  25
HETATM   25  C7  UNL     1       2.343  57.022  -7.799  1.00  0.00    -0.014 C 
HETATM   26  C8  UNL     1       2.311  57.895  -6.531  1.00  0.00     0.010 C 
BRANCH  25  27
HETATM   27  C6  UNL     1       3.753  57.016  -8.431  1.00  0.00     0.008 C 
BRANCH  27  28
HETATM   28  C5  UNL     1       5.007  56.837  -7.564  1.00  0.00     0.028 C 
BRANCH  28  29
HETATM   29  C4  UNL     1       5.792  55.588  -7.853  1.00  0.00    -0.025 C 
HETATM   30  C2  UNL     1       5.857  54.894  -9.007  1.00  0.00    -0.091 C 
HETATM   31  C1  UNL     1       5.160  55.263 -10.287  1.00  0.00     0.042 C 
HETATM   32  C3  UNL     1       6.687  53.639  -9.098  1.00  0.00     0.042 C 
ENDBRANCH  28  29
ENDBRANCH  27  28
ENDBRANCH  25  27
ENDBRANCH   1  25
TORSDOF 4
ENDMDL
MODEL 4
REMARK minimizedAffinity -7.15319443
REMARK CNNscore 0.473240048
REMARK CNNaffinity 6.02303457
REMARK  4 active torsions:
REMARK  status: ('A' for Active; 'I' for Inactive)
REMARK    1  A    between atoms: C4_4  and  C5_5 
REMARK    2  A    between atoms: C5_5  and  C6_6 
REMARK    3  A    between atoms: C6_6  and  C7_7 
REMARK    4  A    between atoms: C7_7  and  C9_9 
ROOT
HETATM    1  C9  UNL     1      -7.040  47.843 -23.357  1.00  0.00    -0.002 C 
HETATM    2  C10 UNL     1      -6.833  46.369 -22.931  1.00  0.00     0.007 C 
HETATM    3  C11 UNL     1      -7.923  45.544 -23.654  1.00  0.00     0.015 C 
HETATM    4  C12 UNL     1      -8.933  46.591 -24.179  1.00  0.00    -0.013 C 
HETATM    5  C13 UNL     1      -9.878  46.922 -22.978  1.00  0.00     0.021 C 
HETATM    6  C14 UNL     1      -9.871  46.242 -25.331  1.00  0.00    -0.070 C 
HETATM    7  C15 UNL     1     -10.119  44.973 -25.694  1.00  0.00    -0.022 C 
HETATM    8  C16 UNL     1     -11.175  44.566 -26.674  1.00  0.00     0.035 C 
HETATM    9  C17 UNL     1     -12.176  45.697 -27.030  1.00  0.00     0.032 C 
HETATM   10  C18 UNL     1     -13.281  45.218 -28.059  1.00  0.00     0.068 C 
HETATM   11  C19 UNL     1     -13.553  43.698 -28.056  1.00  0.00     0.047 C 
HETATM   12  C20 UNL     1     -14.641  45.868 -27.710  1.00  0.00     0.047 C 
HETATM   13  O1  UNL     1     -12.999  45.646 -29.404  1.00  0.00    -0.310 OA
HETATM   14  C21 UNL     1     -11.770  45.327 -29.876  1.00  0.00     0.259 C 
HETATM   15  O2  UNL     1     -11.409  44.205 -30.194  1.00  0.00    -0.265 OA
HETATM   16  C22 UNL     1     -10.912  46.551 -29.900  1.00  0.00     0.112 C 
HETATM   17  C23 UNL     1     -10.345  46.860 -28.517  1.00  0.00     0.020 C 
HETATM   18  C24 UNL     1     -11.370  47.039 -27.340  1.00  0.00    -0.029 C 
HETATM   19  C25 UNL     1     -12.313  48.214 -27.685  1.00  0.00     0.016 C 
HETATM   20  C26 UNL     1     -10.609  47.426 -25.977  1.00  0.00     0.024 C 
HETATM   21  C27 UNL     1      -9.751  48.729 -26.087  1.00  0.00     0.010 C 
HETATM   22  C28 UNL     1      -8.764  48.993 -24.938  1.00  0.00     0.011 C 
HETATM   23  C29 UNL     1      -7.948  47.734 -24.615  1.00  0.00    -0.029 C 
HETATM   24  C30 UNL     1      -7.129  47.335 -25.878  1.00  0.00     0.016 C 
ENDROOT
BRANCH   1  25
HETATM   25  C7  UNL     1      -5.812  48.794 -23.303  1.00  0.00    -0.014 C 
HETATM   26  C8  UNL     1      -6.243  50.158 -22.734  1.00  0.00     0.010 C 
BRANCH  25  27
HETATM   27  C6  UNL     1      -4.463  48.342 -22.697  1.00  0.00     0.008 C 
BRANCH  27  28
HETATM   28  C5  UNL     1      -3.142  48.599 -23.434  1.00  0.00     0.028 C 
BRANCH  28  29
HETATM   29  C4  UNL     1      -2.175  49.479 -22.692  1.00  0.00    -0.025 C 
HETATM   30  C2  UNL     1      -1.360  49.146 -21.673  1.00  0.00    -0.091 C 
HETATM   31  C1  UNL     1      -1.226  47.771 -21.077  1.00  0.00     0.042 C 
HETATM   32  C3  UNL     1      -0.471  50.182 -21.034  1.00  0.00     0.042 C 
ENDBRANCH  28  29
ENDBRANCH  27  28
ENDBRANCH  25  27
ENDBRANCH   1  25
TORSDOF 4
ENDMDL
MODEL 5
REMARK minimizedAffinity -7.26920509
REMARK CNNscore 0.470531017
REMARK CNNaffinity 5.74371672
REMARK  4 active torsions:
REMARK  status: ('A' for Active; 'I' for Inactive)
REMARK    1  A    between atoms: C4_4  and  C5_5 
REMARK    2  A    between atoms: C5_5  and  C6_6 
REMARK    3  A    between atoms: C6_6  and  C7_7 
REMARK    4  A    between atoms: C7_7  and  C9_9 
ROOT
HETATM    1  C9  UNL     1       6.854  66.734 -36.094  1.00  0.00    -0.002 C 
HETATM    2  C10 UNL     1       7.540  68.073 -36.457  1.00  0.00     0.007 C 
HETATM    3  C11 UNL     1       6.587  68.808 -37.428  1.00  0.00     0.015 C 
HETATM    4  C12 UNL     1       5.567  67.734 -37.875  1.00  0.00    -0.013 C 
HETATM    5  C13 UNL     1       6.253  66.940 -39.034  1.00  0.00     0.021 C 
HETATM    6  C14 UNL     1       4.209  68.150 -38.434  1.00  0.00    -0.070 C 
HETATM    7  C15 UNL     1       3.972  69.392 -38.889  1.00  0.00    -0.022 C 
HETATM    8  C16 UNL     1       2.735  69.799 -39.628  1.00  0.00     0.035 C 
HETATM    9  C17 UNL     1       1.860  68.606 -40.099  1.00  0.00     0.032 C 
HETATM   10  C18 UNL     1       0.571  69.083 -40.886  1.00  0.00     0.068 C 
HETATM   11  C19 UNL     1       0.695  70.470 -41.553  1.00  0.00     0.047 C 
HETATM   12  C20 UNL     1       0.274  68.105 -42.048  1.00  0.00     0.047 C 
HETATM   13  O1  UNL     1      -0.612  69.056 -40.066  1.00  0.00    -0.310 OA
HETATM   14  C21 UNL     1      -0.526  69.722 -38.890  1.00  0.00     0.259 C 
HETATM   15  O2  UNL     1      -0.512  70.936 -38.770  1.00  0.00    -0.265 OA
HETATM   16  C22 UNL     1      -0.402  68.740 -37.770  1.00  0.00     0.112 C 
HETATM   17  C23 UNL     1       1.030  68.230 -37.632  1.00  0.00     0.020 C 
HETATM   18  C24 UNL     1       1.687  67.570 -38.898  1.00  0.00    -0.029 C 
HETATM   19  C25 UNL     1       0.838  66.345 -39.308  1.00  0.00     0.016 C 
HETATM   20  C26 UNL     1       3.163  67.031 -38.557  1.00  0.00     0.024 C 
HETATM   21  C27 UNL     1       3.196  65.995 -37.386  1.00  0.00     0.010 C 
HETATM   22  C28 UNL     1       4.582  65.670 -36.804  1.00  0.00     0.011 C 
HETATM   23  C29 UNL     1       5.375  66.954 -36.525  1.00  0.00    -0.029 C 
HETATM   24  C30 UNL     1       4.595  67.801 -35.477  1.00  0.00     0.016 C 
ENDROOT
BRANCH   1  25
HETATM   25  C7  UNL     1       7.230  66.067 -34.742  1.00  0.00    -0.014 C 
HETATM   26  C8  UNL     1       6.838  67.001 -33.582  1.00  0.00     0.010 C 
BRANCH  25  27
HETATM   27  C6  UNL     1       6.850  64.602 -34.427  1.00  0.00     0.008 C 
BRANCH  27  28
HETATM   28  C5  UNL     1       5.382  64.181 -34.282  1.00  0.00     0.028 C 
BRANCH  28  29
HETATM   29  C4  UNL     1       4.713  64.671 -33.028  1.00  0.00    -0.025 C 
HETATM   30  C2  UNL     1       3.983  63.964 -32.143  1.00  0.00    -0.091 C 
HETATM   31  C1  UNL     1       3.711  62.487 -32.220  1.00  0.00     0.042 C 
HETATM   32  C3  UNL     1       3.366  64.641 -30.947  1.00  0.00     0.042 C 
ENDBRANCH  28  29
ENDBRANCH  27  28
ENDBRANCH  25  27
ENDBRANCH   1  25
TORSDOF 4
ENDMDL
MODEL 6
REMARK minimizedAffinity -9.57234859
REMARK CNNscore 0.408833414
REMARK CNNaffinity 6.96897078
REMARK  4 active torsions:
REMARK  status: ('A' for Active; 'I' for Inactive)
REMARK    1  A    between atoms: C4_4  and  C5_5 
REMARK    2  A    between atoms: C5_5  and  C6_6 
REMARK    3  A    between atoms: C6_6  and  C7_7 
REMARK    4  A    between atoms: C7_7  and  C9_9 
ROOT
HETATM    1  C9  UNL     1      -0.414  52.368 -21.961  1.00  0.00    -0.002 C 
HETATM    2  C10 UNL     1       1.014  52.964 -21.997  1.00  0.00     0.007 C 
HETATM    3  C11 UNL     1       1.539  52.939 -20.543  1.00  0.00     0.015 C 
HETATM    4  C12 UNL     1       0.289  52.672 -19.672  1.00  0.00    -0.013 C 
HETATM    5  C13 UNL     1      -0.406  54.059 -19.473  1.00  0.00     0.021 C 
HETATM    6  C14 UNL     1       0.442  52.105 -18.263  1.00  0.00    -0.070 C 
HETATM    7  C15 UNL     1       1.608  52.145 -17.597  1.00  0.00    -0.022 C 
HETATM    8  C16 UNL     1       1.767  51.792 -16.151  1.00  0.00     0.035 C 
HETATM    9  C17 UNL     1       0.425  51.653 -15.383  1.00  0.00     0.032 C 
HETATM   10  C18 UNL     1       0.642  51.291 -13.857  1.00  0.00     0.068 C 
HETATM   11  C19 UNL     1       2.008  51.718 -13.278  1.00  0.00     0.047 C 
HETATM   12  C20 UNL     1      -0.407  52.025 -12.988  1.00  0.00     0.047 C 
HETATM   13  O1  UNL     1       0.431  49.892 -13.591  1.00  0.00    -0.310 OA
HETATM   14  C21 UNL     1       1.137  49.034 -14.366  1.00  0.00     0.259 C 
HETATM   15  O2  UNL     1       2.338  48.835 -14.279  1.00  0.00    -0.265 OA
HETATM   16  C22 UNL     1       0.227  48.409 -15.373  1.00  0.00     0.112 C 
HETATM   17  C23 UNL     1      -0.017  49.342 -16.557  1.00  0.00     0.020 C 
HETATM   18  C24 UNL     1      -0.589  50.772 -16.244  1.00  0.00    -0.029 C 
HETATM   19  C25 UNL     1      -1.956  50.610 -15.542  1.00  0.00     0.016 C 
HETATM   20  C26 UNL     1      -0.848  51.590 -17.604  1.00  0.00     0.024 C 
HETATM   21  C27 UNL     1      -1.826  50.873 -18.590  1.00  0.00     0.010 C 
HETATM   22  C28 UNL     1      -1.884  51.434 -20.021  1.00  0.00     0.011 C 
HETATM   23  C29 UNL     1      -0.472  51.645 -20.585  1.00  0.00    -0.029 C 
HETATM   24  C30 UNL     1       0.255  50.269 -20.631  1.00  0.00     0.016 C 
ENDROOT
BRANCH   1  25
HETATM   25  C7  UNL     1      -0.962  51.717 -23.261  1.00  0.00    -0.014 C 
HETATM   26  C8  UNL     1      -1.842  50.507 -22.898  1.00  0.00     0.010 C 
BRANCH  25  27
HETATM   27  C6  UNL     1      -1.616  52.562 -24.378  1.00  0.00     0.008 C 
BRANCH  27  28
HETATM   28  C5  UNL     1      -0.811  53.004 -25.607  1.00  0.00     0.028 C 
BRANCH  28  29
HETATM   29  C4  UNL     1       0.581  52.440 -25.677  1.00  0.00    -0.025 C 
HETATM   30  C2  UNL     1       1.208  51.899 -26.740  1.00  0.00    -0.091 C 
HETATM   31  C1  UNL     1       0.632  51.781 -28.124  1.00  0.00     0.042 C 
HETATM   32  C3  UNL     1       2.608  51.358 -26.608  1.00  0.00     0.042 C 
ENDBRANCH  28  29
ENDBRANCH  27  28
ENDBRANCH  25  27
ENDBRANCH   1  25
TORSDOF 4
ENDMDL
MODEL 7
REMARK minimizedAffinity -6.75543451
REMARK CNNscore 0.408393294
REMARK CNNaffinity 5.80028343
REMARK  4 active torsions:
REMARK  status: ('A' for Active; 'I' for Inactive)
REMARK    1  A    between atoms: C4_4  and  C5_5 
REMARK    2  A    between atoms: C5_5  and  C6_6 
REMARK    3  A    between atoms: C6_6  and  C7_7 
REMARK    4  A    between atoms: C7_7  and  C9_9 
ROOT
HETATM    1  C9  UNL     1     -15.605  45.689 -25.654  1.00  0.00    -0.002 C 
HETATM    2  C10 UNL     1     -15.753  44.149 -25.688  1.00  0.00     0.007 C 
HETATM    3  C11 UNL     1     -14.625  43.617 -26.601  1.00  0.00     0.015 C 
HETATM    4  C12 UNL     1     -14.092  44.864 -27.345  1.00  0.00    -0.013 C 
HETATM    5  C13 UNL     1     -15.058  45.096 -28.552  1.00  0.00     0.021 C 
HETATM    6  C14 UNL     1     -12.694  44.854 -27.958  1.00  0.00    -0.070 C 
HETATM    7  C15 UNL     1     -12.025  43.714 -28.198  1.00  0.00    -0.022 C 
HETATM    8  C16 UNL     1     -10.749  43.631 -28.975  1.00  0.00     0.035 C 
HETATM    9  C17 UNL     1     -10.395  44.930 -29.749  1.00  0.00     0.032 C 
HETATM   10  C18 UNL     1      -9.046  44.792 -30.566  1.00  0.00     0.068 C 
HETATM   11  C19 UNL     1      -8.665  43.345 -30.948  1.00  0.00     0.047 C 
HETATM   12  C20 UNL     1      -9.169  45.542 -31.914  1.00  0.00     0.047 C 
HETATM   13  O1  UNL     1      -7.934  45.413 -29.896  1.00  0.00    -0.310 OA
HETATM   14  C21 UNL     1      -7.730  45.026 -28.614  1.00  0.00     0.259 C 
HETATM   15  O2  UNL     1      -7.287  43.941 -28.270  1.00  0.00    -0.265 OA
HETATM   16  C22 UNL     1      -8.177  46.111 -27.688  1.00  0.00     0.112 C 
HETATM   17  C23 UNL     1      -9.692  46.090 -27.497  1.00  0.00     0.020 C 
HETATM   18  C24 UNL     1     -10.584  46.188 -28.786  1.00  0.00    -0.029 C 
HETATM   19  C25 UNL     1     -10.265  47.519 -29.504  1.00  0.00     0.016 C 
HETATM   20  C26 UNL     1     -12.144  46.221 -28.397  1.00  0.00     0.024 C 
HETATM   21  C27 UNL     1     -12.526  47.398 -27.441  1.00  0.00     0.010 C 
HETATM   22  C28 UNL     1     -13.915  47.321 -26.786  1.00  0.00     0.011 C 
HETATM   23  C29 UNL     1     -14.164  45.928 -26.191  1.00  0.00    -0.029 C 
HETATM   24  C30 UNL     1     -13.093  45.658 -25.093  1.00  0.00     0.016 C 
ENDROOT
BRANCH   1  25
HETATM   25  C7  UNL     1     -16.161  46.446 -24.417  1.00  0.00    -0.014 C 
HETATM   26  C8  UNL     1     -17.558  47.006 -24.742  1.00  0.00     0.010 C 
BRANCH  25  27
HETATM   27  C6  UNL     1     -16.130  45.821 -23.003  1.00  0.00     0.008 C 
BRANCH  27  28
HETATM   28  C5  UNL     1     -17.430  45.450 -22.275  1.00  0.00     0.028 C 
BRANCH  28  29
HETATM   29  C4  UNL     1     -17.978  46.533 -21.388  1.00  0.00    -0.025 C 
HETATM   30  C2  UNL     1     -18.637  46.399 -20.220  1.00  0.00    -0.091 C 
HETATM   31  C1  UNL     1     -18.936  45.095 -19.533  1.00  0.00     0.042 C 
HETATM   32  C3  UNL     1     -19.136  47.613 -19.480  1.00  0.00     0.042 C 
ENDBRANCH  28  29
ENDBRANCH  27  28
ENDBRANCH  25  27
ENDBRANCH   1  25
TORSDOF 4
ENDMDL
MODEL 8
REMARK minimizedAffinity -9.35310364
REMARK CNNscore 0.372562975
REMARK CNNaffinity 6.99816704
REMARK  4 active torsions:
REMARK  status: ('A' for Active; 'I' for Inactive)
REMARK    1  A    between atoms: C4_4  and  C5_5 
REMARK    2  A    between atoms: C5_5  and  C6_6 
REMARK    3  A    between atoms: C6_6  and  C7_7 
REMARK    4  A    between atoms: C7_7  and  C9_9 
ROOT
HETATM    1  C9  UNL     1      -0.621  52.288 -21.816  1.00  0.00    -0.002 C 
HETATM    2  C10 UNL     1       0.800  52.879 -21.975  1.00  0.00     0.007 C 
HETATM    3  C11 UNL     1       1.432  52.896 -20.564  1.00  0.00     0.015 C 
HETATM    4  C12 UNL     1       0.250  52.658 -19.595  1.00  0.00    -0.013 C 
HETATM    5  C13 UNL     1      -0.429  54.050 -19.387  1.00  0.00     0.021 C 
HETATM    6  C14 UNL     1       0.506  52.131 -18.186  1.00  0.00    -0.070 C 
HETATM    7  C15 UNL     1       1.718  52.189 -17.609  1.00  0.00    -0.022 C 
HETATM    8  C16 UNL     1       1.984  51.877 -16.169  1.00  0.00     0.035 C 
HETATM    9  C17 UNL     1       0.702  51.764 -15.300  1.00  0.00     0.032 C 
HETATM   10  C18 UNL     1       1.032  51.447 -13.784  1.00  0.00     0.068 C 
HETATM   11  C19 UNL     1       2.437  51.887 -13.321  1.00  0.00     0.047 C 
HETATM   12  C20 UNL     1       0.050  52.209 -12.862  1.00  0.00     0.047 C 
HETATM   13  O1  UNL     1       0.842  50.057 -13.462  1.00  0.00    -0.310 OA
HETATM   14  C21 UNL     1       1.488  49.175 -14.261  1.00  0.00     0.259 C 
HETATM   15  O2  UNL     1       2.692  48.976 -14.258  1.00  0.00    -0.265 OA
HETATM   16  C22 UNL     1       0.505  48.523 -15.180  1.00  0.00     0.112 C 
HETATM   17  C23 UNL     1       0.174  49.421 -16.369  1.00  0.00     0.020 C 
HETATM   18  C24 UNL     1      -0.372  50.860 -16.058  1.00  0.00    -0.029 C 
HETATM   19  C25 UNL     1      -1.684  50.723 -15.251  1.00  0.00     0.016 C 
HETATM   20  C26 UNL     1      -0.731  51.639 -17.417  1.00  0.00     0.024 C 
HETATM   21  C27 UNL     1      -1.780  50.895 -18.307  1.00  0.00     0.010 C 
HETATM   22  C28 UNL     1      -1.943  51.414 -19.746  1.00  0.00     0.011 C 
HETATM   23  C29 UNL     1      -0.577  51.605 -20.418  1.00  0.00    -0.029 C 
HETATM   24  C30 UNL     1       0.145  50.227 -20.478  1.00  0.00     0.016 C 
ENDROOT
BRANCH   1  25
HETATM   25  C7  UNL     1      -1.264  51.600 -23.052  1.00  0.00    -0.014 C 
HETATM   26  C8  UNL     1      -0.529  52.046 -24.329  1.00  0.00     0.010 C 
BRANCH  25  27
HETATM   27  C6  UNL     1      -1.547  50.080 -23.077  1.00  0.00     0.008 C 
BRANCH  27  28
HETATM   28  C5  UNL     1      -2.863  49.531 -23.644  1.00  0.00     0.028 C 
BRANCH  28  29
HETATM   29  C4  UNL     1      -2.821  49.202 -25.111  1.00  0.00    -0.025 C 
HETATM   30  C2  UNL     1      -3.796  48.668 -25.872  1.00  0.00    -0.091 C 
HETATM   31  C1  UNL     1      -5.178  48.315 -25.398  1.00  0.00     0.042 C 
HETATM   32  C3  UNL     1      -3.556  48.384 -27.333  1.00  0.00     0.042 C 
ENDBRANCH  28  29
ENDBRANCH  27  28
ENDBRANCH  25  27
ENDBRANCH   1  25
TORSDOF 4
ENDMDL
MODEL 9
REMARK minimizedAffinity -7.34524918
REMARK CNNscore 0.321172833
REMARK CNNaffinity 6.51427984
REMARK  4 active torsions:
REMARK  status: ('A' for Active; 'I' for Inactive)
REMARK    1  A    between atoms: C4_4  and  C5_5 
REMARK    2  A    between atoms: C5_5  and  C6_6 
REMARK    3  A    between atoms: C6_6  and  C7_7 
REMARK    4  A    between atoms: C7_7  and  C9_9 
ROOT
HETATM    1  C9  UNL     1       2.354  56.001  -7.446  1.00  0.00    -0.002 C 
HETATM    2  C10 UNL     1       3.048  56.437  -8.759  1.00  0.00     0.007 C 
HETATM    3  C11 UNL     1       2.380  55.632  -9.899  1.00  0.00     0.015 C 
HETATM    4  C12 UNL     1       1.588  54.512  -9.185  1.00  0.00    -0.013 C 
HETATM    5  C13 UNL     1       2.618  53.374  -8.887  1.00  0.00     0.021 C 
HETATM    6  C14 UNL     1       0.430  53.817  -9.897  1.00  0.00    -0.070 C 
HETATM    7  C15 UNL     1       0.273  53.872 -11.230  1.00  0.00    -0.022 C 
HETATM    8  C16 UNL     1      -0.716  53.052 -11.998  1.00  0.00     0.035 C 
HETATM    9  C17 UNL     1      -1.358  51.902 -11.175  1.00  0.00     0.032 C 
HETATM   10  C18 UNL     1      -2.386  51.054 -12.030  1.00  0.00     0.068 C 
HETATM   11  C19 UNL     1      -2.144  51.088 -13.555  1.00  0.00     0.047 C 
HETATM   12  C20 UNL     1      -2.286  49.560 -11.643  1.00  0.00     0.047 C 
HETATM   13  O1  UNL     1      -3.753  51.418 -11.760  1.00  0.00    -0.310 OA
HETATM   14  C21 UNL     1      -4.044  52.735 -11.875  1.00  0.00     0.259 C 
HETATM   15  O2  UNL     1      -4.125  53.347 -12.928  1.00  0.00    -0.265 OA
HETATM   16  C22 UNL     1      -4.200  53.332 -10.514  1.00  0.00     0.112 C 
HETATM   17  C23 UNL     1      -2.844  53.645  -9.884  1.00  0.00     0.020 C 
HETATM   18  C24 UNL     1      -1.818  52.462  -9.754  1.00  0.00    -0.029 C 
HETATM   19  C25 UNL     1      -2.451  51.359  -8.875  1.00  0.00     0.016 C 
HETATM   20  C26 UNL     1      -0.479  52.950  -9.011  1.00  0.00     0.024 C 
HETATM   21  C27 UNL     1      -0.733  53.542  -7.586  1.00  0.00     0.010 C 
HETATM   22  C28 UNL     1       0.440  54.302  -6.945  1.00  0.00     0.011 C 
HETATM   23  C29 UNL     1       1.053  55.301  -7.936  1.00  0.00    -0.029 C 
HETATM   24  C30 UNL     1      -0.038  56.338  -8.336  1.00  0.00     0.016 C 
ENDROOT
BRANCH   1  25
HETATM   25  C7  UNL     1       2.356  57.000  -6.256  1.00  0.00    -0.014 C 
HETATM   26  C8  UNL     1       2.243  56.223  -4.932  1.00  0.00     0.010 C 
BRANCH  25  27
HETATM   27  C6  UNL     1       3.408  58.128  -6.148  1.00  0.00     0.008 C 
BRANCH  27  28
HETATM   28  C5  UNL     1       4.819  57.844  -5.618  1.00  0.00     0.028 C 
BRANCH  28  29
HETATM   29  C4  UNL     1       5.755  57.240  -6.629  1.00  0.00    -0.025 C 
HETATM   30  C2  UNL     1       6.075  55.942  -6.796  1.00  0.00    -0.091 C 
HETATM   31  C1  UNL     1       5.514  54.796  -5.999  1.00  0.00     0.042 C 
HETATM   32  C3  UNL     1       7.061  55.528  -7.857  1.00  0.00     0.042 C 
ENDBRANCH  28  29
ENDBRANCH  27  28
ENDBRANCH  25  27
ENDBRANCH   1  25
TORSDOF 4
ENDMDL
