MODEL 1
REMARK minimizedAffinity -6.8978734
REMARK CNNscore 0.449016273
REMARK CNNaffinity 5.56942606
REMARK  6 active torsions:
REMARK  status: ('A' for Active; 'I' for Inactive)
REMARK    1  A    between atoms: C2_2  and  C3_3 
REMARK    2  A    between atoms: C6_6  and  O1_7 
REMARK    3  A    between atoms: C7_8  and  C8_9 
REMARK    4  A    between atoms: C20_25  and  O5_26 
REMARK    5  A    between atoms: C26_32  and  O6_33 
REMARK    6  A    between atoms: C31_39  and  O8_40 
ROOT
HETATM    1  C3  UNL     1      13.463  -6.002   7.405  1.00  0.00     0.008 C 
HETATM    2  C4  UNL     1      13.197  -7.267   6.607  1.00  0.00    -0.023 C 
HETATM    3  C5  UNL     1      14.138  -7.950   5.928  1.00  0.00     0.004 C 
HETATM    4  C6  UNL     1      13.863  -9.192   5.126  1.00  0.00     0.174 C 
HETATM    5  C7  UNL     1      13.540  -8.890   3.630  1.00  0.00     0.187 C 
HETATM    6  O2  UNL     1      14.698  -8.424   2.909  1.00  0.00    -0.308 OA
HETATM    7  C12 UNL     1      14.445  -7.501   1.938  1.00  0.00     0.276 C 
HETATM    8  O3  UNL     1      13.323  -7.047   1.712  1.00  0.00    -0.264 OA
HETATM    9  C13 UNL     1      15.717  -7.036   1.127  1.00  0.00     0.090 C 
HETATM   10  C14 UNL     1      15.209  -7.089  -0.345  1.00  0.00     0.035 C 
HETATM   11  C15 UNL     1      16.887  -7.988   1.273  1.00  0.00     0.003 C 
HETATM   12  C16 UNL     1      18.083  -7.860   0.681  1.00  0.00     0.072 C 
HETATM   13  C17 UNL     1      18.496  -6.769  -0.222  1.00  0.00     0.245 C 
HETATM   14  O4  UNL     1      19.357  -6.992  -1.071  1.00  0.00    -0.268 OA
HETATM   15  N1  UNL     1      18.033  -5.498  -0.050  1.00  0.00    -0.324 N 
HETATM   16  C18 UNL     1      17.166  -4.937   0.872  1.00  0.00     0.052 C 
HETATM   17  C19 UNL     1      16.162  -5.598   1.489  1.00  0.00     0.000 C 
HETATM   18  C20 UNL     1      15.449  -4.953   2.660  1.00  0.00     0.185 C 
HETATM   19  C21 UNL     1      15.580  -3.459   2.859  1.00  0.00     0.001 A 
HETATM   20  C22 UNL     1      16.567  -2.766   2.131  1.00  0.00    -0.013 A 
HETATM   21  C23 UNL     1      16.703  -1.372   2.277  1.00  0.00     0.020 A 
HETATM   22  C24 UNL     1      15.853  -0.639   3.108  1.00  0.00    -0.027 A 
HETATM   23  C25 UNL     1      15.992   0.854   3.202  1.00  0.00     0.051 C 
HETATM   24  C26 UNL     1      14.849  -1.319   3.801  1.00  0.00     0.086 A 
HETATM   25  C27 UNL     1      14.720  -2.723   3.720  1.00  0.00     0.053 A 
HETATM   26  C28 UNL     1      13.632  -3.324   4.563  1.00  0.00     0.163 C 
HETATM   27  O7  UNL     1      12.565  -2.713   4.647  1.00  0.00    -0.292 OA
HETATM   28  C29 UNL     1      13.894  -4.595   5.334  1.00  0.00     0.084 C 
HETATM   29  C30 UNL     1      13.047  -4.747   6.601  1.00  0.00     0.016 C 
HETATM   30  C31 UNL     1      17.488  -3.477   1.170  1.00  0.00     0.202 C 
HETATM   31  H24 UNL     1      18.589  -4.854  -0.609  1.00  0.00     0.169 HD
ENDROOT
BRANCH   5  32
HETATM   32  C8  UNL     1      12.921 -10.098   2.944  1.00  0.00     0.010 C 
HETATM   33  C9  UNL     1      11.688 -10.638   3.029  1.00  0.00    -0.089 C 
HETATM   34  C10 UNL     1      11.363 -11.910   2.285  1.00  0.00     0.042 C 
HETATM   35  C11 UNL     1      10.537 -10.081   3.815  1.00  0.00     0.042 C 
ENDBRANCH   5  32
BRANCH   4  36
HETATM   36  O1  UNL     1      15.000 -10.043   5.282  1.00  0.00    -0.389 OA
HETATM   37  H10 UNL     1      14.802 -10.857   4.789  1.00  0.00     0.210 HD
ENDBRANCH   4  36
BRANCH   1  38
HETATM   38  C2  UNL     1      12.723  -6.100   8.755  1.00  0.00     0.004 C 
HETATM   39  C1  UNL     1      11.675  -5.012   8.957  1.00  0.00     0.006 C 
ENDBRANCH   1  38
BRANCH  18  40
HETATM   40  O5  UNL     1      16.002  -5.622   3.786  1.00  0.00    -0.386 OA
HETATM   41  H26 UNL     1      16.819  -5.156   4.033  1.00  0.00     0.210 HD
ENDBRANCH  18  40
BRANCH  30  42
HETATM   42  O8  UNL     1      18.811  -3.385   1.699  1.00  0.00    -0.385 OA
HETATM   43  H37 UNL     1      19.212  -4.273   1.666  1.00  0.00     0.211 HD
ENDBRANCH  30  42
BRANCH  24  44
HETATM   44  O6  UNL     1      14.001  -0.550   4.564  1.00  0.00    -0.359 OA
HETATM   45  H31 UNL     1      13.188  -1.075   4.736  1.00  0.00     0.217 HD
ENDBRANCH  24  44
TORSDOF 6
ENDMDL
MODEL 2
REMARK minimizedAffinity -7.48153114
REMARK CNNscore 0.379776597
REMARK CNNaffinity 4.73241186
REMARK  6 active torsions:
REMARK  status: ('A' for Active; 'I' for Inactive)
REMARK    1  A    between atoms: C2_2  and  C3_3 
REMARK    2  A    between atoms: C6_6  and  O1_7 
REMARK    3  A    between atoms: C7_8  and  C8_9 
REMARK    4  A    between atoms: C20_25  and  O5_26 
REMARK    5  A    between atoms: C26_32  and  O6_33 
REMARK    6  A    between atoms: C31_39  and  O8_40 
ROOT
HETATM    1  C3  UNL     1      -5.985  -9.203  10.613  1.00  0.00     0.008 C 
HETATM    2  C4  UNL     1      -6.222  -9.741   9.213  1.00  0.00    -0.023 C 
HETATM    3  C5  UNL     1      -6.875  -9.075   8.242  1.00  0.00     0.004 C 
HETATM    4  C6  UNL     1      -7.121  -9.622   6.862  1.00  0.00     0.174 C 
HETATM    5  C7  UNL     1      -8.482 -10.373   6.741  1.00  0.00     0.187 C 
HETATM    6  O2  UNL     1      -9.606  -9.473   6.816  1.00  0.00    -0.308 OA
HETATM    7  C12 UNL     1     -10.714  -9.977   7.429  1.00  0.00     0.276 C 
HETATM    8  O3  UNL     1     -10.756 -11.099   7.936  1.00  0.00    -0.264 OA
HETATM    9  C13 UNL     1     -11.950  -8.996   7.461  1.00  0.00     0.090 C 
HETATM   10  C14 UNL     1     -13.124  -9.928   7.036  1.00  0.00     0.035 C 
HETATM   11  C15 UNL     1     -11.832  -7.869   6.454  1.00  0.00     0.003 C 
HETATM   12  C16 UNL     1     -12.740  -6.906   6.243  1.00  0.00     0.072 C 
HETATM   13  C17 UNL     1     -14.026  -6.750   6.950  1.00  0.00     0.245 C 
HETATM   14  O4  UNL     1     -14.959  -6.195   6.374  1.00  0.00    -0.268 OA
HETATM   15  N1  UNL     1     -14.154  -7.095   8.263  1.00  0.00    -0.324 N 
HETATM   16  C18 UNL     1     -13.263  -7.622   9.182  1.00  0.00     0.052 C 
HETATM   17  C19 UNL     1     -12.213  -8.414   8.872  1.00  0.00     0.000 C 
HETATM   18  C20 UNL     1     -11.166  -8.716   9.925  1.00  0.00     0.185 C 
HETATM   19  C21 UNL     1     -11.508  -8.479  11.380  1.00  0.00     0.001 A 
HETATM   20  C22 UNL     1     -12.664  -7.737  11.689  1.00  0.00    -0.013 A 
HETATM   21  C23 UNL     1     -13.022  -7.516  13.032  1.00  0.00     0.020 A 
HETATM   22  C24 UNL     1     -12.274  -8.048  14.085  1.00  0.00    -0.027 A 
HETATM   23  C25 UNL     1     -12.713  -7.836  15.506  1.00  0.00     0.051 C 
HETATM   24  C26 UNL     1     -11.148  -8.817  13.779  1.00  0.00     0.086 A 
HETATM   25  C27 UNL     1     -10.730  -9.012  12.444  1.00  0.00     0.053 A 
HETATM   26  C28 UNL     1      -9.472  -9.813  12.270  1.00  0.00     0.163 C 
HETATM   27  O7  UNL     1      -9.299 -10.783  13.011  1.00  0.00    -0.292 OA
HETATM   28  C29 UNL     1      -8.434  -9.373  11.266  1.00  0.00     0.084 C 
HETATM   29  C30 UNL     1      -7.005  -9.800  11.612  1.00  0.00     0.016 C 
HETATM   30  C31 UNL     1     -13.557  -7.175  10.610  1.00  0.00     0.202 C 
HETATM   31  H24 UNL     1     -15.023  -6.714   8.632  1.00  0.00     0.169 HD
ENDROOT
BRANCH   5  32
HETATM   32  C8  UNL     1      -8.539 -11.212   5.473  1.00  0.00     0.010 C 
HETATM   33  C9  UNL     1      -8.978 -10.923   4.232  1.00  0.00    -0.089 C 
HETATM   34  C10 UNL     1      -8.994 -11.990   3.165  1.00  0.00     0.042 C 
HETATM   35  C11 UNL     1      -9.470  -9.584   3.762  1.00  0.00     0.042 C 
ENDBRANCH   5  32
BRANCH   4  36
HETATM   36  O1  UNL     1      -7.018  -8.520   5.958  1.00  0.00    -0.389 OA
HETATM   37  H10 UNL     1      -7.144  -8.886   5.067  1.00  0.00     0.210 HD
ENDBRANCH   4  36
BRANCH   1  38
HETATM   38  C2  UNL     1      -4.527  -9.502  11.021  1.00  0.00     0.004 C 
HETATM   39  C1  UNL     1      -3.572  -9.609   9.839  1.00  0.00     0.006 C 
ENDBRANCH   1  38
BRANCH  18  40
HETATM   40  O5  UNL     1     -10.084  -7.870   9.559  1.00  0.00    -0.386 OA
HETATM   41  H26 UNL     1     -10.238  -7.002   9.967  1.00  0.00     0.210 HD
ENDBRANCH  18  40
BRANCH  30  42
HETATM   42  O8  UNL     1     -13.475  -5.752  10.684  1.00  0.00    -0.385 OA
HETATM   43  H37 UNL     1     -13.326  -5.410   9.783  1.00  0.00     0.211 HD
ENDBRANCH  30  42
BRANCH  24  44
HETATM   44  O6  UNL     1     -10.474  -9.367  14.845  1.00  0.00    -0.359 OA
HETATM   45  H31 UNL     1      -9.923 -10.107  14.505  1.00  0.00     0.217 HD
ENDBRANCH  24  44
TORSDOF 6
ENDMDL
MODEL 3
REMARK minimizedAffinity -11.0287409
REMARK CNNscore 0.376107097
REMARK CNNaffinity 6.69851828
REMARK  6 active torsions:
REMARK  status: ('A' for Active; 'I' for Inactive)
REMARK    1  A    between atoms: C2_2  and  C3_3 
REMARK    2  A    between atoms: C6_6  and  O1_7 
REMARK    3  A    between atoms: C7_8  and  C8_9 
REMARK    4  A    between atoms: C20_25  and  O5_26 
REMARK    5  A    between atoms: C26_32  and  O6_33 
REMARK    6  A    between atoms: C31_39  and  O8_40 
ROOT
HETATM    1  C3  UNL     1      -8.033   8.074  14.789  1.00  0.00     0.008 C 
HETATM    2  C4  UNL     1      -6.831   8.690  15.482  1.00  0.00    -0.023 C 
HETATM    3  C5  UNL     1      -5.715   9.099  14.850  1.00  0.00     0.004 C 
HETATM    4  C6  UNL     1      -4.521   9.693  15.545  1.00  0.00     0.174 C 
HETATM    5  C7  UNL     1      -3.454   8.625  15.938  1.00  0.00     0.187 C 
HETATM    6  O2  UNL     1      -2.779   8.083  14.786  1.00  0.00    -0.308 OA
HETATM    7  C12 UNL     1      -2.431   6.769  14.882  1.00  0.00     0.276 C 
HETATM    8  O3  UNL     1      -2.708   6.064  15.853  1.00  0.00    -0.264 OA
HETATM    9  C13 UNL     1      -1.652   6.203  13.631  1.00  0.00     0.090 C 
HETATM   10  C14 UNL     1      -0.486   5.413  14.296  1.00  0.00     0.035 C 
HETATM   11  C15 UNL     1      -1.066   7.297  12.760  1.00  0.00     0.003 C 
HETATM   12  C16 UNL     1      -0.337   7.111  11.650  1.00  0.00     0.072 C 
HETATM   13  C17 UNL     1       0.031   5.812  11.056  1.00  0.00     0.245 C 
HETATM   14  O4  UNL     1       1.063   5.732  10.391  1.00  0.00    -0.268 OA
HETATM   15  N1  UNL     1      -0.809   4.740  11.127  1.00  0.00    -0.324 N 
HETATM   16  C18 UNL     1      -2.059   4.571  11.696  1.00  0.00     0.052 C 
HETATM   17  C19 UNL     1      -2.520   5.253  12.768  1.00  0.00     0.000 C 
HETATM   18  C20 UNL     1      -3.986   5.167  13.138  1.00  0.00     0.185 C 
HETATM   19  C21 UNL     1      -4.812   4.030  12.578  1.00  0.00     0.001 A 
HETATM   20  C22 UNL     1      -4.276   3.261  11.527  1.00  0.00    -0.013 A 
HETATM   21  C23 UNL     1      -5.010   2.183  10.995  1.00  0.00     0.020 A 
HETATM   22  C24 UNL     1      -6.258   1.825  11.510  1.00  0.00    -0.027 A 
HETATM   23  C25 UNL     1      -6.992   0.638  10.954  1.00  0.00     0.051 C 
HETATM   24  C26 UNL     1      -6.774   2.563  12.579  1.00  0.00     0.086 A 
HETATM   25  C27 UNL     1      -6.089   3.683  13.099  1.00  0.00     0.053 A 
HETATM   26  C28 UNL     1      -6.789   4.414  14.208  1.00  0.00     0.163 C 
HETATM   27  O7  UNL     1      -7.393   3.743  15.049  1.00  0.00    -0.292 OA
HETATM   28  C29 UNL     1      -6.805   5.923  14.222  1.00  0.00     0.084 C 
HETATM   29  C30 UNL     1      -8.018   6.532  14.930  1.00  0.00     0.016 C 
HETATM   30  C31 UNL     1      -2.910   3.548  10.952  1.00  0.00     0.202 C 
HETATM   31  H24 UNL     1      -0.496   4.018  10.482  1.00  0.00     0.169 HD
ENDROOT
BRANCH   5  32
HETATM   32  C8  UNL     1      -2.456   9.185  16.941  1.00  0.00     0.010 C 
HETATM   33  C9  UNL     1      -2.596  10.095  17.926  1.00  0.00    -0.089 C 
HETATM   34  C10 UNL     1      -1.396  10.532  18.731  1.00  0.00     0.042 C 
HETATM   35  C11 UNL     1      -3.881  10.750  18.342  1.00  0.00     0.042 C 
ENDBRANCH   5  32
BRANCH   4  36
HETATM   36  O1  UNL     1      -3.997  10.700  14.678  1.00  0.00    -0.389 OA
HETATM   37  H10 UNL     1      -3.247  11.102  15.147  1.00  0.00     0.210 HD
ENDBRANCH   4  36
BRANCH   1  38
HETATM   38  C2  UNL     1      -9.318   8.699  15.371  1.00  0.00     0.004 C 
HETATM   39  C1  UNL     1      -9.359  10.218  15.267  1.00  0.00     0.006 C 
ENDBRANCH   1  38
BRANCH  18  40
HETATM   40  O5  UNL     1      -4.513   6.400  12.669  1.00  0.00    -0.386 OA
HETATM   41  H26 UNL     1      -4.748   6.282  11.732  1.00  0.00     0.210 HD
ENDBRANCH  18  40
BRANCH  30  42
HETATM   42  O8  UNL     1      -3.096   3.981   9.605  1.00  0.00    -0.385 OA
HETATM   43  H37 UNL     1      -2.566   4.789   9.471  1.00  0.00     0.211 HD
ENDBRANCH  30  42
BRANCH  24  44
HETATM   44  O6  UNL     1      -7.979   2.141  13.089  1.00  0.00    -0.359 OA
HETATM   45  H31 UNL     1      -8.075   2.520  13.991  1.00  0.00     0.217 HD
ENDBRANCH  24  44
TORSDOF 6
ENDMDL
MODEL 4
REMARK minimizedAffinity -10.7652349
REMARK CNNscore 0.368716359
REMARK CNNaffinity 6.66079378
REMARK  6 active torsions:
REMARK  status: ('A' for Active; 'I' for Inactive)
REMARK    1  A    between atoms: C2_2  and  C3_3 
REMARK    2  A    between atoms: C6_6  and  O1_7 
REMARK    3  A    between atoms: C7_8  and  C8_9 
REMARK    4  A    between atoms: C20_25  and  O5_26 
REMARK    5  A    between atoms: C26_32  and  O6_33 
REMARK    6  A    between atoms: C31_39  and  O8_40 
ROOT
HETATM    1  C3  UNL     1      -2.744   4.819  13.125  1.00  0.00     0.008 C 
HETATM    2  C4  UNL     1      -1.760   4.939  11.975  1.00  0.00    -0.023 C 
HETATM    3  C5  UNL     1      -0.421   4.900  12.112  1.00  0.00     0.004 C 
HETATM    4  C6  UNL     1       0.548   5.036  10.970  1.00  0.00     0.174 C 
HETATM    5  C7  UNL     1       0.994   6.510  10.725  1.00  0.00     0.187 C 
HETATM    6  O2  UNL     1       1.842   7.003  11.781  1.00  0.00    -0.308 OA
HETATM    7  C12 UNL     1       1.695   8.326  12.074  1.00  0.00     0.276 C 
HETATM    8  O3  UNL     1       0.867   9.053  11.524  1.00  0.00    -0.264 OA
HETATM    9  C13 UNL     1       2.662   8.860  13.201  1.00  0.00     0.090 C 
HETATM   10  C14 UNL     1       3.181  10.194  12.587  1.00  0.00     0.035 C 
HETATM   11  C15 UNL     1       3.844   7.943  13.444  1.00  0.00     0.003 C 
HETATM   12  C16 UNL     1       4.836   8.154  14.321  1.00  0.00     0.072 C 
HETATM   13  C17 UNL     1       4.969   9.314  15.224  1.00  0.00     0.245 C 
HETATM   14  O4  UNL     1       6.091   9.661  15.585  1.00  0.00    -0.268 OA
HETATM   15  N1  UNL     1       3.870   9.922  15.756  1.00  0.00    -0.324 N 
HETATM   16  C18 UNL     1       2.514   9.680  15.626  1.00  0.00     0.052 C 
HETATM   17  C19 UNL     1       1.928   9.134  14.537  1.00  0.00     0.000 C 
HETATM   18  C20 UNL     1       0.484   8.684  14.610  1.00  0.00     0.185 C 
HETATM   19  C21 UNL     1      -0.387   9.209  15.730  1.00  0.00     0.001 A 
HETATM   20  C22 UNL     1       0.230   9.867  16.812  1.00  0.00    -0.013 A 
HETATM   21  C23 UNL     1      -0.552  10.386  17.861  1.00  0.00     0.020 A 
HETATM   22  C24 UNL     1      -1.946  10.299  17.845  1.00  0.00    -0.027 A 
HETATM   23  C25 UNL     1      -2.753  10.908  18.956  1.00  0.00     0.051 C 
HETATM   24  C26 UNL     1      -2.562   9.681  16.754  1.00  0.00     0.086 A 
HETATM   25  C27 UNL     1      -1.805   9.101  15.712  1.00  0.00     0.053 A 
HETATM   26  C28 UNL     1      -2.599   8.422  14.634  1.00  0.00     0.163 C 
HETATM   27  O7  UNL     1      -3.651   8.954  14.272  1.00  0.00    -0.292 OA
HETATM   28  C29 UNL     1      -2.141   7.092  14.087  1.00  0.00     0.084 C 
HETATM   29  C30 UNL     1      -3.271   6.213  13.544  1.00  0.00     0.016 C 
HETATM   30  C31 UNL     1       1.726  10.053  16.877  1.00  0.00     0.202 C 
HETATM   31  H24 UNL     1       4.156  10.539  16.514  1.00  0.00     0.169 HD
ENDROOT
BRANCH   5  32
HETATM   32  C8  UNL     1       1.667   6.665   9.369  1.00  0.00     0.010 C 
HETATM   33  C9  UNL     1       1.328   7.387   8.282  1.00  0.00    -0.089 C 
HETATM   34  C10 UNL     1       2.150   7.290   7.020  1.00  0.00     0.042 C 
HETATM   35  C11 UNL     1       0.169   8.335   8.183  1.00  0.00     0.042 C 
ENDBRANCH   5  32
BRANCH   4  36
HETATM   36  O1  UNL     1       1.647   4.169  11.257  1.00  0.00    -0.389 OA
HETATM   37  H10 UNL     1       2.253   4.237  10.500  1.00  0.00     0.210 HD
ENDBRANCH   4  36
BRANCH   1  38
HETATM   38  C2  UNL     1      -3.885   3.868  12.707  1.00  0.00     0.004 C 
HETATM   39  C1  UNL     1      -5.276   4.424  12.982  1.00  0.00     0.006 C 
ENDBRANCH   1  38
BRANCH  18  40
HETATM   40  O5  UNL     1       0.589   7.271  14.727  1.00  0.00    -0.386 OA
HETATM   41  H26 UNL     1       0.697   7.062  15.670  1.00  0.00     0.210 HD
ENDBRANCH  18  40
BRANCH  30  42
HETATM   42  O8  UNL     1       2.205   9.285  17.980  1.00  0.00    -0.385 OA
HETATM   43  H37 UNL     1       2.972   8.765  17.677  1.00  0.00     0.211 HD
ENDBRANCH  30  42
BRANCH  24  44
HETATM   44  O6  UNL     1      -3.937   9.667  16.754  1.00  0.00    -0.359 OA
HETATM   45  H31 UNL     1      -4.238   9.501  15.833  1.00  0.00     0.217 HD
ENDBRANCH  24  44
TORSDOF 6
ENDMDL
MODEL 5
REMARK minimizedAffinity -7.68921757
REMARK CNNscore 0.32356742
REMARK CNNaffinity 5.0966568
REMARK  6 active torsions:
REMARK  status: ('A' for Active; 'I' for Inactive)
REMARK    1  A    between atoms: C2_2  and  C3_3 
REMARK    2  A    between atoms: C6_6  and  O1_7 
REMARK    3  A    between atoms: C7_8  and  C8_9 
REMARK    4  A    between atoms: C20_25  and  O5_26 
REMARK    5  A    between atoms: C26_32  and  O6_33 
REMARK    6  A    between atoms: C31_39  and  O8_40 
ROOT
HETATM    1  C3  UNL     1      -5.160  -9.471  10.265  1.00  0.00     0.008 C 
HETATM    2  C4  UNL     1      -4.927 -10.164   8.934  1.00  0.00    -0.023 C 
HETATM    3  C5  UNL     1      -5.249  -9.641   7.736  1.00  0.00     0.004 C 
HETATM    4  C6  UNL     1      -5.030 -10.341   6.423  1.00  0.00     0.174 C 
HETATM    5  C7  UNL     1      -6.266 -11.177   5.968  1.00  0.00     0.187 C 
HETATM    6  O2  UNL     1      -7.373 -10.340   5.580  1.00  0.00    -0.308 OA
HETATM    7  C12 UNL     1      -8.608 -10.840   5.867  1.00  0.00     0.276 C 
HETATM    8  O3  UNL     1      -8.786 -11.903   6.462  1.00  0.00    -0.264 OA
HETATM    9  C13 UNL     1      -9.810  -9.933   5.394  1.00  0.00     0.090 C 
HETATM   10  C14 UNL     1     -10.767 -10.969   4.733  1.00  0.00     0.035 C 
HETATM   11  C15 UNL     1      -9.400  -8.912   4.351  1.00  0.00     0.003 C 
HETATM   12  C16 UNL     1     -10.213  -8.029   3.754  1.00  0.00     0.072 C 
HETATM   13  C17 UNL     1     -11.661  -7.873   3.998  1.00  0.00     0.245 C 
HETATM   14  O4  UNL     1     -12.372  -7.436   3.096  1.00  0.00    -0.268 OA
HETATM   15  N1  UNL     1     -12.194  -8.087   5.234  1.00  0.00    -0.324 N 
HETATM   16  C18 UNL     1     -11.632  -8.464   6.441  1.00  0.00     0.052 C 
HETATM   17  C19 UNL     1     -10.521  -9.223   6.573  1.00  0.00     0.000 C 
HETATM   18  C20 UNL     1      -9.860  -9.354   7.929  1.00  0.00     0.185 C 
HETATM   19  C21 UNL     1     -10.652  -8.987   9.164  1.00  0.00     0.001 A 
HETATM   20  C22 UNL     1     -11.863  -8.284   9.005  1.00  0.00    -0.013 A 
HETATM   21  C23 UNL     1     -12.636  -7.945  10.132  1.00  0.00     0.020 A 
HETATM   22  C24 UNL     1     -12.251  -8.322  11.421  1.00  0.00    -0.027 A 
HETATM   23  C25 UNL     1     -13.125  -7.989  12.597  1.00  0.00     0.051 C 
HETATM   24  C26 UNL     1     -11.071  -9.053  11.577  1.00  0.00     0.086 A 
HETATM   25  C27 UNL     1     -10.245  -9.362  10.474  1.00  0.00     0.053 A 
HETATM   26  C28 UNL     1      -8.980 -10.103  10.799  1.00  0.00     0.163 C 
HETATM   27  O7  UNL     1      -9.033 -10.980  11.664  1.00  0.00    -0.292 OA
HETATM   28  C29 UNL     1      -7.686  -9.711  10.129  1.00  0.00     0.084 C 
HETATM   29  C30 UNL     1      -6.433 -10.019  10.954  1.00  0.00     0.016 C 
HETATM   30  C31 UNL     1     -12.376  -7.889   7.642  1.00  0.00     0.202 C 
HETATM   31  H24 UNL     1     -13.143  -7.720   5.264  1.00  0.00     0.169 HD
ENDROOT
BRANCH   5  32
HETATM   32  C8  UNL     1      -5.897 -12.145   4.854  1.00  0.00     0.010 C 
HETATM   33  C9  UNL     1      -4.947 -13.099   4.778  1.00  0.00    -0.089 C 
HETATM   34  C10 UNL     1      -4.747 -13.871   3.498  1.00  0.00     0.042 C 
HETATM   35  C11 UNL     1      -4.022 -13.508   5.888  1.00  0.00     0.042 C 
ENDBRANCH   5  32
BRANCH   4  36
HETATM   36  O1  UNL     1      -4.667  -9.336   5.476  1.00  0.00    -0.389 OA
HETATM   37  H10 UNL     1      -4.495  -9.799   4.639  1.00  0.00     0.210 HD
ENDBRANCH   4  36
BRANCH   1  38
HETATM   38  C2  UNL     1      -3.903  -9.643  11.143  1.00  0.00     0.004 C 
HETATM   39  C1  UNL     1      -2.674  -8.925  10.598  1.00  0.00     0.006 C 
ENDBRANCH   1  38
BRANCH  18  40
HETATM   40  O5  UNL     1      -8.735  -8.491   7.826  1.00  0.00    -0.386 OA
HETATM   41  H26 UNL     1      -9.029  -7.595   8.061  1.00  0.00     0.210 HD
ENDBRANCH  18  40
BRANCH  30  42
HETATM   42  O8  UNL     1     -12.351  -6.464   7.572  1.00  0.00    -0.385 OA
HETATM   43  H37 UNL     1     -11.930  -6.209   6.730  1.00  0.00     0.211 HD
ENDBRANCH  30  42
BRANCH  24  44
HETATM   44  O6  UNL     1     -10.761  -9.450  12.857  1.00  0.00    -0.359 OA
HETATM   45  H31 UNL     1     -10.115 -10.189  12.796  1.00  0.00     0.217 HD
ENDBRANCH  24  44
TORSDOF 6
ENDMDL
MODEL 6
REMARK minimizedAffinity -7.50934744
REMARK CNNscore 0.322985172
REMARK CNNaffinity 5.49359751
REMARK  6 active torsions:
REMARK  status: ('A' for Active; 'I' for Inactive)
REMARK    1  A    between atoms: C2_2  and  C3_3 
REMARK    2  A    between atoms: C6_6  and  O1_7 
REMARK    3  A    between atoms: C7_8  and  C8_9 
REMARK    4  A    between atoms: C20_25  and  O5_26 
REMARK    5  A    between atoms: C26_32  and  O6_33 
REMARK    6  A    between atoms: C31_39  and  O8_40 
ROOT
HETATM    1  C3  UNL     1      -7.189 -13.823  12.886  1.00  0.00     0.008 C 
HETATM    2  C4  UNL     1      -8.582 -13.403  13.320  1.00  0.00    -0.023 C 
HETATM    3  C5  UNL     1      -9.661 -13.399  12.515  1.00  0.00     0.004 C 
HETATM    4  C6  UNL     1     -11.035 -12.965  12.948  1.00  0.00     0.174 C 
HETATM    5  C7  UNL     1     -11.303 -11.451  12.688  1.00  0.00     0.187 C 
HETATM    6  O2  UNL     1     -11.421 -11.155  11.282  1.00  0.00    -0.308 OA
HETATM    7  C12 UNL     1     -10.940  -9.938  10.902  1.00  0.00     0.276 C 
HETATM    8  O3  UNL     1     -10.393  -9.154  11.679  1.00  0.00    -0.264 OA
HETATM    9  C13 UNL     1     -11.118  -9.611   9.369  1.00  0.00     0.090 C 
HETATM   10  C14 UNL     1     -11.655  -8.148   9.402  1.00  0.00     0.035 C 
HETATM   11  C15 UNL     1     -12.151 -10.494   8.696  1.00  0.00     0.003 C 
HETATM   12  C16 UNL     1     -12.526 -10.425   7.411  1.00  0.00     0.072 C 
HETATM   13  C17 UNL     1     -12.005  -9.485   6.399  1.00  0.00     0.245 C 
HETATM   14  O4  UNL     1     -12.726  -9.165   5.457  1.00  0.00    -0.268 OA
HETATM   15  N1  UNL     1     -10.707  -9.068   6.427  1.00  0.00    -0.324 N 
HETATM   16  C18 UNL     1      -9.654  -9.348   7.280  1.00  0.00     0.052 C 
HETATM   17  C19 UNL     1      -9.784  -9.674   8.586  1.00  0.00     0.000 C 
HETATM   18  C20 UNL     1      -8.587 -10.207   9.347  1.00  0.00     0.185 C 
HETATM   19  C21 UNL     1      -7.204  -9.986   8.776  1.00  0.00     0.001 A 
HETATM   20  C22 UNL     1      -7.087  -9.547   7.443  1.00  0.00    -0.013 A 
HETATM   21  C23 UNL     1      -5.815  -9.313   6.886  1.00  0.00     0.020 A 
HETATM   22  C24 UNL     1      -4.649  -9.470   7.638  1.00  0.00    -0.027 A 
HETATM   23  C25 UNL     1      -3.310  -9.162   7.030  1.00  0.00     0.051 C 
HETATM   24  C26 UNL     1      -4.765  -9.867   8.973  1.00  0.00     0.086 A 
HETATM   25  C27 UNL     1      -6.021 -10.164   9.546  1.00  0.00     0.053 A 
HETATM   26  C28 UNL     1      -5.989 -10.633  10.972  1.00  0.00     0.163 C 
HETATM   27  O7  UNL     1      -5.188 -10.093  11.738  1.00  0.00    -0.292 OA
HETATM   28  C29 UNL     1      -6.863 -11.785  11.403  1.00  0.00     0.084 C 
HETATM   29  C30 UNL     1      -6.310 -12.585  12.587  1.00  0.00     0.016 C 
HETATM   30  C31 UNL     1      -8.300  -9.300   6.580  1.00  0.00     0.202 C 
HETATM   31  H24 UNL     1     -10.475  -8.617   5.545  1.00  0.00     0.169 HD
ENDROOT
BRANCH   5  32
HETATM   32  C8  UNL     1     -12.528 -10.968  13.451  1.00  0.00     0.010 C 
HETATM   33  C9  UNL     1     -12.685 -10.581  14.733  1.00  0.00    -0.089 C 
HETATM   34  C10 UNL     1     -14.054 -10.221  15.255  1.00  0.00     0.042 C 
HETATM   35  C11 UNL     1     -11.590 -10.451  15.752  1.00  0.00     0.042 C 
ENDBRANCH   5  32
BRANCH   4  36
HETATM   36  O1  UNL     1     -11.966 -13.812  12.274  1.00  0.00    -0.389 OA
HETATM   37  H10 UNL     1     -12.849 -13.549  12.583  1.00  0.00     0.210 HD
ENDBRANCH   4  36
BRANCH   1  38
HETATM   38  C2  UNL     1      -6.576 -14.721  13.981  1.00  0.00     0.004 C 
HETATM   39  C1  UNL     1      -5.182 -15.234  13.640  1.00  0.00     0.006 C 
ENDBRANCH   1  38
BRANCH  18  40
HETATM   40  O5  UNL     1      -8.843 -11.603   9.419  1.00  0.00    -0.386 OA
HETATM   41  H26 UNL     1      -8.499 -12.007   8.604  1.00  0.00     0.210 HD
ENDBRANCH  18  40
BRANCH  30  42
HETATM   42  O8  UNL     1      -8.281 -10.264   5.528  1.00  0.00    -0.385 OA
HETATM   43  H37 UNL     1      -9.168 -10.663   5.466  1.00  0.00     0.211 HD
ENDBRANCH  30  42
BRANCH  24  44
HETATM   44  O6  UNL     1      -3.595  -9.955   9.690  1.00  0.00    -0.359 OA
HETATM   45  H31 UNL     1      -3.824  -9.933  10.646  1.00  0.00     0.217 HD
ENDBRANCH  24  44
TORSDOF 6
ENDMDL
MODEL 7
REMARK minimizedAffinity -7.05238295
REMARK CNNscore 0.277571738
REMARK CNNaffinity 5.07576942
REMARK  6 active torsions:
REMARK  status: ('A' for Active; 'I' for Inactive)
REMARK    1  A    between atoms: C2_2  and  C3_3 
REMARK    2  A    between atoms: C6_6  and  O1_7 
REMARK    3  A    between atoms: C7_8  and  C8_9 
REMARK    4  A    between atoms: C20_25  and  O5_26 
REMARK    5  A    between atoms: C26_32  and  O6_33 
REMARK    6  A    between atoms: C31_39  and  O8_40 
ROOT
HETATM    1  C3  UNL     1     -11.562  -7.502  16.072  1.00  0.00     0.008 C 
HETATM    2  C4  UNL     1     -11.884  -8.636  15.115  1.00  0.00    -0.023 C 
HETATM    3  C5  UNL     1     -11.678  -8.593  13.785  1.00  0.00     0.004 C 
HETATM    4  C6  UNL     1     -12.016  -9.715  12.842  1.00  0.00     0.174 C 
HETATM    5  C7  UNL     1     -13.451  -9.593  12.244  1.00  0.00     0.187 C 
HETATM    6  O2  UNL     1     -13.560  -8.496  11.315  1.00  0.00    -0.308 OA
HETATM    7  C12 UNL     1     -14.765  -7.859  11.306  1.00  0.00     0.276 C 
HETATM    8  O3  UNL     1     -15.690  -8.151  12.064  1.00  0.00    -0.264 OA
HETATM    9  C13 UNL     1     -14.882  -6.691  10.252  1.00  0.00     0.090 C 
HETATM   10  C14 UNL     1     -16.274  -6.965   9.607  1.00  0.00     0.035 C 
HETATM   11  C15 UNL     1     -13.821  -6.765   9.171  1.00  0.00     0.003 C 
HETATM   12  C16 UNL     1     -13.693  -5.923   8.136  1.00  0.00     0.072 C 
HETATM   13  C17 UNL     1     -14.552  -4.758   7.849  1.00  0.00     0.245 C 
HETATM   14  O4  UNL     1     -14.678  -4.385   6.684  1.00  0.00    -0.268 OA
HETATM   15  N1  UNL     1     -15.102  -4.022   8.856  1.00  0.00    -0.324 N 
HETATM   16  C18 UNL     1     -15.039  -4.132  10.234  1.00  0.00     0.052 C 
HETATM   17  C19 UNL     1     -14.863  -5.289  10.910  1.00  0.00     0.000 C 
HETATM   18  C20 UNL     1     -14.555  -5.252  12.392  1.00  0.00     0.185 C 
HETATM   19  C21 UNL     1     -14.846  -3.984  13.165  1.00  0.00     0.001 A 
HETATM   20  C22 UNL     1     -15.129  -2.806  12.446  1.00  0.00    -0.013 A 
HETATM   21  C23 UNL     1     -15.425  -1.614  13.134  1.00  0.00     0.020 A 
HETATM   22  C24 UNL     1     -15.484  -1.571  14.529  1.00  0.00    -0.027 A 
HETATM   23  C25 UNL     1     -15.853  -0.294  15.230  1.00  0.00     0.051 C 
HETATM   24  C26 UNL     1     -15.241  -2.747  15.242  1.00  0.00     0.086 A 
HETATM   25  C27 UNL     1     -14.888  -3.947  14.586  1.00  0.00     0.053 A 
HETATM   26  C28 UNL     1     -14.602  -5.116  15.483  1.00  0.00     0.163 C 
HETATM   27  O7  UNL     1     -15.311  -5.265  16.480  1.00  0.00    -0.292 OA
HETATM   28  C29 UNL     1     -13.426  -6.017  15.191  1.00  0.00     0.084 C 
HETATM   29  C30 UNL     1     -12.839  -6.703  16.428  1.00  0.00     0.016 C 
HETATM   30  C31 UNL     1     -15.142  -2.783  10.937  1.00  0.00     0.202 C 
HETATM   31  H24 UNL     1     -15.464  -3.148   8.481  1.00  0.00     0.169 HD
ENDROOT
BRANCH   5  32
HETATM   32  C8  UNL     1     -13.893 -10.898  11.599  1.00  0.00     0.010 C 
HETATM   33  C9  UNL     1     -14.275 -12.074  12.137  1.00  0.00    -0.089 C 
HETATM   34  C10 UNL     1     -14.589 -13.250  11.245  1.00  0.00     0.042 C 
HETATM   35  C11 UNL     1     -14.441 -12.359  13.601  1.00  0.00     0.042 C 
ENDBRANCH   5  32
BRANCH   4  36
HETATM   36  O1  UNL     1     -11.000  -9.729  11.838  1.00  0.00    -0.389 OA
HETATM   37  H10 UNL     1     -11.206 -10.476  11.252  1.00  0.00     0.210 HD
ENDBRANCH   4  36
BRANCH   1  38
HETATM   38  C2  UNL     1     -10.872  -8.086  17.322  1.00  0.00     0.004 C 
HETATM   39  C1  UNL     1     -10.263  -9.464  17.097  1.00  0.00     0.006 C 
ENDBRANCH   1  38
BRANCH  18  40
HETATM   40  O5  UNL     1     -13.158  -5.514  12.441  1.00  0.00    -0.386 OA
HETATM   41  H26 UNL     1     -12.696  -4.666  12.328  1.00  0.00     0.210 HD
ENDBRANCH  18  40
BRANCH  30  42
HETATM   42  O8  UNL     1     -14.065  -1.948  10.513  1.00  0.00    -0.385 OA
HETATM   43  H37 UNL     1     -13.571  -2.420   9.818  1.00  0.00     0.211 HD
ENDBRANCH  30  42
BRANCH  24  44
HETATM   44  O6  UNL     1     -15.364  -2.670  16.610  1.00  0.00    -0.359 OA
HETATM   45  H31 UNL     1     -15.479  -3.584  16.955  1.00  0.00     0.217 HD
ENDBRANCH  24  44
TORSDOF 6
ENDMDL
MODEL 8
REMARK minimizedAffinity -8.14813709
REMARK CNNscore 0.240930945
REMARK CNNaffinity 5.21620798
REMARK  6 active torsions:
REMARK  status: ('A' for Active; 'I' for Inactive)
REMARK    1  A    between atoms: C2_2  and  C3_3 
REMARK    2  A    between atoms: C6_6  and  O1_7 
REMARK    3  A    between atoms: C7_8  and  C8_9 
REMARK    4  A    between atoms: C20_25  and  O5_26 
REMARK    5  A    between atoms: C26_32  and  O6_33 
REMARK    6  A    between atoms: C31_39  and  O8_40 
ROOT
HETATM    1  C3  UNL     1     -13.922  -6.821   9.484  1.00  0.00     0.008 C 
HETATM    2  C4  UNL     1     -13.682  -7.530  10.805  1.00  0.00    -0.023 C 
HETATM    3  C5  UNL     1     -12.553  -7.426  11.532  1.00  0.00     0.004 C 
HETATM    4  C6  UNL     1     -12.316  -8.145  12.831  1.00  0.00     0.174 C 
HETATM    5  C7  UNL     1     -11.618  -9.527  12.641  1.00  0.00     0.187 C 
HETATM    6  O2  UNL     1     -10.245  -9.388  12.223  1.00  0.00    -0.308 OA
HETATM    7  C12 UNL     1      -9.795 -10.356  11.376  1.00  0.00     0.276 C 
HETATM    8  O3  UNL     1     -10.508 -11.263  10.945  1.00  0.00    -0.264 OA
HETATM    9  C13 UNL     1      -8.278 -10.214  10.965  1.00  0.00     0.090 C 
HETATM   10  C14 UNL     1      -7.753 -11.672  11.128  1.00  0.00     0.035 C 
HETATM   11  C15 UNL     1      -7.499  -9.308  11.897  1.00  0.00     0.003 C 
HETATM   12  C16 UNL     1      -6.192  -9.025  11.807  1.00  0.00     0.072 C 
HETATM   13  C17 UNL     1      -5.258  -9.532  10.782  1.00  0.00     0.245 C 
HETATM   14  O4  UNL     1      -4.066  -9.637  11.063  1.00  0.00    -0.268 OA
HETATM   15  N1  UNL     1      -5.673  -9.766   9.505  1.00  0.00    -0.324 N 
HETATM   16  C18 UNL     1      -6.902  -9.629   8.882  1.00  0.00     0.052 C 
HETATM   17  C19 UNL     1      -8.098  -9.741   9.501  1.00  0.00     0.000 C 
HETATM   18  C20 UNL     1      -9.359  -9.319   8.776  1.00  0.00     0.185 C 
HETATM   19  C21 UNL     1      -9.319  -9.173   7.271  1.00  0.00     0.001 A 
HETATM   20  C22 UNL     1      -8.066  -9.160   6.628  1.00  0.00    -0.013 A 
HETATM   21  C23 UNL     1      -7.993  -9.046   5.226  1.00  0.00     0.020 A 
HETATM   22  C24 UNL     1      -9.144  -8.979   4.438  1.00  0.00    -0.027 A 
HETATM   23  C25 UNL     1      -9.032  -8.909   2.942  1.00  0.00     0.051 C 
HETATM   24  C26 UNL     1     -10.389  -9.030   5.071  1.00  0.00     0.086 A 
HETATM   25  C27 UNL     1     -10.497  -9.090   6.478  1.00  0.00     0.053 A 
HETATM   26  C28 UNL     1     -11.897  -9.082   7.021  1.00  0.00     0.163 C 
HETATM   27  O7  UNL     1     -12.755  -9.724   6.411  1.00  0.00    -0.292 OA
HETATM   28  C29 UNL     1     -12.229  -8.243   8.231  1.00  0.00     0.084 C 
HETATM   29  C30 UNL     1     -13.689  -7.782   8.294  1.00  0.00     0.016 C 
HETATM   30  C31 UNL     1      -6.777  -9.284   7.402  1.00  0.00     0.202 C 
HETATM   31  H24 UNL     1      -4.864  -9.890   8.901  1.00  0.00     0.169 HD
ENDROOT
BRANCH   5  32
HETATM   32  C8  UNL     1     -11.721 -10.375  13.900  1.00  0.00     0.010 C 
HETATM   33  C9  UNL     1     -10.828 -10.634  14.876  1.00  0.00    -0.089 C 
HETATM   34  C10 UNL     1     -11.175 -11.594  15.987  1.00  0.00     0.042 C 
HETATM   35  C11 UNL     1      -9.456 -10.035  14.995  1.00  0.00     0.042 C 
ENDBRANCH   5  32
BRANCH   4  36
HETATM   36  O1  UNL     1     -11.565  -7.259  13.662  1.00  0.00    -0.389 OA
HETATM   37  H10 UNL     1     -11.445  -7.716  14.510  1.00  0.00     0.210 HD
ENDBRANCH   4  36
BRANCH   1  38
HETATM   38  C2  UNL     1     -15.348  -6.233   9.487  1.00  0.00     0.004 C 
HETATM   39  C1  UNL     1     -15.654  -5.368   8.270  1.00  0.00     0.006 C 
ENDBRANCH   1  38
BRANCH  18  40
HETATM   40  O5  UNL     1      -9.663  -8.058   9.357  1.00  0.00    -0.386 OA
HETATM   41  H26 UNL     1      -9.162  -7.382   8.870  1.00  0.00     0.210 HD
ENDBRANCH  18  40
BRANCH  30  42
HETATM   42  O8  UNL     1      -6.075  -8.049   7.265  1.00  0.00    -0.385 OA
HETATM   43  H37 UNL     1      -5.780  -7.768   8.151  1.00  0.00     0.211 HD
ENDBRANCH  30  42
BRANCH  24  44
HETATM   44  O6  UNL     1     -11.494  -9.018   4.252  1.00  0.00    -0.359 OA
HETATM   45  H31 UNL     1     -12.256  -9.363   4.768  1.00  0.00     0.217 HD
ENDBRANCH  24  44
TORSDOF 6
ENDMDL
MODEL 9
REMARK minimizedAffinity -8.03366756
REMARK CNNscore 0.237743109
REMARK CNNaffinity 5.15617847
REMARK  6 active torsions:
REMARK  status: ('A' for Active; 'I' for Inactive)
REMARK    1  A    between atoms: C2_2  and  C3_3 
REMARK    2  A    between atoms: C6_6  and  O1_7 
REMARK    3  A    between atoms: C7_8  and  C8_9 
REMARK    4  A    between atoms: C20_25  and  O5_26 
REMARK    5  A    between atoms: C26_32  and  O6_33 
REMARK    6  A    between atoms: C31_39  and  O8_40 
ROOT
HETATM    1  C3  UNL     1       4.097  12.022  22.015  1.00  0.00     0.008 C 
HETATM    2  C4  UNL     1       3.142  12.136  20.839  1.00  0.00    -0.023 C 
HETATM    3  C5  UNL     1       2.999  11.199  19.882  1.00  0.00     0.004 C 
HETATM    4  C6  UNL     1       2.064  11.327  18.711  1.00  0.00     0.174 C 
HETATM    5  C7  UNL     1       2.742  11.963  17.459  1.00  0.00     0.187 C 
HETATM    6  O2  UNL     1       3.712  11.080  16.860  1.00  0.00    -0.308 OA
HETATM    7  C12 UNL     1       4.799  11.695  16.314  1.00  0.00     0.276 C 
HETATM    8  O3  UNL     1       4.983  12.912  16.362  1.00  0.00    -0.264 OA
HETATM    9  C13 UNL     1       5.827  10.718  15.622  1.00  0.00     0.090 C 
HETATM   10  C14 UNL     1       6.127  11.449  14.279  1.00  0.00     0.035 C 
HETATM   11  C15 UNL     1       5.231   9.359  15.315  1.00  0.00     0.003 C 
HETATM   12  C16 UNL     1       5.863   8.342  14.711  1.00  0.00     0.072 C 
HETATM   13  C17 UNL     1       7.259   8.344  14.233  1.00  0.00     0.245 C 
HETATM   14  O4  UNL     1       7.567   7.616  13.291  1.00  0.00    -0.268 OA
HETATM   15  N1  UNL     1       8.229   9.040  14.891  1.00  0.00    -0.324 N 
HETATM   16  C18 UNL     1       8.201   9.837  16.023  1.00  0.00     0.052 C 
HETATM   17  C19 UNL     1       7.131  10.547  16.442  1.00  0.00     0.000 C 
HETATM   18  C20 UNL     1       7.139  11.171  17.821  1.00  0.00     0.185 C 
HETATM   19  C21 UNL     1       8.461  11.341  18.536  1.00  0.00     0.001 A 
HETATM   20  C22 UNL     1       9.593  10.674  18.028  1.00  0.00    -0.013 A 
HETATM   21  C23 UNL     1      10.844  10.827  18.656  1.00  0.00     0.020 A 
HETATM   22  C24 UNL     1      11.007  11.661  19.764  1.00  0.00    -0.027 A 
HETATM   23  C25 UNL     1      12.365  11.842  20.380  1.00  0.00     0.051 C 
HETATM   24  C26 UNL     1       9.893  12.354  20.246  1.00  0.00     0.086 A 
HETATM   25  C27 UNL     1       8.614  12.181  19.674  1.00  0.00     0.053 A 
HETATM   26  C28 UNL     1       7.501  12.946  20.330  1.00  0.00     0.163 C 
HETATM   27  O7  UNL     1       7.740  14.091  20.719  1.00  0.00    -0.292 OA
HETATM   28  C29 UNL     1       6.167  12.279  20.564  1.00  0.00     0.084 C 
HETATM   29  C30 UNL     1       5.386  12.839  21.757  1.00  0.00     0.016 C 
HETATM   30  C31 UNL     1       9.512   9.799  16.801  1.00  0.00     0.202 C 
HETATM   31  H24 UNL     1       9.145   8.746  14.559  1.00  0.00     0.169 HD
ENDROOT
BRANCH   5  32
HETATM   32  C8  UNL     1       1.707  12.408  16.437  1.00  0.00     0.010 C 
HETATM   33  C9  UNL     1       0.921  13.503  16.382  1.00  0.00    -0.089 C 
HETATM   34  C10 UNL     1      -0.092  13.654  15.274  1.00  0.00     0.042 C 
HETATM   35  C11 UNL     1       0.949  14.654  17.344  1.00  0.00     0.042 C 
ENDBRANCH   5  32
BRANCH   4  36
HETATM   36  O1  UNL     1       1.547  10.020  18.452  1.00  0.00    -0.389 OA
HETATM   37  H10 UNL     1       0.919  10.115  17.717  1.00  0.00     0.210 HD
ENDBRANCH   4  36
BRANCH   1  38
HETATM   38  C2  UNL     1       3.366  12.478  23.295  1.00  0.00     0.004 C 
HETATM   39  C1  UNL     1       2.859  13.913  23.231  1.00  0.00     0.006 C 
ENDBRANCH   1  38
BRANCH  18  40
HETATM   40  O5  UNL     1       6.311  10.298  18.579  1.00  0.00    -0.386 OA
HETATM   41  H26 UNL     1       6.871   9.574  18.907  1.00  0.00     0.210 HD
ENDBRANCH  18  40
BRANCH  30  42
HETATM   42  O8  UNL     1       9.776   8.459  17.213  1.00  0.00    -0.385 OA
HETATM   43  H37 UNL     1       9.090   7.883  16.828  1.00  0.00     0.211 HD
ENDBRANCH  30  42
BRANCH  24  44
HETATM   44  O6  UNL     1      10.112  13.206  21.304  1.00  0.00    -0.359 OA
HETATM   45  H31 UNL     1       9.362  13.840  21.342  1.00  0.00     0.217 HD
ENDBRANCH  24  44
TORSDOF 6
ENDMDL
