MODEL 1
REMARK minimizedAffinity -7.73565149
REMARK CNNscore 0.366197616
REMARK CNNaffinity 6.12828112
REMARK  6 active torsions:
REMARK  status: ('A' for Active; 'I' for Inactive)
REMARK    1  A    between atoms: C2_2  and  C3_3 
REMARK    2  A    between atoms: C6_6  and  O1_7 
REMARK    3  A    between atoms: C7_8  and  C8_9 
REMARK    4  A    between atoms: C8_9  and  C9_10 
REMARK    5  A    between atoms: C17_20  and  O4_21 
REMARK    6  A    between atoms: C26_33  and  O6_34 
ROOT
HETATM    1  C3  UNL     1      -1.929   9.966  13.958  1.00  0.00     0.008 C 
HETATM    2  C4  UNL     1      -0.965  11.056  14.407  1.00  0.00    -0.023 C 
HETATM    3  C5  UNL     1       0.330  10.887  14.726  1.00  0.00     0.003 C 
HETATM    4  C6  UNL     1       1.256  11.974  15.201  1.00  0.00     0.170 C 
HETATM    5  C7  UNL     1       2.431  11.396  16.028  1.00  0.00     0.164 C 
HETATM    6  O2  UNL     1       3.289  10.617  15.141  1.00  0.00    -0.312 OA
HETATM    7  C12 UNL     1       3.641   9.362  15.558  1.00  0.00     0.276 C 
HETATM    8  O3  UNL     1       3.197   8.817  16.565  1.00  0.00    -0.264 OA
HETATM    9  C13 UNL     1       4.812   8.793  14.693  1.00  0.00     0.095 C 
HETATM   10  C14 UNL     1       5.101   7.347  15.139  1.00  0.00     0.036 C 
HETATM   11  C15 UNL     1       5.959   9.686  15.178  1.00  0.00     0.002 C 
HETATM   12  C16 UNL     1       7.076  10.067  14.551  1.00  0.00     0.053 C 
HETATM   13  C17 UNL     1       7.446   9.507  13.267  1.00  0.00     0.140 C 
HETATM   14  N1  UNL     1       6.810   9.011  12.286  1.00  0.00    -0.333 N 
ATOM     15  H1  UNL     1       7.352   8.612  11.519  1.00  0.00     0.168 HD
HETATM   16  C18 UNL     1       5.439   8.975  12.190  1.00  0.00     0.097 C 
HETATM   17  C19 UNL     1       4.532   8.802  13.175  1.00  0.00     0.045 C 
HETATM   18  C20 UNL     1       3.115   8.459  12.783  1.00  0.00     0.194 C 
HETATM   19  O5  UNL     1       2.261   8.273  13.641  1.00  0.00    -0.287 OA
HETATM   20  C21 UNL     1       2.750   8.237  11.368  1.00  0.00     0.046 A 
HETATM   21  C22 UNL     1       3.695   8.493  10.387  1.00  0.00     0.032 A 
HETATM   22  C23 UNL     1       3.427   8.238   9.029  1.00  0.00     0.026 A 
HETATM   23  C24 UNL     1       2.206   7.684   8.633  1.00  0.00    -0.027 A 
HETATM   24  C25 UNL     1       1.942   7.372   7.186  1.00  0.00     0.051 C 
HETATM   25  C26 UNL     1       1.255   7.410   9.617  1.00  0.00     0.086 A 
HETATM   26  C27 UNL     1       1.500   7.731  10.963  1.00  0.00     0.059 A 
HETATM   27  C28 UNL     1       0.348   7.569  11.869  1.00  0.00     0.163 C 
HETATM   28  O7  UNL     1      -0.043   6.426  12.103  1.00  0.00    -0.292 OA
HETATM   29  C29 UNL     1      -0.409   8.833  12.230  1.00  0.00     0.084 C 
HETATM   30  C30 UNL     1      -1.273   8.650  13.480  1.00  0.00     0.016 C 
HETATM   31  C31 UNL     1       4.995   9.050  10.751  1.00  0.00     0.210 C 
HETATM   32  O8  UNL     1       5.691   9.563   9.883  1.00  0.00    -0.285 OA
ENDROOT
BRANCH   5  33
HETATM   33  C8  UNL     1       3.333  12.478  16.659  1.00  0.00     0.039 C 
BRANCH  33  34
HETATM   34  C9  UNL     1       3.701  12.274  18.141  1.00  0.00    -0.020 C 
HETATM   35  C10 UNL     1       2.665  11.370  18.815  1.00  0.00     0.009 C 
HETATM   36  C11 UNL     1       3.810  13.597  18.903  1.00  0.00     0.009 C 
ENDBRANCH  33  34
ENDBRANCH   5  33
BRANCH   4  37
HETATM   37  O1  UNL     1       1.750  12.688  14.069  1.00  0.00    -0.389 OA
HETATM   38  H10 UNL     1       1.139  12.529  13.332  1.00  0.00     0.210 HD
ENDBRANCH   4  37
BRANCH   1  39
HETATM   39  C2  UNL     1      -2.929   9.725  15.106  1.00  0.00     0.004 C 
HETATM   40  C1  UNL     1      -4.261   9.142  14.662  1.00  0.00     0.006 C 
ENDBRANCH   1  39
BRANCH  13  41
HETATM   41  O4  UNL     1       8.784   9.534  13.162  1.00  0.00    -0.346 OA
HETATM   42  H26 UNL     1       9.007   9.162  12.288  1.00  0.00     0.219 HD
ENDBRANCH  13  41
BRANCH  25  43
HETATM   43  O6  UNL     1       0.073   6.833   9.223  1.00  0.00    -0.359 OA
HETATM   44  H31 UNL     1      -0.282   6.304   9.975  1.00  0.00     0.217 HD
ENDBRANCH  25  43
TORSDOF 6
ENDMDL
MODEL 2
REMARK minimizedAffinity -6.385571
REMARK CNNscore 0.341998041
REMARK CNNaffinity 6.06103897
REMARK  6 active torsions:
REMARK  status: ('A' for Active; 'I' for Inactive)
REMARK    1  A    between atoms: C2_2  and  C3_3 
REMARK    2  A    between atoms: C6_6  and  O1_7 
REMARK    3  A    between atoms: C7_8  and  C8_9 
REMARK    4  A    between atoms: C8_9  and  C9_10 
REMARK    5  A    between atoms: C17_20  and  O4_21 
REMARK    6  A    between atoms: C26_33  and  O6_34 
ROOT
HETATM    1  C3  UNL     1      -9.938   9.971  15.324  1.00  0.00     0.008 C 
HETATM    2  C4  UNL     1     -10.832   9.528  14.174  1.00  0.00    -0.023 C 
HETATM    3  C5  UNL     1     -12.002  10.087  13.818  1.00  0.00     0.003 C 
HETATM    4  C6  UNL     1     -12.888   9.611  12.699  1.00  0.00     0.170 C 
HETATM    5  C7  UNL     1     -14.359  10.040  12.919  1.00  0.00     0.164 C 
HETATM    6  O2  UNL     1     -14.446  11.492  12.793  1.00  0.00    -0.312 OA
HETATM    7  C12 UNL     1     -15.110  12.165  13.782  1.00  0.00     0.276 C 
HETATM    8  O3  UNL     1     -15.534  11.644  14.810  1.00  0.00    -0.264 OA
HETATM    9  C13 UNL     1     -15.417  13.635  13.350  1.00  0.00     0.095 C 
HETATM   10  C14 UNL     1     -16.074  14.374  14.531  1.00  0.00     0.036 C 
HETATM   11  C15 UNL     1     -16.488  13.381  12.283  1.00  0.00     0.002 C 
HETATM   12  C16 UNL     1     -16.826  14.106  11.213  1.00  0.00     0.053 C 
HETATM   13  C17 UNL     1     -16.267  15.424  10.992  1.00  0.00     0.140 C 
HETATM   14  N1  UNL     1     -15.185  16.007  11.311  1.00  0.00    -0.333 N 
ATOM     15  H1  UNL     1     -15.089  16.996  11.078  1.00  0.00     0.168 HD
HETATM   16  C18 UNL     1     -14.134  15.393  11.951  1.00  0.00     0.097 C 
HETATM   17  C19 UNL     1     -14.173  14.428  12.894  1.00  0.00     0.045 C 
HETATM   18  C20 UNL     1     -12.916  14.158  13.686  1.00  0.00     0.194 C 
HETATM   19  O5  UNL     1     -12.908  13.306  14.566  1.00  0.00    -0.287 OA
HETATM   20  C21 UNL     1     -11.705  14.983  13.494  1.00  0.00     0.046 A 
HETATM   21  C22 UNL     1     -11.688  15.915  12.469  1.00  0.00     0.032 A 
HETATM   22  C23 UNL     1     -10.588  16.773  12.279  1.00  0.00     0.026 A 
HETATM   23  C24 UNL     1      -9.491  16.732  13.144  1.00  0.00    -0.027 A 
HETATM   24  C25 UNL     1      -8.339  17.681  12.962  1.00  0.00     0.051 C 
HETATM   25  C26 UNL     1      -9.507  15.805  14.188  1.00  0.00     0.086 A 
HETATM   26  C27 UNL     1     -10.576  14.903  14.332  1.00  0.00     0.059 A 
HETATM   27  C28 UNL     1     -10.383  13.856  15.351  1.00  0.00     0.163 C 
HETATM   28  O7  UNL     1     -10.375  14.198  16.533  1.00  0.00    -0.292 OA
HETATM   29  C29 UNL     1      -9.960  12.490  14.843  1.00  0.00     0.084 C 
HETATM   30  C30 UNL     1     -10.213  11.389  15.876  1.00  0.00     0.016 C 
HETATM   31  C31 UNL     1     -12.820  16.014  11.551  1.00  0.00     0.210 C 
HETATM   32  O8  UNL     1     -12.675  16.596  10.483  1.00  0.00    -0.285 OA
ENDROOT
BRANCH   5  33
HETATM   33  C8  UNL     1     -15.336   9.458  11.875  1.00  0.00     0.039 C 
BRANCH  33  34
HETATM   34  C9  UNL     1     -16.237   8.307  12.359  1.00  0.00    -0.020 C 
HETATM   35  C10 UNL     1     -16.527   8.464  13.854  1.00  0.00     0.009 C 
HETATM   36  C11 UNL     1     -15.622   6.931  12.091  1.00  0.00     0.009 C 
ENDBRANCH  33  34
ENDBRANCH   5  33
BRANCH   4  37
HETATM   37  O1  UNL     1     -12.397  10.133  11.467  1.00  0.00    -0.389 OA
HETATM   38  H10 UNL     1     -11.466  10.375  11.599  1.00  0.00     0.210 HD
ENDBRANCH   4  37
BRANCH   1  39
HETATM   39  C2  UNL     1     -10.028   8.897  16.427  1.00  0.00     0.004 C 
HETATM   40  C1  UNL     1      -9.116   7.700  16.209  1.00  0.00     0.006 C 
ENDBRANCH   1  39
BRANCH  13  41
HETATM   41  O4  UNL     1     -17.157  16.152  10.297  1.00  0.00    -0.346 OA
HETATM   42  H26 UNL     1     -16.755  17.029  10.154  1.00  0.00     0.219 HD
ENDBRANCH  13  41
BRANCH  25  43
HETATM   43  O6  UNL     1      -8.442  15.796  15.053  1.00  0.00    -0.359 OA
HETATM   44  H31 UNL     1      -8.754  15.468  15.929  1.00  0.00     0.217 HD
ENDBRANCH  25  43
TORSDOF 6
ENDMDL
MODEL 3
REMARK minimizedAffinity -6.65988827
REMARK CNNscore 0.332066
REMARK CNNaffinity 5.85425329
REMARK  6 active torsions:
REMARK  status: ('A' for Active; 'I' for Inactive)
REMARK    1  A    between atoms: C2_2  and  C3_3 
REMARK    2  A    between atoms: C6_6  and  O1_7 
REMARK    3  A    between atoms: C7_8  and  C8_9 
REMARK    4  A    between atoms: C8_9  and  C9_10 
REMARK    5  A    between atoms: C17_20  and  O4_21 
REMARK    6  A    between atoms: C26_33  and  O6_34 
ROOT
HETATM    1  C3  UNL     1       7.570  17.803  -1.443  1.00  0.00     0.008 C 
HETATM    2  C4  UNL     1       6.542  18.428  -2.375  1.00  0.00    -0.023 C 
HETATM    3  C5  UNL     1       5.568  17.775  -3.035  1.00  0.00     0.003 C 
HETATM    4  C6  UNL     1       4.583  18.409  -3.980  1.00  0.00     0.170 C 
HETATM    5  C7  UNL     1       4.026  17.378  -4.991  1.00  0.00     0.164 C 
HETATM    6  O2  UNL     1       3.197  16.417  -4.271  1.00  0.00    -0.312 OA
HETATM    7  C12 UNL     1       3.427  15.090  -4.512  1.00  0.00     0.276 C 
HETATM    8  O3  UNL     1       4.348  14.662  -5.203  1.00  0.00    -0.264 OA
HETATM    9  C13 UNL     1       2.265  14.209  -3.951  1.00  0.00     0.095 C 
HETATM   10  C14 UNL     1       2.621  12.725  -4.162  1.00  0.00     0.036 C 
HETATM   11  C15 UNL     1       1.150  14.582  -4.933  1.00  0.00     0.002 C 
HETATM   12  C16 UNL     1      -0.176  14.582  -4.769  1.00  0.00     0.053 C 
HETATM   13  C17 UNL     1      -0.786  14.034  -3.574  1.00  0.00     0.140 C 
HETATM   14  N1  UNL     1      -0.422  13.885  -2.367  1.00  0.00    -0.333 N 
ATOM     15  H1  UNL     1      -1.049  13.382  -1.739  1.00  0.00     0.168 HD
HETATM   16  C18 UNL     1       0.762  14.357  -1.851  1.00  0.00     0.097 C 
HETATM   17  C19 UNL     1       1.966  14.444  -2.454  1.00  0.00     0.045 C 
HETATM   18  C20 UNL     1       3.180  14.672  -1.587  1.00  0.00     0.194 C 
HETATM   19  O5  UNL     1       4.297  14.738  -2.087  1.00  0.00    -0.287 OA
HETATM   20  C21 UNL     1       3.065  14.715  -0.114  1.00  0.00     0.046 A 
HETATM   21  C22 UNL     1       1.803  14.691   0.457  1.00  0.00     0.032 A 
HETATM   22  C23 UNL     1       1.634  14.664   1.855  1.00  0.00     0.026 A 
HETATM   23  C24 UNL     1       2.740  14.625   2.709  1.00  0.00    -0.027 A 
HETATM   24  C25 UNL     1       2.552  14.552   4.198  1.00  0.00     0.051 C 
HETATM   25  C26 UNL     1       4.014  14.635   2.140  1.00  0.00     0.086 A 
HETATM   26  C27 UNL     1       4.179  14.732   0.747  1.00  0.00     0.059 A 
HETATM   27  C28 UNL     1       5.567  14.925   0.289  1.00  0.00     0.163 C 
HETATM   28  O7  UNL     1       6.352  13.987   0.422  1.00  0.00    -0.292 OA
HETATM   29  C29 UNL     1       5.968  16.343  -0.071  1.00  0.00     0.084 C 
HETATM   30  C30 UNL     1       7.233  16.383  -0.932  1.00  0.00     0.016 C 
HETATM   31  C31 UNL     1       0.615  14.707  -0.392  1.00  0.00     0.210 C 
HETATM   32  O8  UNL     1      -0.468  15.003   0.099  1.00  0.00    -0.285 OA
ENDROOT
BRANCH   5  33
HETATM   33  C8  UNL     1       3.119  18.003  -6.073  1.00  0.00     0.039 C 
BRANCH  33  34
HETATM   34  C9  UNL     1       3.451  17.634  -7.531  1.00  0.00    -0.020 C 
HETATM   35  C10 UNL     1       2.418  16.638  -8.066  1.00  0.00     0.009 C 
HETATM   36  C11 UNL     1       4.859  17.051  -7.680  1.00  0.00     0.009 C 
ENDBRANCH  33  34
ENDBRANCH   5  33
BRANCH   4  37
HETATM   37  O1  UNL     1       3.522  18.986  -3.222  1.00  0.00    -0.389 OA
HETATM   38  H10 UNL     1       3.846  19.121  -2.318  1.00  0.00     0.210 HD
ENDBRANCH   4  37
BRANCH   1  39
HETATM   39  C2  UNL     1       8.935  17.848  -2.156  1.00  0.00     0.004 C 
HETATM   40  C1  UNL     1      10.018  17.016  -1.486  1.00  0.00     0.006 C 
ENDBRANCH   1  39
BRANCH  13  41
HETATM   41  O4  UNL     1      -2.011  13.583  -3.891  1.00  0.00    -0.346 OA
HETATM   42  H26 UNL     1      -2.403  13.228  -3.071  1.00  0.00     0.219 HD
ENDBRANCH  13  41
BRANCH  25  43
HETATM   43  O6  UNL     1       5.094  14.561   2.985  1.00  0.00    -0.359 OA
HETATM   44  H31 UNL     1       5.840  14.136   2.500  1.00  0.00     0.217 HD
ENDBRANCH  25  43
TORSDOF 6
ENDMDL
MODEL 4
REMARK minimizedAffinity -7.17489624
REMARK CNNscore 0.242631793
REMARK CNNaffinity 5.96971178
REMARK  6 active torsions:
REMARK  status: ('A' for Active; 'I' for Inactive)
REMARK    1  A    between atoms: C2_2  and  C3_3 
REMARK    2  A    between atoms: C6_6  and  O1_7 
REMARK    3  A    between atoms: C7_8  and  C8_9 
REMARK    4  A    between atoms: C8_9  and  C9_10 
REMARK    5  A    between atoms: C17_20  and  O4_21 
REMARK    6  A    between atoms: C26_33  and  O6_34 
ROOT
HETATM    1  C3  UNL     1      -3.497  12.129  17.384  1.00  0.00     0.008 C 
HETATM    2  C4  UNL     1      -2.664  12.960  16.419  1.00  0.00    -0.023 C 
HETATM    3  C5  UNL     1      -1.440  12.650  15.958  1.00  0.00     0.003 C 
HETATM    4  C6  UNL     1      -0.619  13.504  15.029  1.00  0.00     0.170 C 
HETATM    5  C7  UNL     1       0.892  13.200  15.166  1.00  0.00     0.164 C 
HETATM    6  O2  UNL     1       1.146  11.854  14.662  1.00  0.00    -0.312 OA
HETATM    7  C12 UNL     1       1.887  11.020  15.454  1.00  0.00     0.276 C 
HETATM    8  O3  UNL     1       2.253  11.292  16.594  1.00  0.00    -0.264 OA
HETATM    9  C13 UNL     1       2.360   9.763  14.655  1.00  0.00     0.095 C 
HETATM   10  C14 UNL     1       3.103   8.815  15.615  1.00  0.00     0.036 C 
HETATM   11  C15 UNL     1       3.390  10.411  13.724  1.00  0.00     0.002 C 
HETATM   12  C16 UNL     1       3.804  10.040  12.509  1.00  0.00     0.053 C 
HETATM   13  C17 UNL     1       3.400   8.774  11.931  1.00  0.00     0.140 C 
HETATM   14  N1  UNL     1       2.394   8.010  12.055  1.00  0.00    -0.333 N 
ATOM     15  H1  UNL     1       2.411   7.115  11.565  1.00  0.00     0.168 HD
HETATM   16  C18 UNL     1       1.282   8.309  12.807  1.00  0.00     0.097 C 
HETATM   17  C19 UNL     1       1.213   8.986  13.973  1.00  0.00     0.045 C 
HETATM   18  C20 UNL     1      -0.063   8.892  14.774  1.00  0.00     0.194 C 
HETATM   19  O5  UNL     1      -0.165   9.472  15.848  1.00  0.00    -0.287 OA
HETATM   20  C21 UNL     1      -1.172   8.018  14.338  1.00  0.00     0.046 A 
HETATM   21  C22 UNL     1      -1.085   7.397  13.102  1.00  0.00     0.032 A 
HETATM   22  C23 UNL     1      -2.080   6.503  12.662  1.00  0.00     0.026 A 
HETATM   23  C24 UNL     1      -3.171   6.188  13.477  1.00  0.00    -0.027 A 
HETATM   24  C25 UNL     1      -4.206   5.199  13.020  1.00  0.00     0.051 C 
HETATM   25  C26 UNL     1      -3.257   6.799  14.729  1.00  0.00     0.086 A 
HETATM   26  C27 UNL     1      -2.299   7.743  15.136  1.00  0.00     0.059 A 
HETATM   27  C28 UNL     1      -2.607   8.453  16.392  1.00  0.00     0.163 C 
HETATM   28  O7  UNL     1      -2.570   7.809  17.439  1.00  0.00    -0.292 OA
HETATM   29  C29 UNL     1      -3.187   9.848  16.253  1.00  0.00     0.084 C 
HETATM   30  C30 UNL     1      -3.058  10.655  17.548  1.00  0.00     0.016 C 
HETATM   31  C31 UNL     1       0.046   7.674  12.221  1.00  0.00     0.210 C 
HETATM   32  O8  UNL     1      -0.035   7.385  11.033  1.00  0.00    -0.285 OA
ENDROOT
BRANCH   5  33
HETATM   33  C8  UNL     1       1.791  14.145  14.341  1.00  0.00     0.039 C 
BRANCH  33  34
HETATM   34  C9  UNL     1       2.518  15.250  15.130  1.00  0.00    -0.020 C 
HETATM   35  C10 UNL     1       2.687  14.821  16.591  1.00  0.00     0.009 C 
HETATM   36  C11 UNL     1       1.787  16.593  15.065  1.00  0.00     0.009 C 
ENDBRANCH  33  34
ENDBRANCH   5  33
BRANCH   4  37
HETATM   37  O1  UNL     1      -1.052  13.278  13.690  1.00  0.00    -0.389 OA
HETATM   38  H10 UNL     1      -1.948  12.907  13.729  1.00  0.00     0.210 HD
ENDBRANCH   4  37
BRANCH   1  39
HETATM   39  C2  UNL     1      -3.526  12.872  18.735  1.00  0.00     0.004 C 
HETATM   40  C1  UNL     1      -4.908  12.975  19.362  1.00  0.00     0.006 C 
ENDBRANCH   1  39
BRANCH  13  41
HETATM   41  O4  UNL     1       4.365   8.363  11.092  1.00  0.00    -0.346 OA
HETATM   42  H26 UNL     1       4.067   7.517  10.710  1.00  0.00     0.219 HD
ENDBRANCH  13  41
BRANCH  25  43
HETATM   43  O6  UNL     1      -4.313   6.457  15.538  1.00  0.00    -0.359 OA
HETATM   44  H31 UNL     1      -4.036   6.572  16.478  1.00  0.00     0.217 HD
ENDBRANCH  25  43
TORSDOF 6
ENDMDL
MODEL 5
REMARK minimizedAffinity -7.46908617
REMARK CNNscore 0.241229936
REMARK CNNaffinity 5.76788473
REMARK  6 active torsions:
REMARK  status: ('A' for Active; 'I' for Inactive)
REMARK    1  A    between atoms: C2_2  and  C3_3 
REMARK    2  A    between atoms: C6_6  and  O1_7 
REMARK    3  A    between atoms: C7_8  and  C8_9 
REMARK    4  A    between atoms: C8_9  and  C9_10 
REMARK    5  A    between atoms: C17_20  and  O4_21 
REMARK    6  A    between atoms: C26_33  and  O6_34 
ROOT
HETATM    1  C3  UNL     1       1.108  13.662  16.793  1.00  0.00     0.008 C 
HETATM    2  C4  UNL     1       1.938  14.033  15.572  1.00  0.00    -0.023 C 
HETATM    3  C5  UNL     1       2.627  13.181  14.792  1.00  0.00     0.003 C 
HETATM    4  C6  UNL     1       3.470  13.574  13.610  1.00  0.00     0.170 C 
HETATM    5  C7  UNL     1       4.561  12.516  13.315  1.00  0.00     0.164 C 
HETATM    6  O2  UNL     1       3.914  11.294  12.848  1.00  0.00    -0.312 OA
HETATM    7  C12 UNL     1       4.295  10.121  13.439  1.00  0.00     0.276 C 
HETATM    8  O3  UNL     1       5.055  10.045  14.400  1.00  0.00    -0.264 OA
HETATM    9  C13 UNL     1       3.786   8.891  12.621  1.00  0.00     0.095 C 
HETATM   10  C14 UNL     1       4.156   7.602  13.379  1.00  0.00     0.036 C 
HETATM   11  C15 UNL     1       4.688   9.000  11.386  1.00  0.00     0.002 C 
HETATM   12  C16 UNL     1       4.480   8.595  10.131  1.00  0.00     0.053 C 
HETATM   13  C17 UNL     1       3.327   7.790   9.782  1.00  0.00     0.140 C 
HETATM   14  N1  UNL     1       2.153   7.652  10.247  1.00  0.00    -0.333 N 
ATOM     15  H1  UNL     1       1.558   6.934   9.833  1.00  0.00     0.168 HD
HETATM   16  C18 UNL     1       1.633   8.406  11.271  1.00  0.00     0.097 C 
HETATM   17  C19 UNL     1       2.264   8.897  12.359  1.00  0.00     0.045 C 
HETATM   18  C20 UNL     1       1.419   9.398  13.505  1.00  0.00     0.194 C 
HETATM   19  O5  UNL     1       1.947   9.834  14.521  1.00  0.00    -0.287 OA
HETATM   20  C21 UNL     1      -0.053   9.278  13.474  1.00  0.00     0.046 A 
HETATM   21  C22 UNL     1      -0.661   8.833  12.310  1.00  0.00     0.032 A 
HETATM   22  C23 UNL     1      -2.054   8.636  12.243  1.00  0.00     0.026 A 
HETATM   23  C24 UNL     1      -2.862   8.853  13.362  1.00  0.00    -0.027 A 
HETATM   24  C25 UNL     1      -4.342   8.599  13.296  1.00  0.00     0.051 C 
HETATM   25  C26 UNL     1      -2.255   9.288  14.541  1.00  0.00     0.086 A 
HETATM   26  C27 UNL     1      -0.874   9.549  14.585  1.00  0.00     0.059 A 
HETATM   27  C28 UNL     1      -0.392  10.183  15.826  1.00  0.00     0.163 C 
HETATM   28  O7  UNL     1      -0.404   9.510  16.856  1.00  0.00    -0.292 OA
HETATM   29  C29 UNL     1      -0.163  11.682  15.773  1.00  0.00     0.084 C 
HETATM   30  C30 UNL     1       0.732  12.167  16.916  1.00  0.00     0.016 C 
HETATM   31  C31 UNL     1       0.142   8.570  11.119  1.00  0.00     0.210 C 
HETATM   32  O8  UNL     1      -0.413   8.489  10.030  1.00  0.00    -0.285 OA
ENDROOT
BRANCH   5  33
HETATM   33  C8  UNL     1       5.544  12.936  12.201  1.00  0.00     0.039 C 
BRANCH  33  34
HETATM   34  C9  UNL     1       7.022  12.568  12.427  1.00  0.00    -0.020 C 
HETATM   35  C10 UNL     1       7.918  13.749  12.046  1.00  0.00     0.009 C 
HETATM   36  C11 UNL     1       7.441  11.323  11.642  1.00  0.00     0.009 C 
ENDBRANCH  33  34
ENDBRANCH   5  33
BRANCH   4  37
HETATM   37  O1  UNL     1       2.623  13.744  12.475  1.00  0.00    -0.389 OA
HETATM   38  H10 UNL     1       1.721  13.891  12.800  1.00  0.00     0.210 HD
ENDBRANCH   4  37
BRANCH   1  39
HETATM   39  C2  UNL     1       1.859  14.170  18.040  1.00  0.00     0.004 C 
HETATM   40  C1  UNL     1       2.177  15.657  18.016  1.00  0.00     0.006 C 
ENDBRANCH   1  39
BRANCH  13  41
HETATM   41  O4  UNL     1       3.646   7.026   8.724  1.00  0.00    -0.346 OA
HETATM   42  H26 UNL     1       2.854   6.502   8.504  1.00  0.00     0.219 HD
ENDBRANCH  13  41
BRANCH  25  43
HETATM   43  O6  UNL     1      -3.051   9.464  15.645  1.00  0.00    -0.359 OA
HETATM   44  H31 UNL     1      -2.502   9.322  16.452  1.00  0.00     0.217 HD
ENDBRANCH  25  43
TORSDOF 6
ENDMDL
MODEL 6
REMARK minimizedAffinity -7.83511639
REMARK CNNscore 0.230924696
REMARK CNNaffinity 5.4068923
REMARK  6 active torsions:
REMARK  status: ('A' for Active; 'I' for Inactive)
REMARK    1  A    between atoms: C2_2  and  C3_3 
REMARK    2  A    between atoms: C6_6  and  O1_7 
REMARK    3  A    between atoms: C7_8  and  C8_9 
REMARK    4  A    between atoms: C8_9  and  C9_10 
REMARK    5  A    between atoms: C17_20  and  O4_21 
REMARK    6  A    between atoms: C26_33  and  O6_34 
ROOT
HETATM    1  C3  UNL     1      -7.943  -9.171   4.721  1.00  0.00     0.008 C 
HETATM    2  C4  UNL     1      -9.151  -8.545   5.404  1.00  0.00    -0.023 C 
HETATM    3  C5  UNL     1      -9.777  -9.016   6.496  1.00  0.00     0.003 C 
HETATM    4  C6  UNL     1     -10.992  -8.399   7.135  1.00  0.00     0.170 C 
HETATM    5  C7  UNL     1     -11.798  -9.443   7.945  1.00  0.00     0.164 C 
HETATM    6  O2  UNL     1     -11.007  -9.850   9.102  1.00  0.00    -0.312 OA
HETATM    7  C12 UNL     1     -10.879 -11.193   9.329  1.00  0.00     0.276 C 
HETATM    8  O3  UNL     1     -11.290 -12.066   8.569  1.00  0.00    -0.264 OA
HETATM    9  C13 UNL     1     -10.312 -11.467  10.759  1.00  0.00     0.095 C 
HETATM   10  C14 UNL     1     -10.097 -12.983  10.926  1.00  0.00     0.036 C 
HETATM   11  C15 UNL     1     -11.520 -11.055  11.608  1.00  0.00     0.002 C 
HETATM   12  C16 UNL     1     -11.573 -10.592  12.860  1.00  0.00     0.053 C 
HETATM   13  C17 UNL     1     -10.394 -10.559  13.701  1.00  0.00     0.140 C 
HETATM   14  N1  UNL     1      -9.144 -10.468  13.493  1.00  0.00    -0.333 N 
ATOM     15  H1  UNL     1      -8.520 -10.549  14.296  1.00  0.00     0.168 HD
HETATM   16  C18 UNL     1      -8.578 -10.267  12.257  1.00  0.00     0.097 C 
HETATM   17  C19 UNL     1      -8.985 -10.738  11.059  1.00  0.00     0.045 C 
HETATM   18  C20 UNL     1      -8.017 -10.668   9.902  1.00  0.00     0.194 C 
HETATM   19  O5  UNL     1      -8.334 -11.100   8.801  1.00  0.00    -0.287 OA
HETATM   20  C21 UNL     1      -6.636 -10.178  10.094  1.00  0.00     0.046 A 
HETATM   21  C22 UNL     1      -6.284  -9.640  11.322  1.00  0.00     0.032 A 
HETATM   22  C23 UNL     1      -4.967  -9.217  11.584  1.00  0.00     0.026 A 
HETATM   23  C24 UNL     1      -3.965  -9.359  10.620  1.00  0.00    -0.027 A 
HETATM   24  C25 UNL     1      -2.551  -8.947  10.922  1.00  0.00     0.051 C 
HETATM   25  C26 UNL     1      -4.310  -9.912   9.386  1.00  0.00     0.086 A 
HETATM   26  C27 UNL     1      -5.640 -10.269   9.104  1.00  0.00     0.059 A 
HETATM   27  C28 UNL     1      -5.904 -10.660   7.707  1.00  0.00     0.163 C 
HETATM   28  O7  UNL     1      -5.425 -11.720   7.307  1.00  0.00    -0.292 OA
HETATM   29  C29 UNL     1      -6.530  -9.603   6.817  1.00  0.00     0.084 C 
HETATM   30  C30 UNL     1      -7.163 -10.208   5.562  1.00  0.00     0.016 C 
HETATM   31  C31 UNL     1      -7.289  -9.492  12.372  1.00  0.00     0.210 C 
HETATM   32  O8  UNL     1      -7.063  -8.744  13.315  1.00  0.00    -0.285 OA
ENDROOT
BRANCH   5  33
HETATM   33  C8  UNL     1     -13.129  -8.897   8.505  1.00  0.00     0.039 C 
BRANCH  33  34
HETATM   34  C9  UNL     1     -13.025  -7.659   9.416  1.00  0.00    -0.020 C 
HETATM   35  C10 UNL     1     -13.429  -8.028  10.846  1.00  0.00     0.009 C 
HETATM   36  C11 UNL     1     -13.882  -6.493   8.918  1.00  0.00     0.009 C 
ENDBRANCH  33  34
ENDBRANCH   5  33
BRANCH   4  37
HETATM   37  O1  UNL     1     -10.576  -7.328   7.980  1.00  0.00    -0.389 OA
HETATM   38  H10 UNL     1      -9.692  -7.052   7.691  1.00  0.00     0.210 HD
ENDBRANCH   4  37
BRANCH   1  39
HETATM   39  C2  UNL     1      -8.420  -9.762   3.379  1.00  0.00     0.004 C 
HETATM   40  C1  UNL     1      -7.352  -9.797   2.297  1.00  0.00     0.006 C 
ENDBRANCH   1  39
BRANCH  13  41
HETATM   41  O4  UNL     1     -10.782 -10.672  14.982  1.00  0.00    -0.346 OA
HETATM   42  H26 UNL     1      -9.973 -10.639  15.526  1.00  0.00     0.219 HD
ENDBRANCH  13  41
BRANCH  25  43
HETATM   43  O6  UNL     1      -3.312 -10.081   8.458  1.00  0.00    -0.359 OA
HETATM   44  H31 UNL     1      -3.553 -10.838   7.874  1.00  0.00     0.217 HD
ENDBRANCH  25  43
TORSDOF 6
ENDMDL
MODEL 7
REMARK minimizedAffinity -7.36581421
REMARK CNNscore 0.211722642
REMARK CNNaffinity 6.02843857
REMARK  6 active torsions:
REMARK  status: ('A' for Active; 'I' for Inactive)
REMARK    1  A    between atoms: C2_2  and  C3_3 
REMARK    2  A    between atoms: C6_6  and  O1_7 
REMARK    3  A    between atoms: C7_8  and  C8_9 
REMARK    4  A    between atoms: C8_9  and  C9_10 
REMARK    5  A    between atoms: C17_20  and  O4_21 
REMARK    6  A    between atoms: C26_33  and  O6_34 
ROOT
HETATM    1  C3  UNL     1      -1.318  13.352  17.975  1.00  0.00     0.008 C 
HETATM    2  C4  UNL     1      -0.200  13.737  17.017  1.00  0.00    -0.023 C 
HETATM    3  C5  UNL     1       0.721  12.907  16.497  1.00  0.00     0.003 C 
HETATM    4  C6  UNL     1       1.840  13.316  15.578  1.00  0.00     0.170 C 
HETATM    5  C7  UNL     1       3.022  12.318  15.644  1.00  0.00     0.164 C 
HETATM    6  O2  UNL     1       2.593  11.046  15.071  1.00  0.00    -0.312 OA
HETATM    7  C12 UNL     1       2.852   9.916  15.796  1.00  0.00     0.276 C 
HETATM    8  O3  UNL     1       3.317   9.914  16.933  1.00  0.00    -0.264 OA
HETATM    9  C13 UNL     1       2.655   8.634  14.925  1.00  0.00     0.095 C 
HETATM   10  C14 UNL     1       2.864   7.393  15.812  1.00  0.00     0.036 C 
HETATM   11  C15 UNL     1       3.859   8.763  13.985  1.00  0.00     0.002 C 
HETATM   12  C16 UNL     1       4.031   8.309  12.740  1.00  0.00     0.053 C 
HETATM   13  C17 UNL     1       3.063   7.426  12.121  1.00  0.00     0.140 C 
HETATM   14  N1  UNL     1       1.814   7.230  12.249  1.00  0.00    -0.333 N 
ATOM     15  H1  UNL     1       1.395   6.466  11.719  1.00  0.00     0.168 HD
HETATM   16  C18 UNL     1       0.992   7.981  13.055  1.00  0.00     0.097 C 
HETATM   17  C19 UNL     1       1.269   8.540  14.251  1.00  0.00     0.045 C 
HETATM   18  C20 UNL     1       0.113   9.022  15.095  1.00  0.00     0.194 C 
HETATM   19  O5  UNL     1       0.314   9.518  16.197  1.00  0.00    -0.287 OA
HETATM   20  C21 UNL     1      -1.284   8.811  14.663  1.00  0.00     0.046 A 
HETATM   21  C22 UNL     1      -1.520   8.297  13.398  1.00  0.00     0.032 A 
HETATM   22  C23 UNL     1      -2.827   8.014  12.955  1.00  0.00     0.026 A 
HETATM   23  C24 UNL     1      -3.925   8.213  13.797  1.00  0.00    -0.027 A 
HETATM   24  C25 UNL     1      -5.313   7.868  13.334  1.00  0.00     0.051 C 
HETATM   25  C26 UNL     1      -3.693   8.718  15.077  1.00  0.00     0.086 A 
HETATM   26  C27 UNL     1      -2.395   9.064  15.490  1.00  0.00     0.059 A 
HETATM   27  C28 UNL     1      -2.311   9.761  16.786  1.00  0.00     0.163 C 
HETATM   28  O7  UNL     1      -2.576   9.119  17.802  1.00  0.00    -0.292 OA
HETATM   29  C29 UNL     1      -2.152  11.269  16.732  1.00  0.00     0.084 C 
HETATM   30  C30 UNL     1      -1.638  11.841  18.056  1.00  0.00     0.016 C 
HETATM   31  C31 UNL     1      -0.404   8.049  12.488  1.00  0.00     0.210 C 
HETATM   32  O8  UNL     1      -0.628   7.903  11.292  1.00  0.00    -0.285 OA
ENDROOT
BRANCH   5  33
HETATM   33  C8  UNL     1       4.254  12.765  14.828  1.00  0.00     0.039 C 
BRANCH  33  34
HETATM   34  C9  UNL     1       4.295  12.308  13.358  1.00  0.00    -0.020 C 
HETATM   35  C10 UNL     1       5.645  11.653  13.053  1.00  0.00     0.009 C 
HETATM   36  C11 UNL     1       4.044  13.459  12.381  1.00  0.00     0.009 C 
ENDBRANCH  33  34
ENDBRANCH   5  33
BRANCH   4  37
HETATM   37  O1  UNL     1       1.336  13.401  14.246  1.00  0.00    -0.389 OA
HETATM   38  H10 UNL     1       0.373  13.502  14.302  1.00  0.00     0.210 HD
ENDBRANCH   4  37
BRANCH   1  39
HETATM   39  C2  UNL     1      -0.971  13.939  19.358  1.00  0.00     0.004 C 
HETATM   40  C1  UNL     1      -2.018  14.896  19.910  1.00  0.00     0.006 C 
ENDBRANCH   1  39
BRANCH  13  41
HETATM   41  O4  UNL     1       3.703   6.653  11.229  1.00  0.00    -0.346 OA
HETATM   42  H26 UNL     1       3.030   6.075  10.821  1.00  0.00     0.219 HD
ENDBRANCH  13  41
BRANCH  25  43
HETATM   43  O6  UNL     1      -4.775   8.877  15.908  1.00  0.00    -0.359 OA
HETATM   44  H31 UNL     1      -4.466   8.792  16.841  1.00  0.00     0.217 HD
ENDBRANCH  25  43
TORSDOF 6
ENDMDL
MODEL 8
REMARK minimizedAffinity -6.63055134
REMARK CNNscore 0.199010268
REMARK CNNaffinity 5.01992416
REMARK  6 active torsions:
REMARK  status: ('A' for Active; 'I' for Inactive)
REMARK    1  A    between atoms: C2_2  and  C3_3 
REMARK    2  A    between atoms: C6_6  and  O1_7 
REMARK    3  A    between atoms: C7_8  and  C8_9 
REMARK    4  A    between atoms: C8_9  and  C9_10 
REMARK    5  A    between atoms: C17_20  and  O4_21 
REMARK    6  A    between atoms: C26_33  and  O6_34 
ROOT
HETATM    1  C3  UNL     1     -20.912  -0.232  11.457  1.00  0.00     0.008 C 
HETATM    2  C4  UNL     1     -19.565   0.440  11.686  1.00  0.00    -0.023 C 
HETATM    3  C5  UNL     1     -18.530  -0.072  12.374  1.00  0.00     0.003 C 
HETATM    4  C6  UNL     1     -17.218   0.625  12.616  1.00  0.00     0.170 C 
HETATM    5  C7  UNL     1     -16.511   0.078  13.880  1.00  0.00     0.164 C 
HETATM    6  O2  UNL     1     -16.093  -1.297  13.623  1.00  0.00    -0.312 OA
HETATM    7  C12 UNL     1     -16.411  -2.232  14.570  1.00  0.00     0.276 C 
HETATM    8  O3  UNL     1     -17.112  -2.011  15.554  1.00  0.00    -0.264 OA
HETATM    9  C13 UNL     1     -15.620  -3.559  14.333  1.00  0.00     0.095 C 
HETATM   10  C14 UNL     1     -16.086  -4.606  15.363  1.00  0.00     0.036 C 
HETATM   11  C15 UNL     1     -14.209  -3.099  14.717  1.00  0.00     0.002 C 
HETATM   12  C16 UNL     1     -13.018  -3.547  14.310  1.00  0.00     0.053 C 
HETATM   13  C17 UNL     1     -12.902  -4.735  13.489  1.00  0.00     0.140 C 
HETATM   14  N1  UNL     1     -13.650  -5.322  12.647  1.00  0.00    -0.333 N 
ATOM     15  H1  UNL     1     -13.331  -6.213  12.266  1.00  0.00     0.168 HD
HETATM   16  C18 UNL     1     -14.861  -4.836  12.216  1.00  0.00     0.097 C 
HETATM   17  C19 UNL     1     -15.786  -4.145  12.914  1.00  0.00     0.045 C 
HETATM   18  C20 UNL     1     -17.172  -4.019  12.328  1.00  0.00     0.194 C 
HETATM   19  O5  UNL     1     -18.050  -3.417  12.934  1.00  0.00    -0.287 OA
HETATM   20  C21 UNL     1     -17.529  -4.703  11.068  1.00  0.00     0.046 A 
HETATM   21  C22 UNL     1     -16.531  -5.343  10.351  1.00  0.00     0.032 A 
HETATM   22  C23 UNL     1     -16.822  -6.067   9.178  1.00  0.00     0.026 A 
HETATM   23  C24 UNL     1     -18.138  -6.188   8.721  1.00  0.00    -0.027 A 
HETATM   24  C25 UNL     1     -18.448  -6.999   7.494  1.00  0.00     0.051 C 
HETATM   25  C26 UNL     1     -19.150  -5.558   9.447  1.00  0.00     0.086 A 
HETATM   26  C27 UNL     1     -18.846  -4.779  10.577  1.00  0.00     0.059 A 
HETATM   27  C28 UNL     1     -19.976  -4.015  11.138  1.00  0.00     0.163 C 
HETATM   28  O7  UNL     1     -20.880  -4.645  11.684  1.00  0.00    -0.292 OA
HETATM   29  C29 UNL     1     -20.045  -2.545  10.768  1.00  0.00     0.084 C 
HETATM   30  C30 UNL     1     -20.951  -1.756  11.717  1.00  0.00     0.016 C 
HETATM   31  C31 UNL     1     -15.143  -5.266  10.798  1.00  0.00     0.210 C 
HETATM   32  O8  UNL     1     -14.245  -5.550  10.015  1.00  0.00    -0.285 OA
ENDROOT
BRANCH   5  33
HETATM   33  C8  UNL     1     -15.230   0.854  14.256  1.00  0.00     0.039 C 
BRANCH  33  34
HETATM   34  C9  UNL     1     -15.367   1.870  15.405  1.00  0.00    -0.020 C 
HETATM   35  C10 UNL     1     -16.511   1.455  16.335  1.00  0.00     0.009 C 
HETATM   36  C11 UNL     1     -15.599   3.296  14.900  1.00  0.00     0.009 C 
ENDBRANCH  33  34
ENDBRANCH   5  33
BRANCH   4  37
HETATM   37  O1  UNL     1     -16.387   0.458  11.470  1.00  0.00    -0.389 OA
HETATM   38  H10 UNL     1     -16.962   0.240  10.719  1.00  0.00     0.210 HD
ENDBRANCH   4  37
BRANCH   1  39
HETATM   39  C2  UNL     1     -21.959   0.521  12.303  1.00  0.00     0.004 C 
HETATM   40  C1  UNL     1     -21.591   1.964  12.613  1.00  0.00     0.006 C 
ENDBRANCH   1  39
BRANCH  13  41
HETATM   41  O4  UNL     1     -11.713  -5.309  13.737  1.00  0.00    -0.346 OA
HETATM   42  H26 UNL     1     -11.656  -6.099  13.168  1.00  0.00     0.219 HD
ENDBRANCH  13  41
BRANCH  25  43
HETATM   43  O6  UNL     1     -20.443  -5.712   9.011  1.00  0.00    -0.359 OA
HETATM   44  H31 UNL     1     -21.045  -5.634   9.788  1.00  0.00     0.217 HD
ENDBRANCH  25  43
TORSDOF 6
ENDMDL
MODEL 9
REMARK minimizedAffinity -7.27204037
REMARK CNNscore 0.195348784
REMARK CNNaffinity 5.50675058
REMARK  6 active torsions:
REMARK  status: ('A' for Active; 'I' for Inactive)
REMARK    1  A    between atoms: C2_2  and  C3_3 
REMARK    2  A    between atoms: C6_6  and  O1_7 
REMARK    3  A    between atoms: C7_8  and  C8_9 
REMARK    4  A    between atoms: C8_9  and  C9_10 
REMARK    5  A    between atoms: C17_20  and  O4_21 
REMARK    6  A    between atoms: C26_33  and  O6_34 
ROOT
HETATM    1  C3  UNL     1     -19.522   9.041  11.653  1.00  0.00     0.008 C 
HETATM    2  C4  UNL     1     -18.033   8.728  11.608  1.00  0.00    -0.023 C 
HETATM    3  C5  UNL     1     -17.399   7.783  12.324  1.00  0.00     0.003 C 
HETATM    4  C6  UNL     1     -15.919   7.514  12.289  1.00  0.00     0.170 C 
HETATM    5  C7  UNL     1     -15.436   6.835  13.594  1.00  0.00     0.164 C 
HETATM    6  O2  UNL     1     -15.999   5.490  13.658  1.00  0.00    -0.312 OA
HETATM    7  C12 UNL     1     -16.605   5.122  14.828  1.00  0.00     0.276 C 
HETATM    8  O3  UNL     1     -16.800   5.880  15.774  1.00  0.00    -0.264 OA
HETATM    9  C13 UNL     1     -16.848   3.579  14.872  1.00  0.00     0.095 C 
HETATM   10  C14 UNL     1     -17.617   3.233  16.160  1.00  0.00     0.036 C 
HETATM   11  C15 UNL     1     -15.404   3.087  15.025  1.00  0.00     0.002 C 
HETATM   12  C16 UNL     1     -14.846   1.931  14.656  1.00  0.00     0.053 C 
HETATM   13  C17 UNL     1     -15.649   0.836  14.150  1.00  0.00     0.140 C 
HETATM   14  N1  UNL     1     -16.757   0.742  13.537  1.00  0.00    -0.333 N 
ATOM     15  H1  UNL     1     -17.131  -0.192  13.368  1.00  0.00     0.168 HD
HETATM   16  C18 UNL     1     -17.487   1.817  13.089  1.00  0.00     0.097 C 
HETATM   17  C19 UNL     1     -17.632   3.032  13.659  1.00  0.00     0.045 C 
HETATM   18  C20 UNL     1     -18.746   3.922  13.162  1.00  0.00     0.194 C 
HETATM   19  O5  UNL     1     -18.929   5.025  13.663  1.00  0.00    -0.287 OA
HETATM   20  C21 UNL     1     -19.702   3.445  12.142  1.00  0.00     0.046 A 
HETATM   21  C22 UNL     1     -19.475   2.220  11.535  1.00  0.00     0.032 A 
HETATM   22  C23 UNL     1     -20.385   1.685  10.604  1.00  0.00     0.026 A 
HETATM   23  C24 UNL     1     -21.567   2.361  10.290  1.00  0.00    -0.027 A 
HETATM   24  C25 UNL     1     -22.556   1.764   9.329  1.00  0.00     0.051 C 
HETATM   25  C26 UNL     1     -21.810   3.589  10.908  1.00  0.00     0.086 A 
HETATM   26  C27 UNL     1     -20.866   4.152  11.783  1.00  0.00     0.059 A 
HETATM   27  C28 UNL     1     -21.153   5.532  12.217  1.00  0.00     0.163 C 
HETATM   28  O7  UNL     1     -22.111   5.710  12.968  1.00  0.00    -0.292 OA
HETATM   29  C29 UNL     1     -20.399   6.636  11.500  1.00  0.00     0.084 C 
HETATM   30  C30 UNL     1     -20.416   7.949  12.286  1.00  0.00     0.016 C 
HETATM   31  C31 UNL     1     -18.265   1.462  11.847  1.00  0.00     0.210 C 
HETATM   32  O8  UNL     1     -17.914   0.560  11.096  1.00  0.00    -0.285 OA
ENDROOT
BRANCH   5  33
HETATM   33  C8  UNL     1     -13.903   6.664  13.671  1.00  0.00     0.039 C 
BRANCH  33  34
HETATM   34  C9  UNL     1     -13.063   7.859  13.182  1.00  0.00    -0.020 C 
HETATM   35  C10 UNL     1     -11.641   7.397  12.854  1.00  0.00     0.009 C 
HETATM   36  C11 UNL     1     -13.017   8.997  14.204  1.00  0.00     0.009 C 
ENDBRANCH  33  34
ENDBRANCH   5  33
BRANCH   4  37
HETATM   37  O1  UNL     1     -15.626   6.690  11.163  1.00  0.00    -0.389 OA
HETATM   38  H10 UNL     1     -16.360   6.780  10.534  1.00  0.00     0.210 HD
ENDBRANCH   4  37
BRANCH   1  39
HETATM   39  C2  UNL     1     -19.692  10.401  12.359  1.00  0.00     0.004 C 
HETATM   40  C1  UNL     1     -20.016  11.555  11.422  1.00  0.00     0.006 C 
ENDBRANCH   1  39
BRANCH  13  41
HETATM   41  O4  UNL     1     -15.028  -0.318  14.446  1.00  0.00    -0.346 OA
HETATM   42  H26 UNL     1     -15.582  -1.037  14.088  1.00  0.00     0.219 HD
ENDBRANCH  13  41
BRANCH  25  43
HETATM   43  O6  UNL     1     -22.990   4.230  10.619  1.00  0.00    -0.359 OA
HETATM   44  H31 UNL     1     -23.239   4.786  11.394  1.00  0.00     0.217 HD
ENDBRANCH  25  43
TORSDOF 6
ENDMDL
