MODEL 1
REMARK minimizedAffinity -8.5768528
REMARK  10 active torsions:
REMARK  status: ('A' for Active; 'I' for Inactive)
REMARK    1  A    between atoms: C12_14  and  C13_15 
REMARK    2  A    between atoms: C13_15  and  C15_17 
REMARK    3  A    between atoms: C15_17  and  C16_18 
REMARK    4  A    between atoms: C16_18  and  C17_19 
REMARK    5  A    between atoms: C18_20  and  C20_22 
REMARK    6  A    between atoms: C20_22  and  O3_23 
REMARK    7  A    between atoms: C26_29  and  C27_30 
REMARK    8  A    between atoms: C27_30  and  C28_31 
REMARK    9  A    between atoms: C28_31  and  C29_32 
REMARK   10  A    between atoms: C29_32  and  O5_34 
ROOT
HETATM    1  C1  UNL     1       4.191   8.598   9.581  1.00  0.00     0.025 C 
HETATM    2  C2  UNL     1       4.013   8.342  10.882  1.00  0.00     0.015 C 
HETATM    3  C3  UNL     1       4.617   9.218  11.917  1.00  0.00     0.289 C 
HETATM    4  O1  UNL     1       5.488  10.049  11.747  1.00  0.00    -0.260 OA
HETATM    5  O2  UNL     1       4.041   8.895  13.111  1.00  0.00    -0.311 OA
HETATM    6  C4  UNL     1       2.930   8.004  12.891  1.00  0.00     0.142 C 
HETATM    7  C5  UNL     1       1.648   8.825  12.862  1.00  0.00     0.039 C 
HETATM    8  C6  UNL     1       0.373   8.042  12.512  1.00  0.00     0.006 C 
HETATM    9  C7  UNL     1       0.569   6.986  11.384  1.00  0.00    -0.027 A 
HETATM   10  C8  UNL     1      -0.679   6.108  11.114  1.00  0.00     0.011 C 
HETATM   11  C9  UNL     1      -1.500   5.673  12.341  1.00  0.00     0.011 C 
HETATM   12  C10 UNL     1      -1.760   6.852  13.286  1.00  0.00    -0.032 C 
HETATM   13  C11 UNL     1      -2.649   7.892  12.541  1.00  0.00     0.016 C 
HETATM   14  C12 UNL     1      -2.413   6.494  14.658  1.00  0.00    -0.002 C 
HETATM   15  C21 UNL     1      -1.942   7.641  15.589  1.00  0.00     0.006 C 
HETATM   16  C22 UNL     1      -0.775   8.356  14.871  1.00  0.00     0.011 C 
HETATM   17  C23 UNL     1      -0.351   7.401  13.739  1.00  0.00    -0.032 C 
HETATM   18  C24 UNL     1       0.579   6.325  14.386  1.00  0.00     0.016 C 
HETATM   19  C25 UNL     1       1.149   7.470  10.074  1.00  0.00     0.022 A 
HETATM   20  C26 UNL     1       2.029   6.603  10.940  1.00  0.00    -0.021 A 
HETATM   21  C31 UNL     1       3.240   7.278  11.595  1.00  0.00     0.063 C 
ENDROOT
BRANCH  14  22
HETATM   22  C13 UNL     1      -3.933   6.129  14.719  1.00  0.00    -0.014 C 
HETATM   23  C14 UNL     1      -4.679   7.290  15.406  1.00  0.00     0.010 C 
BRANCH  22  24
HETATM   24  C15 UNL     1      -4.595   5.826  13.352  1.00  0.00     0.008 C 
BRANCH  24  25
HETATM   25  C16 UNL     1      -4.568   4.349  12.931  1.00  0.00     0.028 C 
BRANCH  25  26
HETATM   26  C17 UNL     1      -5.906   3.664  12.909  1.00  0.00    -0.022 C 
HETATM   27  C18 UNL     1      -7.119   4.257  12.941  1.00  0.00    -0.064 C 
HETATM   28  C19 UNL     1      -7.342   5.737  13.089  1.00  0.00     0.045 C 
BRANCH  27  29
HETATM   29  C20 UNL     1      -8.384   3.442  12.860  1.00  0.00     0.197 C 
BRANCH  29  30
HETATM   30  O3  UNL     1      -8.041   2.077  12.678  1.00  0.00    -0.397 OA
HETATM   31  H29 UNL     1      -7.392   1.862  13.370  1.00  0.00     0.209 HD
ENDBRANCH  29  30
ENDBRANCH  27  29
ENDBRANCH  25  26
ENDBRANCH  24  25
ENDBRANCH  22  24
ENDBRANCH  14  22
BRANCH  20  32
HETATM   32  C27 UNL     1       2.309   5.145  10.532  1.00  0.00     0.021 C 
BRANCH  32  33
HETATM   33  C28 UNL     1       3.550   4.944   9.658  1.00  0.00     0.112 C 
BRANCH  33  34
HETATM   34  C29 UNL     1       3.298   4.905   8.171  1.00  0.00     0.258 C 
HETATM   35  O4  UNL     1       2.567   5.699   7.588  1.00  0.00    -0.265 OA
BRANCH  34  36
HETATM   36  O5  UNL     1       3.935   3.862   7.577  1.00  0.00    -0.326 OA
HETATM   37  C30 UNL     1       4.832   3.164   8.440  1.00  0.00     0.213 C 
ENDBRANCH  34  36
ENDBRANCH  33  34
ENDBRANCH  32  33
ENDBRANCH  20  32
TORSDOF 10
ENDMDL
MODEL 2
REMARK minimizedAffinity -8.51577473
REMARK  10 active torsions:
REMARK  status: ('A' for Active; 'I' for Inactive)
REMARK    1  A    between atoms: C12_14  and  C13_15 
REMARK    2  A    between atoms: C13_15  and  C15_17 
REMARK    3  A    between atoms: C15_17  and  C16_18 
REMARK    4  A    between atoms: C16_18  and  C17_19 
REMARK    5  A    between atoms: C18_20  and  C20_22 
REMARK    6  A    between atoms: C20_22  and  O3_23 
REMARK    7  A    between atoms: C26_29  and  C27_30 
REMARK    8  A    between atoms: C27_30  and  C28_31 
REMARK    9  A    between atoms: C28_31  and  C29_32 
REMARK   10  A    between atoms: C29_32  and  O5_34 
ROOT
HETATM    1  C1  UNL     1       3.060   5.468   7.983  1.00  0.00     0.025 C 
HETATM    2  C2  UNL     1       2.507   6.631   8.350  1.00  0.00     0.015 C 
HETATM    3  C3  UNL     1       1.774   7.465   7.365  1.00  0.00     0.289 C 
HETATM    4  O1  UNL     1       1.799   7.351   6.154  1.00  0.00    -0.260 OA
HETATM    5  O2  UNL     1       1.089   8.414   8.065  1.00  0.00    -0.311 OA
HETATM    6  C4  UNL     1       1.153   8.121   9.475  1.00  0.00     0.142 C 
HETATM    7  C5  UNL     1      -0.114   7.375   9.873  1.00  0.00     0.039 C 
HETATM    8  C6  UNL     1      -0.153   6.874  11.325  1.00  0.00     0.006 C 
HETATM    9  C7  UNL     1       1.201   6.300  11.833  1.00  0.00    -0.027 A 
HETATM   10  C8  UNL     1       1.203   5.910  13.333  1.00  0.00     0.011 C 
HETATM   11  C9  UNL     1       0.436   6.838  14.291  1.00  0.00     0.011 C 
HETATM   12  C10 UNL     1      -0.950   7.190  13.739  1.00  0.00    -0.032 C 
HETATM   13  C11 UNL     1      -1.795   5.885  13.665  1.00  0.00     0.016 C 
HETATM   14  C12 UNL     1      -1.741   8.281  14.529  1.00  0.00    -0.002 C 
HETATM   15  C21 UNL     1      -2.681   8.888  13.457  1.00  0.00     0.006 C 
HETATM   16  C22 UNL     1      -2.147   8.436  12.078  1.00  0.00     0.011 C 
HETATM   17  C23 UNL     1      -0.726   7.905  12.350  1.00  0.00    -0.032 C 
HETATM   18  C24 UNL     1       0.212   9.152  12.413  1.00  0.00     0.016 C 
HETATM   19  C25 UNL     1       1.837   5.197  11.016  1.00  0.00     0.022 A 
HETATM   20  C26 UNL     1       2.505   6.550  10.987  1.00  0.00    -0.021 A 
HETATM   21  C31 UNL     1       2.434   7.331   9.669  1.00  0.00     0.063 C 
ENDROOT
BRANCH  14  22
HETATM   22  C13 UNL     1      -2.396   7.918  15.902  1.00  0.00    -0.014 C 
HETATM   23  C14 UNL     1      -2.853   9.225  16.580  1.00  0.00     0.010 C 
BRANCH  22  24
HETATM   24  C15 UNL     1      -3.589   6.932  15.826  1.00  0.00     0.008 C 
BRANCH  24  25
HETATM   25  C16 UNL     1      -4.931   7.566  15.428  1.00  0.00     0.028 C 
BRANCH  25  26
HETATM   26  C17 UNL     1      -6.096   6.618  15.373  1.00  0.00    -0.022 C 
HETATM   27  C18 UNL     1      -6.310   5.653  14.453  1.00  0.00    -0.064 C 
HETATM   28  C19 UNL     1      -5.439   5.409  13.252  1.00  0.00     0.045 C 
BRANCH  27  29
HETATM   29  C20 UNL     1      -7.503   4.736  14.553  1.00  0.00     0.197 C 
BRANCH  29  30
HETATM   30  O3  UNL     1      -7.807   4.524  15.923  1.00  0.00    -0.397 OA
HETATM   31  H29 UNL     1      -7.860   5.405  16.332  1.00  0.00     0.209 HD
ENDBRANCH  29  30
ENDBRANCH  27  29
ENDBRANCH  25  26
ENDBRANCH  24  25
ENDBRANCH  22  24
ENDBRANCH  14  22
BRANCH  20  32
HETATM   32  C27 UNL     1       3.831   6.767  11.736  1.00  0.00     0.021 C 
BRANCH  32  33
HETATM   33  C28 UNL     1       5.080   6.275  11.000  1.00  0.00     0.112 C 
BRANCH  33  34
HETATM   34  C29 UNL     1       6.371   6.955  11.383  1.00  0.00     0.258 C 
HETATM   35  O4  UNL     1       7.034   7.635  10.605  1.00  0.00    -0.265 OA
BRANCH  34  36
HETATM   36  O5  UNL     1       6.726   6.681  12.665  1.00  0.00    -0.326 OA
HETATM   37  C30 UNL     1       7.026   7.839  13.443  1.00  0.00     0.213 C 
ENDBRANCH  34  36
ENDBRANCH  33  34
ENDBRANCH  32  33
ENDBRANCH  20  32
TORSDOF 10
ENDMDL
MODEL 3
REMARK minimizedAffinity -8.43894672
REMARK  10 active torsions:
REMARK  status: ('A' for Active; 'I' for Inactive)
REMARK    1  A    between atoms: C12_14  and  C13_15 
REMARK    2  A    between atoms: C13_15  and  C15_17 
REMARK    3  A    between atoms: C15_17  and  C16_18 
REMARK    4  A    between atoms: C16_18  and  C17_19 
REMARK    5  A    between atoms: C18_20  and  C20_22 
REMARK    6  A    between atoms: C20_22  and  O3_23 
REMARK    7  A    between atoms: C26_29  and  C27_30 
REMARK    8  A    between atoms: C27_30  and  C28_31 
REMARK    9  A    between atoms: C28_31  and  C29_32 
REMARK   10  A    between atoms: C29_32  and  O5_34 
ROOT
HETATM    1  C1  UNL     1      -5.557   6.228  15.136  1.00  0.00     0.025 C 
HETATM    2  C2  UNL     1      -4.988   7.076  14.271  1.00  0.00     0.015 C 
HETATM    3  C3  UNL     1      -5.295   8.527  14.319  1.00  0.00     0.289 C 
HETATM    4  O1  UNL     1      -6.215   9.056  14.915  1.00  0.00    -0.260 OA
HETATM    5  O2  UNL     1      -4.376   9.165  13.539  1.00  0.00    -0.311 OA
HETATM    6  C4  UNL     1      -3.342   8.240  13.149  1.00  0.00     0.142 C 
HETATM    7  C5  UNL     1      -2.165   8.398  14.103  1.00  0.00     0.039 C 
HETATM    8  C6  UNL     1      -1.018   7.395  13.906  1.00  0.00     0.006 C 
HETATM    9  C7  UNL     1      -1.493   5.945  13.595  1.00  0.00    -0.027 A 
HETATM   10  C8  UNL     1      -0.344   4.957  13.271  1.00  0.00     0.011 C 
HETATM   11  C9  UNL     1       0.824   5.503  12.432  1.00  0.00     0.011 C 
HETATM   12  C10 UNL     1       1.300   6.864  12.954  1.00  0.00    -0.032 C 
HETATM   13  C11 UNL     1       1.878   6.665  14.386  1.00  0.00     0.016 C 
HETATM   14  C12 UNL     1       2.348   7.606  12.065  1.00  0.00    -0.002 C 
HETATM   15  C21 UNL     1       2.124   9.098  12.418  1.00  0.00     0.006 C 
HETATM   16  C22 UNL     1       0.764   9.192  13.148  1.00  0.00     0.011 C 
HETATM   17  C23 UNL     1       0.066   7.845  12.876  1.00  0.00    -0.032 C 
HETATM   18  C24 UNL     1      -0.578   7.955  11.457  1.00  0.00     0.016 C 
HETATM   19  C25 UNL     1      -2.459   5.308  14.569  1.00  0.00     0.022 A 
HETATM   20  C26 UNL     1      -3.001   5.697  13.216  1.00  0.00    -0.021 A 
HETATM   21  C31 UNL     1      -3.991   6.868  13.176  1.00  0.00     0.063 C 
ENDROOT
BRANCH  14  22
HETATM   22  C13 UNL     1       3.832   7.111  12.044  1.00  0.00    -0.014 C 
HETATM   23  C14 UNL     1       4.118   6.503  10.656  1.00  0.00     0.010 C 
BRANCH  22  24
HETATM   24  C15 UNL     1       4.894   8.193  12.362  1.00  0.00     0.008 C 
BRANCH  24  25
HETATM   25  C16 UNL     1       6.248   7.651  12.845  1.00  0.00     0.028 C 
BRANCH  25  26
HETATM   26  C17 UNL     1       6.591   7.965  14.275  1.00  0.00    -0.022 C 
HETATM   27  C18 UNL     1       7.828   8.083  14.803  1.00  0.00    -0.064 C 
HETATM   28  C19 UNL     1       9.105   7.836  14.049  1.00  0.00     0.045 C 
BRANCH  27  29
HETATM   29  C20 UNL     1       8.021   8.455  16.250  1.00  0.00     0.197 C 
BRANCH  29  30
HETATM   30  O3  UNL     1       8.979   7.580  16.827  1.00  0.00    -0.397 OA
HETATM   31  H29 UNL     1       9.751   7.590  16.235  1.00  0.00     0.209 HD
ENDBRANCH  29  30
ENDBRANCH  27  29
ENDBRANCH  25  26
ENDBRANCH  24  25
ENDBRANCH  22  24
ENDBRANCH  14  22
BRANCH  20  32
HETATM   32  C27 UNL     1      -3.323   4.610  12.176  1.00  0.00     0.021 C 
BRANCH  32  33
HETATM   33  C28 UNL     1      -4.298   3.529  12.650  1.00  0.00     0.112 C 
BRANCH  33  34
HETATM   34  C29 UNL     1      -5.652   3.537  11.984  1.00  0.00     0.258 C 
HETATM   35  O4  UNL     1      -6.609   4.180  12.405  1.00  0.00    -0.265 OA
BRANCH  34  36
HETATM   36  O5  UNL     1      -5.690   2.714  10.904  1.00  0.00    -0.326 OA
HETATM   37  C30 UNL     1      -6.044   1.367  11.216  1.00  0.00     0.213 C 
ENDBRANCH  34  36
ENDBRANCH  33  34
ENDBRANCH  32  33
ENDBRANCH  20  32
TORSDOF 10
ENDMDL
MODEL 4
REMARK minimizedAffinity -8.42286682
REMARK  10 active torsions:
REMARK  status: ('A' for Active; 'I' for Inactive)
REMARK    1  A    between atoms: C12_14  and  C13_15 
REMARK    2  A    between atoms: C13_15  and  C15_17 
REMARK    3  A    between atoms: C15_17  and  C16_18 
REMARK    4  A    between atoms: C16_18  and  C17_19 
REMARK    5  A    between atoms: C18_20  and  C20_22 
REMARK    6  A    between atoms: C20_22  and  O3_23 
REMARK    7  A    between atoms: C26_29  and  C27_30 
REMARK    8  A    between atoms: C27_30  and  C28_31 
REMARK    9  A    between atoms: C28_31  and  C29_32 
REMARK   10  A    between atoms: C29_32  and  O5_34 
ROOT
HETATM    1  C1  UNL     1      -6.974   5.892  12.987  1.00  0.00     0.025 C 
HETATM    2  C2  UNL     1      -5.915   5.107  13.218  1.00  0.00     0.015 C 
HETATM    3  C3  UNL     1      -5.886   3.708  12.723  1.00  0.00     0.289 C 
HETATM    4  O1  UNL     1      -6.832   3.062  12.313  1.00  0.00    -0.260 OA
HETATM    5  O2  UNL     1      -4.604   3.259  12.845  1.00  0.00    -0.311 OA
HETATM    6  C4  UNL     1      -3.734   4.355  13.190  1.00  0.00     0.142 C 
HETATM    7  C5  UNL     1      -3.087   4.881  11.916  1.00  0.00     0.039 C 
HETATM    8  C6  UNL     1      -2.220   6.137  12.088  1.00  0.00     0.006 C 
HETATM    9  C7  UNL     1      -2.817   7.188  13.070  1.00  0.00    -0.027 A 
HETATM   10  C8  UNL     1      -1.890   8.398  13.344  1.00  0.00     0.011 C 
HETATM   11  C9  UNL     1      -0.385   8.105  13.469  1.00  0.00     0.011 C 
HETATM   12  C10 UNL     1       0.103   7.189  12.340  1.00  0.00    -0.032 C 
HETATM   13  C11 UNL     1      -0.059   7.947  10.990  1.00  0.00     0.016 C 
HETATM   14  C12 UNL     1       1.567   6.664  12.473  1.00  0.00    -0.002 C 
HETATM   15  C21 UNL     1       1.545   5.337  11.671  1.00  0.00     0.006 C 
HETATM   16  C22 UNL     1       0.061   4.961  11.459  1.00  0.00     0.011 C 
HETATM   17  C23 UNL     1      -0.726   5.849  12.442  1.00  0.00    -0.032 C 
HETATM   18  C24 UNL     1      -0.647   5.150  13.837  1.00  0.00     0.016 C 
HETATM   19  C25 UNL     1      -4.224   7.671  12.796  1.00  0.00     0.022 A 
HETATM   20  C26 UNL     1      -4.023   6.775  13.993  1.00  0.00    -0.021 A 
HETATM   21  C31 UNL     1      -4.613   5.362  13.909  1.00  0.00     0.063 C 
ENDROOT
BRANCH  14  22
HETATM   22  C13 UNL     1       2.764   7.629  12.186  1.00  0.00    -0.014 C 
HETATM   23  C14 UNL     1       3.131   8.345  13.501  1.00  0.00     0.010 C 
BRANCH  22  24
HETATM   24  C15 UNL     1       4.027   6.959  11.592  1.00  0.00     0.008 C 
BRANCH  24  25
HETATM   25  C16 UNL     1       4.549   7.593  10.293  1.00  0.00     0.028 C 
BRANCH  25  26
HETATM   26  C17 UNL     1       3.487   8.053   9.334  1.00  0.00    -0.022 C 
HETATM   27  C18 UNL     1       2.754   7.277   8.505  1.00  0.00    -0.064 C 
HETATM   28  C19 UNL     1       2.937   5.794   8.339  1.00  0.00     0.045 C 
BRANCH  27  29
HETATM   29  C20 UNL     1       1.681   7.874   7.631  1.00  0.00     0.197 C 
BRANCH  29  30
HETATM   30  O3  UNL     1       1.595   7.122   6.430  1.00  0.00    -0.397 OA
HETATM   31  H29 UNL     1       1.516   6.189   6.696  1.00  0.00     0.209 HD
ENDBRANCH  29  30
ENDBRANCH  27  29
ENDBRANCH  25  26
ENDBRANCH  24  25
ENDBRANCH  22  24
ENDBRANCH  14  22
BRANCH  20  32
HETATM   32  C27 UNL     1      -4.091   7.364  15.413  1.00  0.00     0.021 C 
BRANCH  32  33
HETATM   33  C28 UNL     1      -5.026   8.565  15.572  1.00  0.00     0.112 C 
BRANCH  33  34
HETATM   34  C29 UNL     1      -6.499   8.241  15.610  1.00  0.00     0.258 C 
HETATM   35  O4  UNL     1      -7.352   8.904  15.026  1.00  0.00    -0.265 OA
BRANCH  34  36
HETATM   36  O5  UNL     1      -6.762   7.170  16.402  1.00  0.00    -0.326 OA
HETATM   37  C30 UNL     1      -8.123   6.740  16.361  1.00  0.00     0.213 C 
ENDBRANCH  34  36
ENDBRANCH  33  34
ENDBRANCH  32  33
ENDBRANCH  20  32
TORSDOF 10
ENDMDL
MODEL 5
REMARK minimizedAffinity -8.40499115
REMARK  10 active torsions:
REMARK  status: ('A' for Active; 'I' for Inactive)
REMARK    1  A    between atoms: C12_14  and  C13_15 
REMARK    2  A    between atoms: C13_15  and  C15_17 
REMARK    3  A    between atoms: C15_17  and  C16_18 
REMARK    4  A    between atoms: C16_18  and  C17_19 
REMARK    5  A    between atoms: C18_20  and  C20_22 
REMARK    6  A    between atoms: C20_22  and  O3_23 
REMARK    7  A    between atoms: C26_29  and  C27_30 
REMARK    8  A    between atoms: C27_30  and  C28_31 
REMARK    9  A    between atoms: C28_31  and  C29_32 
REMARK   10  A    between atoms: C29_32  and  O5_34 
ROOT
HETATM    1  C1  UNL     1       2.737   5.820   9.360  1.00  0.00     0.025 C 
HETATM    2  C2  UNL     1       2.789   6.151  10.656  1.00  0.00     0.015 C 
HETATM    3  C3  UNL     1       3.832   7.080  11.160  1.00  0.00     0.289 C 
HETATM    4  O1  UNL     1       4.842   7.423  10.577  1.00  0.00    -0.260 OA
HETATM    5  O2  UNL     1       3.470   7.453  12.421  1.00  0.00    -0.311 OA
HETATM    6  C4  UNL     1       2.132   6.995  12.700  1.00  0.00     0.142 C 
HETATM    7  C5  UNL     1       1.162   8.138  12.431  1.00  0.00     0.039 C 
HETATM    8  C6  UNL     1      -0.327   7.782  12.559  1.00  0.00     0.006 C 
HETATM    9  C7  UNL     1      -0.695   6.384  11.981  1.00  0.00    -0.027 A 
HETATM   10  C8  UNL     1      -2.168   5.967  12.221  1.00  0.00     0.011 C 
HETATM   11  C9  UNL     1      -2.783   6.343  13.580  1.00  0.00     0.011 C 
HETATM   12  C10 UNL     1      -2.480   7.800  13.947  1.00  0.00    -0.032 C 
HETATM   13  C11 UNL     1      -3.180   8.724  12.908  1.00  0.00     0.016 C 
HETATM   14  C12 UNL     1      -2.884   8.237  15.391  1.00  0.00    -0.002 C 
HETATM   15  C21 UNL     1      -1.912   9.406  15.696  1.00  0.00     0.006 C 
HETATM   16  C22 UNL     1      -0.781   9.340  14.644  1.00  0.00     0.011 C 
HETATM   17  C23 UNL     1      -0.909   7.947  13.999  1.00  0.00    -0.032 C 
HETATM   18  C24 UNL     1      -0.203   6.942  14.964  1.00  0.00     0.016 C 
HETATM   19  C25 UNL     1      -0.309   6.104  10.546  1.00  0.00     0.022 A 
HETATM   20  C26 UNL     1       0.459   5.376  11.621  1.00  0.00    -0.021 A 
HETATM   21  C31 UNL     1       1.926   5.777  11.819  1.00  0.00     0.063 C 
ENDROOT
BRANCH  14  22
HETATM   22  C13 UNL     1      -4.392   8.481  15.731  1.00  0.00    -0.014 C 
HETATM   23  C14 UNL     1      -4.659   9.998  15.676  1.00  0.00     0.010 C 
BRANCH  22  24
HETATM   24  C15 UNL     1      -5.403   7.744  14.818  1.00  0.00     0.008 C 
BRANCH  24  25
HETATM   25  C16 UNL     1      -6.576   7.077  15.553  1.00  0.00     0.028 C 
BRANCH  25  26
HETATM   26  C17 UNL     1      -6.784   5.622  15.238  1.00  0.00    -0.022 C 
HETATM   27  C18 UNL     1      -7.356   5.109  14.128  1.00  0.00    -0.064 C 
HETATM   28  C19 UNL     1      -7.968   5.928  13.025  1.00  0.00     0.045 C 
BRANCH  27  29
HETATM   29  C20 UNL     1      -7.452   3.619  13.922  1.00  0.00     0.197 C 
BRANCH  29  30
HETATM   30  O3  UNL     1      -8.648   3.328  13.215  1.00  0.00    -0.397 OA
HETATM   31  H29 UNL     1      -8.652   3.908  12.433  1.00  0.00     0.209 HD
ENDBRANCH  29  30
ENDBRANCH  27  29
ENDBRANCH  25  26
ENDBRANCH  24  25
ENDBRANCH  22  24
ENDBRANCH  14  22
BRANCH  20  32
HETATM   32  C27 UNL     1       0.216   3.875  11.856  1.00  0.00     0.021 C 
BRANCH  32  33
HETATM   33  C28 UNL     1      -1.056   3.317  11.214  1.00  0.00     0.112 C 
BRANCH  33  34
HETATM   34  C29 UNL     1      -1.114   1.815  11.083  1.00  0.00     0.258 C 
HETATM   35  O4  UNL     1      -0.156   1.129  10.738  1.00  0.00    -0.265 OA
BRANCH  34  36
HETATM   36  O5  UNL     1      -2.357   1.331  11.341  1.00  0.00    -0.326 OA
HETATM   37  C30 UNL     1      -3.337   2.344  11.567  1.00  0.00     0.213 C 
ENDBRANCH  34  36
ENDBRANCH  33  34
ENDBRANCH  32  33
ENDBRANCH  20  32
TORSDOF 10
ENDMDL
MODEL 6
REMARK minimizedAffinity -8.22828007
REMARK  10 active torsions:
REMARK  status: ('A' for Active; 'I' for Inactive)
REMARK    1  A    between atoms: C12_14  and  C13_15 
REMARK    2  A    between atoms: C13_15  and  C15_17 
REMARK    3  A    between atoms: C15_17  and  C16_18 
REMARK    4  A    between atoms: C16_18  and  C17_19 
REMARK    5  A    between atoms: C18_20  and  C20_22 
REMARK    6  A    between atoms: C20_22  and  O3_23 
REMARK    7  A    between atoms: C26_29  and  C27_30 
REMARK    8  A    between atoms: C27_30  and  C28_31 
REMARK    9  A    between atoms: C28_31  and  C29_32 
REMARK   10  A    between atoms: C29_32  and  O5_34 
ROOT
HETATM    1  C1  UNL     1      -0.670   2.350  11.417  1.00  0.00     0.025 C 
HETATM    2  C2  UNL     1      -1.666   3.242  11.476  1.00  0.00     0.015 C 
HETATM    3  C3  UNL     1      -3.070   2.800  11.669  1.00  0.00     0.289 C 
HETATM    4  O1  UNL     1      -3.499   1.669  11.544  1.00  0.00    -0.260 OA
HETATM    5  O2  UNL     1      -3.807   3.906  11.977  1.00  0.00    -0.311 OA
HETATM    6  C4  UNL     1      -2.931   5.025  12.214  1.00  0.00     0.142 C 
HETATM    7  C5  UNL     1      -2.705   5.154  13.715  1.00  0.00     0.039 C 
HETATM    8  C6  UNL     1      -1.690   6.227  14.138  1.00  0.00     0.006 C 
HETATM    9  C7  UNL     1      -0.436   6.308  13.219  1.00  0.00    -0.027 A 
HETATM   10  C8  UNL     1       0.530   7.470  13.565  1.00  0.00     0.011 C 
HETATM   11  C9  UNL     1      -0.112   8.803  13.987  1.00  0.00     0.011 C 
HETATM   12  C10 UNL     1      -1.223   8.586  15.022  1.00  0.00    -0.032 C 
HETATM   13  C11 UNL     1      -0.581   8.009  16.317  1.00  0.00     0.016 C 
HETATM   14  C12 UNL     1      -2.077   9.844  15.377  1.00  0.00    -0.002 C 
HETATM   15  C21 UNL     1      -3.428   9.239  15.840  1.00  0.00     0.006 C 
HETATM   16  C22 UNL     1      -3.446   7.764  15.377  1.00  0.00     0.011 C 
HETATM   17  C23 UNL     1      -2.301   7.648  14.352  1.00  0.00    -0.032 C 
HETATM   18  C24 UNL     1      -2.862   8.183  12.995  1.00  0.00     0.016 C 
HETATM   19  C25 UNL     1       0.351   5.034  13.005  1.00  0.00     0.022 A 
HETATM   20  C26 UNL     1      -0.449   5.556  11.837  1.00  0.00    -0.021 A 
HETATM   21  C31 UNL     1      -1.675   4.737  11.413  1.00  0.00     0.063 C 
ENDROOT
BRANCH  14  22
HETATM   22  C13 UNL     1      -1.468  10.960  16.288  1.00  0.00    -0.014 C 
HETATM   23  C14 UNL     1      -1.781  12.328  15.649  1.00  0.00     0.010 C 
BRANCH  22  24
HETATM   24  C15 UNL     1      -1.955  10.953  17.758  1.00  0.00     0.008 C 
BRANCH  24  25
HETATM   25  C16 UNL     1      -1.059  11.721  18.743  1.00  0.00     0.028 C 
BRANCH  25  26
HETATM   26  C17 UNL     1      -0.080  10.877  19.510  1.00  0.00    -0.022 C 
HETATM   27  C18 UNL     1       0.946  11.316  20.269  1.00  0.00    -0.064 C 
HETATM   28  C19 UNL     1       1.344  12.759  20.415  1.00  0.00     0.045 C 
BRANCH  27  29
HETATM   29  C20 UNL     1       1.820  10.350  21.027  1.00  0.00     0.197 C 
BRANCH  29  30
HETATM   30  O3  UNL     1       2.695   9.706  20.114  1.00  0.00    -0.397 OA
HETATM   31  H29 UNL     1       3.120  10.413  19.597  1.00  0.00     0.209 HD
ENDBRANCH  29  30
ENDBRANCH  27  29
ENDBRANCH  25  26
ENDBRANCH  24  25
ENDBRANCH  22  24
ENDBRANCH  14  22
BRANCH  20  32
HETATM   32  C27 UNL     1       0.271   6.208  10.644  1.00  0.00     0.021 C 
BRANCH  32  33
HETATM   33  C28 UNL     1       0.081   7.722  10.521  1.00  0.00     0.112 C 
BRANCH  33  34
HETATM   34  C29 UNL     1       0.104   8.268   9.115  1.00  0.00     0.258 C 
HETATM   35  O4  UNL     1      -0.644   9.158   8.723  1.00  0.00    -0.265 OA
BRANCH  34  36
HETATM   36  O5  UNL     1       1.010   7.622   8.335  1.00  0.00    -0.326 OA
HETATM   37  C30 UNL     1       2.207   8.364   8.103  1.00  0.00     0.213 C 
ENDBRANCH  34  36
ENDBRANCH  33  34
ENDBRANCH  32  33
ENDBRANCH  20  32
TORSDOF 10
ENDMDL
MODEL 7
REMARK minimizedAffinity -8.21871758
REMARK  10 active torsions:
REMARK  status: ('A' for Active; 'I' for Inactive)
REMARK    1  A    between atoms: C12_14  and  C13_15 
REMARK    2  A    between atoms: C13_15  and  C15_17 
REMARK    3  A    between atoms: C15_17  and  C16_18 
REMARK    4  A    between atoms: C16_18  and  C17_19 
REMARK    5  A    between atoms: C18_20  and  C20_22 
REMARK    6  A    between atoms: C20_22  and  O3_23 
REMARK    7  A    between atoms: C26_29  and  C27_30 
REMARK    8  A    between atoms: C27_30  and  C28_31 
REMARK    9  A    between atoms: C28_31  and  C29_32 
REMARK   10  A    between atoms: C29_32  and  O5_34 
ROOT
HETATM    1  C1  UNL     1      -8.964   5.833  12.890  1.00  0.00     0.025 C 
HETATM    2  C2  UNL     1      -7.971   5.109  13.419  1.00  0.00     0.015 C 
HETATM    3  C3  UNL     1      -7.788   3.685  13.045  1.00  0.00     0.289 C 
HETATM    4  O1  UNL     1      -8.591   2.976  12.470  1.00  0.00    -0.260 OA
HETATM    5  O2  UNL     1      -6.561   3.298  13.498  1.00  0.00    -0.311 OA
HETATM    6  C4  UNL     1      -5.828   4.449  13.962  1.00  0.00     0.142 C 
HETATM    7  C5  UNL     1      -4.908   4.921  12.843  1.00  0.00     0.039 C 
HETATM    8  C6  UNL     1      -4.140   6.222  13.127  1.00  0.00     0.006 C 
HETATM    9  C7  UNL     1      -4.982   7.305  13.862  1.00  0.00    -0.027 A 
HETATM   10  C8  UNL     1      -4.179   8.569  14.263  1.00  0.00     0.011 C 
HETATM   11  C9  UNL     1      -2.740   8.347  14.761  1.00  0.00     0.011 C 
HETATM   12  C10 UNL     1      -1.974   7.384  13.847  1.00  0.00    -0.032 C 
HETATM   13  C11 UNL     1      -1.827   8.049  12.446  1.00  0.00     0.016 C 
HETATM   14  C12 UNL     1      -0.570   6.930  14.359  1.00  0.00    -0.002 C 
HETATM   15  C21 UNL     1      -0.366   5.556  13.670  1.00  0.00     0.006 C 
HETATM   16  C22 UNL     1      -1.746   5.105  13.140  1.00  0.00     0.011 C 
HETATM   17  C23 UNL     1      -2.767   6.019  13.843  1.00  0.00    -0.032 C 
HETATM   18  C24 UNL     1      -3.006   5.413  15.263  1.00  0.00     0.016 C 
HETATM   19  C25 UNL     1      -6.295   7.711  13.230  1.00  0.00     0.022 A 
HETATM   20  C26 UNL     1      -6.363   6.900  14.500  1.00  0.00    -0.021 A 
HETATM   21  C31 UNL     1      -6.879   5.461  14.379  1.00  0.00     0.063 C 
ENDROOT
BRANCH  14  22
HETATM   22  C13 UNL     1       0.635   7.925  14.296  1.00  0.00    -0.014 C 
HETATM   23  C14 UNL     1       0.732   8.650  15.653  1.00  0.00     0.010 C 
BRANCH  22  24
HETATM   24  C15 UNL     1       2.003   7.286  13.952  1.00  0.00     0.008 C 
BRANCH  24  25
HETATM   25  C16 UNL     1       2.544   7.625  12.554  1.00  0.00     0.028 C 
BRANCH  25  26
HETATM   26  C17 UNL     1       2.654   6.459  11.611  1.00  0.00    -0.022 C 
HETATM   27  C18 UNL     1       3.391   6.400  10.481  1.00  0.00    -0.064 C 
HETATM   28  C19 UNL     1       4.182   7.547   9.916  1.00  0.00     0.045 C 
BRANCH  27  29
HETATM   29  C20 UNL     1       3.447   5.140   9.656  1.00  0.00     0.197 C 
BRANCH  29  30
HETATM   30  O3  UNL     1       4.751   4.587   9.748  1.00  0.00    -0.397 OA
HETATM   31  H29 UNL     1       4.959   4.533  10.697  1.00  0.00     0.209 HD
ENDBRANCH  29  30
ENDBRANCH  27  29
ENDBRANCH  25  26
ENDBRANCH  24  25
ENDBRANCH  22  24
ENDBRANCH  14  22
BRANCH  20  32
HETATM   32  C27 UNL     1      -6.783   7.574  15.819  1.00  0.00     0.021 C 
BRANCH  32  33
HETATM   33  C28 UNL     1      -8.275   7.482  16.146  1.00  0.00     0.112 C 
BRANCH  33  34
HETATM   34  C29 UNL     1      -9.151   8.518  15.486  1.00  0.00     0.258 C 
HETATM   35  O4  UNL     1      -8.765   9.649  15.203  1.00  0.00    -0.265 OA
BRANCH  34  36
HETATM   36  O5  UNL     1     -10.416   8.064  15.295  1.00  0.00    -0.326 OA
HETATM   37  C30 UNL     1     -11.093   8.681  14.200  1.00  0.00     0.213 C 
ENDBRANCH  34  36
ENDBRANCH  33  34
ENDBRANCH  32  33
ENDBRANCH  20  32
TORSDOF 10
ENDMDL
MODEL 8
REMARK minimizedAffinity -8.21506786
REMARK  10 active torsions:
REMARK  status: ('A' for Active; 'I' for Inactive)
REMARK    1  A    between atoms: C12_14  and  C13_15 
REMARK    2  A    between atoms: C13_15  and  C15_17 
REMARK    3  A    between atoms: C15_17  and  C16_18 
REMARK    4  A    between atoms: C16_18  and  C17_19 
REMARK    5  A    between atoms: C18_20  and  C20_22 
REMARK    6  A    between atoms: C20_22  and  O3_23 
REMARK    7  A    between atoms: C26_29  and  C27_30 
REMARK    8  A    between atoms: C27_30  and  C28_31 
REMARK    9  A    between atoms: C28_31  and  C29_32 
REMARK   10  A    between atoms: C29_32  and  O5_34 
ROOT
HETATM    1  C1  UNL     1       4.283   9.915  13.289  1.00  0.00     0.025 C 
HETATM    2  C2  UNL     1       3.739   8.995  14.095  1.00  0.00     0.015 C 
HETATM    3  C3  UNL     1       3.806   9.145  15.570  1.00  0.00     0.289 C 
HETATM    4  O1  UNL     1       4.521   9.907  16.192  1.00  0.00    -0.260 OA
HETATM    5  O2  UNL     1       2.940   8.241  16.111  1.00  0.00    -0.311 OA
HETATM    6  C4  UNL     1       2.140   7.648  15.069  1.00  0.00     0.142 C 
HETATM    7  C5  UNL     1       0.812   8.390  14.996  1.00  0.00     0.039 C 
HETATM    8  C6  UNL     1      -0.117   7.964  13.848  1.00  0.00     0.006 C 
HETATM    9  C7  UNL     1       0.621   7.690  12.505  1.00  0.00    -0.027 A 
HETATM   10  C8  UNL     1      -0.291   7.140  11.380  1.00  0.00     0.011 C 
HETATM   11  C9  UNL     1      -1.376   6.132  11.798  1.00  0.00     0.011 C 
HETATM   12  C10 UNL     1      -2.136   6.610  13.041  1.00  0.00    -0.032 C 
HETATM   13  C11 UNL     1      -2.904   7.914  12.673  1.00  0.00     0.016 C 
HETATM   14  C12 UNL     1      -3.125   5.581  13.672  1.00  0.00    -0.002 C 
HETATM   15  C21 UNL     1      -3.197   6.019  15.158  1.00  0.00     0.006 C 
HETATM   16  C22 UNL     1      -2.008   6.974  15.406  1.00  0.00     0.011 C 
HETATM   17  C23 UNL     1      -1.074   6.780  14.195  1.00  0.00    -0.032 C 
HETATM   18  C24 UNL     1      -0.230   5.497  14.484  1.00  0.00     0.016 C 
HETATM   19  C25 UNL     1       1.501   8.793  11.959  1.00  0.00     0.022 A 
HETATM   20  C26 UNL     1       2.191   7.568  12.505  1.00  0.00    -0.021 A 
HETATM   21  C31 UNL     1       2.980   7.738  13.809  1.00  0.00     0.063 C 
ENDROOT
BRANCH  14  22
HETATM   22  C13 UNL     1      -4.491   5.288  12.967  1.00  0.00    -0.014 C 
HETATM   23  C14 UNL     1      -4.421   3.879  12.347  1.00  0.00     0.010 C 
BRANCH  22  24
HETATM   24  C15 UNL     1      -5.740   5.391  13.877  1.00  0.00     0.008 C 
BRANCH  24  25
HETATM   25  C16 UNL     1      -6.988   5.981  13.202  1.00  0.00     0.028 C 
BRANCH  25  26
HETATM   26  C17 UNL     1      -8.139   6.271  14.125  1.00  0.00    -0.022 C 
HETATM   27  C18 UNL     1      -8.291   7.358  14.912  1.00  0.00    -0.064 C 
HETATM   28  C19 UNL     1      -7.271   8.452  15.063  1.00  0.00     0.045 C 
BRANCH  27  29
HETATM   29  C20 UNL     1      -9.528   7.541  15.753  1.00  0.00     0.197 C 
BRANCH  29  30
HETATM   30  O3  UNL     1     -10.572   6.743  15.216  1.00  0.00    -0.397 OA
HETATM   31  H29 UNL     1     -10.206   5.847  15.113  1.00  0.00     0.209 HD
ENDBRANCH  29  30
ENDBRANCH  27  29
ENDBRANCH  25  26
ENDBRANCH  24  25
ENDBRANCH  22  24
ENDBRANCH  14  22
BRANCH  20  32
HETATM   32  C27 UNL     1       2.844   6.562  11.541  1.00  0.00     0.021 C 
BRANCH  32  33
HETATM   33  C28 UNL     1       3.373   7.163  10.237  1.00  0.00     0.112 C 
BRANCH  33  34
HETATM   34  C29 UNL     1       2.734   6.642   8.974  1.00  0.00     0.258 C 
HETATM   35  O4  UNL     1       2.700   5.452   8.675  1.00  0.00    -0.265 OA
BRANCH  34  36
HETATM   36  O5  UNL     1       2.254   7.648   8.198  1.00  0.00    -0.326 OA
HETATM   37  C30 UNL     1       1.888   7.238   6.880  1.00  0.00     0.213 C 
ENDBRANCH  34  36
ENDBRANCH  33  34
ENDBRANCH  32  33
ENDBRANCH  20  32
TORSDOF 10
ENDMDL
MODEL 9
REMARK minimizedAffinity -8.14204025
REMARK  10 active torsions:
REMARK  status: ('A' for Active; 'I' for Inactive)
REMARK    1  A    between atoms: C12_14  and  C13_15 
REMARK    2  A    between atoms: C13_15  and  C15_17 
REMARK    3  A    between atoms: C15_17  and  C16_18 
REMARK    4  A    between atoms: C16_18  and  C17_19 
REMARK    5  A    between atoms: C18_20  and  C20_22 
REMARK    6  A    between atoms: C20_22  and  O3_23 
REMARK    7  A    between atoms: C26_29  and  C27_30 
REMARK    8  A    between atoms: C27_30  and  C28_31 
REMARK    9  A    between atoms: C28_31  and  C29_32 
REMARK   10  A    between atoms: C29_32  and  O5_34 
ROOT
HETATM    1  C1  UNL     1       3.781   8.024   9.831  1.00  0.00     0.025 C 
HETATM    2  C2  UNL     1       3.624   7.747  11.131  1.00  0.00     0.015 C 
HETATM    3  C3  UNL     1       4.543   8.323  12.145  1.00  0.00     0.289 C 
HETATM    4  O1  UNL     1       5.616   8.855  11.934  1.00  0.00    -0.260 OA
HETATM    5  O2  UNL     1       3.982   8.113  13.370  1.00  0.00    -0.311 OA
HETATM    6  C4  UNL     1       2.636   7.623  13.212  1.00  0.00     0.142 C 
HETATM    7  C5  UNL     1       1.675   8.799  13.331  1.00  0.00     0.039 C 
HETATM    8  C6  UNL     1       0.198   8.473  13.062  1.00  0.00     0.006 C 
HETATM    9  C7  UNL     1      -0.026   7.487  11.878  1.00  0.00    -0.027 A 
HETATM   10  C8  UNL     1      -1.501   7.055  11.682  1.00  0.00     0.011 C 
HETATM   11  C9  UNL     1      -2.328   6.813  12.956  1.00  0.00     0.011 C 
HETATM   12  C10 UNL     1      -2.139   7.947  13.970  1.00  0.00    -0.032 C 
HETATM   13  C11 UNL     1      -2.709   9.258  13.352  1.00  0.00     0.016 C 
HETATM   14  C12 UNL     1      -2.772   7.715  15.378  1.00  0.00    -0.002 C 
HETATM   15  C21 UNL     1      -1.902   8.596  16.311  1.00  0.00     0.006 C 
HETATM   16  C22 UNL     1      -0.624   8.964  15.524  1.00  0.00     0.011 C 
HETATM   17  C23 UNL     1      -0.601   8.004  14.319  1.00  0.00    -0.032 C 
HETATM   18  C24 UNL     1      -0.011   6.653  14.836  1.00  0.00     0.016 C 
HETATM   19  C25 UNL     1       0.582   7.856  10.543  1.00  0.00     0.022 A 
HETATM   20  C26 UNL     1       1.206   6.703  11.289  1.00  0.00    -0.021 A 
HETATM   21  C31 UNL     1       2.611   6.927  11.864  1.00  0.00     0.063 C 
ENDROOT
BRANCH  14  22
HETATM   22  C13 UNL     1      -4.322   7.833  15.558  1.00  0.00    -0.014 C 
HETATM   23  C14 UNL     1      -4.827   8.971  14.649  1.00  0.00     0.010 C 
BRANCH  22  24
HETATM   24  C15 UNL     1      -5.122   6.540  15.261  1.00  0.00     0.008 C 
BRANCH  24  25
HETATM   25  C16 UNL     1      -5.883   6.540  13.926  1.00  0.00     0.028 C 
BRANCH  25  26
HETATM   26  C17 UNL     1      -6.762   5.344  13.690  1.00  0.00    -0.022 C 
HETATM   27  C18 UNL     1      -6.386   4.151  13.181  1.00  0.00    -0.064 C 
HETATM   28  C19 UNL     1      -5.005   3.835  12.677  1.00  0.00     0.045 C 
BRANCH  27  29
HETATM   29  C20 UNL     1      -7.371   3.018  13.049  1.00  0.00     0.197 C 
BRANCH  29  30
HETATM   30  O3  UNL     1      -8.688   3.539  13.144  1.00  0.00    -0.397 OA
HETATM   31  H29 UNL     1      -8.737   4.277  12.511  1.00  0.00     0.209 HD
ENDBRANCH  29  30
ENDBRANCH  27  29
ENDBRANCH  25  26
ENDBRANCH  24  25
ENDBRANCH  22  24
ENDBRANCH  14  22
BRANCH  20  32
HETATM   32  C27 UNL     1       0.988   5.262  10.797  1.00  0.00     0.021 C 
BRANCH  32  33
HETATM   33  C28 UNL     1       0.692   4.239  11.897  1.00  0.00     0.112 C 
BRANCH  33  34
HETATM   34  C29 UNL     1      -0.430   3.274  11.603  1.00  0.00     0.258 C 
HETATM   35  O4  UNL     1      -1.610   3.518  11.834  1.00  0.00    -0.265 OA
BRANCH  34  36
HETATM   36  O5  UNL     1       0.032   2.098  11.105  1.00  0.00    -0.326 OA
HETATM   37  C30 UNL     1      -0.995   1.159  10.789  1.00  0.00     0.213 C 
ENDBRANCH  34  36
ENDBRANCH  33  34
ENDBRANCH  32  33
ENDBRANCH  20  32
TORSDOF 10
ENDMDL
