MODEL 1
REMARK minimizedAffinity -7.46582222
REMARK CNNscore 0.585355937
REMARK CNNaffinity 5.98146677
REMARK  5 active torsions:
REMARK  status: ('A' for Active; 'I' for Inactive)
REMARK    1  A    between atoms: C2_2  and  C4_4 
REMARK    2  A    between atoms: C7_7  and  C8_8 
REMARK    3  A    between atoms: C8_8  and  O2_10 
REMARK    4  A    between atoms: C11_13  and  C12_14 
REMARK    5  A    between atoms: C12_14  and  O4_16 
ROOT
HETATM    1  C4  UNL     1     -17.071  45.798 -20.482  1.00  0.00     0.019 C 
HETATM    2  C5  UNL     1     -16.268  46.889 -19.716  1.00  0.00     0.011 C 
HETATM    3  C6  UNL     1     -15.404  47.627 -20.760  1.00  0.00     0.021 C 
HETATM    4  C7  UNL     1     -15.298  46.627 -21.920  1.00  0.00     0.050 C 
HETATM    5  C9  UNL     1     -14.868  47.195 -23.289  1.00  0.00     0.022 C 
HETATM    6  C10 UNL     1     -15.945  47.161 -24.389  1.00  0.00     0.023 C 
HETATM    7  C11 UNL     1     -16.878  45.887 -24.492  1.00  0.00     0.057 C 
HETATM    8  C13 UNL     1     -16.946  45.152 -23.106  1.00  0.00     0.011 C 
HETATM    9  C14 UNL     1     -18.080  44.138 -23.032  1.00  0.00     0.007 C 
HETATM   10  C15 UNL     1     -18.319  43.447 -24.385  1.00  0.00     0.006 C 
HETATM   11  C16 UNL     1     -17.037  43.322 -25.257  1.00  0.00     0.003 C 
HETATM   12  C17 UNL     1     -17.135  42.256 -26.471  1.00  0.00    -0.035 C 
HETATM   13  C18 UNL     1     -15.839  41.372 -26.376  1.00  0.00     0.016 C 
HETATM   14  C19 UNL     1     -18.317  41.257 -26.280  1.00  0.00     0.017 C 
HETATM   15  C20 UNL     1     -18.626  40.437 -27.521  1.00  0.00     0.080 C 
HETATM   16  C21 UNL     1     -19.124  41.345 -28.616  1.00  0.00     0.135 C 
HETATM   17  O5  UNL     1     -19.955  40.923 -29.426  1.00  0.00    -0.297 OA
HETATM   18  C22 UNL     1     -18.557  42.777 -28.690  1.00  0.00     0.017 C 
HETATM   19  C23 UNL     1     -18.381  43.089 -30.199  1.00  0.00     0.023 C 
HETATM   20  C24 UNL     1     -19.626  43.733 -28.144  1.00  0.00     0.023 C 
HETATM   21  C25 UNL     1     -17.164  42.831 -27.945  1.00  0.00     0.009 C 
HETATM   22  C26 UNL     1     -16.395  44.152 -28.081  1.00  0.00     0.007 C 
HETATM   23  C27 UNL     1     -16.755  45.173 -27.018  1.00  0.00     0.011 C 
HETATM   24  C28 UNL     1     -16.403  44.758 -25.576  1.00  0.00    -0.022 C 
HETATM   25  C29 UNL     1     -14.849  44.635 -25.497  1.00  0.00     0.017 C 
HETATM   26  C30 UNL     1     -16.773  46.145 -21.954  1.00  0.00     0.018 C 
ENDROOT
BRANCH   4  27
HETATM   27  C8  UNL     1     -14.188  45.645 -21.499  1.00  0.00     0.149 C 
HETATM   28  O1  UNL     1     -13.253  45.921 -20.759  1.00  0.00    -0.649 OA
BRANCH  27  29
HETATM   29  O2  UNL     1     -14.268  44.404 -21.999  1.00  0.00    -0.776 OA
HETATM   30  H11 UNL     1     -13.490  43.948 -21.613  1.00  0.00     0.167 HD
ENDBRANCH  27  29
ENDBRANCH   4  27
BRANCH   1  31
HETATM   31  C2  UNL     1     -18.508  45.750 -19.988  1.00  0.00    -0.088 C 
HETATM   32  C1  UNL     1     -19.204  44.628 -19.747  1.00  0.00     0.014 C 
HETATM   33  C3  UNL     1     -19.155  47.097 -19.792  1.00  0.00     0.043 C 
ENDBRANCH   1  31
BRANCH   7  34
HETATM   34  C12 UNL     1     -18.224  46.558 -24.896  1.00  0.00     0.149 C 
HETATM   35  O3  UNL     1     -18.797  47.455 -24.294  1.00  0.00    -0.649 OA
BRANCH  34  36
HETATM   36  O4  UNL     1     -18.859  46.019 -25.946  1.00  0.00    -0.776 OA
HETATM   37  H16 UNL     1     -19.685  46.543 -26.011  1.00  0.00     0.167 HD
ENDBRANCH  34  36
ENDBRANCH   7  34
TORSDOF 5
ENDMDL
MODEL 2
REMARK minimizedAffinity -7.23954153
REMARK CNNscore 0.499921381
REMARK CNNaffinity 5.74028587
REMARK  5 active torsions:
REMARK  status: ('A' for Active; 'I' for Inactive)
REMARK    1  A    between atoms: C2_2  and  C4_4 
REMARK    2  A    between atoms: C7_7  and  C8_8 
REMARK    3  A    between atoms: C8_8  and  O2_10 
REMARK    4  A    between atoms: C11_13  and  C12_14 
REMARK    5  A    between atoms: C12_14  and  O4_16 
ROOT
HETATM    1  C4  UNL     1     -17.709  46.555 -21.925  1.00  0.00     0.019 C 
HETATM    2  C5  UNL     1     -19.185  46.096 -21.740  1.00  0.00     0.011 C 
HETATM    3  C6  UNL     1     -19.478  45.067 -22.853  1.00  0.00     0.021 C 
HETATM    4  C7  UNL     1     -18.426  45.380 -23.926  1.00  0.00     0.050 C 
HETATM    5  C9  UNL     1     -18.158  44.282 -24.976  1.00  0.00     0.022 C 
HETATM    6  C10 UNL     1     -16.765  43.630 -24.914  1.00  0.00     0.023 C 
HETATM    7  C11 UNL     1     -15.513  44.553 -24.624  1.00  0.00     0.057 C 
HETATM    8  C13 UNL     1     -15.962  45.852 -23.866  1.00  0.00     0.011 C 
HETATM    9  C14 UNL     1     -14.792  46.609 -23.252  1.00  0.00     0.007 C 
HETATM   10  C15 UNL     1     -13.528  46.515 -24.123  1.00  0.00     0.006 C 
HETATM   11  C16 UNL     1     -13.827  46.373 -25.642  1.00  0.00     0.003 C 
HETATM   12  C17 UNL     1     -12.576  46.687 -26.620  1.00  0.00    -0.035 C 
HETATM   13  C18 UNL     1     -13.120  47.672 -27.716  1.00  0.00     0.016 C 
HETATM   14  C19 UNL     1     -11.449  47.483 -25.891  1.00  0.00     0.017 C 
HETATM   15  C20 UNL     1     -10.147  47.545 -26.672  1.00  0.00     0.080 C 
HETATM   16  C21 UNL     1      -9.562  46.160 -26.790  1.00  0.00     0.135 C 
HETATM   17  O5  UNL     1      -8.336  46.017 -26.816  1.00  0.00    -0.297 OA
HETATM   18  C22 UNL     1     -10.532  44.965 -26.890  1.00  0.00     0.017 C 
HETATM   19  C23 UNL     1      -9.897  43.985 -27.911  1.00  0.00     0.023 C 
HETATM   20  C24 UNL     1     -10.550  44.262 -25.527  1.00  0.00     0.023 C 
HETATM   21  C25 UNL     1     -11.939  45.470 -27.404  1.00  0.00     0.009 C 
HETATM   22  C26 UNL     1     -12.960  44.368 -27.717  1.00  0.00     0.007 C 
HETATM   23  C27 UNL     1     -13.791  43.956 -26.518  1.00  0.00     0.011 C 
HETATM   24  C28 UNL     1     -14.698  45.064 -25.947  1.00  0.00    -0.022 C 
HETATM   25  C29 UNL     1     -15.744  45.419 -27.052  1.00  0.00     0.017 C 
HETATM   26  C30 UNL     1     -17.195  45.580 -23.002  1.00  0.00     0.018 C 
ENDROOT
BRANCH   4  27
HETATM   27  C8  UNL     1     -18.995  46.583 -24.703  1.00  0.00     0.149 C 
HETATM   28  O1  UNL     1     -18.411  47.644 -24.876  1.00  0.00    -0.649 OA
BRANCH  27  29
HETATM   29  O2  UNL     1     -20.227  46.437 -25.209  1.00  0.00    -0.776 OA
HETATM   30  H11 UNL     1     -20.396  47.292 -25.658  1.00  0.00     0.167 HD
ENDBRANCH  27  29
ENDBRANCH   4  27
BRANCH   1  31
HETATM   31  C2  UNL     1     -17.007  46.643 -20.580  1.00  0.00    -0.088 C 
HETATM   32  C1  UNL     1     -15.727  47.004 -20.399  1.00  0.00     0.014 C 
HETATM   33  C3  UNL     1     -17.858  46.260 -19.396  1.00  0.00     0.043 C 
ENDBRANCH   1  31
BRANCH   7  34
HETATM   34  C12 UNL     1     -14.657  43.594 -23.743  1.00  0.00     0.149 C 
HETATM   35  O3  UNL     1     -14.852  43.323 -22.567  1.00  0.00    -0.649 OA
BRANCH  34  36
HETATM   36  O4  UNL     1     -13.543  43.111 -24.310  1.00  0.00    -0.776 OA
HETATM   37  H16 UNL     1     -13.134  42.578 -23.597  1.00  0.00     0.167 HD
ENDBRANCH  34  36
ENDBRANCH   7  34
TORSDOF 5
ENDMDL
MODEL 3
REMARK minimizedAffinity -7.76833105
REMARK CNNscore 0.490402877
REMARK CNNaffinity 6.29128027
REMARK  5 active torsions:
REMARK  status: ('A' for Active; 'I' for Inactive)
REMARK    1  A    between atoms: C2_2  and  C4_4 
REMARK    2  A    between atoms: C7_7  and  C8_8 
REMARK    3  A    between atoms: C8_8  and  O2_10 
REMARK    4  A    between atoms: C11_13  and  C12_14 
REMARK    5  A    between atoms: C12_14  and  O4_16 
ROOT
HETATM    1  C4  UNL     1      -2.310  52.264 -12.039  1.00  0.00     0.019 C 
HETATM    2  C5  UNL     1      -2.815  51.070 -12.900  1.00  0.00     0.011 C 
HETATM    3  C6  UNL     1      -1.633  50.087 -13.043  1.00  0.00     0.021 C 
HETATM    4  C7  UNL     1      -0.398  50.960 -12.776  1.00  0.00     0.050 C 
HETATM    5  C9  UNL     1       0.909  50.221 -12.420  1.00  0.00     0.022 C 
HETATM    6  C10 UNL     1       1.419  50.430 -10.982  1.00  0.00     0.023 C 
HETATM    7  C11 UNL     1       1.309  51.874 -10.346  1.00  0.00     0.057 C 
HETATM    8  C13 UNL     1       0.172  52.693 -11.053  1.00  0.00     0.011 C 
HETATM    9  C14 UNL     1      -0.224  53.942 -10.277  1.00  0.00     0.007 C 
HETATM   10  C15 UNL     1       0.981  54.581  -9.567  1.00  0.00     0.006 C 
HETATM   11  C16 UNL     1       2.332  54.353 -10.304  1.00  0.00     0.003 C 
HETATM   12  C17 UNL     1       3.537  55.332  -9.845  1.00  0.00    -0.035 C 
HETATM   13  C18 UNL     1       4.161  55.899 -11.170  1.00  0.00     0.016 C 
HETATM   14  C19 UNL     1       3.013  56.586  -9.079  1.00  0.00     0.017 C 
HETATM   15  C20 UNL     1       4.111  57.373  -8.382  1.00  0.00     0.080 C 
HETATM   16  C21 UNL     1       4.716  56.534  -7.285  1.00  0.00     0.135 C 
HETATM   17  O5  UNL     1       5.139  57.082  -6.263  1.00  0.00    -0.297 OA
HETATM   18  C22 UNL     1       4.797  55.008  -7.495  1.00  0.00     0.017 C 
HETATM   19  C23 UNL     1       6.160  54.568  -6.898  1.00  0.00     0.023 C 
HETATM   20  C24 UNL     1       3.693  54.360  -6.649  1.00  0.00     0.023 C 
HETATM   21  C25 UNL     1       4.736  54.685  -9.041  1.00  0.00     0.009 C 
HETATM   22  C26 UNL     1       4.978  53.217  -9.417  1.00  0.00     0.007 C 
HETATM   23  C27 UNL     1       3.716  52.377  -9.414  1.00  0.00     0.011 C 
HETATM   24  C28 UNL     1       2.658  52.792 -10.457  1.00  0.00    -0.022 C 
HETATM   25  C29 UNL     1       3.287  52.561 -11.868  1.00  0.00     0.017 C 
HETATM   26  C30 UNL     1      -0.933  51.763 -11.561  1.00  0.00     0.018 C 
ENDROOT
BRANCH   4  27
HETATM   27  C8  UNL     1      -0.129  51.686 -14.107  1.00  0.00     0.149 C 
HETATM   28  O1  UNL     1      -0.467  51.276 -15.210  1.00  0.00    -0.649 OA
BRANCH  27  29
HETATM   29  O2  UNL     1       0.536  52.847 -14.029  1.00  0.00    -0.776 OA
HETATM   30  H11 UNL     1       0.598  53.143 -14.962  1.00  0.00     0.167 HD
ENDBRANCH  27  29
ENDBRANCH   4  27
BRANCH   1  31
HETATM   31  C2  UNL     1      -3.366  52.671 -11.025  1.00  0.00    -0.088 C 
HETATM   32  C1  UNL     1      -3.848  53.915 -10.870  1.00  0.00     0.014 C 
HETATM   33  C3  UNL     1      -3.856  51.555 -10.138  1.00  0.00     0.043 C 
ENDBRANCH   1  31
BRANCH   7  34
HETATM   34  C12 UNL     1       0.972  51.504  -8.871  1.00  0.00     0.149 C 
HETATM   35  O3  UNL     1       0.910  50.377  -8.402  1.00  0.00    -0.649 OA
BRANCH  34  36
HETATM   36  O4  UNL     1       0.613  52.522  -8.076  1.00  0.00    -0.776 OA
HETATM   37  H16 UNL     1       0.405  52.087  -7.223  1.00  0.00     0.167 HD
ENDBRANCH  34  36
ENDBRANCH   7  34
TORSDOF 5
ENDMDL
MODEL 4
REMARK minimizedAffinity -7.20424032
REMARK CNNscore 0.43919009
REMARK CNNaffinity 5.7966361
REMARK  5 active torsions:
REMARK  status: ('A' for Active; 'I' for Inactive)
REMARK    1  A    between atoms: C2_2  and  C4_4 
REMARK    2  A    between atoms: C7_7  and  C8_8 
REMARK    3  A    between atoms: C8_8  and  O2_10 
REMARK    4  A    between atoms: C11_13  and  C12_14 
REMARK    5  A    between atoms: C12_14  and  O4_16 
ROOT
HETATM    1  C4  UNL     1      -9.824  48.065 -29.546  1.00  0.00     0.019 C 
HETATM    2  C5  UNL     1      -8.478  48.701 -29.092  1.00  0.00     0.011 C 
HETATM    3  C6  UNL     1      -8.120  48.070 -27.730  1.00  0.00     0.021 C 
HETATM    4  C7  UNL     1      -9.467  47.560 -27.197  1.00  0.00     0.050 C 
HETATM    5  C9  UNL     1      -9.414  46.510 -26.068  1.00  0.00     0.022 C 
HETATM    6  C10 UNL     1      -9.919  45.105 -26.445  1.00  0.00     0.023 C 
HETATM    7  C11 UNL     1     -11.199  44.987 -27.366  1.00  0.00     0.057 C 
HETATM    8  C13 UNL     1     -11.377  46.294 -28.217  1.00  0.00     0.011 C 
HETATM    9  C14 UNL     1     -12.365  46.119 -29.364  1.00  0.00     0.007 C 
HETATM   10  C15 UNL     1     -13.518  45.174 -28.988  1.00  0.00     0.006 C 
HETATM   11  C16 UNL     1     -13.871  45.193 -27.473  1.00  0.00     0.003 C 
HETATM   12  C17 UNL     1     -15.312  44.558 -27.097  1.00  0.00    -0.035 C 
HETATM   13  C18 UNL     1     -16.013  45.604 -26.158  1.00  0.00     0.016 C 
HETATM   14  C19 UNL     1     -16.246  44.447 -28.342  1.00  0.00     0.017 C 
HETATM   15  C20 UNL     1     -17.483  43.598 -28.098  1.00  0.00     0.080 C 
HETATM   16  C21 UNL     1     -17.074  42.168 -27.853  1.00  0.00     0.135 C 
HETATM   17  O5  UNL     1     -17.816  41.252 -28.217  1.00  0.00    -0.297 OA
HETATM   18  C22 UNL     1     -15.735  41.905 -27.134  1.00  0.00     0.017 C 
HETATM   19  C23 UNL     1     -15.988  40.703 -26.187  1.00  0.00     0.023 C 
HETATM   20  C24 UNL     1     -14.717  41.454 -28.189  1.00  0.00     0.023 C 
HETATM   21  C25 UNL     1     -15.321  43.187 -26.307  1.00  0.00     0.009 C 
HETATM   22  C26 UNL     1     -14.095  43.018 -25.400  1.00  0.00     0.007 C 
HETATM   23  C27 UNL     1     -12.782  43.314 -26.098  1.00  0.00     0.011 C 
HETATM   24  C28 UNL     1     -12.614  44.771 -26.574  1.00  0.00    -0.022 C 
HETATM   25  C29 UNL     1     -12.599  45.674 -25.301  1.00  0.00     0.017 C 
HETATM   26  C30 UNL     1     -10.022  46.943 -28.508  1.00  0.00     0.018 C 
ENDROOT
BRANCH   4  27
HETATM   27  C8  UNL     1     -10.151  48.802 -26.593  1.00  0.00     0.149 C 
HETATM   28  O1  UNL     1     -11.352  48.906 -26.380  1.00  0.00    -0.649 OA
BRANCH  27  29
HETATM   29  O2  UNL     1      -9.354  49.837 -26.296  1.00  0.00    -0.776 OA
HETATM   30  H11 UNL     1      -9.969  50.506 -25.928  1.00  0.00     0.167 HD
ENDBRANCH  27  29
ENDBRANCH   4  27
BRANCH   1  31
HETATM   31  C2  UNL     1      -9.780  47.731 -31.028  1.00  0.00    -0.088 C 
HETATM   32  C1  UNL     1     -10.712  47.025 -31.688  1.00  0.00     0.014 C 
HETATM   33  C3  UNL     1      -8.562  48.240 -31.756  1.00  0.00     0.043 C 
ENDBRANCH   1  31
BRANCH   7  34
HETATM   34  C12 UNL     1     -10.812  43.745 -28.223  1.00  0.00     0.149 C 
HETATM   35  O3  UNL     1      -9.683  43.317 -28.412  1.00  0.00    -0.649 OA
BRANCH  34  36
HETATM   36  O4  UNL     1     -11.812  43.163 -28.902  1.00  0.00    -0.776 OA
HETATM   37  H16 UNL     1     -11.366  42.446 -29.400  1.00  0.00     0.167 HD
ENDBRANCH  34  36
ENDBRANCH   7  34
TORSDOF 5
ENDMDL
MODEL 5
REMARK minimizedAffinity -8.02236271
REMARK CNNscore 0.27729854
REMARK CNNaffinity 5.49994659
REMARK  5 active torsions:
REMARK  status: ('A' for Active; 'I' for Inactive)
REMARK    1  A    between atoms: C2_2  and  C4_4 
REMARK    2  A    between atoms: C7_7  and  C8_8 
REMARK    3  A    between atoms: C8_8  and  O2_10 
REMARK    4  A    between atoms: C11_13  and  C12_14 
REMARK    5  A    between atoms: C12_14  and  O4_16 
ROOT
HETATM    1  C4  UNL     1      -7.315  46.828 -27.090  1.00  0.00     0.019 C 
HETATM    2  C5  UNL     1      -6.332  47.617 -28.002  1.00  0.00     0.011 C 
HETATM    3  C6  UNL     1      -7.142  48.101 -29.224  1.00  0.00     0.021 C 
HETATM    4  C7  UNL     1      -8.343  47.144 -29.268  1.00  0.00     0.050 C 
HETATM    5  C9  UNL     1      -9.562  47.599 -30.096  1.00  0.00     0.022 C 
HETATM    6  C10 UNL     1     -10.835  47.910 -29.287  1.00  0.00     0.023 C 
HETATM    7  C11 UNL     1     -11.205  46.966 -28.073  1.00  0.00     0.057 C 
HETATM    8  C13 UNL     1      -9.919  46.245 -27.535  1.00  0.00     0.011 C 
HETATM    9  C14 UNL     1     -10.131  45.603 -26.170  1.00  0.00     0.007 C 
HETATM   10  C15 UNL     1     -11.557  45.048 -26.013  1.00  0.00     0.006 C 
HETATM   11  C16 UNL     1     -12.194  44.579 -27.353  1.00  0.00     0.003 C 
HETATM   12  C17 UNL     1     -13.490  43.621 -27.197  1.00  0.00    -0.035 C 
HETATM   13  C18 UNL     1     -13.239  42.397 -28.149  1.00  0.00     0.016 C 
HETATM   14  C19 UNL     1     -13.593  43.004 -25.768  1.00  0.00     0.017 C 
HETATM   15  C20 UNL     1     -14.933  42.342 -25.489  1.00  0.00     0.080 C 
HETATM   16  C21 UNL     1     -16.021  43.386 -25.486  1.00  0.00     0.135 C 
HETATM   17  O5  UNL     1     -16.997  43.246 -24.744  1.00  0.00    -0.297 OA
HETATM   18  C22 UNL     1     -15.875  44.593 -26.436  1.00  0.00     0.017 C 
HETATM   19  C23 UNL     1     -17.299  44.881 -26.980  1.00  0.00     0.023 C 
HETATM   20  C24 UNL     1     -15.452  45.803 -25.593  1.00  0.00     0.023 C 
HETATM   21  C25 UNL     1     -14.893  44.220 -27.616  1.00  0.00     0.009 C 
HETATM   22  C26 UNL     1     -14.781  45.264 -28.736  1.00  0.00     0.007 C 
HETATM   23  C27 UNL     1     -13.720  46.315 -28.477  1.00  0.00     0.011 C 
HETATM   24  C28 UNL     1     -12.277  45.777 -28.412  1.00  0.00    -0.022 C 
HETATM   25  C29 UNL     1     -11.934  45.205 -29.825  1.00  0.00     0.017 C 
HETATM   26  C30 UNL     1      -8.677  47.113 -27.753  1.00  0.00     0.018 C 
ENDROOT
BRANCH   4  27
HETATM   27  C8  UNL     1      -7.812  45.871 -29.955  1.00  0.00     0.149 C 
HETATM   28  O1  UNL     1      -6.919  45.846 -30.791  1.00  0.00    -0.649 OA
BRANCH  27  29
HETATM   29  O2  UNL     1      -8.395  44.717 -29.602  1.00  0.00    -0.776 OA
HETATM   30  H11 UNL     1      -7.920  44.045 -30.135  1.00  0.00     0.167 HD
ENDBRANCH  27  29
ENDBRANCH   4  27
BRANCH   1  31
HETATM   31  C2  UNL     1      -7.089  47.186 -25.630  1.00  0.00    -0.088 C 
HETATM   32  C1  UNL     1      -7.846  46.762 -24.605  1.00  0.00     0.014 C 
HETATM   33  C3  UNL     1      -5.925  48.110 -25.378  1.00  0.00     0.043 C 
ENDBRANCH   1  31
BRANCH   7  34
HETATM   34  C12 UNL     1     -11.786  48.010 -27.074  1.00  0.00     0.149 C 
HETATM   35  O3  UNL     1     -11.671  47.991 -25.857  1.00  0.00    -0.649 OA
BRANCH  34  36
HETATM   36  O4  UNL     1     -12.577  48.954 -27.602  1.00  0.00    -0.776 OA
HETATM   37  H16 UNL     1     -12.868  49.474 -26.824  1.00  0.00     0.167 HD
ENDBRANCH  34  36
ENDBRANCH   7  34
TORSDOF 5
ENDMDL
MODEL 6
REMARK minimizedAffinity -6.84899426
REMARK CNNscore 0.274888813
REMARK CNNaffinity 5.21946383
REMARK  5 active torsions:
REMARK  status: ('A' for Active; 'I' for Inactive)
REMARK    1  A    between atoms: C2_2  and  C4_4 
REMARK    2  A    between atoms: C7_7  and  C8_8 
REMARK    3  A    between atoms: C8_8  and  O2_10 
REMARK    4  A    between atoms: C11_13  and  C12_14 
REMARK    5  A    between atoms: C12_14  and  O4_16 
ROOT
HETATM    1  C4  UNL     1     -10.952  47.036 -29.121  1.00  0.00     0.019 C 
HETATM    2  C5  UNL     1      -9.461  47.444 -28.942  1.00  0.00     0.011 C 
HETATM    3  C6  UNL     1      -9.073  47.104 -27.487  1.00  0.00     0.021 C 
HETATM    4  C7  UNL     1     -10.421  47.059 -26.751  1.00  0.00     0.050 C 
HETATM    5  C9  UNL     1     -10.443  46.336 -25.388  1.00  0.00     0.022 C 
HETATM    6  C10 UNL     1     -11.262  45.033 -25.342  1.00  0.00     0.023 C 
HETATM    7  C11 UNL     1     -12.642  44.982 -26.113  1.00  0.00     0.057 C 
HETATM    8  C13 UNL     1     -12.656  46.044 -27.269  1.00  0.00     0.011 C 
HETATM    9  C14 UNL     1     -13.790  45.820 -28.261  1.00  0.00     0.007 C 
HETATM   10  C15 UNL     1     -15.056  45.282 -27.572  1.00  0.00     0.006 C 
HETATM   11  C16 UNL     1     -15.211  45.753 -26.097  1.00  0.00     0.003 C 
HETATM   12  C17 UNL     1     -16.693  45.572 -25.472  1.00  0.00    -0.035 C 
HETATM   13  C18 UNL     1     -17.050  46.948 -24.803  1.00  0.00     0.016 C 
HETATM   14  C19 UNL     1     -17.775  45.371 -26.579  1.00  0.00     0.017 C 
HETATM   15  C20 UNL     1     -19.117  44.910 -26.037  1.00  0.00     0.080 C 
HETATM   16  C21 UNL     1     -18.978  43.530 -25.446  1.00  0.00     0.135 C 
HETATM   17  O5  UNL     1     -19.927  42.745 -25.503  1.00  0.00    -0.297 OA
HETATM   18  C22 UNL     1     -17.641  43.159 -24.772  1.00  0.00     0.017 C 
HETATM   19  C23 UNL     1     -18.014  42.316 -23.523  1.00  0.00     0.023 C 
HETATM   20  C24 UNL     1     -16.871  42.243 -25.732  1.00  0.00     0.023 C 
HETATM   21  C25 UNL     1     -16.881  44.477 -24.346  1.00  0.00     0.009 C 
HETATM   22  C26 UNL     1     -15.612  44.265 -23.508  1.00  0.00     0.007 C 
HETATM   23  C27 UNL     1     -14.362  44.076 -24.344  1.00  0.00     0.011 C 
HETATM   24  C28 UNL     1     -13.964  45.293 -25.202  1.00  0.00    -0.022 C 
HETATM   25  C29 UNL     1     -13.613  46.455 -24.220  1.00  0.00     0.017 C 
HETATM   26  C30 UNL     1     -11.244  46.279 -27.810  1.00  0.00     0.018 C 
ENDROOT
BRANCH   4  27
HETATM   27  C8  UNL     1     -10.763  48.532 -26.458  1.00  0.00     0.149 C 
HETATM   28  O1  UNL     1      -9.999  49.341 -25.947  1.00  0.00    -0.649 OA
BRANCH  27  29
HETATM   29  O2  UNL     1     -11.999  48.933 -26.785  1.00  0.00    -0.776 OA
HETATM   30  H11 UNL     1     -12.012  49.880 -26.529  1.00  0.00     0.167 HD
ENDBRANCH  27  29
ENDBRANCH   4  27
BRANCH   1  31
HETATM   31  C2  UNL     1     -11.157  46.346 -30.460  1.00  0.00    -0.088 C 
HETATM   32  C1  UNL     1     -11.368  46.974 -31.627  1.00  0.00     0.014 C 
HETATM   33  C3  UNL     1     -11.132  44.839 -30.406  1.00  0.00     0.043 C 
ENDBRANCH   1  31
BRANCH   7  34
HETATM   34  C12 UNL     1     -12.619  43.513 -26.631  1.00  0.00     0.149 C 
HETATM   35  O3  UNL     1     -13.582  42.767 -26.738  1.00  0.00    -0.649 OA
BRANCH  34  36
HETATM   36  O4  UNL     1     -11.408  42.994 -26.877  1.00  0.00    -0.776 OA
HETATM   37  H16 UNL     1     -11.603  42.072 -27.145  1.00  0.00     0.167 HD
ENDBRANCH  34  36
ENDBRANCH   7  34
TORSDOF 5
ENDMDL
MODEL 7
REMARK minimizedAffinity -6.35067606
REMARK CNNscore 0.240608841
REMARK CNNaffinity 5.18291092
REMARK  5 active torsions:
REMARK  status: ('A' for Active; 'I' for Inactive)
REMARK    1  A    between atoms: C2_2  and  C4_4 
REMARK    2  A    between atoms: C7_7  and  C8_8 
REMARK    3  A    between atoms: C8_8  and  O2_10 
REMARK    4  A    between atoms: C11_13  and  C12_14 
REMARK    5  A    between atoms: C12_14  and  O4_16 
ROOT
HETATM    1  C4  UNL     1     -10.142  47.998 -28.366  1.00  0.00     0.019 C 
HETATM    2  C5  UNL     1      -8.596  48.167 -28.441  1.00  0.00     0.011 C 
HETATM    3  C6  UNL     1      -8.006  47.444 -27.211  1.00  0.00     0.021 C 
HETATM    4  C7  UNL     1      -9.179  47.389 -26.221  1.00  0.00     0.050 C 
HETATM    5  C9  UNL     1      -9.068  46.370 -25.069  1.00  0.00     0.022 C 
HETATM    6  C10 UNL     1     -10.072  45.203 -25.116  1.00  0.00     0.023 C 
HETATM    7  C11 UNL     1     -11.560  45.507 -25.555  1.00  0.00     0.057 C 
HETATM    8  C13 UNL     1     -11.611  46.809 -26.432  1.00  0.00     0.011 C 
HETATM    9  C14 UNL     1     -12.933  46.968 -27.173  1.00  0.00     0.007 C 
HETATM   10  C15 UNL     1     -14.119  46.440 -26.349  1.00  0.00     0.006 C 
HETATM   11  C16 UNL     1     -13.913  46.560 -24.812  1.00  0.00     0.003 C 
HETATM   12  C17 UNL     1     -15.260  46.417 -23.926  1.00  0.00    -0.035 C 
HETATM   13  C18 UNL     1     -15.247  47.626 -22.923  1.00  0.00     0.016 C 
HETATM   14  C19 UNL     1     -16.548  46.620 -24.783  1.00  0.00     0.017 C 
HETATM   15  C20 UNL     1     -17.824  46.210 -24.066  1.00  0.00     0.080 C 
HETATM   16  C21 UNL     1     -17.811  44.723 -23.822  1.00  0.00     0.135 C 
HETATM   17  O5  UNL     1     -18.874  44.095 -23.829  1.00  0.00    -0.297 OA
HETATM   18  C22 UNL     1     -16.454  44.040 -23.552  1.00  0.00     0.017 C 
HETATM   19  C23 UNL     1     -16.723  42.976 -22.456  1.00  0.00     0.023 C 
HETATM   20  C24 UNL     1     -16.044  43.294 -24.828  1.00  0.00     0.023 C 
HETATM   21  C25 UNL     1     -15.416  45.116 -23.039  1.00  0.00     0.009 C 
HETATM   22  C26 UNL     1     -14.067  44.557 -22.566  1.00  0.00     0.007 C 
HETATM   23  C27 UNL     1     -13.046  44.421 -23.678  1.00  0.00     0.011 C 
HETATM   24  C28 UNL     1     -12.617  45.750 -24.330  1.00  0.00    -0.022 C 
HETATM   25  C29 UNL     1     -11.896  46.592 -23.230  1.00  0.00     0.017 C 
HETATM   26  C30 UNL     1     -10.306  46.992 -27.211  1.00  0.00     0.018 C 
ENDROOT
BRANCH   4  27
HETATM   27  C8  UNL     1      -9.206  48.780 -25.559  1.00  0.00     0.149 C 
HETATM   28  O1  UNL     1      -8.412  49.169 -24.714  1.00  0.00    -0.649 OA
BRANCH  27  29
HETATM   29  O2  UNL     1     -10.189  49.605 -25.946  1.00  0.00    -0.776 OA
HETATM   30  H11 UNL     1     -10.028  50.419 -25.423  1.00  0.00     0.167 HD
ENDBRANCH  27  29
ENDBRANCH   4  27
BRANCH   1  31
HETATM   31  C2  UNL     1     -10.708  47.679 -29.741  1.00  0.00    -0.088 C 
HETATM   32  C1  UNL     1     -10.026  47.095 -30.740  1.00  0.00     0.014 C 
HETATM   33  C3  UNL     1     -12.142  48.093 -29.946  1.00  0.00     0.043 C 
ENDBRANCH   1  31
BRANCH   7  34
HETATM   34  C12 UNL     1     -11.884  44.213 -26.360  1.00  0.00     0.149 C 
HETATM   35  O3  UNL     1     -11.440  43.912 -27.458  1.00  0.00    -0.649 OA
BRANCH  34  36
HETATM   36  O4  UNL     1     -12.824  43.414 -25.836  1.00  0.00    -0.776 OA
HETATM   37  H16 UNL     1     -12.910  42.695 -26.496  1.00  0.00     0.167 HD
ENDBRANCH  34  36
ENDBRANCH   7  34
TORSDOF 5
ENDMDL
MODEL 8
REMARK minimizedAffinity -6.799963
REMARK CNNscore 0.229457155
REMARK CNNaffinity 5.34073973
REMARK  5 active torsions:
REMARK  status: ('A' for Active; 'I' for Inactive)
REMARK    1  A    between atoms: C2_2  and  C4_4 
REMARK    2  A    between atoms: C7_7  and  C8_8 
REMARK    3  A    between atoms: C8_8  and  O2_10 
REMARK    4  A    between atoms: C11_13  and  C12_14 
REMARK    5  A    between atoms: C12_14  and  O4_16 
ROOT
HETATM    1  C4  UNL     1     -10.822  44.909 -24.881  1.00  0.00     0.019 C 
HETATM    2  C5  UNL     1     -12.142  44.571 -24.130  1.00  0.00     0.011 C 
HETATM    3  C6  UNL     1     -13.283  44.651 -25.168  1.00  0.00     0.021 C 
HETATM    4  C7  UNL     1     -12.706  45.545 -26.276  1.00  0.00     0.050 C 
HETATM    5  C9  UNL     1     -13.408  45.488 -27.648  1.00  0.00     0.022 C 
HETATM    6  C10 UNL     1     -12.580  44.874 -28.792  1.00  0.00     0.023 C 
HETATM    7  C11 UNL     1     -11.039  45.223 -28.878  1.00  0.00     0.057 C 
HETATM    8  C13 UNL     1     -10.499  45.642 -27.465  1.00  0.00     0.011 C 
HETATM    9  C14 UNL     1      -8.977  45.652 -27.395  1.00  0.00     0.007 C 
HETATM   10  C15 UNL     1      -8.346  46.098 -28.725  1.00  0.00     0.006 C 
HETATM   11  C16 UNL     1      -9.230  47.092 -29.532  1.00  0.00     0.003 C 
HETATM   12  C17 UNL     1      -8.458  47.903 -30.700  1.00  0.00    -0.035 C 
HETATM   13  C18 UNL     1      -8.848  49.413 -30.508  1.00  0.00     0.016 C 
HETATM   14  C19 UNL     1      -6.909  47.863 -30.516  1.00  0.00     0.017 C 
HETATM   15  C20 UNL     1      -6.140  48.354 -31.731  1.00  0.00     0.080 C 
HETATM   16  C21 UNL     1      -6.368  47.413 -32.887  1.00  0.00     0.135 C 
HETATM   17  O5  UNL     1      -5.468  47.234 -33.713  1.00  0.00    -0.297 OA
HETATM   18  C22 UNL     1      -7.739  46.716 -33.001  1.00  0.00     0.017 C 
HETATM   19  C23 UNL     1      -8.082  46.694 -34.513  1.00  0.00     0.023 C 
HETATM   20  C24 UNL     1      -7.564  45.262 -32.546  1.00  0.00     0.023 C 
HETATM   21  C25 UNL     1      -8.820  47.545 -32.198  1.00  0.00     0.009 C 
HETATM   22  C26 UNL     1     -10.269  47.069 -32.360  1.00  0.00     0.007 C 
HETATM   23  C27 UNL     1     -10.668  45.999 -31.362  1.00  0.00     0.011 C 
HETATM   24  C28 UNL     1     -10.654  46.451 -29.888  1.00  0.00    -0.022 C 
HETATM   25  C29 UNL     1     -11.742  47.561 -29.735  1.00  0.00     0.017 C 
HETATM   26  C30 UNL     1     -11.280  44.938 -26.352  1.00  0.00     0.018 C 
ENDROOT
BRANCH   4  27
HETATM   27  C8  UNL     1     -12.892  46.986 -25.761  1.00  0.00     0.149 C 
HETATM   28  O1  UNL     1     -12.081  47.891 -25.906  1.00  0.00    -0.649 OA
BRANCH  27  29
HETATM   29  O2  UNL     1     -14.029  47.241 -25.100  1.00  0.00    -0.776 OA
HETATM   30  H11 UNL     1     -13.955  48.191 -24.868  1.00  0.00     0.167 HD
ENDBRANCH  27  29
ENDBRANCH   4  27
BRANCH   1  31
HETATM   31  C2  UNL     1      -9.709  43.969 -24.449  1.00  0.00    -0.088 C 
HETATM   32  C1  UNL     1      -8.645  44.321 -23.710  1.00  0.00     0.014 C 
HETATM   33  C3  UNL     1      -9.854  42.550 -24.936  1.00  0.00     0.043 C 
ENDBRANCH   1  31
BRANCH   7  34
HETATM   34  C12 UNL     1     -10.471  43.859 -29.371  1.00  0.00     0.149 C 
HETATM   35  O3  UNL     1      -9.313  43.627 -29.687  1.00  0.00    -0.649 OA
BRANCH  34  36
HETATM   36  O4  UNL     1     -11.369  42.883 -29.567  1.00  0.00    -0.776 OA
HETATM   37  H16 UNL     1     -10.831  42.139 -29.910  1.00  0.00     0.167 HD
ENDBRANCH  34  36
ENDBRANCH   7  34
TORSDOF 5
ENDMDL
MODEL 9
REMARK minimizedAffinity -6.48768759
REMARK CNNscore 0.217049628
REMARK CNNaffinity 5.32514
REMARK  5 active torsions:
REMARK  status: ('A' for Active; 'I' for Inactive)
REMARK    1  A    between atoms: C2_2  and  C4_4 
REMARK    2  A    between atoms: C7_7  and  C8_8 
REMARK    3  A    between atoms: C8_8  and  O2_10 
REMARK    4  A    between atoms: C11_13  and  C12_14 
REMARK    5  A    between atoms: C12_14  and  O4_16 
ROOT
HETATM    1  C4  UNL     1      -7.741  46.295 -24.003  1.00  0.00     0.019 C 
HETATM    2  C5  UNL     1      -6.808  47.533 -23.863  1.00  0.00     0.011 C 
HETATM    3  C6  UNL     1      -7.388  48.638 -24.772  1.00  0.00     0.021 C 
HETATM    4  C7  UNL     1      -8.242  47.864 -25.788  1.00  0.00     0.050 C 
HETATM    5  C9  UNL     1      -9.293  48.677 -26.571  1.00  0.00     0.022 C 
HETATM    6  C10 UNL     1     -10.762  48.339 -26.256  1.00  0.00     0.023 C 
HETATM    7  C11 UNL     1     -11.158  46.822 -26.044  1.00  0.00     0.057 C 
HETATM    8  C13 UNL     1      -9.901  45.992 -25.602  1.00  0.00     0.011 C 
HETATM    9  C14 UNL     1     -10.267  44.621 -25.046  1.00  0.00     0.007 C 
HETATM   10  C15 UNL     1     -11.487  44.019 -25.764  1.00  0.00     0.006 C 
HETATM   11  C16 UNL     1     -11.624  44.471 -27.247  1.00  0.00     0.003 C 
HETATM   12  C17 UNL     1     -12.615  43.565 -28.150  1.00  0.00    -0.035 C 
HETATM   13  C18 UNL     1     -11.820  43.234 -29.465  1.00  0.00     0.016 C 
HETATM   14  C19 UNL     1     -12.902  42.179 -27.495  1.00  0.00     0.017 C 
HETATM   15  C20 UNL     1     -14.044  41.422 -28.153  1.00  0.00     0.080 C 
HETATM   16  C21 UNL     1     -15.335  42.170 -27.941  1.00  0.00     0.135 C 
HETATM   17  O5  UNL     1     -16.391  41.542 -27.829  1.00  0.00    -0.297 OA
HETATM   18  C22 UNL     1     -15.285  43.711 -27.890  1.00  0.00     0.017 C 
HETATM   19  C23 UNL     1     -16.552  44.204 -28.636  1.00  0.00     0.023 C 
HETATM   20  C24 UNL     1     -15.420  44.134 -26.422  1.00  0.00     0.023 C 
HETATM   21  C25 UNL     1     -13.977  44.220 -28.618  1.00  0.00     0.009 C 
HETATM   22  C26 UNL     1     -13.873  45.741 -28.797  1.00  0.00     0.007 C 
HETATM   23  C27 UNL     1     -13.228  46.445 -27.620  1.00  0.00     0.011 C 
HETATM   24  C28 UNL     1     -11.756  46.063 -27.363  1.00  0.00    -0.022 C 
HETATM   25  C29 UNL     1     -10.934  46.532 -28.605  1.00  0.00     0.017 C 
HETATM   26  C30 UNL     1      -8.921  46.864 -24.814  1.00  0.00     0.018 C 
ENDROOT
BRANCH   4  27
HETATM   27  C8  UNL     1      -7.239  47.342 -26.835  1.00  0.00     0.149 C 
HETATM   28  O1  UNL     1      -7.375  46.312 -27.481  1.00  0.00    -0.649 OA
BRANCH  27  29
HETATM   29  O2  UNL     1      -6.139  48.083 -27.027  1.00  0.00    -0.776 OA
HETATM   30  H11 UNL     1      -5.648  47.592 -27.720  1.00  0.00     0.167 HD
ENDBRANCH  27  29
ENDBRANCH   4  27
BRANCH   1  31
HETATM   31  C2  UNL     1      -7.988  45.660 -22.644  1.00  0.00    -0.088 C 
HETATM   32  C1  UNL     1      -8.756  46.184 -21.675  1.00  0.00     0.014 C 
HETATM   33  C3  UNL     1      -7.270  44.355 -22.416  1.00  0.00     0.043 C 
ENDBRANCH   1  31
BRANCH   7  34
HETATM   34  C12 UNL     1     -12.224  46.967 -24.917  1.00  0.00     0.149 C 
HETATM   35  O3  UNL     1     -12.025  46.877 -23.714  1.00  0.00    -0.649 OA
BRANCH  34  36
HETATM   36  O4  UNL     1     -13.496  47.094 -25.323  1.00  0.00    -0.776 OA
HETATM   37  H16 UNL     1     -14.003  47.127 -24.485  1.00  0.00     0.167 HD
ENDBRANCH  34  36
ENDBRANCH   7  34
TORSDOF 5
ENDMDL
