MODEL 1
REMARK minimizedAffinity -7.93890381
REMARK  12 active torsions:
REMARK  status: ('A' for Active; 'I' for Inactive)
REMARK    1  A    between atoms: C4_5  and  O2_6 
REMARK    2  A    between atoms: C8_11  and  O4_12 
REMARK    3  A    between atoms: O4_12  and  C9_13 
REMARK    4  A    between atoms: C9_13  and  C10_15 
REMARK    5  A    between atoms: C10_15  and  O6_16 
REMARK    6  A    between atoms: C10_15  and  C11_17 
REMARK    7  A    between atoms: C10_15  and  C12_19 
REMARK    8  A    between atoms: C11_17  and  O7_18 
REMARK    9  A    between atoms: C12_19  and  C13_20 
REMARK   10  A    between atoms: C13_20  and  C15_22 
REMARK   11  A    between atoms: C15_22  and  C16_23 
REMARK   12  A    between atoms: C16_23  and  C18_25 
ROOT
HETATM    1  C1  UNL     1      -2.897  50.264 -27.483  1.00  0.00     0.017 C 
HETATM    2  C2  UNL     1      -2.852  50.914 -26.312  1.00  0.00    -0.056 C 
HETATM    3  C3  UNL     1      -3.011  52.376 -26.111  1.00  0.00     0.205 C 
HETATM    4  O1  UNL     1      -2.158  52.710 -25.018  1.00  0.00    -0.348 OA
HETATM    5  C4  UNL     1      -1.960  51.544 -24.195  1.00  0.00     0.201 C 
HETATM    6  C6  UNL     1      -2.611  51.780 -22.857  1.00  0.00     0.223 A 
HETATM    7  O3  UNL     1      -4.042  51.821 -22.886  1.00  0.00    -0.360 OA
HETATM    8  C7  UNL     1      -3.439  50.720 -22.157  1.00  0.00     0.127 A 
HETATM    9  C8  UNL     1      -3.765  50.825 -20.689  1.00  0.00     0.170 C 
HETATM   10  C20 UNL     1      -5.188  50.319 -20.400  1.00  0.00     0.036 C 
HETATM   11  C21 UNL     1      -5.860  49.646 -21.601  1.00  0.00     0.007 C 
HETATM   12  C22 UNL     1      -4.932  48.653 -22.327  1.00  0.00    -0.007 C 
HETATM   13  C23 UNL     1      -4.733  47.413 -21.440  1.00  0.00     0.011 C 
HETATM   14  C24 UNL     1      -3.610  49.357 -22.834  1.00  0.00    -0.003 C 
HETATM   15  C25 UNL     1      -2.354  48.491 -22.591  1.00  0.00     0.019 C 
HETATM   16  C26 UNL     1      -3.732  49.595 -24.371  1.00  0.00     0.027 C 
HETATM   17  C27 UNL     1      -2.512  50.316 -24.979  1.00  0.00     0.082 C 
ENDROOT
BRANCH   9  18
HETATM   18  O4  UNL     1      -2.840  50.048 -19.904  1.00  0.00    -0.310 OA
BRANCH  18  19
HETATM   19  C9  UNL     1      -2.547  50.535 -18.671  1.00  0.00     0.296 C 
HETATM   20  O5  UNL     1      -2.950  51.604 -18.216  1.00  0.00    -0.262 OA
BRANCH  19  21
HETATM   21  C10 UNL     1      -1.646  49.597 -17.850  1.00  0.00     0.166 C 
BRANCH  21  22
HETATM   22  O6  UNL     1      -1.736  48.270 -18.415  1.00  0.00    -0.377 OA
HETATM   23  H10 UNL     1      -2.599  48.222 -18.877  1.00  0.00     0.211 HD
ENDBRANCH  21  22
BRANCH  21  24
HETATM   24  C11 UNL     1      -2.230  49.480 -16.425  1.00  0.00     0.212 C 
BRANCH  24  25
HETATM   25  O7  UNL     1      -3.651  49.411 -16.380  1.00  0.00    -0.397 OA
HETATM   26  H13 UNL     1      -3.989  50.323 -16.429  1.00  0.00     0.209 HD
ENDBRANCH  24  25
ENDBRANCH  21  24
BRANCH  21  27
HETATM   27  C12 UNL     1      -0.162  50.023 -17.856  1.00  0.00     0.055 C 
BRANCH  27  28
HETATM   28  C13 UNL     1       0.179  51.460 -17.367  1.00  0.00    -0.015 C 
HETATM   29  C14 UNL     1       1.004  51.342 -16.077  1.00  0.00     0.010 C 
BRANCH  28  30
HETATM   30  C15 UNL     1       0.902  52.314 -18.430  1.00  0.00     0.008 C 
BRANCH  30  31
HETATM   31  C16 UNL     1       0.105  52.638 -19.718  1.00  0.00    -0.019 C 
HETATM   32  C17 UNL     1       0.345  51.590 -20.808  1.00  0.00     0.010 C 
BRANCH  31  33
HETATM   33  C18 UNL     1       0.496  54.054 -20.200  1.00  0.00    -0.000 C 
HETATM   34  C19 UNL     1       1.635  54.068 -21.209  1.00  0.00     0.005 C 
ENDBRANCH  31  33
ENDBRANCH  30  31
ENDBRANCH  28  30
ENDBRANCH  27  28
ENDBRANCH  21  27
ENDBRANCH  19  21
ENDBRANCH  18  19
ENDBRANCH   9  18
BRANCH   5  35
HETATM   35  O2  UNL     1      -0.555  51.290 -23.993  1.00  0.00    -0.357 OA
HETATM   36  C5  UNL     1       0.312  52.189 -24.669  1.00  0.00     0.205 C 
ENDBRANCH   5  35
TORSDOF 12
ENDMDL
MODEL 2
REMARK minimizedAffinity -7.81952667
REMARK  12 active torsions:
REMARK  status: ('A' for Active; 'I' for Inactive)
REMARK    1  A    between atoms: C4_5  and  O2_6 
REMARK    2  A    between atoms: C8_11  and  O4_12 
REMARK    3  A    between atoms: O4_12  and  C9_13 
REMARK    4  A    between atoms: C9_13  and  C10_15 
REMARK    5  A    between atoms: C10_15  and  O6_16 
REMARK    6  A    between atoms: C10_15  and  C11_17 
REMARK    7  A    between atoms: C10_15  and  C12_19 
REMARK    8  A    between atoms: C11_17  and  O7_18 
REMARK    9  A    between atoms: C12_19  and  C13_20 
REMARK   10  A    between atoms: C13_20  and  C15_22 
REMARK   11  A    between atoms: C15_22  and  C16_23 
REMARK   12  A    between atoms: C16_23  and  C18_25 
ROOT
HETATM    1  C1  UNL     1       1.792  51.532 -27.900  1.00  0.00     0.017 C 
HETATM    2  C2  UNL     1       0.577  51.983 -27.560  1.00  0.00    -0.056 C 
HETATM    3  C3  UNL     1      -0.313  52.830 -28.394  1.00  0.00     0.205 C 
HETATM    4  O1  UNL     1      -1.006  53.677 -27.481  1.00  0.00    -0.348 OA
HETATM    5  C4  UNL     1      -1.056  53.043 -26.188  1.00  0.00     0.201 C 
HETATM    6  C6  UNL     1      -2.489  52.696 -25.874  1.00  0.00     0.223 A 
HETATM    7  O3  UNL     1      -3.042  51.652 -26.683  1.00  0.00    -0.360 OA
HETATM    8  C7  UNL     1      -2.889  51.365 -25.268  1.00  0.00     0.127 A 
HETATM    9  C8  UNL     1      -4.239  51.174 -24.625  1.00  0.00     0.170 C 
HETATM   10  C20 UNL     1      -4.794  49.769 -24.913  1.00  0.00     0.036 C 
HETATM   11  C21 UNL     1      -3.789  48.833 -25.593  1.00  0.00     0.007 C 
HETATM   12  C22 UNL     1      -2.394  48.880 -24.941  1.00  0.00    -0.007 C 
HETATM   13  C23 UNL     1      -2.462  48.196 -23.565  1.00  0.00     0.011 C 
HETATM   14  C24 UNL     1      -1.793  50.342 -24.955  1.00  0.00    -0.003 C 
HETATM   15  C25 UNL     1      -1.103  50.706 -23.621  1.00  0.00     0.019 C 
HETATM   16  C26 UNL     1      -0.720  50.427 -26.084  1.00  0.00     0.027 C 
HETATM   17  C27 UNL     1      -0.085  51.826 -26.224  1.00  0.00     0.082 C 
ENDROOT
BRANCH   9  18
HETATM   18  O4  UNL     1      -4.152  51.341 -23.197  1.00  0.00    -0.310 OA
BRANCH  18  19
HETATM   19  C9  UNL     1      -5.162  50.799 -22.469  1.00  0.00     0.296 C 
HETATM   20  O5  UNL     1      -6.315  50.640 -22.865  1.00  0.00    -0.262 OA
BRANCH  19  21
HETATM   21  C10 UNL     1      -4.725  50.365 -21.060  1.00  0.00     0.166 C 
BRANCH  21  22
HETATM   22  O6  UNL     1      -3.714  49.341 -21.192  1.00  0.00    -0.377 OA
HETATM   23  H10 UNL     1      -3.856  48.921 -22.066  1.00  0.00     0.211 HD
ENDBRANCH  21  22
BRANCH  21  24
HETATM   24  C11 UNL     1      -5.921  49.679 -20.365  1.00  0.00     0.212 C 
BRANCH  24  25
HETATM   25  O7  UNL     1      -7.071  50.507 -20.228  1.00  0.00    -0.397 OA
HETATM   26  H13 UNL     1      -6.941  51.056 -19.434  1.00  0.00     0.209 HD
ENDBRANCH  24  25
ENDBRANCH  21  24
BRANCH  21  27
HETATM   27  C12 UNL     1      -4.132  51.522 -20.227  1.00  0.00     0.055 C 
BRANCH  27  28
HETATM   28  C13 UNL     1      -2.749  51.293 -19.552  1.00  0.00    -0.015 C 
HETATM   29  C14 UNL     1      -2.766  49.910 -18.886  1.00  0.00     0.010 C 
BRANCH  28  30
HETATM   30  C15 UNL     1      -1.561  51.444 -20.525  1.00  0.00     0.008 C 
BRANCH  30  31
HETATM   31  C16 UNL     1      -0.190  51.795 -19.895  1.00  0.00    -0.019 C 
HETATM   32  C17 UNL     1      -0.341  52.777 -18.729  1.00  0.00     0.010 C 
BRANCH  31  33
HETATM   33  C18 UNL     1       0.731  52.365 -20.997  1.00  0.00    -0.000 C 
HETATM   34  C19 UNL     1       1.079  53.835 -20.810  1.00  0.00     0.005 C 
ENDBRANCH  31  33
ENDBRANCH  30  31
ENDBRANCH  28  30
ENDBRANCH  27  28
ENDBRANCH  21  27
ENDBRANCH  19  21
ENDBRANCH  18  19
ENDBRANCH   9  18
BRANCH   5  35
HETATM   35  O2  UNL     1      -0.554  53.925 -25.163  1.00  0.00    -0.357 OA
HETATM   36  C5  UNL     1       0.688  53.530 -24.598  1.00  0.00     0.205 C 
ENDBRANCH   5  35
TORSDOF 12
ENDMDL
MODEL 3
REMARK minimizedAffinity -7.78901911
REMARK  12 active torsions:
REMARK  status: ('A' for Active; 'I' for Inactive)
REMARK    1  A    between atoms: C4_5  and  O2_6 
REMARK    2  A    between atoms: C8_11  and  O4_12 
REMARK    3  A    between atoms: O4_12  and  C9_13 
REMARK    4  A    between atoms: C9_13  and  C10_15 
REMARK    5  A    between atoms: C10_15  and  O6_16 
REMARK    6  A    between atoms: C10_15  and  C11_17 
REMARK    7  A    between atoms: C10_15  and  C12_19 
REMARK    8  A    between atoms: C11_17  and  O7_18 
REMARK    9  A    between atoms: C12_19  and  C13_20 
REMARK   10  A    between atoms: C13_20  and  C15_22 
REMARK   11  A    between atoms: C15_22  and  C16_23 
REMARK   12  A    between atoms: C16_23  and  C18_25 
ROOT
HETATM    1  C1  UNL     1      -2.854  50.312 -27.446  1.00  0.00     0.017 C 
HETATM    2  C2  UNL     1      -2.866  50.954 -26.270  1.00  0.00    -0.056 C 
HETATM    3  C3  UNL     1      -2.989  52.420 -26.069  1.00  0.00     0.205 C 
HETATM    4  O1  UNL     1      -2.201  52.719 -24.918  1.00  0.00    -0.348 OA
HETATM    5  C4  UNL     1      -2.100  51.542 -24.092  1.00  0.00     0.201 C 
HETATM    6  C6  UNL     1      -2.833  51.795 -22.800  1.00  0.00     0.223 A 
HETATM    7  O3  UNL     1      -4.257  51.886 -22.927  1.00  0.00    -0.360 OA
HETATM    8  C7  UNL     1      -3.743  50.761 -22.166  1.00  0.00     0.127 A 
HETATM    9  C8  UNL     1      -4.165  50.870 -20.723  1.00  0.00     0.170 C 
HETATM   10  C20 UNL     1      -5.621  50.413 -20.536  1.00  0.00     0.036 C 
HETATM   11  C21 UNL     1      -6.232  49.769 -21.785  1.00  0.00     0.007 C 
HETATM   12  C22 UNL     1      -5.291  48.748 -22.453  1.00  0.00    -0.007 C 
HETATM   13  C23 UNL     1      -5.196  47.498 -21.563  1.00  0.00     0.011 C 
HETATM   14  C24 UNL     1      -3.914  49.408 -22.863  1.00  0.00    -0.003 C 
HETATM   15  C25 UNL     1      -2.708  48.497 -22.541  1.00  0.00     0.019 C 
HETATM   16  C26 UNL     1      -3.922  49.658 -24.403  1.00  0.00     0.027 C 
HETATM   17  C27 UNL     1      -2.639  50.339 -24.921  1.00  0.00     0.082 C 
ENDROOT
BRANCH   9  18
HETATM   18  O4  UNL     1      -3.324  50.058 -19.882  1.00  0.00    -0.310 OA
BRANCH  18  19
HETATM   19  C9  UNL     1      -2.398  50.721 -19.143  1.00  0.00     0.296 C 
HETATM   20  O5  UNL     1      -2.531  51.859 -18.696  1.00  0.00    -0.262 OA
BRANCH  19  21
HETATM   21  C10 UNL     1      -1.127  49.895 -18.887  1.00  0.00     0.166 C 
BRANCH  21  22
HETATM   22  O6  UNL     1      -0.526  49.575 -20.161  1.00  0.00    -0.377 OA
HETATM   23  H10 UNL     1      -1.247  49.604 -20.824  1.00  0.00     0.211 HD
ENDBRANCH  21  22
BRANCH  21  24
HETATM   24  C11 UNL     1      -1.537  48.539 -18.272  1.00  0.00     0.212 C 
BRANCH  24  25
HETATM   25  O7  UNL     1      -1.851  47.535 -19.231  1.00  0.00    -0.397 OA
HETATM   26  H13 UNL     1      -2.774  47.674 -19.507  1.00  0.00     0.209 HD
ENDBRANCH  24  25
ENDBRANCH  21  24
BRANCH  21  27
HETATM   27  C12 UNL     1      -0.079  50.645 -18.035  1.00  0.00     0.055 C 
BRANCH  27  28
HETATM   28  C13 UNL     1      -0.131  50.453 -16.492  1.00  0.00    -0.015 C 
HETATM   29  C14 UNL     1       0.520  49.104 -16.156  1.00  0.00     0.010 C 
BRANCH  28  30
HETATM   30  C15 UNL     1       0.522  51.612 -15.709  1.00  0.00     0.008 C 
BRANCH  30  31
HETATM   31  C16 UNL     1       2.034  51.477 -15.402  1.00  0.00    -0.019 C 
HETATM   32  C17 UNL     1       2.325  51.668 -13.910  1.00  0.00     0.010 C 
BRANCH  31  33
HETATM   33  C18 UNL     1       2.809  52.499 -16.264  1.00  0.00    -0.000 C 
HETATM   34  C19 UNL     1       4.322  52.375 -16.155  1.00  0.00     0.005 C 
ENDBRANCH  31  33
ENDBRANCH  30  31
ENDBRANCH  28  30
ENDBRANCH  27  28
ENDBRANCH  21  27
ENDBRANCH  19  21
ENDBRANCH  18  19
ENDBRANCH   9  18
BRANCH   5  35
HETATM   35  O2  UNL     1      -0.722  51.239 -23.797  1.00  0.00    -0.357 OA
HETATM   36  C5  UNL     1      -0.061  52.207 -22.994  1.00  0.00     0.205 C 
ENDBRANCH   5  35
TORSDOF 12
ENDMDL
MODEL 4
REMARK minimizedAffinity -7.76820326
REMARK  12 active torsions:
REMARK  status: ('A' for Active; 'I' for Inactive)
REMARK    1  A    between atoms: C4_5  and  O2_6 
REMARK    2  A    between atoms: C8_11  and  O4_12 
REMARK    3  A    between atoms: O4_12  and  C9_13 
REMARK    4  A    between atoms: C9_13  and  C10_15 
REMARK    5  A    between atoms: C10_15  and  O6_16 
REMARK    6  A    between atoms: C10_15  and  C11_17 
REMARK    7  A    between atoms: C10_15  and  C12_19 
REMARK    8  A    between atoms: C11_17  and  O7_18 
REMARK    9  A    between atoms: C12_19  and  C13_20 
REMARK   10  A    between atoms: C13_20  and  C15_22 
REMARK   11  A    between atoms: C15_22  and  C16_23 
REMARK   12  A    between atoms: C16_23  and  C18_25 
ROOT
HETATM    1  C1  UNL     1      -0.454  53.522 -28.631  1.00  0.00     0.017 C 
HETATM    2  C2  UNL     1      -0.400  53.511 -27.292  1.00  0.00    -0.056 C 
HETATM    3  C3  UNL     1       0.070  54.618 -26.421  1.00  0.00     0.205 C 
HETATM    4  O1  UNL     1       0.696  53.990 -25.304  1.00  0.00    -0.348 OA
HETATM    5  C4  UNL     1       0.149  52.668 -25.133  1.00  0.00     0.201 C 
HETATM    6  C6  UNL     1      -0.623  52.627 -23.840  1.00  0.00     0.223 A 
HETATM    7  O3  UNL     1      -1.832  53.396 -23.840  1.00  0.00    -0.360 OA
HETATM    8  C7  UNL     1      -1.978  51.956 -23.722  1.00  0.00     0.127 A 
HETATM    9  C8  UNL     1      -2.559  51.598 -22.378  1.00  0.00     0.170 C 
HETATM   10  C20 UNL     1      -4.081  51.817 -22.358  1.00  0.00     0.036 C 
HETATM   11  C21 UNL     1      -4.678  52.141 -23.732  1.00  0.00     0.007 C 
HETATM   12  C22 UNL     1      -4.150  51.216 -24.845  1.00  0.00    -0.007 C 
HETATM   13  C23 UNL     1      -4.745  49.811 -24.653  1.00  0.00     0.011 C 
HETATM   14  C24 UNL     1      -2.575  51.288 -24.964  1.00  0.00    -0.003 C 
HETATM   15  C25 UNL     1      -1.938  49.894 -25.166  1.00  0.00     0.019 C 
HETATM   16  C26 UNL     1      -2.210  52.161 -26.203  1.00  0.00     0.027 C 
HETATM   17  C27 UNL     1      -0.691  52.339 -26.403  1.00  0.00     0.082 C 
ENDROOT
BRANCH   9  18
HETATM   18  O4  UNL     1      -2.296  50.218 -22.059  1.00  0.00    -0.310 OA
BRANCH  18  19
HETATM   19  C9  UNL     1      -2.433  49.870 -20.755  1.00  0.00     0.296 C 
HETATM   20  O5  UNL     1      -3.436  49.360 -20.258  1.00  0.00    -0.262 OA
BRANCH  19  21
HETATM   21  C10 UNL     1      -1.177  50.161 -19.917  1.00  0.00     0.166 C 
BRANCH  21  22
HETATM   22  O6  UNL     1      -0.015  49.904 -20.736  1.00  0.00    -0.377 OA
HETATM   23  H10 UNL     1      -0.293  49.263 -21.422  1.00  0.00     0.211 HD
ENDBRANCH  21  22
BRANCH  21  24
HETATM   24  C11 UNL     1      -1.106  49.134 -18.766  1.00  0.00     0.212 C 
BRANCH  24  25
HETATM   25  O7  UNL     1      -1.393  47.796 -19.158  1.00  0.00    -0.397 OA
HETATM   26  H13 UNL     1      -2.362  47.697 -19.169  1.00  0.00     0.209 HD
ENDBRANCH  24  25
ENDBRANCH  21  24
BRANCH  21  27
HETATM   27  C12 UNL     1      -1.104  51.622 -19.421  1.00  0.00     0.055 C 
BRANCH  27  28
HETATM   28  C13 UNL     1       0.306  52.261 -19.263  1.00  0.00    -0.015 C 
HETATM   29  C14 UNL     1       0.416  53.426 -20.257  1.00  0.00     0.010 C 
BRANCH  28  30
HETATM   30  C15 UNL     1       0.615  52.712 -17.819  1.00  0.00     0.008 C 
BRANCH  30  31
HETATM   31  C16 UNL     1       1.696  51.906 -17.058  1.00  0.00    -0.019 C 
HETATM   32  C17 UNL     1       1.113  51.205 -15.827  1.00  0.00     0.010 C 
BRANCH  31  33
HETATM   33  C18 UNL     1       2.847  52.861 -16.671  1.00  0.00    -0.000 C 
HETATM   34  C19 UNL     1       3.914  52.218 -15.797  1.00  0.00     0.005 C 
ENDBRANCH  31  33
ENDBRANCH  30  31
ENDBRANCH  28  30
ENDBRANCH  27  28
ENDBRANCH  21  27
ENDBRANCH  19  21
ENDBRANCH  18  19
ENDBRANCH   9  18
BRANCH   5  35
HETATM   35  O2  UNL     1       1.199  51.681 -25.082  1.00  0.00    -0.357 OA
HETATM   36  C5  UNL     1       2.066  51.678 -26.207  1.00  0.00     0.205 C 
ENDBRANCH   5  35
TORSDOF 12
ENDMDL
MODEL 5
REMARK minimizedAffinity -7.67303801
REMARK  12 active torsions:
REMARK  status: ('A' for Active; 'I' for Inactive)
REMARK    1  A    between atoms: C4_5  and  O2_6 
REMARK    2  A    between atoms: C8_11  and  O4_12 
REMARK    3  A    between atoms: O4_12  and  C9_13 
REMARK    4  A    between atoms: C9_13  and  C10_15 
REMARK    5  A    between atoms: C10_15  and  O6_16 
REMARK    6  A    between atoms: C10_15  and  C11_17 
REMARK    7  A    between atoms: C10_15  and  C12_19 
REMARK    8  A    between atoms: C11_17  and  O7_18 
REMARK    9  A    between atoms: C12_19  and  C13_20 
REMARK   10  A    between atoms: C13_20  and  C15_22 
REMARK   11  A    between atoms: C15_22  and  C16_23 
REMARK   12  A    between atoms: C16_23  and  C18_25 
ROOT
HETATM    1  C1  UNL     1      -0.317  50.716 -26.650  1.00  0.00     0.017 C 
HETATM    2  C2  UNL     1      -0.815  51.319 -25.562  1.00  0.00    -0.056 C 
HETATM    3  C3  UNL     1      -1.093  52.769 -25.409  1.00  0.00     0.205 C 
HETATM    4  O1  UNL     1      -0.823  53.073 -24.042  1.00  0.00    -0.348 OA
HETATM    5  C4  UNL     1      -0.973  51.877 -23.251  1.00  0.00     0.201 C 
HETATM    6  C6  UNL     1      -2.156  52.049 -22.334  1.00  0.00     0.223 A 
HETATM    7  O3  UNL     1      -3.427  52.069 -22.994  1.00  0.00    -0.360 OA
HETATM    8  C7  UNL     1      -3.175  50.949 -22.105  1.00  0.00     0.127 A 
HETATM    9  C8  UNL     1      -4.119  50.990 -20.932  1.00  0.00     0.170 C 
HETATM   10  C20 UNL     1      -5.506  50.451 -21.319  1.00  0.00     0.036 C 
HETATM   11  C21 UNL     1      -5.556  49.816 -22.713  1.00  0.00     0.007 C 
HETATM   12  C22 UNL     1      -4.372  48.869 -22.980  1.00  0.00    -0.007 C 
HETATM   13  C23 UNL     1      -4.547  47.597 -22.134  1.00  0.00     0.011 C 
HETATM   14  C24 UNL     1      -2.985  49.612 -22.827  1.00  0.00    -0.003 C 
HETATM   15  C25 UNL     1      -1.939  48.756 -22.078  1.00  0.00     0.019 C 
HETATM   16  C26 UNL     1      -2.422  49.910 -24.252  1.00  0.00     0.027 C 
HETATM   17  C27 UNL     1      -1.081  50.673 -24.235  1.00  0.00     0.082 C 
ENDROOT
BRANCH   9  18
HETATM   18  O4  UNL     1      -3.614  50.196 -19.841  1.00  0.00    -0.310 OA
BRANCH  18  19
HETATM   19  C9  UNL     1      -2.917  50.865 -18.888  1.00  0.00     0.296 C 
HETATM   20  O5  UNL     1      -2.821  52.089 -18.807  1.00  0.00    -0.262 OA
BRANCH  19  21
HETATM   21  C10 UNL     1      -2.244  49.933 -17.866  1.00  0.00     0.166 C 
BRANCH  21  22
HETATM   22  O6  UNL     1      -1.435  48.978 -18.586  1.00  0.00    -0.377 OA
HETATM   23  H10 UNL     1      -1.819  48.908 -19.484  1.00  0.00     0.211 HD
ENDBRANCH  21  22
BRANCH  21  24
HETATM   24  C11 UNL     1      -3.341  49.101 -17.166  1.00  0.00     0.212 C 
BRANCH  24  25
HETATM   25  O7  UNL     1      -3.369  49.247 -15.750  1.00  0.00    -0.397 OA
HETATM   26  H13 UNL     1      -2.696  48.647 -15.381  1.00  0.00     0.209 HD
ENDBRANCH  24  25
ENDBRANCH  21  24
BRANCH  21  27
HETATM   27  C12 UNL     1      -1.334  50.683 -16.870  1.00  0.00     0.055 C 
BRANCH  27  28
HETATM   28  C13 UNL     1       0.196  50.686 -17.150  1.00  0.00    -0.015 C 
HETATM   29  C14 UNL     1       0.587  52.085 -17.647  1.00  0.00     0.010 C 
BRANCH  28  30
HETATM   30  C15 UNL     1       1.043  50.256 -15.934  1.00  0.00     0.008 C 
BRANCH  30  31
HETATM   31  C16 UNL     1       1.758  51.385 -15.152  1.00  0.00    -0.019 C 
HETATM   32  C17 UNL     1       0.761  52.255 -14.381  1.00  0.00     0.010 C 
BRANCH  31  33
HETATM   33  C18 UNL     1       2.591  52.227 -16.145  1.00  0.00    -0.000 C 
HETATM   34  C19 UNL     1       4.079  52.258 -15.830  1.00  0.00     0.005 C 
ENDBRANCH  31  33
ENDBRANCH  30  31
ENDBRANCH  28  30
ENDBRANCH  27  28
ENDBRANCH  21  27
ENDBRANCH  19  21
ENDBRANCH  18  19
ENDBRANCH   9  18
BRANCH   5  35
HETATM   35  O2  UNL     1       0.205  51.637 -22.455  1.00  0.00    -0.357 OA
HETATM   36  C5  UNL     1       0.175  52.222 -21.161  1.00  0.00     0.205 C 
ENDBRANCH   5  35
TORSDOF 12
ENDMDL
MODEL 6
REMARK minimizedAffinity -7.61436272
REMARK  12 active torsions:
REMARK  status: ('A' for Active; 'I' for Inactive)
REMARK    1  A    between atoms: C4_5  and  O2_6 
REMARK    2  A    between atoms: C8_11  and  O4_12 
REMARK    3  A    between atoms: O4_12  and  C9_13 
REMARK    4  A    between atoms: C9_13  and  C10_15 
REMARK    5  A    between atoms: C10_15  and  O6_16 
REMARK    6  A    between atoms: C10_15  and  C11_17 
REMARK    7  A    between atoms: C10_15  and  C12_19 
REMARK    8  A    between atoms: C11_17  and  O7_18 
REMARK    9  A    between atoms: C12_19  and  C13_20 
REMARK   10  A    between atoms: C13_20  and  C15_22 
REMARK   11  A    between atoms: C15_22  and  C16_23 
REMARK   12  A    between atoms: C16_23  and  C18_25 
ROOT
HETATM    1  C1  UNL     1      -0.802  53.697 -28.444  1.00  0.00     0.017 C 
HETATM    2  C2  UNL     1      -0.520  53.429 -27.162  1.00  0.00    -0.056 C 
HETATM    3  C3  UNL     1       0.308  54.259 -26.252  1.00  0.00     0.205 C 
HETATM    4  O1  UNL     1       0.980  53.339 -25.394  1.00  0.00    -0.348 OA
HETATM    5  C4  UNL     1       0.215  52.120 -25.313  1.00  0.00     0.201 C 
HETATM    6  C6  UNL     1      -0.313  51.972 -23.909  1.00  0.00     0.223 A 
HETATM    7  O3  UNL     1      -1.322  52.922 -23.546  1.00  0.00    -0.360 OA
HETATM    8  C7  UNL     1      -1.734  51.531 -23.616  1.00  0.00     0.127 A 
HETATM    9  C8  UNL     1      -2.132  51.035 -22.250  1.00  0.00     0.170 C 
HETATM   10  C20 UNL     1      -3.551  51.502 -21.884  1.00  0.00     0.036 C 
HETATM   11  C21 UNL     1      -4.300  52.170 -23.042  1.00  0.00     0.007 C 
HETATM   12  C22 UNL     1      -4.173  51.392 -24.365  1.00  0.00    -0.007 C 
HETATM   13  C23 UNL     1      -4.997  50.097 -24.266  1.00  0.00     0.011 C 
HETATM   14  C24 UNL     1      -2.661  51.215 -24.793  1.00  0.00    -0.003 C 
HETATM   15  C25 UNL     1      -2.364  49.796 -25.327  1.00  0.00     0.019 C 
HETATM   16  C26 UNL     1      -2.348  52.228 -25.937  1.00  0.00     0.027 C 
HETATM   17  C27 UNL     1      -0.883  52.179 -26.417  1.00  0.00     0.082 C 
ENDROOT
BRANCH   9  18
HETATM   18  O4  UNL     1      -2.103  49.596 -22.201  1.00  0.00    -0.310 OA
BRANCH  18  19
HETATM   19  C9  UNL     1      -2.782  49.019 -21.176  1.00  0.00     0.296 C 
HETATM   20  O5  UNL     1      -4.005  49.019 -21.047  1.00  0.00    -0.262 OA
BRANCH  19  21
HETATM   21  C10 UNL     1      -1.862  48.324 -20.159  1.00  0.00     0.166 C 
BRANCH  21  22
HETATM   22  O6  UNL     1      -0.781  47.693 -20.879  1.00  0.00    -0.377 OA
HETATM   23  H10 UNL     1      -1.110  47.527 -21.787  1.00  0.00     0.211 HD
ENDBRANCH  21  22
BRANCH  21  24
HETATM   24  C11 UNL     1      -2.646  47.169 -19.498  1.00  0.00     0.212 C 
BRANCH  24  25
HETATM   25  O7  UNL     1      -2.183  46.817 -18.198  1.00  0.00    -0.397 OA
HETATM   26  H13 UNL     1      -1.424  46.219 -18.312  1.00  0.00     0.209 HD
ENDBRANCH  24  25
ENDBRANCH  21  24
BRANCH  21  27
HETATM   27  C12 UNL     1      -1.251  49.298 -19.129  1.00  0.00     0.055 C 
BRANCH  27  28
HETATM   28  C13 UNL     1      -2.197  50.347 -18.476  1.00  0.00    -0.015 C 
HETATM   29  C14 UNL     1      -2.361  49.985 -16.994  1.00  0.00     0.010 C 
BRANCH  28  30
HETATM   30  C15 UNL     1      -1.717  51.802 -18.659  1.00  0.00     0.008 C 
BRANCH  30  31
HETATM   31  C16 UNL     1      -0.194  52.011 -18.848  1.00  0.00    -0.019 C 
HETATM   32  C17 UNL     1       0.568  51.829 -17.531  1.00  0.00     0.010 C 
BRANCH  31  33
HETATM   33  C18 UNL     1       0.044  53.416 -19.447  1.00  0.00    -0.000 C 
HETATM   34  C19 UNL     1       0.997  53.426 -20.633  1.00  0.00     0.005 C 
ENDBRANCH  31  33
ENDBRANCH  30  31
ENDBRANCH  28  30
ENDBRANCH  27  28
ENDBRANCH  21  27
ENDBRANCH  19  21
ENDBRANCH  18  19
ENDBRANCH   9  18
BRANCH   5  35
HETATM   35  O2  UNL     1       1.035  50.977 -25.626  1.00  0.00    -0.357 OA
HETATM   36  C5  UNL     1       2.264  51.287 -26.268  1.00  0.00     0.205 C 
ENDBRANCH   5  35
TORSDOF 12
ENDMDL
MODEL 7
REMARK minimizedAffinity -7.39631939
REMARK  12 active torsions:
REMARK  status: ('A' for Active; 'I' for Inactive)
REMARK    1  A    between atoms: C4_5  and  O2_6 
REMARK    2  A    between atoms: C8_11  and  O4_12 
REMARK    3  A    between atoms: O4_12  and  C9_13 
REMARK    4  A    between atoms: C9_13  and  C10_15 
REMARK    5  A    between atoms: C10_15  and  O6_16 
REMARK    6  A    between atoms: C10_15  and  C11_17 
REMARK    7  A    between atoms: C10_15  and  C12_19 
REMARK    8  A    between atoms: C11_17  and  O7_18 
REMARK    9  A    between atoms: C12_19  and  C13_20 
REMARK   10  A    between atoms: C13_20  and  C15_22 
REMARK   11  A    between atoms: C15_22  and  C16_23 
REMARK   12  A    between atoms: C16_23  and  C18_25 
ROOT
HETATM    1  C1  UNL     1       0.791  54.513 -24.253  1.00  0.00     0.017 C 
HETATM    2  C2  UNL     1       0.223  53.354 -24.615  1.00  0.00    -0.056 C 
HETATM    3  C3  UNL     1       0.850  52.286 -25.433  1.00  0.00     0.205 C 
HETATM    4  O1  UNL     1      -0.207  51.719 -26.205  1.00  0.00    -0.348 OA
HETATM    5  C4  UNL     1      -1.460  51.935 -25.525  1.00  0.00     0.201 C 
HETATM    6  C6  UNL     1      -2.004  50.602 -25.079  1.00  0.00     0.223 A 
HETATM    7  O3  UNL     1      -1.259  49.972 -24.030  1.00  0.00    -0.360 OA
HETATM    8  C7  UNL     1      -2.611  50.390 -23.705  1.00  0.00     0.127 A 
HETATM    9  C8  UNL     1      -3.472  49.189 -23.409  1.00  0.00     0.170 C 
HETATM   10  C20 UNL     1      -3.224  48.669 -21.983  1.00  0.00     0.036 C 
HETATM   11  C21 UNL     1      -2.337  49.588 -21.135  1.00  0.00     0.007 C 
HETATM   12  C22 UNL     1      -2.736  51.072 -21.247  1.00  0.00    -0.007 C 
HETATM   13  C23 UNL     1      -4.070  51.288 -20.514  1.00  0.00     0.011 C 
HETATM   14  C24 UNL     1      -2.682  51.579 -22.743  1.00  0.00    -0.003 C 
HETATM   15  C25 UNL     1      -3.889  52.474 -23.103  1.00  0.00     0.019 C 
HETATM   16  C26 UNL     1      -1.387  52.428 -22.932  1.00  0.00     0.027 C 
HETATM   17  C27 UNL     1      -1.200  52.951 -24.372  1.00  0.00     0.082 C 
ENDROOT
BRANCH   9  18
HETATM   18  O4  UNL     1      -4.869  49.518 -23.533  1.00  0.00    -0.310 OA
BRANCH  18  19
HETATM   19  C9  UNL     1      -5.549  48.874 -24.516  1.00  0.00     0.296 C 
HETATM   20  O5  UNL     1      -5.066  48.492 -25.580  1.00  0.00    -0.262 OA
BRANCH  19  21
HETATM   21  C10 UNL     1      -7.028  48.637 -24.169  1.00  0.00     0.166 C 
BRANCH  21  22
HETATM   22  O6  UNL     1      -7.837  49.464 -25.034  1.00  0.00    -0.377 OA
HETATM   23  H10 UNL     1      -7.271  50.214 -25.311  1.00  0.00     0.211 HD
ENDBRANCH  21  22
BRANCH  21  24
HETATM   24  C11 UNL     1      -7.287  49.158 -22.739  1.00  0.00     0.212 C 
BRANCH  24  25
HETATM   25  O7  UNL     1      -7.452  50.570 -22.653  1.00  0.00    -0.397 OA
HETATM   26  H13 UNL     1      -6.563  50.966 -22.622  1.00  0.00     0.209 HD
ENDBRANCH  24  25
ENDBRANCH  21  24
BRANCH  21  27
HETATM   27  C12 UNL     1      -7.467  47.168 -24.358  1.00  0.00     0.055 C 
BRANCH  27  28
HETATM   28  C13 UNL     1      -7.619  46.641 -25.814  1.00  0.00    -0.015 C 
HETATM   29  C14 UNL     1      -8.371  45.304 -25.761  1.00  0.00     0.010 C 
BRANCH  28  30
HETATM   30  C15 UNL     1      -8.307  47.646 -26.762  1.00  0.00     0.008 C 
BRANCH  30  31
HETATM   31  C16 UNL     1      -7.954  47.535 -28.266  1.00  0.00    -0.019 C 
HETATM   32  C17 UNL     1      -6.440  47.590 -28.495  1.00  0.00     0.010 C 
BRANCH  31  33
HETATM   33  C18 UNL     1      -8.683  48.662 -29.032  1.00  0.00    -0.000 C 
HETATM   34  C19 UNL     1      -9.430  48.183 -30.268  1.00  0.00     0.005 C 
ENDBRANCH  31  33
ENDBRANCH  30  31
ENDBRANCH  28  30
ENDBRANCH  27  28
ENDBRANCH  21  27
ENDBRANCH  19  21
ENDBRANCH  18  19
ENDBRANCH   9  18
BRANCH   5  35
HETATM   35  O2  UNL     1      -2.418  52.562 -26.401  1.00  0.00    -0.357 OA
HETATM   36  C5  UNL     1      -2.841  51.755 -27.491  1.00  0.00     0.205 C 
ENDBRANCH   5  35
TORSDOF 12
ENDMDL
MODEL 8
REMARK minimizedAffinity -7.33125305
REMARK  12 active torsions:
REMARK  status: ('A' for Active; 'I' for Inactive)
REMARK    1  A    between atoms: C4_5  and  O2_6 
REMARK    2  A    between atoms: C8_11  and  O4_12 
REMARK    3  A    between atoms: O4_12  and  C9_13 
REMARK    4  A    between atoms: C9_13  and  C10_15 
REMARK    5  A    between atoms: C10_15  and  O6_16 
REMARK    6  A    between atoms: C10_15  and  C11_17 
REMARK    7  A    between atoms: C10_15  and  C12_19 
REMARK    8  A    between atoms: C11_17  and  O7_18 
REMARK    9  A    between atoms: C12_19  and  C13_20 
REMARK   10  A    between atoms: C13_20  and  C15_22 
REMARK   11  A    between atoms: C15_22  and  C16_23 
REMARK   12  A    between atoms: C16_23  and  C18_25 
ROOT
HETATM    1  C1  UNL     1       0.101  51.168 -27.774  1.00  0.00     0.017 C 
HETATM    2  C2  UNL     1      -0.933  51.586 -27.032  1.00  0.00    -0.056 C 
HETATM    3  C3  UNL     1      -2.095  52.377 -27.509  1.00  0.00     0.205 C 
HETATM    4  O1  UNL     1      -2.457  53.226 -26.422  1.00  0.00    -0.348 OA
HETATM    5  C4  UNL     1      -2.020  52.627 -25.185  1.00  0.00     0.201 C 
HETATM    6  C6  UNL     1      -3.233  52.240 -24.380  1.00  0.00     0.223 A 
HETATM    7  O3  UNL     1      -3.991  51.154 -24.925  1.00  0.00    -0.360 OA
HETATM    8  C7  UNL     1      -3.336  50.913 -23.652  1.00  0.00     0.127 A 
HETATM    9  C8  UNL     1      -4.361  50.694 -22.569  1.00  0.00     0.170 C 
HETATM   10  C20 UNL     1      -4.922  49.263 -22.621  1.00  0.00     0.036 C 
HETATM   11  C21 UNL     1      -4.183  48.344 -23.599  1.00  0.00     0.007 C 
HETATM   12  C22 UNL     1      -2.651  48.458 -23.484  1.00  0.00    -0.007 C 
HETATM   13  C23 UNL     1      -2.198  47.812 -22.164  1.00  0.00     0.011 C 
HETATM   14  C24 UNL     1      -2.157  49.940 -23.732  1.00  0.00    -0.003 C 
HETATM   15  C25 UNL     1      -1.056  50.365 -22.735  1.00  0.00     0.019 C 
HETATM   16  C26 UNL     1      -1.557  50.028 -25.169  1.00  0.00     0.027 C 
HETATM   17  C27 UNL     1      -1.072  51.444 -25.545  1.00  0.00     0.082 C 
ENDROOT
BRANCH   9  18
HETATM   18  O4  UNL     1      -3.783  50.906 -21.267  1.00  0.00    -0.310 OA
BRANCH  18  19
HETATM   19  C9  UNL     1      -4.453  50.360 -20.220  1.00  0.00     0.296 C 
HETATM   20  O5  UNL     1      -5.677  50.301 -20.114  1.00  0.00    -0.262 OA
BRANCH  19  21
HETATM   21  C10 UNL     1      -3.520  49.784 -19.142  1.00  0.00     0.166 C 
BRANCH  21  22
HETATM   22  O6  UNL     1      -2.322  49.300 -19.788  1.00  0.00    -0.377 OA
HETATM   23  H10 UNL     1      -2.567  49.098 -20.715  1.00  0.00     0.211 HD
ENDBRANCH  21  22
BRANCH  21  24
HETATM   24  C11 UNL     1      -4.191  48.535 -18.530  1.00  0.00     0.212 C 
BRANCH  24  25
HETATM   25  O7  UNL     1      -5.168  48.825 -17.535  1.00  0.00    -0.397 OA
HETATM   26  H13 UNL     1      -4.696  48.967 -16.695  1.00  0.00     0.209 HD
ENDBRANCH  24  25
ENDBRANCH  21  24
BRANCH  21  27
HETATM   27  C12 UNL     1      -3.108  50.823 -18.078  1.00  0.00     0.055 C 
BRANCH  27  28
HETATM   28  C13 UNL     1      -1.607  50.891 -17.676  1.00  0.00    -0.015 C 
HETATM   29  C14 UNL     1      -1.227  49.555 -17.021  1.00  0.00     0.010 C 
BRANCH  28  30
HETATM   30  C15 UNL     1      -0.671  51.234 -18.855  1.00  0.00     0.008 C 
BRANCH  30  31
HETATM   31  C16 UNL     1       0.030  52.614 -18.804  1.00  0.00    -0.019 C 
HETATM   32  C17 UNL     1       0.200  53.211 -20.205  1.00  0.00     0.010 C 
BRANCH  31  33
HETATM   33  C18 UNL     1       1.391  52.453 -18.091  1.00  0.00    -0.000 C 
HETATM   34  C19 UNL     1       1.292  52.432 -16.572  1.00  0.00     0.005 C 
ENDBRANCH  31  33
ENDBRANCH  30  31
ENDBRANCH  28  30
ENDBRANCH  27  28
ENDBRANCH  21  27
ENDBRANCH  19  21
ENDBRANCH  18  19
ENDBRANCH   9  18
BRANCH   5  35
HETATM   35  O2  UNL     1      -1.226  53.555 -24.419  1.00  0.00    -0.357 OA
HETATM   36  C5  UNL     1       0.170  53.297 -24.436  1.00  0.00     0.205 C 
ENDBRANCH   5  35
TORSDOF 12
ENDMDL
MODEL 9
REMARK minimizedAffinity -7.27386713
REMARK  12 active torsions:
REMARK  status: ('A' for Active; 'I' for Inactive)
REMARK    1  A    between atoms: C4_5  and  O2_6 
REMARK    2  A    between atoms: C8_11  and  O4_12 
REMARK    3  A    between atoms: O4_12  and  C9_13 
REMARK    4  A    between atoms: C9_13  and  C10_15 
REMARK    5  A    between atoms: C10_15  and  O6_16 
REMARK    6  A    between atoms: C10_15  and  C11_17 
REMARK    7  A    between atoms: C10_15  and  C12_19 
REMARK    8  A    between atoms: C11_17  and  O7_18 
REMARK    9  A    between atoms: C12_19  and  C13_20 
REMARK   10  A    between atoms: C13_20  and  C15_22 
REMARK   11  A    between atoms: C15_22  and  C16_23 
REMARK   12  A    between atoms: C16_23  and  C18_25 
ROOT
HETATM    1  C1  UNL     1      -5.393  46.887 -17.262  1.00  0.00     0.017 C 
HETATM    2  C2  UNL     1      -4.447  47.152 -18.173  1.00  0.00    -0.056 C 
HETATM    3  C3  UNL     1      -3.213  46.363 -18.416  1.00  0.00     0.205 C 
HETATM    4  O1  UNL     1      -2.216  47.312 -18.790  1.00  0.00    -0.348 OA
HETATM    5  C4  UNL     1      -2.854  48.478 -19.347  1.00  0.00     0.201 C 
HETATM    6  C6  UNL     1      -2.501  48.570 -20.809  1.00  0.00     0.223 A 
HETATM    7  O3  UNL     1      -3.085  47.553 -21.632  1.00  0.00    -0.360 OA
HETATM    8  C7  UNL     1      -3.525  48.915 -21.874  1.00  0.00     0.127 A 
HETATM    9  C8  UNL     1      -3.103  49.364 -23.249  1.00  0.00     0.170 C 
HETATM   10  C20 UNL     1      -4.043  48.803 -24.327  1.00  0.00     0.036 C 
HETATM   11  C21 UNL     1      -5.286  48.105 -23.762  1.00  0.00     0.007 C 
HETATM   12  C22 UNL     1      -5.963  48.910 -22.637  1.00  0.00    -0.007 C 
HETATM   13  C23 UNL     1      -6.643  50.148 -23.246  1.00  0.00     0.011 C 
HETATM   14  C24 UNL     1      -4.968  49.189 -21.440  1.00  0.00    -0.003 C 
HETATM   15  C25 UNL     1      -5.089  50.632 -20.902  1.00  0.00     0.019 C 
HETATM   16  C26 UNL     1      -5.313  48.216 -20.271  1.00  0.00     0.027 C 
HETATM   17  C27 UNL     1      -4.380  48.365 -19.052  1.00  0.00     0.082 C 
ENDROOT
BRANCH   9  18
HETATM   18  O4  UNL     1      -3.114  50.802 -23.343  1.00  0.00    -0.310 OA
BRANCH  18  19
HETATM   19  C9  UNL     1      -3.450  51.319 -24.552  1.00  0.00     0.296 C 
HETATM   20  O5  UNL     1      -4.591  51.611 -24.906  1.00  0.00    -0.262 OA
BRANCH  19  21
HETATM   21  C10 UNL     1      -2.239  51.534 -25.474  1.00  0.00     0.166 C 
BRANCH  21  22
HETATM   22  O6  UNL     1      -2.046  52.954 -25.649  1.00  0.00    -0.377 OA
HETATM   23  H10 UNL     1      -2.916  53.375 -25.489  1.00  0.00     0.211 HD
ENDBRANCH  21  22
BRANCH  21  24
HETATM   24  C11 UNL     1      -2.587  50.988 -26.876  1.00  0.00     0.212 C 
BRANCH  24  25
HETATM   25  O7  UNL     1      -1.809  51.547 -27.930  1.00  0.00    -0.397 OA
HETATM   26  H13 UNL     1      -2.217  52.397 -28.173  1.00  0.00     0.209 HD
ENDBRANCH  24  25
ENDBRANCH  21  24
BRANCH  21  27
HETATM   27  C12 UNL     1      -0.932  50.936 -24.907  1.00  0.00     0.055 C 
BRANCH  27  28
HETATM   28  C13 UNL     1       0.235  51.916 -24.595  1.00  0.00    -0.015 C 
HETATM   29  C14 UNL     1       0.420  52.840 -25.808  1.00  0.00     0.010 C 
BRANCH  28  30
HETATM   30  C15 UNL     1       0.031  52.718 -23.293  1.00  0.00     0.008 C 
BRANCH  30  31
HETATM   31  C16 UNL     1       0.814  52.231 -22.048  1.00  0.00    -0.019 C 
HETATM   32  C17 UNL     1      -0.044  51.321 -21.164  1.00  0.00     0.010 C 
BRANCH  31  33
HETATM   33  C18 UNL     1       1.320  53.464 -21.266  1.00  0.00    -0.000 C 
HETATM   34  C19 UNL     1       0.415  53.878 -20.115  1.00  0.00     0.005 C 
ENDBRANCH  31  33
ENDBRANCH  30  31
ENDBRANCH  28  30
ENDBRANCH  27  28
ENDBRANCH  21  27
ENDBRANCH  19  21
ENDBRANCH  18  19
ENDBRANCH   9  18
BRANCH   5  35
HETATM   35  O2  UNL     1      -2.406  49.676 -18.682  1.00  0.00    -0.357 OA
HETATM   36  C5  UNL     1      -3.187  50.831 -18.951  1.00  0.00     0.205 C 
ENDBRANCH   5  35
TORSDOF 12
ENDMDL
