MODEL 1
REMARK minimizedAffinity -7.80560255
REMARK CNNscore 0.536937177
REMARK CNNaffinity 7.08998108
REMARK  13 active torsions:
REMARK  status: ('A' for Active; 'I' for Inactive)
REMARK    1  A    between atoms: O1_2  and  C2_3 
REMARK    2  A    between atoms: C2_3  and  C3_4 
REMARK    3  A    between atoms: C3_4  and  C4_5 
REMARK    4  A    between atoms: C4_5  and  N1_6 
REMARK    5  A    between atoms: N1_6  and  C5_7 
REMARK    6  A    between atoms: C5_7  and  C6_8 
REMARK    7  A    between atoms: C10_12  and  O2_13 
REMARK    8  A    between atoms: C16_19  and  O3_20 
REMARK    9  A    between atoms: C20_24  and  C21_25 
REMARK   10  A    between atoms: C21_25  and  C23_27 
REMARK   11  A    between atoms: C31_35  and  O4_36 
REMARK   12  A    between atoms: C34_39  and  C35_40 
REMARK   13  A    between atoms: C36_42  and  O6_43 
ROOT
HETATM    1  C6  UNL     1      -5.476  50.756 -22.108  1.00  0.00    -0.022 C 
HETATM    2  C7  UNL     1      -6.455  49.910 -22.512  1.00  0.00    -0.014 C 
HETATM    3  C8  UNL     1      -6.981  48.843 -21.585  1.00  0.00     0.021 C 
HETATM    4  C9  UNL     1      -8.436  48.378 -21.694  1.00  0.00     0.051 C 
HETATM    5  C10 UNL     1      -8.537  47.431 -20.474  1.00  0.00     0.098 C 
HETATM    6  C11 UNL     1      -7.821  48.257 -19.332  1.00  0.00    -0.002 C 
HETATM    7  C12 UNL     1      -7.081  47.371 -18.322  1.00  0.00     0.019 C 
HETATM    8  C13 UNL     1      -8.858  49.138 -18.573  1.00  0.00     0.013 C 
HETATM    9  C14 UNL     1     -10.107  48.396 -18.131  1.00  0.00     0.010 C 
HETATM   10  C15 UNL     1     -10.871  47.811 -19.340  1.00  0.00     0.041 C 
HETATM   11  C16 UNL     1      -9.951  46.848 -20.108  1.00  0.00     0.095 C 
HETATM   12  C17 UNL     1     -10.660  46.246 -21.339  1.00  0.00     0.049 C 
HETATM   13  C18 UNL     1     -12.187  46.504 -21.432  1.00  0.00     0.025 C 
HETATM   14  C19 UNL     1     -12.691  45.682 -22.647  1.00  0.00     0.012 C 
HETATM   15  C20 UNL     1     -14.196  45.620 -23.000  1.00  0.00    -0.010 C 
HETATM   16  C28 UNL     1     -14.951  46.922 -22.674  1.00  0.00     0.005 C 
HETATM   17  C29 UNL     1     -14.939  47.404 -21.218  1.00  0.00     0.010 C 
HETATM   18  C30 UNL     1     -14.457  46.370 -20.193  1.00  0.00     0.050 C 
HETATM   19  C31 UNL     1     -15.099  46.599 -18.820  1.00  0.00     0.125 C 
HETATM   20  C32 UNL     1     -14.647  47.889 -18.154  1.00  0.00     0.033 C 
HETATM   21  C33 UNL     1     -13.231  48.320 -18.558  1.00  0.00     0.023 C 
HETATM   22  C34 UNL     1     -12.263  47.155 -18.917  1.00  0.00     0.051 C 
HETATM   23  C36 UNL     1     -12.895  46.242 -20.075  1.00  0.00     0.082 C 
HETATM   24  C37 UNL     1      -6.882  49.262 -20.106  1.00  0.00     0.036 C 
HETATM   25  C38 UNL     1      -5.438  49.579 -19.885  1.00  0.00    -0.035 C 
HETATM   26  C39 UNL     1      -4.438  48.979 -19.255  1.00  0.00     0.088 C 
HETATM   27  C40 UNL     1      -3.222  49.682 -19.665  1.00  0.00     0.284 C 
HETATM   28  O7  UNL     1      -2.104  49.409 -19.254  1.00  0.00    -0.260 OA
HETATM   29  O8  UNL     1      -3.525  50.644 -20.581  1.00  0.00    -0.304 OA
HETATM   30  C41 UNL     1      -4.938  50.748 -20.676  1.00  0.00     0.192 C 
ENDROOT
BRANCH   1  31
HETATM   31  C5  UNL     1      -4.934  51.833 -23.011  1.00  0.00     0.306 C 
BRANCH  31  32
HETATM   32  N1  UNL     1      -5.085  51.421 -24.402  1.00  0.00     0.087 N 
HETATM   33  H10 UNL     1      -5.882  51.904 -24.820  1.00  0.00     0.316 HD
BRANCH  32  34
HETATM   34  C4  UNL     1      -3.874  51.668 -25.177  1.00  0.00     0.272 C 
BRANCH  34  35
HETATM   35  C3  UNL     1      -2.865  52.500 -24.380  1.00  0.00     0.056 C 
BRANCH  35  36
HETATM   36  C2  UNL     1      -1.426  52.336 -24.870  1.00  0.00     0.168 C 
BRANCH  36  37
HETATM   37  O1  UNL     1      -0.836  53.622 -25.071  1.00  0.00    -0.396 OA
HETATM   38  C1  UNL     1       0.560  53.628 -24.802  1.00  0.00     0.201 C 
ENDBRANCH  36  37
ENDBRANCH  35  36
ENDBRANCH  34  35
ENDBRANCH  32  34
ENDBRANCH  31  32
ENDBRANCH   1  31
BRANCH   5  39
HETATM   39  O2  UNL     1      -7.714  46.272 -20.782  1.00  0.00    -0.386 OA
HETATM   40  H17 UNL     1      -8.055  45.865 -21.600  1.00  0.00     0.210 HD
ENDBRANCH   5  39
BRANCH  11  41
HETATM   41  O3  UNL     1      -9.701  45.741 -19.213  1.00  0.00    -0.386 OA
HETATM   42  H26 UNL     1      -8.842  45.360 -19.479  1.00  0.00     0.210 HD
ENDBRANCH  11  41
BRANCH  22  43
HETATM   43  C35 UNL     1     -12.020  46.338 -17.629  1.00  0.00     0.244 C 
HETATM   44  O5  UNL     1     -12.377  46.702 -16.507  1.00  0.00    -0.306 OA
ENDBRANCH  22  43
BRANCH  23  45
HETATM   45  O6  UNL     1     -12.646  44.852 -19.783  1.00  0.00    -0.388 OA
HETATM   46  H58 UNL     1     -13.298  44.585 -19.097  1.00  0.00     0.210 HD
ENDBRANCH  23  45
BRANCH  15  47
HETATM   47  C21 UNL     1     -14.422  45.167 -24.504  1.00  0.00    -0.011 C 
HETATM   48  C22 UNL     1     -15.918  45.197 -24.876  1.00  0.00     0.011 C 
BRANCH  47  49
HETATM   49  C23 UNL     1     -13.566  46.029 -25.490  1.00  0.00    -0.010 C 
HETATM   50  C24 UNL     1     -14.303  46.724 -26.645  1.00  0.00     0.005 C 
HETATM   51  C25 UNL     1     -13.180  47.173 -27.574  1.00  0.00     0.000 C 
HETATM   52  C26 UNL     1     -12.072  46.132 -27.401  1.00  0.00     0.000 C 
HETATM   53  C27 UNL     1     -12.534  45.203 -26.279  1.00  0.00     0.005 C 
ENDBRANCH  47  49
ENDBRANCH  15  47
BRANCH  19  54
HETATM   54  O4  UNL     1     -14.737  45.478 -18.006  1.00  0.00    -0.395 OA
HETATM   55  H52 UNL     1     -15.390  45.406 -17.279  1.00  0.00     0.210 HD
ENDBRANCH  19  54
TORSDOF 13
ENDMDL
MODEL 2
REMARK minimizedAffinity -7.53880262
REMARK CNNscore 0.473826498
REMARK CNNaffinity 6.56852341
REMARK  13 active torsions:
REMARK  status: ('A' for Active; 'I' for Inactive)
REMARK    1  A    between atoms: O1_2  and  C2_3 
REMARK    2  A    between atoms: C2_3  and  C3_4 
REMARK    3  A    between atoms: C3_4  and  C4_5 
REMARK    4  A    between atoms: C4_5  and  N1_6 
REMARK    5  A    between atoms: N1_6  and  C5_7 
REMARK    6  A    between atoms: C5_7  and  C6_8 
REMARK    7  A    between atoms: C10_12  and  O2_13 
REMARK    8  A    between atoms: C16_19  and  O3_20 
REMARK    9  A    between atoms: C20_24  and  C21_25 
REMARK   10  A    between atoms: C21_25  and  C23_27 
REMARK   11  A    between atoms: C31_35  and  O4_36 
REMARK   12  A    between atoms: C34_39  and  C35_40 
REMARK   13  A    between atoms: C36_42  and  O6_43 
ROOT
HETATM    1  C6  UNL     1      -8.291  46.821 -33.154  1.00  0.00    -0.022 C 
HETATM    2  C7  UNL     1      -9.300  46.037 -32.699  1.00  0.00    -0.014 C 
HETATM    3  C8  UNL     1      -9.263  45.470 -31.302  1.00  0.00     0.021 C 
HETATM    4  C9  UNL     1     -10.566  45.213 -30.540  1.00  0.00     0.051 C 
HETATM    5  C10 UNL     1     -10.023  44.801 -29.151  1.00  0.00     0.098 C 
HETATM    6  C11 UNL     1      -8.891  45.873 -28.888  1.00  0.00    -0.002 C 
HETATM    7  C12 UNL     1      -7.713  45.318 -28.077  1.00  0.00     0.019 C 
HETATM    8  C13 UNL     1      -9.481  47.110 -28.148  1.00  0.00     0.013 C 
HETATM    9  C14 UNL     1     -10.327  46.770 -26.934  1.00  0.00     0.010 C 
HETATM   10  C15 UNL     1     -11.546  45.903 -27.322  1.00  0.00     0.041 C 
HETATM   11  C16 UNL     1     -11.058  44.603 -27.984  1.00  0.00     0.095 C 
HETATM   12  C17 UNL     1     -12.237  43.704 -28.408  1.00  0.00     0.049 C 
HETATM   13  C18 UNL     1     -13.633  44.129 -27.882  1.00  0.00     0.025 C 
HETATM   14  C19 UNL     1     -14.615  43.004 -28.302  1.00  0.00     0.012 C 
HETATM   15  C20 UNL     1     -16.100  43.037 -27.870  1.00  0.00    -0.010 C 
HETATM   16  C28 UNL     1     -16.672  44.463 -27.769  1.00  0.00     0.005 C 
HETATM   17  C29 UNL     1     -15.990  45.435 -26.798  1.00  0.00     0.010 C 
HETATM   18  C30 UNL     1     -15.023  44.786 -25.798  1.00  0.00     0.050 C 
HETATM   19  C31 UNL     1     -14.941  45.590 -24.496  1.00  0.00     0.125 C 
HETATM   20  C32 UNL     1     -14.292  46.954 -24.673  1.00  0.00     0.033 C 
HETATM   21  C33 UNL     1     -13.266  46.998 -25.812  1.00  0.00     0.023 C 
HETATM   22  C34 UNL     1     -12.530  45.655 -26.091  1.00  0.00     0.051 C 
HETATM   23  C36 UNL     1     -13.591  44.485 -26.371  1.00  0.00     0.082 C 
HETATM   24  C37 UNL     1      -8.489  46.380 -30.328  1.00  0.00     0.036 C 
HETATM   25  C38 UNL     1      -7.135  46.542 -30.937  1.00  0.00    -0.035 C 
HETATM   26  C39 UNL     1      -5.925  46.074 -30.659  1.00  0.00     0.088 C 
HETATM   27  C40 UNL     1      -5.091  46.395 -31.819  1.00  0.00     0.284 C 
HETATM   28  O7  UNL     1      -3.901  46.132 -31.897  1.00  0.00    -0.260 OA
HETATM   29  O8  UNL     1      -5.844  46.990 -32.785  1.00  0.00    -0.304 OA
HETATM   30  C41 UNL     1      -7.134  47.257 -32.253  1.00  0.00     0.192 C 
ENDROOT
BRANCH   1  31
HETATM   31  C5  UNL     1      -8.303  47.404 -34.542  1.00  0.00     0.306 C 
BRANCH  31  32
HETATM   32  N1  UNL     1      -8.426  46.329 -35.520  1.00  0.00     0.087 N 
HETATM   33  H10 UNL     1      -8.794  45.491 -35.067  1.00  0.00     0.316 HD
BRANCH  32  34
HETATM   34  C4  UNL     1      -9.268  46.712 -36.648  1.00  0.00     0.272 C 
BRANCH  34  35
HETATM   35  C3  UNL     1      -8.739  47.978 -37.330  1.00  0.00     0.056 C 
BRANCH  35  36
HETATM   36  C2  UNL     1      -9.650  48.487 -38.447  1.00  0.00     0.168 C 
BRANCH  36  37
HETATM   37  O1  UNL     1     -10.996  48.080 -38.195  1.00  0.00    -0.396 OA
HETATM   38  C1  UNL     1     -11.918  49.159 -38.286  1.00  0.00     0.201 C 
ENDBRANCH  36  37
ENDBRANCH  35  36
ENDBRANCH  34  35
ENDBRANCH  32  34
ENDBRANCH  31  32
ENDBRANCH   1  31
BRANCH   5  39
HETATM   39  O2  UNL     1      -9.389  43.503 -29.325  1.00  0.00    -0.386 OA
HETATM   40  H17 UNL     1     -10.059  42.881 -29.664  1.00  0.00     0.210 HD
ENDBRANCH   5  39
BRANCH  11  41
HETATM   41  O3  UNL     1     -10.354  43.875 -26.953  1.00  0.00    -0.386 OA
HETATM   42  H26 UNL     1      -9.709  43.302 -27.412  1.00  0.00     0.210 HD
ENDBRANCH  11  41
BRANCH  22  43
HETATM   43  C35 UNL     1     -11.658  45.337 -24.855  1.00  0.00     0.244 C 
HETATM   44  O5  UNL     1     -11.479  46.121 -23.921  1.00  0.00    -0.306 OA
ENDBRANCH  22  43
BRANCH  23  45
HETATM   45  O6  UNL     1     -13.162  43.276 -25.711  1.00  0.00    -0.388 OA
HETATM   46  H58 UNL     1     -13.392  43.375 -24.761  1.00  0.00     0.210 HD
ENDBRANCH  23  45
BRANCH  15  47
HETATM   47  C21 UNL     1     -16.994  42.105 -28.792  1.00  0.00    -0.011 C 
HETATM   48  C22 UNL     1     -17.217  40.725 -28.140  1.00  0.00     0.011 C 
BRANCH  47  49
HETATM   49  C23 UNL     1     -18.351  42.798 -29.152  1.00  0.00    -0.010 C 
HETATM   50  C24 UNL     1     -19.643  42.051 -28.791  1.00  0.00     0.005 C 
HETATM   51  C25 UNL     1     -20.725  42.807 -29.557  1.00  0.00     0.000 C 
HETATM   52  C26 UNL     1     -20.034  43.333 -30.818  1.00  0.00     0.000 C 
HETATM   53  C27 UNL     1     -18.553  42.985 -30.666  1.00  0.00     0.005 C 
ENDBRANCH  47  49
ENDBRANCH  15  47
BRANCH  19  54
HETATM   54  O4  UNL     1     -14.177  44.802 -23.576  1.00  0.00    -0.395 OA
HETATM   55  H52 UNL     1     -14.398  45.095 -22.667  1.00  0.00     0.210 HD
ENDBRANCH  19  54
TORSDOF 13
ENDMDL
MODEL 3
REMARK minimizedAffinity -9.23478889
REMARK CNNscore 0.448157847
REMARK CNNaffinity 6.9844594
REMARK  13 active torsions:
REMARK  status: ('A' for Active; 'I' for Inactive)
REMARK    1  A    between atoms: O1_2  and  C2_3 
REMARK    2  A    between atoms: C2_3  and  C3_4 
REMARK    3  A    between atoms: C3_4  and  C4_5 
REMARK    4  A    between atoms: C4_5  and  N1_6 
REMARK    5  A    between atoms: N1_6  and  C5_7 
REMARK    6  A    between atoms: C5_7  and  C6_8 
REMARK    7  A    between atoms: C10_12  and  O2_13 
REMARK    8  A    between atoms: C16_19  and  O3_20 
REMARK    9  A    between atoms: C20_24  and  C21_25 
REMARK   10  A    between atoms: C21_25  and  C23_27 
REMARK   11  A    between atoms: C31_35  and  O4_36 
REMARK   12  A    between atoms: C34_39  and  C35_40 
REMARK   13  A    between atoms: C36_42  and  O6_43 
ROOT
HETATM    1  C6  UNL     1      -3.457  44.047 -18.132  1.00  0.00    -0.022 C 
HETATM    2  C7  UNL     1      -3.988  44.410 -19.326  1.00  0.00    -0.014 C 
HETATM    3  C8  UNL     1      -4.375  45.843 -19.593  1.00  0.00     0.021 C 
HETATM    4  C9  UNL     1      -4.301  46.408 -21.015  1.00  0.00     0.051 C 
HETATM    5  C10 UNL     1      -4.626  47.899 -20.758  1.00  0.00     0.098 C 
HETATM    6  C11 UNL     1      -3.747  48.235 -19.489  1.00  0.00    -0.002 C 
HETATM    7  C12 UNL     1      -4.394  49.273 -18.564  1.00  0.00     0.019 C 
HETATM    8  C13 UNL     1      -2.342  48.748 -19.926  1.00  0.00     0.013 C 
HETATM    9  C14 UNL     1      -2.374  49.839 -20.982  1.00  0.00     0.010 C 
HETATM   10  C15 UNL     1      -3.055  49.348 -22.279  1.00  0.00     0.041 C 
HETATM   11  C16 UNL     1      -4.492  48.901 -21.964  1.00  0.00     0.095 C 
HETATM   12  C17 UNL     1      -5.216  48.382 -23.224  1.00  0.00     0.049 C 
HETATM   13  C18 UNL     1      -4.489  48.636 -24.571  1.00  0.00     0.025 C 
HETATM   14  C19 UNL     1      -5.467  48.175 -25.684  1.00  0.00     0.012 C 
HETATM   15  C20 UNL     1      -5.120  48.360 -27.180  1.00  0.00    -0.010 C 
HETATM   16  C28 UNL     1      -3.614  48.231 -27.475  1.00  0.00     0.005 C 
HETATM   17  C29 UNL     1      -2.664  49.199 -26.759  1.00  0.00     0.010 C 
HETATM   18  C30 UNL     1      -3.343  50.398 -26.084  1.00  0.00     0.050 C 
HETATM   19  C31 UNL     1      -2.410  51.613 -26.029  1.00  0.00     0.125 C 
HETATM   20  C32 UNL     1      -1.215  51.411 -25.111  1.00  0.00     0.033 C 
HETATM   21  C33 UNL     1      -1.494  50.451 -23.948  1.00  0.00     0.023 C 
HETATM   22  C34 UNL     1      -2.970  50.424 -23.454  1.00  0.00     0.051 C 
HETATM   23  C36 UNL     1      -3.960  50.093 -24.671  1.00  0.00     0.082 C 
HETATM   24  C37 UNL     1      -3.501  46.835 -18.802  1.00  0.00     0.036 C 
HETATM   25  C38 UNL     1      -3.658  46.437 -17.370  1.00  0.00    -0.035 C 
HETATM   26  C39 UNL     1      -4.292  46.948 -16.324  1.00  0.00     0.088 C 
HETATM   27  C40 UNL     1      -4.270  45.911 -15.291  1.00  0.00     0.284 C 
HETATM   28  O7  UNL     1      -4.747  46.049 -14.175  1.00  0.00    -0.260 OA
HETATM   29  O8  UNL     1      -3.677  44.784 -15.774  1.00  0.00    -0.304 OA
HETATM   30  C41 UNL     1      -3.123  45.075 -17.049  1.00  0.00     0.192 C 
ENDROOT
BRANCH   1  31
HETATM   31  C5  UNL     1      -3.058  42.626 -17.839  1.00  0.00     0.306 C 
BRANCH  31  32
HETATM   32  N1  UNL     1      -2.475  42.551 -16.504  1.00  0.00     0.087 N 
HETATM   33  H10 UNL     1      -3.217  42.524 -15.804  1.00  0.00     0.316 HD
BRANCH  32  34
HETATM   34  C4  UNL     1      -1.594  41.397 -16.360  1.00  0.00     0.272 C 
BRANCH  34  35
HETATM   35  C3  UNL     1      -0.323  41.561 -17.200  1.00  0.00     0.056 C 
BRANCH  35  36
HETATM   36  C2  UNL     1       0.031  40.314 -18.009  1.00  0.00     0.168 C 
BRANCH  36  37
HETATM   37  O1  UNL     1       0.832  40.680 -19.134  1.00  0.00    -0.396 OA
HETATM   38  C1  UNL     1       1.931  39.799 -19.331  1.00  0.00     0.201 C 
ENDBRANCH  36  37
ENDBRANCH  35  36
ENDBRANCH  34  35
ENDBRANCH  32  34
ENDBRANCH  31  32
ENDBRANCH   1  31
BRANCH   5  39
HETATM   39  O2  UNL     1      -6.026  47.955 -20.369  1.00  0.00    -0.386 OA
HETATM   40  H17 UNL     1      -6.559  47.575 -21.093  1.00  0.00     0.210 HD
ENDBRANCH   5  39
BRANCH  11  41
HETATM   41  O3  UNL     1      -5.199  50.096 -21.563  1.00  0.00    -0.386 OA
HETATM   42  H26 UNL     1      -5.929  49.803 -20.984  1.00  0.00     0.210 HD
ENDBRANCH  11  41
BRANCH  22  43
HETATM   43  C35 UNL     1      -3.280  51.808 -22.840  1.00  0.00     0.244 C 
HETATM   44  O5  UNL     1      -4.392  52.338 -22.868  1.00  0.00    -0.306 OA
ENDBRANCH  22  43
BRANCH  23  45
HETATM   45  O6  UNL     1      -5.134  50.926 -24.579  1.00  0.00    -0.388 OA
HETATM   46  H58 UNL     1      -4.879  51.813 -24.915  1.00  0.00     0.210 HD
ENDBRANCH  23  45
BRANCH  15  47
HETATM   47  C21 UNL     1      -5.986  47.402 -28.100  1.00  0.00    -0.011 C 
HETATM   48  C22 UNL     1      -7.281  46.964 -27.386  1.00  0.00     0.011 C 
BRANCH  47  49
HETATM   49  C23 UNL     1      -6.289  48.067 -29.484  1.00  0.00    -0.010 C 
HETATM   50  C24 UNL     1      -7.764  48.227 -29.884  1.00  0.00     0.005 C 
HETATM   51  C25 UNL     1      -7.701  48.574 -31.368  1.00  0.00     0.000 C 
HETATM   52  C26 UNL     1      -6.455  47.861 -31.898  1.00  0.00     0.000 C 
HETATM   53  C27 UNL     1      -5.767  47.248 -30.678  1.00  0.00     0.005 C 
ENDBRANCH  47  49
ENDBRANCH  15  47
BRANCH  19  54
HETATM   54  O4  UNL     1      -3.199  52.715 -25.567  1.00  0.00    -0.395 OA
HETATM   55  H52 UNL     1      -2.761  53.544 -25.851  1.00  0.00     0.210 HD
ENDBRANCH  19  54
TORSDOF 13
ENDMDL
MODEL 4
REMARK minimizedAffinity -8.41251659
REMARK CNNscore 0.436919481
REMARK CNNaffinity 7.15156555
REMARK  13 active torsions:
REMARK  status: ('A' for Active; 'I' for Inactive)
REMARK    1  A    between atoms: O1_2  and  C2_3 
REMARK    2  A    between atoms: C2_3  and  C3_4 
REMARK    3  A    between atoms: C3_4  and  C4_5 
REMARK    4  A    between atoms: C4_5  and  N1_6 
REMARK    5  A    between atoms: N1_6  and  C5_7 
REMARK    6  A    between atoms: C5_7  and  C6_8 
REMARK    7  A    between atoms: C10_12  and  O2_13 
REMARK    8  A    between atoms: C16_19  and  O3_20 
REMARK    9  A    between atoms: C20_24  and  C21_25 
REMARK   10  A    between atoms: C21_25  and  C23_27 
REMARK   11  A    between atoms: C31_35  and  O4_36 
REMARK   12  A    between atoms: C34_39  and  C35_40 
REMARK   13  A    between atoms: C36_42  and  O6_43 
ROOT
HETATM    1  C6  UNL     1       0.242  51.716 -20.636  1.00  0.00    -0.022 C 
HETATM    2  C7  UNL     1       0.146  52.258 -19.396  1.00  0.00    -0.014 C 
HETATM    3  C8  UNL     1      -0.571  51.526 -18.290  1.00  0.00     0.021 C 
HETATM    4  C9  UNL     1      -0.133  51.710 -16.834  1.00  0.00     0.051 C 
HETATM    5  C10 UNL     1      -1.028  50.669 -16.120  1.00  0.00     0.098 C 
HETATM    6  C11 UNL     1      -0.909  49.404 -17.060  1.00  0.00    -0.002 C 
HETATM    7  C12 UNL     1      -2.189  48.561 -17.100  1.00  0.00     0.019 C 
HETATM    8  C13 UNL     1       0.279  48.505 -16.605  1.00  0.00     0.013 C 
HETATM    9  C14 UNL     1       0.299  48.195 -15.119  1.00  0.00     0.010 C 
HETATM   10  C15 UNL     1       0.414  49.485 -14.276  1.00  0.00     0.041 C 
HETATM   11  C16 UNL     1      -0.776  50.407 -14.590  1.00  0.00     0.095 C 
HETATM   12  C17 UNL     1      -0.704  51.722 -13.787  1.00  0.00     0.049 C 
HETATM   13  C18 UNL     1       0.366  51.769 -12.664  1.00  0.00     0.025 C 
HETATM   14  C19 UNL     1       0.144  53.105 -11.909  1.00  0.00     0.012 C 
HETATM   15  C20 UNL     1       0.975  53.463 -10.654  1.00  0.00    -0.010 C 
HETATM   16  C28 UNL     1       2.415  52.918 -10.704  1.00  0.00     0.005 C 
HETATM   17  C29 UNL     1       2.597  51.402 -10.841  1.00  0.00     0.010 C 
HETATM   18  C30 UNL     1       1.334  50.568 -10.583  1.00  0.00     0.050 C 
HETATM   19  C31 UNL     1       1.682  49.176 -10.045  1.00  0.00     0.125 C 
HETATM   20  C32 UNL     1       2.396  48.300 -11.063  1.00  0.00     0.033 C 
HETATM   21  C33 UNL     1       2.024  48.626 -12.515  1.00  0.00     0.023 C 
HETATM   22  C34 UNL     1       0.585  49.180 -12.720  1.00  0.00     0.051 C 
HETATM   23  C36 UNL     1       0.349  50.475 -11.804  1.00  0.00     0.082 C 
HETATM   24  C37 UNL     1      -0.492  49.996 -18.463  1.00  0.00     0.036 C 
HETATM   25  C38 UNL     1      -1.062  49.727 -19.817  1.00  0.00    -0.035 C 
HETATM   26  C39 UNL     1      -2.198  49.208 -20.265  1.00  0.00     0.088 C 
HETATM   27  C40 UNL     1      -2.235  49.494 -21.700  1.00  0.00     0.284 C 
HETATM   28  O7  UNL     1      -3.135  49.136 -22.444  1.00  0.00    -0.260 OA
HETATM   29  O8  UNL     1      -1.147  50.232 -22.057  1.00  0.00    -0.304 OA
HETATM   30  C41 UNL     1      -0.266  50.306 -20.946  1.00  0.00     0.192 C 
ENDROOT
BRANCH   1  31
HETATM   31  C5  UNL     1       0.955  52.422 -21.758  1.00  0.00     0.306 C 
BRANCH  31  32
HETATM   32  N1  UNL     1       0.026  52.642 -22.861  1.00  0.00     0.087 N 
HETATM   33  H10 UNL     1      -0.646  53.367 -22.608  1.00  0.00     0.316 HD
BRANCH  32  34
HETATM   34  C4  UNL     1       0.720  52.995 -24.095  1.00  0.00     0.272 C 
BRANCH  34  35
HETATM   35  C3  UNL     1       0.421  51.987 -25.209  1.00  0.00     0.056 C 
BRANCH  35  36
HETATM   36  C2  UNL     1       0.771  52.505 -26.603  1.00  0.00     0.168 C 
BRANCH  36  37
HETATM   37  O1  UNL     1      -0.232  52.096 -27.536  1.00  0.00    -0.396 OA
HETATM   38  C1  UNL     1      -1.093  51.097 -27.005  1.00  0.00     0.201 C 
ENDBRANCH  36  37
ENDBRANCH  35  36
ENDBRANCH  34  35
ENDBRANCH  32  34
ENDBRANCH  31  32
ENDBRANCH   1  31
BRANCH   5  39
HETATM   39  O2  UNL     1      -2.390  51.171 -16.203  1.00  0.00    -0.386 OA
HETATM   40  H17 UNL     1      -2.419  52.047 -15.773  1.00  0.00     0.210 HD
ENDBRANCH   5  39
BRANCH  11  41
HETATM   41  O3  UNL     1      -1.951  49.714 -14.111  1.00  0.00    -0.386 OA
HETATM   42  H26 UNL     1      -2.701  50.042 -14.644  1.00  0.00     0.210 HD
ENDBRANCH  11  41
BRANCH  22  43
HETATM   43  C35 UNL     1      -0.405  48.049 -12.357  1.00  0.00     0.244 C 
HETATM   44  O5  UNL     1      -1.524  48.243 -11.879  1.00  0.00    -0.306 OA
ENDBRANCH  22  43
BRANCH  23  45
HETATM   45  O6  UNL     1      -0.972  50.425 -11.226  1.00  0.00    -0.388 OA
HETATM   46  H58 UNL     1      -0.928  49.794 -10.474  1.00  0.00     0.210 HD
ENDBRANCH  23  45
BRANCH  15  47
HETATM   47  C21 UNL     1       0.943  55.021 -10.360  1.00  0.00    -0.011 C 
HETATM   48  C22 UNL     1      -0.472  55.482  -9.956  1.00  0.00     0.011 C 
BRANCH  47  49
HETATM   49  C23 UNL     1       2.006  55.417  -9.282  1.00  0.00    -0.010 C 
HETATM   50  C24 UNL     1       1.523  56.247  -8.084  1.00  0.00     0.005 C 
HETATM   51  C25 UNL     1       2.816  56.734  -7.436  1.00  0.00     0.000 C 
HETATM   52  C26 UNL     1       3.815  56.880  -8.586  1.00  0.00     0.000 C 
HETATM   53  C27 UNL     1       3.110  56.339  -9.830  1.00  0.00     0.005 C 
ENDBRANCH  47  49
ENDBRANCH  15  47
BRANCH  19  54
HETATM   54  O4  UNL     1       0.446  48.565  -9.659  1.00  0.00    -0.395 OA
HETATM   55  H52 UNL     1       0.644  47.861  -9.008  1.00  0.00     0.210 HD
ENDBRANCH  19  54
TORSDOF 13
ENDMDL
MODEL 5
REMARK minimizedAffinity -7.6809864
REMARK CNNscore 0.411633432
REMARK CNNaffinity 6.37204361
REMARK  13 active torsions:
REMARK  status: ('A' for Active; 'I' for Inactive)
REMARK    1  A    between atoms: O1_2  and  C2_3 
REMARK    2  A    between atoms: C2_3  and  C3_4 
REMARK    3  A    between atoms: C3_4  and  C4_5 
REMARK    4  A    between atoms: C4_5  and  N1_6 
REMARK    5  A    between atoms: N1_6  and  C5_7 
REMARK    6  A    between atoms: C5_7  and  C6_8 
REMARK    7  A    between atoms: C10_12  and  O2_13 
REMARK    8  A    between atoms: C16_19  and  O3_20 
REMARK    9  A    between atoms: C20_24  and  C21_25 
REMARK   10  A    between atoms: C21_25  and  C23_27 
REMARK   11  A    between atoms: C31_35  and  O4_36 
REMARK   12  A    between atoms: C34_39  and  C35_40 
REMARK   13  A    between atoms: C36_42  and  O6_43 
ROOT
HETATM    1  C6  UNL     1      -5.144  48.620 -24.198  1.00  0.00    -0.022 C 
HETATM    2  C7  UNL     1      -6.321  47.973 -24.384  1.00  0.00    -0.014 C 
HETATM    3  C8  UNL     1      -6.964  47.206 -23.256  1.00  0.00     0.021 C 
HETATM    4  C9  UNL     1      -8.488  47.079 -23.182  1.00  0.00     0.051 C 
HETATM    5  C10 UNL     1      -8.662  46.374 -21.816  1.00  0.00     0.098 C 
HETATM    6  C11 UNL     1      -7.666  47.171 -20.883  1.00  0.00    -0.002 C 
HETATM    7  C12 UNL     1      -7.032  46.298 -19.792  1.00  0.00     0.019 C 
HETATM    8  C13 UNL     1      -8.400  48.371 -20.212  1.00  0.00     0.013 C 
HETATM    9  C14 UNL     1      -9.727  48.012 -19.565  1.00  0.00     0.010 C 
HETATM   10  C15 UNL     1     -10.723  47.447 -20.601  1.00  0.00     0.041 C 
HETATM   11  C16 UNL     1     -10.121  46.195 -21.259  1.00  0.00     0.095 C 
HETATM   12  C17 UNL     1     -11.071  45.596 -22.318  1.00  0.00     0.049 C 
HETATM   13  C18 UNL     1     -12.506  46.184 -22.346  1.00  0.00     0.025 C 
HETATM   14  C19 UNL     1     -13.304  45.330 -23.366  1.00  0.00     0.012 C 
HETATM   15  C20 UNL     1     -14.815  45.567 -23.597  1.00  0.00    -0.010 C 
HETATM   16  C28 UNL     1     -15.230  47.042 -23.443  1.00  0.00     0.005 C 
HETATM   17  C29 UNL     1     -14.959  47.718 -22.094  1.00  0.00     0.010 C 
HETATM   18  C30 UNL     1     -14.606  46.764 -20.945  1.00  0.00     0.050 C 
HETATM   19  C31 UNL     1     -15.034  47.337 -19.589  1.00  0.00     0.125 C 
HETATM   20  C32 UNL     1     -14.244  48.572 -19.184  1.00  0.00     0.033 C 
HETATM   21  C33 UNL     1     -12.819  48.598 -19.753  1.00  0.00     0.023 C 
HETATM   22  C34 UNL     1     -12.171  47.201 -19.978  1.00  0.00     0.051 C 
HETATM   23  C36 UNL     1     -13.106  46.298 -20.917  1.00  0.00     0.082 C 
HETATM   24  C37 UNL     1      -6.619  47.806 -21.879  1.00  0.00     0.036 C 
HETATM   25  C38 UNL     1      -5.126  47.809 -21.817  1.00  0.00    -0.035 C 
HETATM   26  C39 UNL     1      -4.218  47.095 -21.166  1.00  0.00     0.088 C 
HETATM   27  C40 UNL     1      -2.929  47.428 -21.773  1.00  0.00     0.284 C 
HETATM   28  O7  UNL     1      -1.860  46.968 -21.401  1.00  0.00    -0.260 OA
HETATM   29  O8  UNL     1      -3.112  48.287 -22.814  1.00  0.00    -0.304 OA
HETATM   30  C41 UNL     1      -4.471  48.700 -22.826  1.00  0.00     0.192 C 
ENDROOT
BRANCH   1  31
HETATM   31  C5  UNL     1      -4.481  49.396 -25.305  1.00  0.00     0.306 C 
BRANCH  31  32
HETATM   32  N1  UNL     1      -3.462  48.565 -25.938  1.00  0.00     0.087 N 
HETATM   33  H10 UNL     1      -3.517  47.613 -25.573  1.00  0.00     0.316 HD
BRANCH  32  34
HETATM   34  C4  UNL     1      -3.587  48.564 -27.391  1.00  0.00     0.272 C 
BRANCH  34  35
HETATM   35  C3  UNL     1      -4.977  48.094 -27.829  1.00  0.00     0.056 C 
BRANCH  35  36
HETATM   36  C2  UNL     1      -5.203  48.197 -29.338  1.00  0.00     0.168 C 
BRANCH  36  37
HETATM   37  O1  UNL     1      -6.506  47.711 -29.665  1.00  0.00    -0.396 OA
HETATM   38  C1  UNL     1      -7.126  48.467 -30.697  1.00  0.00     0.201 C 
ENDBRANCH  36  37
ENDBRANCH  35  36
ENDBRANCH  34  35
ENDBRANCH  32  34
ENDBRANCH  31  32
ENDBRANCH   1  31
BRANCH   5  39
HETATM   39  O2  UNL     1      -8.147  45.023 -21.981  1.00  0.00    -0.386 OA
HETATM   40  H17 UNL     1      -8.654  44.589 -22.693  1.00  0.00     0.210 HD
ENDBRANCH   5  39
BRANCH  11  41
HETATM   41  O3  UNL     1     -10.024  45.205 -20.209  1.00  0.00    -0.386 OA
HETATM   42  H26 UNL     1      -9.302  44.600 -20.467  1.00  0.00     0.210 HD
ENDBRANCH  11  41
BRANCH  22  43
HETATM   43  C35 UNL     1     -11.976  46.551 -18.590  1.00  0.00     0.244 C 
HETATM   44  O5  UNL     1     -12.164  47.138 -17.523  1.00  0.00    -0.306 OA
ENDBRANCH  22  43
BRANCH  23  45
HETATM   45  O6  UNL     1     -13.135  44.947 -20.413  1.00  0.00    -0.388 OA
HETATM   46  H58 UNL     1     -13.752  44.943 -19.648  1.00  0.00     0.210 HD
ENDBRANCH  23  45
BRANCH  15  47
HETATM   47  C21 UNL     1     -15.292  44.960 -24.983  1.00  0.00    -0.011 C 
HETATM   48  C22 UNL     1     -16.758  45.338 -25.282  1.00  0.00     0.011 C 
BRANCH  47  49
HETATM   49  C23 UNL     1     -14.339  45.389 -26.148  1.00  0.00    -0.010 C 
HETATM   50  C24 UNL     1     -14.116  46.893 -26.363  1.00  0.00     0.005 C 
HETATM   51  C25 UNL     1     -13.445  46.969 -27.731  1.00  0.00     0.000 C 
HETATM   52  C26 UNL     1     -14.002  45.783 -28.520  1.00  0.00     0.000 C 
HETATM   53  C27 UNL     1     -14.862  44.986 -27.539  1.00  0.00     0.005 C 
ENDBRANCH  47  49
ENDBRANCH  15  47
BRANCH  19  54
HETATM   54  O4  UNL     1     -14.839  46.296 -18.626  1.00  0.00    -0.395 OA
HETATM   55  H52 UNL     1     -15.411  46.485 -17.853  1.00  0.00     0.210 HD
ENDBRANCH  19  54
TORSDOF 13
ENDMDL
MODEL 6
REMARK minimizedAffinity -7.69656324
REMARK CNNscore 0.408498198
REMARK CNNaffinity 6.74817801
REMARK  13 active torsions:
REMARK  status: ('A' for Active; 'I' for Inactive)
REMARK    1  A    between atoms: O1_2  and  C2_3 
REMARK    2  A    between atoms: C2_3  and  C3_4 
REMARK    3  A    between atoms: C3_4  and  C4_5 
REMARK    4  A    between atoms: C4_5  and  N1_6 
REMARK    5  A    between atoms: N1_6  and  C5_7 
REMARK    6  A    between atoms: C5_7  and  C6_8 
REMARK    7  A    between atoms: C10_12  and  O2_13 
REMARK    8  A    between atoms: C16_19  and  O3_20 
REMARK    9  A    between atoms: C20_24  and  C21_25 
REMARK   10  A    between atoms: C21_25  and  C23_27 
REMARK   11  A    between atoms: C31_35  and  O4_36 
REMARK   12  A    between atoms: C34_39  and  C35_40 
REMARK   13  A    between atoms: C36_42  and  O6_43 
ROOT
HETATM    1  C6  UNL     1      -3.326  42.956 -18.093  1.00  0.00    -0.022 C 
HETATM    2  C7  UNL     1      -4.020  43.469 -19.140  1.00  0.00    -0.014 C 
HETATM    3  C8  UNL     1      -4.331  44.943 -19.209  1.00  0.00     0.021 C 
HETATM    4  C9  UNL     1      -4.452  45.641 -20.566  1.00  0.00     0.051 C 
HETATM    5  C10 UNL     1      -4.610  47.117 -20.128  1.00  0.00     0.098 C 
HETATM    6  C11 UNL     1      -3.506  47.268 -19.008  1.00  0.00    -0.002 C 
HETATM    7  C12 UNL     1      -3.904  48.247 -17.898  1.00  0.00     0.019 C 
HETATM    8  C13 UNL     1      -2.159  47.732 -19.638  1.00  0.00     0.013 C 
HETATM    9  C14 UNL     1      -2.281  48.923 -20.573  1.00  0.00     0.010 C 
HETATM   10  C15 UNL     1      -3.207  48.607 -21.769  1.00  0.00     0.041 C 
HETATM   11  C16 UNL     1      -4.601  48.223 -21.247  1.00  0.00     0.095 C 
HETATM   12  C17 UNL     1      -5.566  47.879 -22.401  1.00  0.00     0.049 C 
HETATM   13  C18 UNL     1      -5.058  48.219 -23.828  1.00  0.00     0.025 C 
HETATM   14  C19 UNL     1      -6.243  47.934 -24.788  1.00  0.00     0.012 C 
HETATM   15  C20 UNL     1      -6.139  48.245 -26.299  1.00  0.00    -0.010 C 
HETATM   16  C28 UNL     1      -4.719  48.050 -26.863  1.00  0.00     0.005 C 
HETATM   17  C29 UNL     1      -3.588  48.881 -26.243  1.00  0.00     0.010 C 
HETATM   18  C30 UNL     1      -4.047  50.047 -25.358  1.00  0.00     0.050 C 
HETATM   19  C31 UNL     1      -3.025  51.189 -25.362  1.00  0.00     0.125 C 
HETATM   20  C32 UNL     1      -1.712  50.821 -24.688  1.00  0.00     0.033 C 
HETATM   21  C33 UNL     1      -1.867  49.770 -23.582  1.00  0.00     0.023 C 
HETATM   22  C34 UNL     1      -3.236  49.787 -22.842  1.00  0.00     0.051 C 
HETATM   23  C36 UNL     1      -4.440  49.642 -23.891  1.00  0.00     0.082 C 
HETATM   24  C37 UNL     1      -3.261  45.794 -18.499  1.00  0.00     0.036 C 
HETATM   25  C38 UNL     1      -3.205  45.266 -17.102  1.00  0.00    -0.035 C 
HETATM   26  C39 UNL     1      -3.612  45.709 -15.921  1.00  0.00     0.088 C 
HETATM   27  C40 UNL     1      -3.499  44.575 -15.002  1.00  0.00     0.284 C 
HETATM   28  O7  UNL     1      -3.768  44.632 -13.812  1.00  0.00    -0.260 OA
HETATM   29  O8  UNL     1      -3.086  43.467 -15.678  1.00  0.00    -0.304 OA
HETATM   30  C41 UNL     1      -2.734  43.848 -16.999  1.00  0.00     0.192 C 
ENDROOT
BRANCH   1  31
HETATM   31  C5  UNL     1      -2.998  41.490 -18.000  1.00  0.00     0.306 C 
BRANCH  31  32
HETATM   32  N1  UNL     1      -3.797  40.751 -18.971  1.00  0.00     0.087 N 
HETATM   33  H10 UNL     1      -3.289  40.680 -19.854  1.00  0.00     0.316 HD
BRANCH  32  34
HETATM   34  C4  UNL     1      -4.159  39.425 -18.481  1.00  0.00     0.272 C 
BRANCH  34  35
HETATM   35  C3  UNL     1      -4.178  38.399 -19.619  1.00  0.00     0.056 C 
BRANCH  35  36
HETATM   36  C2  UNL     1      -4.648  38.983 -20.951  1.00  0.00     0.168 C 
BRANCH  36  37
HETATM   37  O1  UNL     1      -3.809  38.510 -22.007  1.00  0.00    -0.396 OA
HETATM   38  C1  UNL     1      -4.463  37.559 -22.838  1.00  0.00     0.201 C 
ENDBRANCH  36  37
ENDBRANCH  35  36
ENDBRANCH  34  35
ENDBRANCH  32  34
ENDBRANCH  31  32
ENDBRANCH   1  31
BRANCH   5  39
HETATM   39  O2  UNL     1      -5.916  47.222 -19.497  1.00  0.00    -0.386 OA
HETATM   40  H17 UNL     1      -6.591  46.951 -20.147  1.00  0.00     0.210 HD
ENDBRANCH   5  39
BRANCH  11  41
HETATM   41  O3  UNL     1      -5.134  49.415 -20.626  1.00  0.00    -0.386 OA
HETATM   42  H26 UNL     1      -5.777  49.112 -19.956  1.00  0.00     0.210 HD
ENDBRANCH  11  41
BRANCH  22  43
HETATM   43  C35 UNL     1      -3.327  51.120 -22.065  1.00  0.00     0.244 C 
HETATM   44  O5  UNL     1      -4.384  51.709 -21.833  1.00  0.00    -0.306 OA
ENDBRANCH  22  43
BRANCH  23  45
HETATM   45  O6  UNL     1      -5.512  50.535 -23.523  1.00  0.00    -0.388 OA
HETATM   46  H58 UNL     1      -5.247  51.433 -23.819  1.00  0.00     0.210 HD
ENDBRANCH  23  45
BRANCH  15  47
HETATM   47  C21 UNL     1      -7.221  47.440 -27.134  1.00  0.00    -0.011 C 
HETATM   48  C22 UNL     1      -6.599  46.818 -28.401  1.00  0.00     0.011 C 
BRANCH  47  49
HETATM   49  C23 UNL     1      -7.930  46.359 -26.251  1.00  0.00    -0.010 C 
HETATM   50  C24 UNL     1      -8.039  44.938 -26.824  1.00  0.00     0.005 C 
HETATM   51  C25 UNL     1      -9.043  44.252 -25.903  1.00  0.00     0.000 C 
HETATM   52  C26 UNL     1      -9.989  45.362 -25.438  1.00  0.00     0.000 C 
HETATM   53  C27 UNL     1      -9.415  46.667 -25.991  1.00  0.00     0.005 C 
ENDBRANCH  47  49
ENDBRANCH  15  47
BRANCH  19  54
HETATM   54  O4  UNL     1      -3.634  52.287 -24.674  1.00  0.00    -0.395 OA
HETATM   55  H52 UNL     1      -3.186  53.111 -24.957  1.00  0.00     0.210 HD
ENDBRANCH  19  54
TORSDOF 13
ENDMDL
MODEL 7
REMARK minimizedAffinity -7.18616676
REMARK CNNscore 0.393111229
REMARK CNNaffinity 6.3447299
REMARK  13 active torsions:
REMARK  status: ('A' for Active; 'I' for Inactive)
REMARK    1  A    between atoms: O1_2  and  C2_3 
REMARK    2  A    between atoms: C2_3  and  C3_4 
REMARK    3  A    between atoms: C3_4  and  C4_5 
REMARK    4  A    between atoms: C4_5  and  N1_6 
REMARK    5  A    between atoms: N1_6  and  C5_7 
REMARK    6  A    between atoms: C5_7  and  C6_8 
REMARK    7  A    between atoms: C10_12  and  O2_13 
REMARK    8  A    between atoms: C16_19  and  O3_20 
REMARK    9  A    between atoms: C20_24  and  C21_25 
REMARK   10  A    between atoms: C21_25  and  C23_27 
REMARK   11  A    between atoms: C31_35  and  O4_36 
REMARK   12  A    between atoms: C34_39  and  C35_40 
REMARK   13  A    between atoms: C36_42  and  O6_43 
ROOT
HETATM    1  C6  UNL     1      -5.330  49.824 -23.535  1.00  0.00    -0.022 C 
HETATM    2  C7  UNL     1      -6.436  49.253 -24.075  1.00  0.00    -0.014 C 
HETATM    3  C8  UNL     1      -7.031  48.006 -23.471  1.00  0.00     0.021 C 
HETATM    4  C9  UNL     1      -8.538  47.749 -23.565  1.00  0.00     0.051 C 
HETATM    5  C10 UNL     1      -8.677  46.479 -22.692  1.00  0.00     0.098 C 
HETATM    6  C11 UNL     1      -7.786  46.822 -21.433  1.00  0.00    -0.002 C 
HETATM    7  C12 UNL     1      -7.099  45.591 -20.828  1.00  0.00     0.019 C 
HETATM    8  C13 UNL     1      -8.646  47.516 -20.335  1.00  0.00     0.013 C 
HETATM    9  C14 UNL     1      -9.949  46.803 -20.015  1.00  0.00     0.010 C 
HETATM   10  C15 UNL     1     -10.861  46.713 -21.258  1.00  0.00     0.041 C 
HETATM   11  C16 UNL     1     -10.127  45.956 -22.377  1.00  0.00     0.095 C 
HETATM   12  C17 UNL     1     -10.988  45.851 -23.653  1.00  0.00     0.049 C 
HETATM   13  C18 UNL     1     -12.472  46.279 -23.502  1.00  0.00     0.025 C 
HETATM   14  C19 UNL     1     -13.159  45.941 -24.851  1.00  0.00     0.012 C 
HETATM   15  C20 UNL     1     -14.680  46.147 -25.047  1.00  0.00    -0.010 C 
HETATM   16  C28 UNL     1     -15.237  47.347 -24.259  1.00  0.00     0.005 C 
HETATM   17  C29 UNL     1     -15.065  47.337 -22.735  1.00  0.00     0.010 C 
HETATM   18  C30 UNL     1     -14.652  45.987 -22.134  1.00  0.00     0.050 C 
HETATM   19  C31 UNL     1     -15.165  45.832 -20.698  1.00  0.00     0.125 C 
HETATM   20  C32 UNL     1     -14.507  46.791 -19.719  1.00  0.00     0.033 C 
HETATM   21  C33 UNL     1     -13.078  47.182 -20.116  1.00  0.00     0.023 C 
HETATM   22  C34 UNL     1     -12.294  46.101 -20.915  1.00  0.00     0.051 C 
HETATM   23  C36 UNL     1     -13.115  45.672 -22.225  1.00  0.00     0.082 C 
HETATM   24  C37 UNL     1      -6.779  47.921 -21.953  1.00  0.00     0.036 C 
HETATM   25  C38 UNL     1      -5.295  48.003 -21.798  1.00  0.00    -0.035 C 
HETATM   26  C39 UNL     1      -4.340  47.136 -21.491  1.00  0.00     0.088 C 
HETATM   27  C40 UNL     1      -3.074  47.807 -21.790  1.00  0.00     0.284 C 
HETATM   28  O7  UNL     1      -1.976  47.305 -21.602  1.00  0.00    -0.260 OA
HETATM   29  O8  UNL     1      -3.312  49.035 -22.328  1.00  0.00    -0.304 OA
HETATM   30  C41 UNL     1      -4.703  49.306 -22.238  1.00  0.00     0.192 C 
ENDROOT
BRANCH   1  31
HETATM   31  C5  UNL     1      -4.717  51.071 -24.113  1.00  0.00     0.306 C 
BRANCH  31  32
HETATM   32  N1  UNL     1      -3.926  51.743 -23.088  1.00  0.00     0.087 N 
HETATM   33  H10 UNL     1      -3.512  51.052 -22.462  1.00  0.00     0.316 HD
BRANCH  32  34
HETATM   34  C4  UNL     1      -2.892  52.592 -23.669  1.00  0.00     0.272 C 
BRANCH  34  35
HETATM   35  C3  UNL     1      -2.179  51.887 -24.827  1.00  0.00     0.056 C 
BRANCH  35  36
HETATM   36  C2  UNL     1      -0.949  51.094 -24.387  1.00  0.00     0.168 C 
BRANCH  36  37
HETATM   37  O1  UNL     1       0.100  51.994 -24.023  1.00  0.00    -0.396 OA
HETATM   38  C1  UNL     1       0.350  52.973 -25.024  1.00  0.00     0.201 C 
ENDBRANCH  36  37
ENDBRANCH  35  36
ENDBRANCH  34  35
ENDBRANCH  32  34
ENDBRANCH  31  32
ENDBRANCH   1  31
BRANCH   5  39
HETATM   39  O2  UNL     1      -8.033  45.401 -23.426  1.00  0.00    -0.386 OA
HETATM   40  H17 UNL     1      -8.478  45.312 -24.289  1.00  0.00     0.210 HD
ENDBRANCH   5  39
BRANCH  11  41
HETATM   41  O3  UNL     1      -9.962  44.603 -21.897  1.00  0.00    -0.386 OA
HETATM   42  H26 UNL     1      -9.179  44.241 -22.357  1.00  0.00     0.210 HD
ENDBRANCH  11  41
BRANCH  22  43
HETATM   43  C35 UNL     1     -12.072  44.896 -19.973  1.00  0.00     0.244 C 
HETATM   44  O5  UNL     1     -11.029  44.696 -19.349  1.00  0.00    -0.306 OA
ENDBRANCH  22  43
BRANCH  23  45
HETATM   45  O6  UNL     1     -13.028  44.243 -22.402  1.00  0.00    -0.388 OA
HETATM   46  H58 UNL     1     -13.661  43.839 -21.768  1.00  0.00     0.210 HD
ENDBRANCH  23  45
BRANCH  15  47
HETATM   47  C21 UNL     1     -15.063  46.221 -26.584  1.00  0.00    -0.011 C 
HETATM   48  C22 UNL     1     -13.813  46.441 -27.460  1.00  0.00     0.011 C 
BRANCH  47  49
HETATM   49  C23 UNL     1     -15.862  44.952 -27.031  1.00  0.00    -0.010 C 
HETATM   50  C24 UNL     1     -15.823  44.580 -28.521  1.00  0.00     0.005 C 
HETATM   51  C25 UNL     1     -16.936  43.546 -28.666  1.00  0.00     0.000 C 
HETATM   52  C26 UNL     1     -17.986  43.934 -27.623  1.00  0.00     0.000 C 
HETATM   53  C27 UNL     1     -17.381  45.086 -26.820  1.00  0.00     0.005 C 
ENDBRANCH  47  49
ENDBRANCH  15  47
BRANCH  19  54
HETATM   54  O4  UNL     1     -14.897  44.480 -20.311  1.00  0.00    -0.395 OA
HETATM   55  H52 UNL     1     -15.503  44.247 -19.578  1.00  0.00     0.210 HD
ENDBRANCH  19  54
TORSDOF 13
ENDMDL
MODEL 8
REMARK minimizedAffinity -8.51089859
REMARK CNNscore 0.392783672
REMARK CNNaffinity 7.17861748
REMARK  13 active torsions:
REMARK  status: ('A' for Active; 'I' for Inactive)
REMARK    1  A    between atoms: O1_2  and  C2_3 
REMARK    2  A    between atoms: C2_3  and  C3_4 
REMARK    3  A    between atoms: C3_4  and  C4_5 
REMARK    4  A    between atoms: C4_5  and  N1_6 
REMARK    5  A    between atoms: N1_6  and  C5_7 
REMARK    6  A    between atoms: C5_7  and  C6_8 
REMARK    7  A    between atoms: C10_12  and  O2_13 
REMARK    8  A    between atoms: C16_19  and  O3_20 
REMARK    9  A    between atoms: C20_24  and  C21_25 
REMARK   10  A    between atoms: C21_25  and  C23_27 
REMARK   11  A    between atoms: C31_35  and  O4_36 
REMARK   12  A    between atoms: C34_39  and  C35_40 
REMARK   13  A    between atoms: C36_42  and  O6_43 
ROOT
HETATM    1  C6  UNL     1      -0.477  51.593 -17.755  1.00  0.00    -0.022 C 
HETATM    2  C7  UNL     1      -1.807  51.337 -17.703  1.00  0.00    -0.014 C 
HETATM    3  C8  UNL     1      -2.629  51.273 -18.966  1.00  0.00     0.021 C 
HETATM    4  C9  UNL     1      -3.856  50.360 -19.041  1.00  0.00     0.051 C 
HETATM    5  C10 UNL     1      -4.250  50.514 -20.529  1.00  0.00     0.098 C 
HETATM    6  C11 UNL     1      -2.860  50.404 -21.271  1.00  0.00    -0.002 C 
HETATM    7  C12 UNL     1      -2.786  51.258 -22.543  1.00  0.00     0.019 C 
HETATM    8  C13 UNL     1      -2.560  48.919 -21.637  1.00  0.00     0.013 C 
HETATM    9  C14 UNL     1      -3.706  48.199 -22.327  1.00  0.00     0.010 C 
HETATM   10  C15 UNL     1      -4.964  48.157 -21.430  1.00  0.00     0.041 C 
HETATM   11  C16 UNL     1      -5.395  49.592 -21.087  1.00  0.00     0.095 C 
HETATM   12  C17 UNL     1      -6.641  49.609 -20.178  1.00  0.00     0.049 C 
HETATM   13  C18 UNL     1      -7.360  48.246 -19.991  1.00  0.00     0.025 C 
HETATM   14  C19 UNL     1      -8.648  48.543 -19.180  1.00  0.00     0.012 C 
HETATM   15  C20 UNL     1      -9.675  47.427 -18.876  1.00  0.00    -0.010 C 
HETATM   16  C28 UNL     1      -9.029  46.043 -18.681  1.00  0.00     0.005 C 
HETATM   17  C29 UNL     1      -8.208  45.473 -19.844  1.00  0.00     0.010 C 
HETATM   18  C30 UNL     1      -8.391  46.193 -21.186  1.00  0.00     0.050 C 
HETATM   19  C31 UNL     1      -8.165  45.243 -22.368  1.00  0.00     0.125 C 
HETATM   20  C32 UNL     1      -6.724  44.774 -22.493  1.00  0.00     0.033 C 
HETATM   21  C33 UNL     1      -5.704  45.788 -21.957  1.00  0.00     0.023 C 
HETATM   22  C34 UNL     1      -6.133  47.279 -22.069  1.00  0.00     0.051 C 
HETATM   23  C36 UNL     1      -7.546  47.509 -21.345  1.00  0.00     0.082 C 
HETATM   24  C37 UNL     1      -1.797  50.803 -20.174  1.00  0.00     0.036 C 
HETATM   25  C38 UNL     1      -0.655  51.762 -20.259  1.00  0.00    -0.035 C 
HETATM   26  C39 UNL     1      -0.332  52.759 -21.072  1.00  0.00     0.088 C 
HETATM   27  C40 UNL     1       0.775  53.465 -20.426  1.00  0.00     0.284 C 
HETATM   28  O7  UNL     1       1.343  54.431 -20.912  1.00  0.00    -0.260 OA
HETATM   29  O8  UNL     1       1.041  52.906 -19.213  1.00  0.00    -0.304 OA
HETATM   30  C41 UNL     1       0.273  51.719 -19.084  1.00  0.00     0.192 C 
ENDROOT
BRANCH   1  31
HETATM   31  C5  UNL     1       0.369  51.658 -16.512  1.00  0.00     0.306 C 
BRANCH  31  32
HETATM   32  N1  UNL     1       1.778  51.564 -16.878  1.00  0.00     0.087 N 
HETATM   33  H10 UNL     1       1.867  51.471 -17.890  1.00  0.00     0.316 HD
BRANCH  32  34
HETATM   34  C4  UNL     1       2.542  52.711 -16.401  1.00  0.00     0.272 C 
BRANCH  34  35
HETATM   35  C3  UNL     1       3.831  52.269 -15.701  1.00  0.00     0.056 C 
BRANCH  35  36
HETATM   36  C2  UNL     1       3.598  51.227 -14.607  1.00  0.00     0.168 C 
BRANCH  36  37
HETATM   37  O1  UNL     1       2.512  51.637 -13.774  1.00  0.00    -0.396 OA
HETATM   38  C1  UNL     1       2.752  51.373 -12.397  1.00  0.00     0.201 C 
ENDBRANCH  36  37
ENDBRANCH  35  36
ENDBRANCH  34  35
ENDBRANCH  32  34
ENDBRANCH  31  32
ENDBRANCH   1  31
BRANCH   5  39
HETATM   39  O2  UNL     1      -4.743  51.873 -20.686  1.00  0.00    -0.386 OA
HETATM   40  H17 UNL     1      -5.501  51.994 -20.084  1.00  0.00     0.210 HD
ENDBRANCH   5  39
BRANCH  11  41
HETATM   41  O3  UNL     1      -5.809  50.190 -22.337  1.00  0.00    -0.386 OA
HETATM   42  H26 UNL     1      -5.682  51.153 -22.237  1.00  0.00     0.210 HD
ENDBRANCH  11  41
BRANCH  22  43
HETATM   43  C35 UNL     1      -6.210  47.630 -23.572  1.00  0.00     0.244 C 
HETATM   44  O5  UNL     1      -5.248  48.020 -24.236  1.00  0.00    -0.306 OA
ENDBRANCH  22  43
BRANCH  23  45
HETATM   45  O6  UNL     1      -8.361  48.391 -22.145  1.00  0.00    -0.388 OA
HETATM   46  H58 UNL     1      -8.727  47.851 -22.880  1.00  0.00     0.210 HD
ENDBRANCH  23  45
BRANCH  15  47
HETATM   47  C21 UNL     1     -10.613  47.818 -17.657  1.00  0.00    -0.011 C 
HETATM   48  C22 UNL     1     -12.026  47.225 -17.829  1.00  0.00     0.011 C 
BRANCH  47  49
HETATM   49  C23 UNL     1      -9.974  47.398 -16.292  1.00  0.00    -0.010 C 
HETATM   50  C24 UNL     1      -8.483  47.030 -16.292  1.00  0.00     0.005 C 
HETATM   51  C25 UNL     1      -8.274  46.364 -14.936  1.00  0.00     0.000 C 
HETATM   52  C26 UNL     1      -9.607  45.688 -14.607  1.00  0.00     0.000 C 
HETATM   53  C27 UNL     1     -10.577  46.106 -15.713  1.00  0.00     0.005 C 
ENDBRANCH  47  49
ENDBRANCH  15  47
BRANCH  19  54
HETATM   54  O4  UNL     1      -8.549  45.958 -23.547  1.00  0.00    -0.395 OA
HETATM   55  H52 UNL     1      -8.756  45.303 -24.246  1.00  0.00     0.210 HD
ENDBRANCH  19  54
TORSDOF 13
ENDMDL
MODEL 9
REMARK minimizedAffinity -7.39603662
REMARK CNNscore 0.385346323
REMARK CNNaffinity 6.78578329
REMARK  13 active torsions:
REMARK  status: ('A' for Active; 'I' for Inactive)
REMARK    1  A    between atoms: O1_2  and  C2_3 
REMARK    2  A    between atoms: C2_3  and  C3_4 
REMARK    3  A    between atoms: C3_4  and  C4_5 
REMARK    4  A    between atoms: C4_5  and  N1_6 
REMARK    5  A    between atoms: N1_6  and  C5_7 
REMARK    6  A    between atoms: C5_7  and  C6_8 
REMARK    7  A    between atoms: C10_12  and  O2_13 
REMARK    8  A    between atoms: C16_19  and  O3_20 
REMARK    9  A    between atoms: C20_24  and  C21_25 
REMARK   10  A    between atoms: C21_25  and  C23_27 
REMARK   11  A    between atoms: C31_35  and  O4_36 
REMARK   12  A    between atoms: C34_39  and  C35_40 
REMARK   13  A    between atoms: C36_42  and  O6_43 
ROOT
HETATM    1  C6  UNL     1      -5.247  50.934 -22.533  1.00  0.00    -0.022 C 
HETATM    2  C7  UNL     1      -6.271  50.189 -23.017  1.00  0.00    -0.014 C 
HETATM    3  C8  UNL     1      -6.752  48.967 -22.275  1.00  0.00     0.021 C 
HETATM    4  C9  UNL     1      -8.221  48.543 -22.360  1.00  0.00     0.051 C 
HETATM    5  C10 UNL     1      -8.254  47.379 -21.341  1.00  0.00     0.098 C 
HETATM    6  C11 UNL     1      -7.439  47.963 -20.119  1.00  0.00    -0.002 C 
HETATM    7  C12 UNL     1      -6.646  46.894 -19.357  1.00  0.00     0.019 C 
HETATM    8  C13 UNL     1      -8.397  48.689 -19.129  1.00  0.00     0.013 C 
HETATM    9  C14 UNL     1      -9.628  47.885 -18.744  1.00  0.00     0.010 C 
HETATM   10  C15 UNL     1     -10.490  47.551 -19.982  1.00  0.00     0.041 C 
HETATM   11  C16 UNL     1      -9.650  46.747 -20.988  1.00  0.00     0.095 C 
HETATM   12  C17 UNL     1     -10.459  46.399 -22.255  1.00  0.00     0.049 C 
HETATM   13  C18 UNL     1     -11.983  46.682 -22.181  1.00  0.00     0.025 C 
HETATM   14  C19 UNL     1     -12.592  46.114 -23.489  1.00  0.00     0.012 C 
HETATM   15  C20 UNL     1     -14.120  46.133 -23.733  1.00  0.00    -0.010 C 
HETATM   16  C28 UNL     1     -14.820  47.353 -23.107  1.00  0.00     0.005 C 
HETATM   17  C29 UNL     1     -14.692  47.545 -21.590  1.00  0.00     0.010 C 
HETATM   18  C30 UNL     1     -14.159  46.328 -20.822  1.00  0.00     0.050 C 
HETATM   19  C31 UNL     1     -14.695  46.293 -19.387  1.00  0.00     0.125 C 
HETATM   20  C32 UNL     1     -14.167  47.427 -18.522  1.00  0.00     0.033 C 
HETATM   21  C33 UNL     1     -12.775  47.917 -18.941  1.00  0.00     0.023 C 
HETATM   22  C34 UNL     1     -11.862  46.836 -19.589  1.00  0.00     0.051 C 
HETATM   23  C36 UNL     1     -12.596  46.169 -20.849  1.00  0.00     0.082 C 
HETATM   24  C37 UNL     1      -6.536  49.092 -20.754  1.00  0.00     0.036 C 
HETATM   25  C38 UNL     1      -5.074  49.349 -20.587  1.00  0.00    -0.035 C 
HETATM   26  C39 UNL     1      -4.044  48.631 -20.160  1.00  0.00     0.088 C 
HETATM   27  C40 UNL     1      -2.845  49.391 -20.519  1.00  0.00     0.284 C 
HETATM   28  O7  UNL     1      -1.707  49.035 -20.253  1.00  0.00    -0.260 OA
HETATM   29  O8  UNL     1      -3.193  50.514 -21.207  1.00  0.00    -0.304 OA
HETATM   30  C41 UNL     1      -4.606  50.645 -21.173  1.00  0.00     0.192 C 
ENDROOT
BRANCH   1  31
HETATM   31  C5  UNL     1      -4.749  52.160 -23.250  1.00  0.00     0.306 C 
BRANCH  31  32
HETATM   32  N1  UNL     1      -3.495  51.850 -23.928  1.00  0.00     0.087 N 
HETATM   33  H10 UNL     1      -3.089  51.001 -23.533  1.00  0.00     0.316 HD
BRANCH  32  34
HETATM   34  C4  UNL     1      -3.676  51.709 -25.369  1.00  0.00     0.272 C 
BRANCH  34  35
HETATM   35  C3  UNL     1      -2.437  51.094 -26.027  1.00  0.00     0.056 C 
BRANCH  35  36
HETATM   36  C2  UNL     1      -2.697  49.716 -26.635  1.00  0.00     0.168 C 
BRANCH  36  37
HETATM   37  O1  UNL     1      -3.305  49.863 -27.920  1.00  0.00    -0.396 OA
HETATM   38  C1  UNL     1      -4.269  48.851 -28.185  1.00  0.00     0.201 C 
ENDBRANCH  36  37
ENDBRANCH  35  36
ENDBRANCH  34  35
ENDBRANCH  32  34
ENDBRANCH  31  32
ENDBRANCH   1  31
BRANCH   5  39
HETATM   39  O2  UNL     1      -7.481  46.295 -21.927  1.00  0.00    -0.386 OA
HETATM   40  H17 UNL     1      -7.889  46.056 -22.780  1.00  0.00     0.210 HD
ENDBRANCH   5  39
BRANCH  11  41
HETATM   41  O3  UNL     1      -9.360  45.486 -20.343  1.00  0.00    -0.386 OA
HETATM   42  H26 UNL     1      -8.531  45.157 -20.742  1.00  0.00     0.210 HD
ENDBRANCH  11  41
BRANCH  22  43
HETATM   43  C35 UNL     1     -11.544  45.784 -18.503  1.00  0.00     0.244 C 
HETATM   44  O5  UNL     1     -11.833  45.916 -17.313  1.00  0.00    -0.306 OA
ENDBRANCH  22  43
BRANCH  23  45
HETATM   45  O6  UNL     1     -12.357  44.746 -20.849  1.00  0.00    -0.388 OA
HETATM   46  H58 UNL     1     -12.963  44.357 -20.181  1.00  0.00     0.210 HD
ENDBRANCH  23  45
BRANCH  15  47
HETATM   47  C21 UNL     1     -14.464  45.981 -25.274  1.00  0.00    -0.011 C 
HETATM   48  C22 UNL     1     -13.955  44.635 -25.828  1.00  0.00     0.011 C 
BRANCH  47  49
HETATM   49  C23 UNL     1     -15.996  46.168 -25.534  1.00  0.00    -0.010 C 
HETATM   50  C24 UNL     1     -16.873  46.565 -24.337  1.00  0.00     0.005 C 
HETATM   51  C25 UNL     1     -18.296  46.334 -24.838  1.00  0.00     0.000 C 
HETATM   52  C26 UNL     1     -18.191  45.175 -25.831  1.00  0.00     0.000 C 
HETATM   53  C27 UNL     1     -16.699  44.872 -25.975  1.00  0.00     0.005 C 
ENDBRANCH  47  49
ENDBRANCH  15  47
BRANCH  19  54
HETATM   54  O4  UNL     1     -14.300  45.033 -18.833  1.00  0.00    -0.395 OA
HETATM   55  H52 UNL     1     -14.899  44.827 -18.086  1.00  0.00     0.210 HD
ENDBRANCH  19  54
TORSDOF 13
ENDMDL
