MODEL 1
REMARK minimizedAffinity -7.9708457
REMARK CNNscore 0.699592829
REMARK CNNaffinity 6.52372932
REMARK  9 active torsions:
REMARK  status: ('A' for Active; 'I' for Inactive)
REMARK    1  A    between atoms: C2_2  and  C30_35 
REMARK    2  A    between atoms: C3_3  and  C4_4 
REMARK    3  A    between atoms: C4_4  and  O1_5 
REMARK    4  A    between atoms: C4_4  and  C5_6 
REMARK    5  A    between atoms: C5_6  and  C6_7 
REMARK    6  A    between atoms: C6_7  and  C8_9 
REMARK    7  A    between atoms: C10_11  and  O2_12 
REMARK    8  A    between atoms: C29_33  and  O5_34 
REMARK    9  A    between atoms: C30_35  and  O7_37 
ROOT
HETATM    1  C8  UNL     1      -1.847   9.802  16.082  1.00  0.00     0.001 C 
HETATM    2  C9  UNL     1      -0.690   9.404  17.042  1.00  0.00     0.038 C 
HETATM    3  C10 UNL     1       0.339   8.640  16.186  1.00  0.00     0.132 C 
HETATM    4  C11 UNL     1       0.061   9.117  14.733  1.00  0.00     0.017 C 
HETATM    5  C12 UNL     1       0.657  10.555  14.565  1.00  0.00     0.023 C 
HETATM    6  C13 UNL     1       0.609   8.349  13.521  1.00  0.00    -0.029 C 
HETATM    7  C14 UNL     1      -0.036   8.385  12.319  1.00  0.00     0.002 C 
HETATM    8  C15 UNL     1      -1.401   9.064  12.240  1.00  0.00     0.157 C 
HETATM    9  O3  UNL     1      -2.029   9.119  11.185  1.00  0.00    -0.293 OA
HETATM   10  C16 UNL     1      -2.022   9.700  13.475  1.00  0.00     0.094 C 
HETATM   11  C17 UNL     1      -1.512   9.047  14.754  1.00  0.00    -0.019 C 
HETATM   12  C18 UNL     1      -2.061   7.589  14.791  1.00  0.00     0.017 C 
HETATM   13  C19 UNL     1       0.544   7.735  11.021  1.00  0.00    -0.008 C 
HETATM   14  C20 UNL     1      -0.210   6.394  10.875  1.00  0.00     0.021 C 
HETATM   15  C21 UNL     1       0.335   8.593   9.740  1.00  0.00     0.022 C 
HETATM   16  C22 UNL     1       1.011   8.034   8.495  1.00  0.00     0.080 C 
HETATM   17  C23 UNL     1       2.489   7.840   8.701  1.00  0.00     0.135 C 
HETATM   18  O4  UNL     1       3.283   8.205   7.833  1.00  0.00    -0.297 OA
HETATM   19  C24 UNL     1       2.936   7.080   9.957  1.00  0.00     0.018 C 
HETATM   20  C25 UNL     1       2.832   5.574   9.678  1.00  0.00     0.023 C 
HETATM   21  C26 UNL     1       4.439   7.399  10.177  1.00  0.00     0.023 C 
HETATM   22  C27 UNL     1       2.110   7.596  11.185  1.00  0.00     0.016 C 
HETATM   23  C28 UNL     1       2.429   6.865  12.491  1.00  0.00     0.043 C 
HETATM   24  C29 UNL     1       1.965   7.691  13.688  1.00  0.00     0.149 C 
ENDROOT
BRANCH   1  25
HETATM   25  C6  UNL     1      -3.258   9.765  16.750  1.00  0.00    -0.011 C 
HETATM   26  C7  UNL     1      -4.367   9.094  15.932  1.00  0.00     0.010 C 
BRANCH  25  27
HETATM   27  C5  UNL     1      -3.677  11.171  17.246  1.00  0.00     0.040 C 
BRANCH  27  28
HETATM   28  C4  UNL     1      -3.388  11.474  18.728  1.00  0.00     0.142 C 
BRANCH  28  29
HETATM   29  C3  UNL     1      -4.363  12.394  19.399  1.00  0.00     0.018 C 
HETATM   30  C2  UNL     1      -4.640  13.686  19.121  1.00  0.00     0.010 C 
HETATM   31  C1  UNL     1      -4.051  14.498  18.008  1.00  0.00     0.055 C 
BRANCH  30  32
HETATM   32  C30 UNL     1      -5.643  14.341  19.997  1.00  0.00     0.171 C 
HETATM   33  O6  UNL     1      -5.782  15.537  20.176  1.00  0.00    -0.646 OA
BRANCH  32  34
HETATM   34  O7  UNL     1      -6.439  13.456  20.619  1.00  0.00    -0.773 OA
HETATM   35  H44 UNL     1      -7.046  14.019  21.141  1.00  0.00     0.167 HD
ENDBRANCH  32  34
ENDBRANCH  30  32
ENDBRANCH  28  29
BRANCH  28  36
HETATM   36  O1  UNL     1      -2.086  12.042  18.843  1.00  0.00    -0.392 OA
HETATM   37  H6  UNL     1      -1.446  11.369  18.555  1.00  0.00     0.210 HD
ENDBRANCH  28  36
ENDBRANCH  27  28
ENDBRANCH  25  27
ENDBRANCH   1  25
BRANCH   3  38
HETATM   38  O2  UNL     1       1.670   8.891  16.617  1.00  0.00    -0.394 OA
HETATM   39  H17 UNL     1       1.680   8.811  17.589  1.00  0.00     0.210 HD
ENDBRANCH   3  38
BRANCH  24  40
HETATM   40  O5  UNL     1       1.963   6.803  14.796  1.00  0.00    -0.391 OA
HETATM   41  H43 UNL     1       2.286   7.331  15.553  1.00  0.00     0.210 HD
ENDBRANCH  24  40
TORSDOF 9
ENDMDL
MODEL 2
REMARK minimizedAffinity -9.37561989
REMARK CNNscore 0.661972702
REMARK CNNaffinity 6.55051994
REMARK  9 active torsions:
REMARK  status: ('A' for Active; 'I' for Inactive)
REMARK    1  A    between atoms: C2_2  and  C30_35 
REMARK    2  A    between atoms: C3_3  and  C4_4 
REMARK    3  A    between atoms: C4_4  and  O1_5 
REMARK    4  A    between atoms: C4_4  and  C5_6 
REMARK    5  A    between atoms: C5_6  and  C6_7 
REMARK    6  A    between atoms: C6_7  and  C8_9 
REMARK    7  A    between atoms: C10_11  and  O2_12 
REMARK    8  A    between atoms: C29_33  and  O5_34 
REMARK    9  A    between atoms: C30_35  and  O7_37 
ROOT
HETATM    1  C8  UNL     1      -6.657   7.138  14.949  1.00  0.00     0.001 C 
HETATM    2  C9  UNL     1      -6.405   8.586  15.458  1.00  0.00     0.038 C 
HETATM    3  C10 UNL     1      -4.905   8.866  15.241  1.00  0.00     0.132 C 
HETATM    4  C11 UNL     1      -4.485   7.868  14.126  1.00  0.00     0.017 C 
HETATM    5  C12 UNL     1      -5.013   8.412  12.755  1.00  0.00     0.023 C 
HETATM    6  C13 UNL     1      -3.007   7.554  13.850  1.00  0.00    -0.029 C 
HETATM    7  C14 UNL     1      -2.633   6.350  13.326  1.00  0.00     0.002 C 
HETATM    8  C15 UNL     1      -3.689   5.259  13.171  1.00  0.00     0.157 C 
HETATM    9  O3  UNL     1      -3.406   4.155  12.711  1.00  0.00    -0.293 OA
HETATM   10  C16 UNL     1      -5.132   5.513  13.582  1.00  0.00     0.094 C 
HETATM   11  C17 UNL     1      -5.223   6.585  14.662  1.00  0.00    -0.019 C 
HETATM   12  C18 UNL     1      -4.581   6.004  15.958  1.00  0.00     0.017 C 
HETATM   13  C19 UNL     1      -1.164   6.026  12.902  1.00  0.00    -0.008 C 
HETATM   14  C20 UNL     1      -0.589   5.186  14.065  1.00  0.00     0.021 C 
HETATM   15  C21 UNL     1      -1.055   5.221  11.575  1.00  0.00     0.022 C 
HETATM   16  C22 UNL     1       0.371   5.014  11.083  1.00  0.00     0.080 C 
HETATM   17  C23 UNL     1       1.097   6.320  10.907  1.00  0.00     0.135 C 
HETATM   18  O4  UNL     1       1.767   6.518   9.892  1.00  0.00    -0.297 OA
HETATM   19  C24 UNL     1       1.057   7.316  12.074  1.00  0.00     0.018 C 
HETATM   20  C25 UNL     1       2.134   6.917  13.092  1.00  0.00     0.023 C 
HETATM   21  C26 UNL     1       1.459   8.704  11.508  1.00  0.00     0.023 C 
HETATM   22  C27 UNL     1      -0.405   7.386  12.633  1.00  0.00     0.016 C 
HETATM   23  C28 UNL     1      -0.556   8.308  13.845  1.00  0.00     0.043 C 
HETATM   24  C29 UNL     1      -2.021   8.690  14.043  1.00  0.00     0.149 C 
ENDROOT
BRANCH   1  25
HETATM   25  C6  UNL     1      -7.720   6.356  15.784  1.00  0.00    -0.011 C 
HETATM   26  C7  UNL     1      -7.498   4.843  15.898  1.00  0.00     0.010 C 
BRANCH  25  27
HETATM   27  C5  UNL     1      -9.156   6.694  15.314  1.00  0.00     0.040 C 
BRANCH  27  28
HETATM   28  C4  UNL     1      -9.384   6.684  13.791  1.00  0.00     0.142 C 
BRANCH  28  29
HETATM   29  C3  UNL     1     -10.749   7.112  13.341  1.00  0.00     0.018 C 
HETATM   30  C2  UNL     1     -11.360   8.305  13.503  1.00  0.00     0.010 C 
HETATM   31  C1  UNL     1     -10.769   9.523  14.144  1.00  0.00     0.055 C 
BRANCH  30  32
HETATM   32  C30 UNL     1     -12.740   8.408  12.967  1.00  0.00     0.171 C 
HETATM   33  O6  UNL     1     -13.677   7.674  13.224  1.00  0.00    -0.646 OA
BRANCH  32  34
HETATM   34  O7  UNL     1     -12.888   9.441  12.122  1.00  0.00    -0.773 OA
HETATM   35  H44 UNL     1     -13.831   9.393  11.863  1.00  0.00     0.167 HD
ENDBRANCH  32  34
ENDBRANCH  30  32
ENDBRANCH  28  29
BRANCH  28  36
HETATM   36  O1  UNL     1      -9.141   5.371  13.291  1.00  0.00    -0.392 OA
HETATM   37  H6  UNL     1      -8.203   5.168  13.445  1.00  0.00     0.210 HD
ENDBRANCH  28  36
ENDBRANCH  27  28
ENDBRANCH  25  27
ENDBRANCH   1  25
BRANCH   3  38
HETATM   38  O2  UNL     1      -4.669  10.226  14.899  1.00  0.00    -0.394 OA
HETATM   39  H17 UNL     1      -5.189  10.774  15.515  1.00  0.00     0.210 HD
ENDBRANCH   3  38
BRANCH  24  40
HETATM   40  O5  UNL     1      -2.111   9.221  15.356  1.00  0.00    -0.391 OA
HETATM   41  H43 UNL     1      -2.740   9.968  15.292  1.00  0.00     0.210 HD
ENDBRANCH  24  40
TORSDOF 9
ENDMDL
MODEL 3
REMARK minimizedAffinity -7.61862469
REMARK CNNscore 0.579806566
REMARK CNNaffinity 5.66526937
REMARK  9 active torsions:
REMARK  status: ('A' for Active; 'I' for Inactive)
REMARK    1  A    between atoms: C2_2  and  C30_35 
REMARK    2  A    between atoms: C3_3  and  C4_4 
REMARK    3  A    between atoms: C4_4  and  O1_5 
REMARK    4  A    between atoms: C4_4  and  C5_6 
REMARK    5  A    between atoms: C5_6  and  C6_7 
REMARK    6  A    between atoms: C6_7  and  C8_9 
REMARK    7  A    between atoms: C10_11  and  O2_12 
REMARK    8  A    between atoms: C29_33  and  O5_34 
REMARK    9  A    between atoms: C30_35  and  O7_37 
ROOT
HETATM    1  C8  UNL     1     -17.001   1.819  14.892  1.00  0.00     0.001 C 
HETATM    2  C9  UNL     1     -16.879   2.125  13.372  1.00  0.00     0.038 C 
HETATM    3  C10 UNL     1     -16.203   0.894  12.736  1.00  0.00     0.132 C 
HETATM    4  C11 UNL     1     -16.490  -0.262  13.735  1.00  0.00     0.017 C 
HETATM    5  C12 UNL     1     -17.980  -0.709  13.554  1.00  0.00     0.023 C 
HETATM    6  C13 UNL     1     -15.703  -1.580  13.680  1.00  0.00    -0.029 C 
HETATM    7  C14 UNL     1     -15.523  -2.335  14.802  1.00  0.00     0.002 C 
HETATM    8  C15 UNL     1     -15.974  -1.770  16.147  1.00  0.00     0.157 C 
HETATM    9  O3  UNL     1     -15.830  -2.404  17.189  1.00  0.00    -0.293 OA
HETATM   10  C16 UNL     1     -16.623  -0.395  16.230  1.00  0.00     0.094 C 
HETATM   11  C17 UNL     1     -16.182   0.499  15.078  1.00  0.00    -0.019 C 
HETATM   12  C18 UNL     1     -14.667   0.809  15.274  1.00  0.00     0.017 C 
HETATM   13  C19 UNL     1     -14.848  -3.745  14.781  1.00  0.00    -0.008 C 
HETATM   14  C20 UNL     1     -13.400  -3.502  15.260  1.00  0.00     0.021 C 
HETATM   15  C21 UNL     1     -15.537  -4.787  15.709  1.00  0.00     0.022 C 
HETATM   16  C22 UNL     1     -14.971  -6.196  15.596  1.00  0.00     0.080 C 
HETATM   17  C23 UNL     1     -15.027  -6.710  14.183  1.00  0.00     0.135 C 
HETATM   18  O4  UNL     1     -15.425  -7.854  13.961  1.00  0.00    -0.297 OA
HETATM   19  C24 UNL     1     -14.469  -5.804  13.077  1.00  0.00     0.018 C 
HETATM   20  C25 UNL     1     -12.946  -5.982  13.024  1.00  0.00     0.023 C 
HETATM   21  C26 UNL     1     -15.035  -6.323  11.728  1.00  0.00     0.023 C 
HETATM   22  C27 UNL     1     -14.968  -4.338  13.320  1.00  0.00     0.016 C 
HETATM   23  C28 UNL     1     -14.424  -3.328  12.308  1.00  0.00     0.043 C 
HETATM   24  C29 UNL     1     -15.279  -2.064  12.306  1.00  0.00     0.149 C 
ENDROOT
BRANCH   1  25
HETATM   25  C6  UNL     1     -16.812   3.074  15.802  1.00  0.00    -0.011 C 
HETATM   26  C7  UNL     1     -18.096   3.681  16.379  1.00  0.00     0.010 C 
BRANCH  25  27
HETATM   27  C5  UNL     1     -15.932   4.140  15.104  1.00  0.00     0.040 C 
BRANCH  27  28
HETATM   28  C4  UNL     1     -16.386   5.602  15.276  1.00  0.00     0.142 C 
BRANCH  28  29
HETATM   29  C3  UNL     1     -16.286   6.456  14.048  1.00  0.00     0.018 C 
HETATM   30  C2  UNL     1     -15.185   6.852  13.377  1.00  0.00     0.010 C 
HETATM   31  C1  UNL     1     -13.771   6.470  13.692  1.00  0.00     0.055 C 
BRANCH  30  32
HETATM   32  C30 UNL     1     -15.417   7.731  12.203  1.00  0.00     0.171 C 
HETATM   33  O6  UNL     1     -15.820   7.389  11.106  1.00  0.00    -0.646 OA
BRANCH  32  34
HETATM   34  O7  UNL     1     -15.129   9.018  12.459  1.00  0.00    -0.773 OA
HETATM   35  H44 UNL     1     -15.337   9.472  11.617  1.00  0.00     0.167 HD
ENDBRANCH  32  34
ENDBRANCH  30  32
ENDBRANCH  28  29
BRANCH  28  36
HETATM   36  O1  UNL     1     -15.613   6.211  16.308  1.00  0.00    -0.392 OA
HETATM   37  H6  UNL     1     -15.813   5.746  17.137  1.00  0.00     0.210 HD
ENDBRANCH  28  36
ENDBRANCH  27  28
ENDBRANCH  25  27
ENDBRANCH   1  25
BRANCH   3  38
HETATM   38  O2  UNL     1     -16.696   0.643  11.426  1.00  0.00    -0.394 OA
HETATM   39  H17 UNL     1     -16.712   1.495  10.954  1.00  0.00     0.210 HD
ENDBRANCH   3  38
BRANCH  24  40
HETATM   40  O5  UNL     1     -14.513  -1.075  11.636  1.00  0.00    -0.391 OA
HETATM   41  H43 UNL     1     -15.155  -0.566  11.101  1.00  0.00     0.210 HD
ENDBRANCH  24  40
TORSDOF 9
ENDMDL
MODEL 4
REMARK minimizedAffinity -8.08507252
REMARK CNNscore 0.506425917
REMARK CNNaffinity 6.52618933
REMARK  9 active torsions:
REMARK  status: ('A' for Active; 'I' for Inactive)
REMARK    1  A    between atoms: C2_2  and  C30_35 
REMARK    2  A    between atoms: C3_3  and  C4_4 
REMARK    3  A    between atoms: C4_4  and  O1_5 
REMARK    4  A    between atoms: C4_4  and  C5_6 
REMARK    5  A    between atoms: C5_6  and  C6_7 
REMARK    6  A    between atoms: C6_7  and  C8_9 
REMARK    7  A    between atoms: C10_11  and  O2_12 
REMARK    8  A    between atoms: C29_33  and  O5_34 
REMARK    9  A    between atoms: C30_35  and  O7_37 
ROOT
HETATM    1  C8  UNL     1      -0.581   9.699  14.720  1.00  0.00     0.001 C 
HETATM    2  C9  UNL     1       0.307   8.646  13.997  1.00  0.00     0.038 C 
HETATM    3  C10 UNL     1      -0.598   7.428  13.728  1.00  0.00     0.132 C 
HETATM    4  C11 UNL     1      -2.040   8.007  13.750  1.00  0.00     0.017 C 
HETATM    5  C12 UNL     1      -2.285   8.767  12.403  1.00  0.00     0.023 C 
HETATM    6  C13 UNL     1      -3.267   7.093  13.883  1.00  0.00    -0.029 C 
HETATM    7  C14 UNL     1      -4.422   7.549  14.449  1.00  0.00     0.002 C 
HETATM    8  C15 UNL     1      -4.424   8.931  15.098  1.00  0.00     0.157 C 
HETATM    9  O3  UNL     1      -5.435   9.388  15.628  1.00  0.00    -0.293 OA
HETATM   10  C16 UNL     1      -3.166   9.786  15.102  1.00  0.00     0.094 C 
HETATM   11  C17 UNL     1      -1.909   8.929  15.020  1.00  0.00    -0.019 C 
HETATM   12  C18 UNL     1      -1.797   8.127  16.351  1.00  0.00     0.017 C 
HETATM   13  C19 UNL     1      -5.739   6.709  14.490  1.00  0.00    -0.008 C 
HETATM   14  C20 UNL     1      -5.800   6.130  15.922  1.00  0.00     0.021 C 
HETATM   15  C21 UNL     1      -7.025   7.540  14.210  1.00  0.00     0.022 C 
HETATM   16  C22 UNL     1      -8.298   6.710  14.117  1.00  0.00     0.080 C 
HETATM   17  C23 UNL     1      -8.190   5.635  13.069  1.00  0.00     0.135 C 
HETATM   18  O4  UNL     1      -9.120   5.448  12.283  1.00  0.00    -0.297 OA
HETATM   19  C24 UNL     1      -6.949   4.734  13.104  1.00  0.00     0.018 C 
HETATM   20  C25 UNL     1      -7.181   3.625  14.139  1.00  0.00     0.023 C 
HETATM   21  C26 UNL     1      -6.841   4.045  11.717  1.00  0.00     0.023 C 
HETATM   22  C27 UNL     1      -5.680   5.623  13.343  1.00  0.00     0.016 C 
HETATM   23  C28 UNL     1      -4.381   4.823  13.457  1.00  0.00     0.043 C 
HETATM   24  C29 UNL     1      -3.176   5.731  13.222  1.00  0.00     0.149 C 
ENDROOT
BRANCH   1  25
HETATM   25  C6  UNL     1       0.183  10.531  15.798  1.00  0.00    -0.011 C 
HETATM   26  C7  UNL     1      -0.597  10.838  17.081  1.00  0.00     0.010 C 
BRANCH  25  27
HETATM   27  C5  UNL     1       0.803  11.807  15.180  1.00  0.00     0.040 C 
BRANCH  27  28
HETATM   28  C4  UNL     1       0.201  13.143  15.654  1.00  0.00     0.142 C 
BRANCH  28  29
HETATM   29  C3  UNL     1      -0.687  13.836  14.664  1.00  0.00     0.018 C 
HETATM   30  C2  UNL     1      -0.352  14.695  13.678  1.00  0.00     0.010 C 
HETATM   31  C1  UNL     1       1.036  15.119  13.308  1.00  0.00     0.055 C 
BRANCH  30  32
HETATM   32  C30 UNL     1      -1.477  15.242  12.879  1.00  0.00     0.171 C 
HETATM   33  O6  UNL     1      -1.432  16.185  12.110  1.00  0.00    -0.646 OA
BRANCH  32  34
HETATM   34  O7  UNL     1      -2.624  14.574  13.081  1.00  0.00    -0.773 OA
HETATM   35  H44 UNL     1      -3.262  15.028  12.493  1.00  0.00     0.167 HD
ENDBRANCH  32  34
ENDBRANCH  30  32
ENDBRANCH  28  29
BRANCH  28  36
HETATM   36  O1  UNL     1       1.258  14.033  16.005  1.00  0.00    -0.392 OA
HETATM   37  H6  UNL     1       1.730  13.644  16.760  1.00  0.00     0.210 HD
ENDBRANCH  28  36
ENDBRANCH  27  28
ENDBRANCH  25  27
ENDBRANCH   1  25
BRANCH   3  38
HETATM   38  O2  UNL     1      -0.266   6.788  12.503  1.00  0.00    -0.394 OA
HETATM   39  H17 UNL     1       0.704   6.697  12.477  1.00  0.00     0.210 HD
ENDBRANCH   3  38
BRANCH  24  40
HETATM   40  O5  UNL     1      -2.049   5.011  13.698  1.00  0.00    -0.391 OA
HETATM   41  H43 UNL     1      -1.329   5.208  13.065  1.00  0.00     0.210 HD
ENDBRANCH  24  40
TORSDOF 9
ENDMDL
MODEL 5
REMARK minimizedAffinity -7.40345001
REMARK CNNscore 0.476527721
REMARK CNNaffinity 6.33737993
REMARK  9 active torsions:
REMARK  status: ('A' for Active; 'I' for Inactive)
REMARK    1  A    between atoms: C2_2  and  C30_35 
REMARK    2  A    between atoms: C3_3  and  C4_4 
REMARK    3  A    between atoms: C4_4  and  O1_5 
REMARK    4  A    between atoms: C4_4  and  C5_6 
REMARK    5  A    between atoms: C5_6  and  C6_7 
REMARK    6  A    between atoms: C6_7  and  C8_9 
REMARK    7  A    between atoms: C10_11  and  O2_12 
REMARK    8  A    between atoms: C29_33  and  O5_34 
REMARK    9  A    between atoms: C30_35  and  O7_37 
ROOT
HETATM    1  C8  UNL     1      -8.805   7.792  14.544  1.00  0.00     0.001 C 
HETATM    2  C9  UNL     1      -9.717   6.577  14.209  1.00  0.00     0.038 C 
HETATM    3  C10 UNL     1     -11.134   6.955  14.685  1.00  0.00     0.132 C 
HETATM    4  C11 UNL     1     -11.126   8.508  14.722  1.00  0.00     0.017 C 
HETATM    5  C12 UNL     1     -11.239   9.035  13.252  1.00  0.00     0.023 C 
HETATM    6  C13 UNL     1     -12.207   9.295  15.477  1.00  0.00    -0.029 C 
HETATM    7  C14 UNL     1     -11.944  10.532  15.990  1.00  0.00     0.002 C 
HETATM    8  C15 UNL     1     -10.509  11.053  15.947  1.00  0.00     0.157 C 
HETATM    9  O3  UNL     1     -10.215  12.156  16.401  1.00  0.00    -0.293 OA
HETATM   10  C16 UNL     1      -9.399  10.213  15.332  1.00  0.00     0.094 C 
HETATM   11  C17 UNL     1      -9.722   8.726  15.401  1.00  0.00    -0.019 C 
HETATM   12  C18 UNL     1      -9.695   8.307  16.902  1.00  0.00     0.017 C 
HETATM   13  C19 UNL     1     -13.039  11.432  16.649  1.00  0.00    -0.008 C 
HETATM   14  C20 UNL     1     -12.839  11.255  18.171  1.00  0.00     0.021 C 
HETATM   15  C21 UNL     1     -12.921  12.938  16.279  1.00  0.00     0.022 C 
HETATM   16  C22 UNL     1     -14.058  13.803  16.807  1.00  0.00     0.080 C 
HETATM   17  C23 UNL     1     -15.401  13.304  16.346  1.00  0.00     0.135 C 
HETATM   18  O4  UNL     1     -16.238  14.100  15.916  1.00  0.00    -0.297 OA
HETATM   19  C24 UNL     1     -15.708  11.814  16.540  1.00  0.00     0.018 C 
HETATM   20  C25 UNL     1     -16.186  11.599  17.982  1.00  0.00     0.023 C 
HETATM   21  C26 UNL     1     -16.901  11.464  15.610  1.00  0.00     0.023 C 
HETATM   22  C27 UNL     1     -14.454  10.975  16.114  1.00  0.00     0.016 C 
HETATM   23  C28 UNL     1     -14.622   9.469  16.321  1.00  0.00     0.043 C 
HETATM   24  C29 UNL     1     -13.603   8.700  15.485  1.00  0.00     0.149 C 
ENDROOT
BRANCH   1  25
HETATM   25  C6  UNL     1      -7.359   7.391  14.975  1.00  0.00    -0.011 C 
HETATM   26  C7  UNL     1      -6.221   8.140  14.272  1.00  0.00     0.010 C 
BRANCH  25  27
HETATM   27  C5  UNL     1      -7.164   5.857  14.914  1.00  0.00     0.040 C 
BRANCH  27  28
HETATM   28  C4  UNL     1      -6.304   5.335  13.748  1.00  0.00     0.142 C 
BRANCH  28  29
HETATM   29  C3  UNL     1      -6.669   3.973  13.237  1.00  0.00     0.018 C 
HETATM   30  C2  UNL     1      -6.071   3.239  12.275  1.00  0.00     0.010 C 
HETATM   31  C1  UNL     1      -4.836   3.614  11.514  1.00  0.00     0.055 C 
BRANCH  30  32
HETATM   32  C30 UNL     1      -6.697   1.928  11.971  1.00  0.00     0.171 C 
HETATM   33  O6  UNL     1      -6.245   1.055  11.252  1.00  0.00    -0.646 OA
BRANCH  32  34
HETATM   34  O7  UNL     1      -7.878   1.766  12.589  1.00  0.00    -0.773 OA
HETATM   35  H44 UNL     1      -8.162   0.871  12.312  1.00  0.00     0.167 HD
ENDBRANCH  32  34
ENDBRANCH  30  32
ENDBRANCH  28  29
BRANCH  28  36
HETATM   36  O1  UNL     1      -4.937   5.309  14.152  1.00  0.00    -0.392 OA
HETATM   37  H6  UNL     1      -4.665   6.225  14.325  1.00  0.00     0.210 HD
ENDBRANCH  28  36
ENDBRANCH  27  28
ENDBRANCH  25  27
ENDBRANCH   1  25
BRANCH   3  38
HETATM   38  O2  UNL     1     -12.135   6.415  13.832  1.00  0.00    -0.394 OA
HETATM   39  H17 UNL     1     -11.902   5.483  13.666  1.00  0.00     0.210 HD
ENDBRANCH   3  38
BRANCH  24  40
HETATM   40  O5  UNL     1     -13.587   7.380  16.006  1.00  0.00    -0.391 OA
HETATM   41  H43 UNL     1     -13.497   6.795  15.227  1.00  0.00     0.210 HD
ENDBRANCH  24  40
TORSDOF 9
ENDMDL
MODEL 6
REMARK minimizedAffinity -8.92549992
REMARK CNNscore 0.47616151
REMARK CNNaffinity 5.8542819
REMARK  9 active torsions:
REMARK  status: ('A' for Active; 'I' for Inactive)
REMARK    1  A    between atoms: C2_2  and  C30_35 
REMARK    2  A    between atoms: C3_3  and  C4_4 
REMARK    3  A    between atoms: C4_4  and  O1_5 
REMARK    4  A    between atoms: C4_4  and  C5_6 
REMARK    5  A    between atoms: C5_6  and  C6_7 
REMARK    6  A    between atoms: C6_7  and  C8_9 
REMARK    7  A    between atoms: C10_11  and  O2_12 
REMARK    8  A    between atoms: C29_33  and  O5_34 
REMARK    9  A    between atoms: C30_35  and  O7_37 
ROOT
HETATM    1  C8  UNL     1       0.077   9.968  17.370  1.00  0.00     0.001 C 
HETATM    2  C9  UNL     1      -1.323   9.957  16.692  1.00  0.00     0.038 C 
HETATM    3  C10 UNL     1      -1.079   9.653  15.201  1.00  0.00     0.132 C 
HETATM    4  C11 UNL     1       0.302   8.939  15.174  1.00  0.00     0.017 C 
HETATM    5  C12 UNL     1       0.104   7.467  15.672  1.00  0.00     0.023 C 
HETATM    6  C13 UNL     1       1.095   8.781  13.868  1.00  0.00    -0.029 C 
HETATM    7  C14 UNL     1       2.456   8.692  13.883  1.00  0.00     0.002 C 
HETATM    8  C15 UNL     1       3.192   8.919  15.201  1.00  0.00     0.157 C 
HETATM    9  O3  UNL     1       4.417   8.858  15.270  1.00  0.00    -0.293 OA
HETATM   10  C16 UNL     1       2.419   9.225  16.476  1.00  0.00     0.094 C 
HETATM   11  C17 UNL     1       1.077   9.879  16.171  1.00  0.00    -0.019 C 
HETATM   12  C18 UNL     1       1.365  11.293  15.582  1.00  0.00     0.017 C 
HETATM   13  C19 UNL     1       3.304   8.398  12.603  1.00  0.00    -0.008 C 
HETATM   14  C20 UNL     1       3.850   9.774  12.160  1.00  0.00     0.021 C 
HETATM   15  C21 UNL     1       4.490   7.420  12.845  1.00  0.00     0.022 C 
HETATM   16  C22 UNL     1       5.241   7.023  11.581  1.00  0.00     0.080 C 
HETATM   17  C23 UNL     1       4.325   6.413  10.554  1.00  0.00     0.135 C 
HETATM   18  O4  UNL     1       4.664   5.389   9.960  1.00  0.00    -0.297 OA
HETATM   19  C24 UNL     1       3.039   7.175  10.211  1.00  0.00     0.018 C 
HETATM   20  C25 UNL     1       3.376   8.264   9.184  1.00  0.00     0.023 C 
HETATM   21  C26 UNL     1       2.082   6.172   9.513  1.00  0.00     0.023 C 
HETATM   22  C27 UNL     1       2.378   7.683  11.539  1.00  0.00     0.016 C 
HETATM   23  C28 UNL     1       1.112   8.513  11.319  1.00  0.00     0.043 C 
HETATM   24  C29 UNL     1       0.287   8.574  12.601  1.00  0.00     0.149 C 
ENDROOT
BRANCH   1  25
HETATM   25  C6  UNL     1       0.212  11.021  18.515  1.00  0.00    -0.011 C 
HETATM   26  C7  UNL     1      -0.671  12.267  18.384  1.00  0.00     0.010 C 
BRANCH  25  27
HETATM   27  C5  UNL     1       1.696  11.388  18.761  1.00  0.00     0.040 C 
BRANCH  27  28
HETATM   28  C4  UNL     1       2.100  11.599  20.232  1.00  0.00     0.142 C 
BRANCH  28  29
HETATM   29  C3  UNL     1       1.897  10.416  21.131  1.00  0.00     0.018 C 
HETATM   30  C2  UNL     1       2.802   9.761  21.890  1.00  0.00     0.010 C 
HETATM   31  C1  UNL     1       4.249  10.117  22.047  1.00  0.00     0.055 C 
BRANCH  30  32
HETATM   32  C30 UNL     1       2.292   8.595  22.652  1.00  0.00     0.171 C 
HETATM   33  O6  UNL     1       1.725   7.618  22.196  1.00  0.00    -0.646 OA
BRANCH  32  34
HETATM   34  O7  UNL     1       2.517   8.705  23.972  1.00  0.00    -0.773 OA
HETATM   35  H44 UNL     1       2.146   7.876  24.338  1.00  0.00     0.167 HD
ENDBRANCH  32  34
ENDBRANCH  30  32
ENDBRANCH  28  29
BRANCH  28  36
HETATM   36  O1  UNL     1       1.364  12.697  20.766  1.00  0.00    -0.392 OA
HETATM   37  H6  UNL     1       1.630  13.493  20.276  1.00  0.00     0.210 HD
ENDBRANCH  28  36
ENDBRANCH  27  28
ENDBRANCH  25  27
ENDBRANCH   1  25
BRANCH   3  38
HETATM   38  O2  UNL     1      -2.129   8.871  14.646  1.00  0.00    -0.394 OA
HETATM   39  H17 UNL     1      -2.970   9.267  14.937  1.00  0.00     0.210 HD
ENDBRANCH   3  38
BRANCH  24  40
HETATM   40  O5  UNL     1      -0.642   9.632  12.416  1.00  0.00    -0.391 OA
HETATM   41  H43 UNL     1      -1.474   9.321  12.826  1.00  0.00     0.210 HD
ENDBRANCH  24  40
TORSDOF 9
ENDMDL
MODEL 7
REMARK minimizedAffinity -9.66364288
REMARK CNNscore 0.469246209
REMARK CNNaffinity 6.60016441
REMARK  9 active torsions:
REMARK  status: ('A' for Active; 'I' for Inactive)
REMARK    1  A    between atoms: C2_2  and  C30_35 
REMARK    2  A    between atoms: C3_3  and  C4_4 
REMARK    3  A    between atoms: C4_4  and  O1_5 
REMARK    4  A    between atoms: C4_4  and  C5_6 
REMARK    5  A    between atoms: C5_6  and  C6_7 
REMARK    6  A    between atoms: C6_7  and  C8_9 
REMARK    7  A    between atoms: C10_11  and  O2_12 
REMARK    8  A    between atoms: C29_33  and  O5_34 
REMARK    9  A    between atoms: C30_35  and  O7_37 
ROOT
HETATM    1  C8  UNL     1      -6.299   7.057  14.041  1.00  0.00     0.001 C 
HETATM    2  C9  UNL     1      -6.349   8.363  14.884  1.00  0.00     0.038 C 
HETATM    3  C10 UNL     1      -4.884   8.749  15.170  1.00  0.00     0.132 C 
HETATM    4  C11 UNL     1      -4.074   8.045  14.046  1.00  0.00     0.017 C 
HETATM    5  C12 UNL     1      -4.263   8.859  12.721  1.00  0.00     0.023 C 
HETATM    6  C13 UNL     1      -2.552   7.865  14.151  1.00  0.00    -0.029 C 
HETATM    7  C14 UNL     1      -1.926   6.827  13.524  1.00  0.00     0.002 C 
HETATM    8  C15 UNL     1      -2.779   5.753  12.853  1.00  0.00     0.157 C 
HETATM    9  O3  UNL     1      -2.267   4.794  12.280  1.00  0.00    -0.293 OA
HETATM   10  C16 UNL     1      -4.297   5.847  12.872  1.00  0.00     0.094 C 
HETATM   11  C17 UNL     1      -4.791   6.644  14.074  1.00  0.00    -0.019 C 
HETATM   12  C18 UNL     1      -4.469   5.816  15.354  1.00  0.00     0.017 C 
HETATM   13  C19 UNL     1      -0.371   6.669  13.485  1.00  0.00    -0.008 C 
HETATM   14  C20 UNL     1      -0.049   5.616  14.569  1.00  0.00     0.021 C 
HETATM   15  C21 UNL     1       0.179   6.188  12.111  1.00  0.00     0.022 C 
HETATM   16  C22 UNL     1       1.699   6.158  12.021  1.00  0.00     0.080 C 
HETATM   17  C23 UNL     1       2.304   7.501  12.331  1.00  0.00     0.135 C 
HETATM   18  O4  UNL     1       3.200   7.950  11.615  1.00  0.00    -0.297 OA
HETATM   19  C24 UNL     1       1.844   8.207  13.613  1.00  0.00     0.018 C 
HETATM   20  C25 UNL     1       2.638   7.636  14.796  1.00  0.00     0.023 C 
HETATM   21  C26 UNL     1       2.236   9.703  13.481  1.00  0.00     0.023 C 
HETATM   22  C27 UNL     1       0.285   8.087  13.729  1.00  0.00     0.016 C 
HETATM   23  C28 UNL     1      -0.286   8.706  15.006  1.00  0.00     0.043 C 
HETATM   24  C29 UNL     1      -1.781   8.970  14.846  1.00  0.00     0.149 C 
ENDROOT
BRANCH   1  25
HETATM   25  C6  UNL     1      -7.461   6.062  14.356  1.00  0.00    -0.011 C 
HETATM   26  C7  UNL     1      -7.334   5.280  15.668  1.00  0.00     0.010 C 
BRANCH  25  27
HETATM   27  C5  UNL     1      -7.736   5.128  13.153  1.00  0.00     0.040 C 
BRANCH  27  28
HETATM   28  C4  UNL     1      -7.240   3.677  13.301  1.00  0.00     0.142 C 
BRANCH  28  29
HETATM   29  C3  UNL     1      -5.932   3.372  12.634  1.00  0.00     0.018 C 
HETATM   30  C2  UNL     1      -5.598   2.315  11.864  1.00  0.00     0.010 C 
HETATM   31  C1  UNL     1      -6.509   1.200  11.448  1.00  0.00     0.055 C 
BRANCH  30  32
HETATM   32  C30 UNL     1      -4.199   2.283  11.371  1.00  0.00     0.171 C 
HETATM   33  O6  UNL     1      -3.296   1.582  11.791  1.00  0.00    -0.646 OA
BRANCH  32  34
HETATM   34  O7  UNL     1      -3.990   3.141  10.360  1.00  0.00    -0.773 OA
HETATM   35  H44 UNL     1      -3.047   3.005  10.133  1.00  0.00     0.167 HD
ENDBRANCH  32  34
ENDBRANCH  30  32
ENDBRANCH  28  29
BRANCH  28  36
HETATM   36  O1  UNL     1      -8.226   2.791  12.778  1.00  0.00    -0.392 OA
HETATM   37  H6  UNL     1      -9.022   2.882  13.327  1.00  0.00     0.210 HD
ENDBRANCH  28  36
ENDBRANCH  27  28
ENDBRANCH  25  27
ENDBRANCH   1  25
BRANCH   3  38
HETATM   38  O2  UNL     1      -4.708  10.160  15.194  1.00  0.00    -0.394 OA
HETATM   39  H17 UNL     1      -5.431  10.532  15.732  1.00  0.00     0.210 HD
ENDBRANCH   3  38
BRANCH  24  40
HETATM   40  O5  UNL     1      -2.281   9.189  16.157  1.00  0.00    -0.391 OA
HETATM   41  H43 UNL     1      -2.943   9.903  16.066  1.00  0.00     0.210 HD
ENDBRANCH  24  40
TORSDOF 9
ENDMDL
MODEL 8
REMARK minimizedAffinity -9.29953766
REMARK CNNscore 0.420587808
REMARK CNNaffinity 6.53599215
REMARK  9 active torsions:
REMARK  status: ('A' for Active; 'I' for Inactive)
REMARK    1  A    between atoms: C2_2  and  C30_35 
REMARK    2  A    between atoms: C3_3  and  C4_4 
REMARK    3  A    between atoms: C4_4  and  O1_5 
REMARK    4  A    between atoms: C4_4  and  C5_6 
REMARK    5  A    between atoms: C5_6  and  C6_7 
REMARK    6  A    between atoms: C6_7  and  C8_9 
REMARK    7  A    between atoms: C10_11  and  O2_12 
REMARK    8  A    between atoms: C29_33  and  O5_34 
REMARK    9  A    between atoms: C30_35  and  O7_37 
ROOT
HETATM    1  C8  UNL     1      -1.435   7.840  13.717  1.00  0.00     0.001 C 
HETATM    2  C9  UNL     1      -1.177   7.618  15.234  1.00  0.00     0.038 C 
HETATM    3  C10 UNL     1       0.353   7.519  15.403  1.00  0.00     0.132 C 
HETATM    4  C11 UNL     1       0.925   8.249  14.156  1.00  0.00     0.017 C 
HETATM    5  C12 UNL     1       0.777   9.792  14.378  1.00  0.00     0.023 C 
HETATM    6  C13 UNL     1       2.392   8.078  13.734  1.00  0.00    -0.029 C 
HETATM    7  C14 UNL     1       2.766   8.217  12.429  1.00  0.00     0.002 C 
HETATM    8  C15 UNL     1       1.679   8.380  11.368  1.00  0.00     0.157 C 
HETATM    9  O3  UNL     1       1.959   8.501  10.178  1.00  0.00    -0.293 OA
HETATM   10  C16 UNL     1       0.210   8.400  11.763  1.00  0.00     0.094 C 
HETATM   11  C17 UNL     1      -0.029   7.640  13.062  1.00  0.00    -0.019 C 
HETATM   12  C18 UNL     1       0.243   6.131  12.781  1.00  0.00     0.017 C 
HETATM   13  C19 UNL     1       4.257   8.187  11.962  1.00  0.00    -0.008 C 
HETATM   14  C20 UNL     1       4.472   6.763  11.401  1.00  0.00     0.021 C 
HETATM   15  C21 UNL     1       4.594   9.236  10.863  1.00  0.00     0.022 C 
HETATM   16  C22 UNL     1       6.070   9.306  10.496  1.00  0.00     0.080 C 
HETATM   17  C23 UNL     1       6.933   9.583  11.698  1.00  0.00     0.135 C 
HETATM   18  O4  UNL     1       7.833  10.421  11.628  1.00  0.00    -0.297 OA
HETATM   19  C24 UNL     1       6.717   8.711  12.942  1.00  0.00     0.018 C 
HETATM   20  C25 UNL     1       7.491   7.399  12.757  1.00  0.00     0.023 C 
HETATM   21  C26 UNL     1       7.362   9.454  14.143  1.00  0.00     0.023 C 
HETATM   22  C27 UNL     1       5.177   8.555  13.193  1.00  0.00     0.016 C 
HETATM   23  C28 UNL     1       4.836   7.651  14.380  1.00  0.00     0.043 C 
HETATM   24  C29 UNL     1       3.406   7.907  14.848  1.00  0.00     0.149 C 
ENDROOT
BRANCH   1  25
HETATM   25  C6  UNL     1      -2.728   7.139  13.191  1.00  0.00    -0.011 C 
HETATM   26  C7  UNL     1      -3.919   8.061  12.907  1.00  0.00     0.010 C 
BRANCH  25  27
HETATM   27  C5  UNL     1      -3.123   5.948  14.097  1.00  0.00     0.040 C 
BRANCH  27  28
HETATM   28  C4  UNL     1      -3.551   4.662  13.366  1.00  0.00     0.142 C 
BRANCH  28  29
HETATM   29  C3  UNL     1      -2.509   4.049  12.478  1.00  0.00     0.018 C 
HETATM   30  C2  UNL     1      -2.527   2.856  11.847  1.00  0.00     0.010 C 
HETATM   31  C1  UNL     1      -3.654   1.869  11.852  1.00  0.00     0.055 C 
BRANCH  30  32
HETATM   32  C30 UNL     1      -1.316   2.517  11.058  1.00  0.00     0.171 C 
HETATM   33  O6  UNL     1      -0.159   2.621  11.421  1.00  0.00    -0.646 OA
BRANCH  32  34
HETATM   34  O7  UNL     1      -1.614   2.057   9.832  1.00  0.00    -0.773 OA
HETATM   35  H44 UNL     1      -0.737   1.867   9.439  1.00  0.00     0.167 HD
ENDBRANCH  32  34
ENDBRANCH  30  32
ENDBRANCH  28  29
BRANCH  28  36
HETATM   36  O1  UNL     1      -4.706   4.935  12.577  1.00  0.00    -0.392 OA
HETATM   37  H6  UNL     1      -5.425   5.176  13.184  1.00  0.00     0.210 HD
ENDBRANCH  28  36
ENDBRANCH  27  28
ENDBRANCH  25  27
ENDBRANCH   1  25
BRANCH   3  38
HETATM   38  O2  UNL     1       0.782   8.084  16.634  1.00  0.00    -0.394 OA
HETATM   39  H17 UNL     1       0.187   7.750  17.330  1.00  0.00     0.210 HD
ENDBRANCH   3  38
BRANCH  24  40
HETATM   40  O5  UNL     1       3.065   6.806  15.678  1.00  0.00    -0.391 OA
HETATM   41  H43 UNL     1       2.539   7.185  16.409  1.00  0.00     0.210 HD
ENDBRANCH  24  40
TORSDOF 9
ENDMDL
MODEL 9
REMARK minimizedAffinity -8.80617332
REMARK CNNscore 0.418258756
REMARK CNNaffinity 6.41742182
REMARK  9 active torsions:
REMARK  status: ('A' for Active; 'I' for Inactive)
REMARK    1  A    between atoms: C2_2  and  C30_35 
REMARK    2  A    between atoms: C3_3  and  C4_4 
REMARK    3  A    between atoms: C4_4  and  O1_5 
REMARK    4  A    between atoms: C4_4  and  C5_6 
REMARK    5  A    between atoms: C5_6  and  C6_7 
REMARK    6  A    between atoms: C6_7  and  C8_9 
REMARK    7  A    between atoms: C10_11  and  O2_12 
REMARK    8  A    between atoms: C29_33  and  O5_34 
REMARK    9  A    between atoms: C30_35  and  O7_37 
ROOT
HETATM    1  C8  UNL     1      -0.924  10.008  14.865  1.00  0.00     0.001 C 
HETATM    2  C9  UNL     1       0.095   8.985  14.288  1.00  0.00     0.038 C 
HETATM    3  C10 UNL     1      -0.698   7.690  14.017  1.00  0.00     0.132 C 
HETATM    4  C11 UNL     1      -2.172   8.164  13.879  1.00  0.00     0.017 C 
HETATM    5  C12 UNL     1      -2.344   8.828  12.471  1.00  0.00     0.023 C 
HETATM    6  C13 UNL     1      -3.341   7.171  13.961  1.00  0.00    -0.029 C 
HETATM    7  C14 UNL     1      -4.571   7.573  14.395  1.00  0.00     0.002 C 
HETATM    8  C15 UNL     1      -4.726   8.984  14.956  1.00  0.00     0.157 C 
HETATM    9  O3  UNL     1      -5.809   9.395  15.367  1.00  0.00    -0.293 OA
HETATM   10  C16 UNL     1      -3.534   9.928  15.016  1.00  0.00     0.094 C 
HETATM   11  C17 UNL     1      -2.219   9.161  15.096  1.00  0.00    -0.019 C 
HETATM   12  C18 UNL     1      -2.175   8.444  16.479  1.00  0.00     0.017 C 
HETATM   13  C19 UNL     1      -5.827   6.643  14.374  1.00  0.00    -0.008 C 
HETATM   14  C20 UNL     1      -5.978   6.141  15.827  1.00  0.00     0.021 C 
HETATM   15  C21 UNL     1      -7.135   7.361  13.932  1.00  0.00     0.022 C 
HETATM   16  C22 UNL     1      -8.336   6.437  13.780  1.00  0.00     0.080 C 
HETATM   17  C23 UNL     1      -8.061   5.317  12.814  1.00  0.00     0.135 C 
HETATM   18  O4  UNL     1      -8.900   5.019  11.963  1.00  0.00    -0.297 OA
HETATM   19  C24 UNL     1      -6.770   4.511  13.012  1.00  0.00     0.018 C 
HETATM   20  C25 UNL     1      -7.020   3.448  14.089  1.00  0.00     0.023 C 
HETATM   21  C26 UNL     1      -6.490   3.757  11.685  1.00  0.00     0.023 C 
HETATM   22  C27 UNL     1      -5.591   5.502  13.304  1.00  0.00     0.016 C 
HETATM   23  C28 UNL     1      -4.256   4.807  13.580  1.00  0.00     0.043 C 
HETATM   24  C29 UNL     1      -3.099   5.785  13.395  1.00  0.00     0.149 C 
ENDROOT
BRANCH   1  25
HETATM   25  C6  UNL     1      -0.320  10.952  15.952  1.00  0.00    -0.011 C 
HETATM   26  C7  UNL     1       1.008  11.626  15.588  1.00  0.00     0.010 C 
BRANCH  25  27
HETATM   27  C5  UNL     1      -0.249  10.243  17.327  1.00  0.00     0.040 C 
BRANCH  27  28
HETATM   28  C4  UNL     1      -0.080  11.165  18.549  1.00  0.00     0.142 C 
BRANCH  28  29
HETATM   29  C3  UNL     1       0.850  10.662  19.612  1.00  0.00     0.018 C 
HETATM   30  C2  UNL     1       1.581  11.365  20.502  1.00  0.00     0.010 C 
HETATM   31  C1  UNL     1       1.586  12.854  20.665  1.00  0.00     0.055 C 
BRANCH  30  32
HETATM   32  C30 UNL     1       2.440  10.569  21.415  1.00  0.00     0.171 C 
HETATM   33  O6  UNL     1       2.812  10.891  22.529  1.00  0.00    -0.646 OA
BRANCH  32  34
HETATM   34  O7  UNL     1       2.798   9.388  20.885  1.00  0.00    -0.773 OA
HETATM   35  H44 UNL     1       3.340   8.975  21.588  1.00  0.00     0.167 HD
ENDBRANCH  32  34
ENDBRANCH  30  32
ENDBRANCH  28  29
BRANCH  28  36
HETATM   36  O1  UNL     1      -1.357  11.391  19.143  1.00  0.00    -0.392 OA
HETATM   37  H6  UNL     1      -1.901  11.867  18.494  1.00  0.00     0.210 HD
ENDBRANCH  28  36
ENDBRANCH  27  28
ENDBRANCH  25  27
ENDBRANCH   1  25
BRANCH   3  38
HETATM   38  O2  UNL     1      -0.214   7.010  12.867  1.00  0.00    -0.394 OA
HETATM   39  H17 UNL     1       0.759   6.988  12.931  1.00  0.00     0.210 HD
ENDBRANCH   3  38
BRANCH  24  40
HETATM   40  O5  UNL     1      -1.973   5.177  14.010  1.00  0.00    -0.391 OA
HETATM   41  H43 UNL     1      -1.215   5.390  13.431  1.00  0.00     0.210 HD
ENDBRANCH  24  40
TORSDOF 9
ENDMDL
