MODEL 1
REMARK minimizedAffinity -7.47297764
REMARK CNNscore 0.703263462
REMARK CNNaffinity 7.6052556
REMARK  8 active torsions:
REMARK  status: ('A' for Active; 'I' for Inactive)
REMARK    1  A    between atoms: C3_3  and  O1_4 
REMARK    2  A    between atoms: N1_14  and  O2_16 
REMARK    3  A    between atoms: O2_16  and  C13_17 
REMARK    4  A    between atoms: C13_17  and  C14_18 
REMARK       I    between atoms: C14_18  and  N2_20 
REMARK    5  A    between atoms: N2_20  and  C15_21 
REMARK    6  A    between atoms: C15_21  and  C16_22 
REMARK    7  A    between atoms: C16_22  and  O4_23 
REMARK    8  A    between atoms: C16_22  and  C17_24 
ROOT
HETATM    1  C1  UNL     1      -5.705   3.012  12.013  1.00  0.00     0.015 C 
HETATM    2  C2  UNL     1      -6.523   3.562  12.701  1.00  0.00    -0.078 C 
HETATM    3  C3  UNL     1      -7.521   4.226  13.558  1.00  0.00     0.128 C 
HETATM    4  C4  UNL     1      -7.208   4.017  15.042  1.00  0.00     0.052 C 
HETATM    5  C5  UNL     1      -8.074   5.067  15.724  1.00  0.00     0.010 C 
HETATM    6  C6  UNL     1      -7.857   6.314  14.863  1.00  0.00     0.002 C 
HETATM    7  C7  UNL     1      -8.944   7.401  14.956  1.00  0.00    -0.004 C 
HETATM    8  C8  UNL     1      -9.144   7.886  16.399  1.00  0.00     0.010 C 
HETATM    9  C9  UNL     1     -10.119   9.058  16.446  1.00  0.00     0.035 C 
HETATM   10  C10 UNL     1     -11.445   8.731  15.802  1.00  0.00    -0.069 C 
HETATM   11  C11 UNL     1     -12.588   9.051  16.441  1.00  0.00     0.030 C 
HETATM   12  C12 UNL     1     -13.925   8.861  15.812  1.00  0.00     0.032 C 
HETATM   13  N1  UNL     1     -15.071   9.141  16.352  1.00  0.00    -0.271 N 
ATOM     14  H1  UNL     1     -15.967   8.994  15.889  1.00  0.00     0.194 HD
HETATM   15  C23 UNL     1     -13.958   8.338  14.391  1.00  0.00     0.060 C 
HETATM   16  C24 UNL     1     -12.781   7.418  14.115  1.00  0.00     0.020 C 
HETATM   17  C25 UNL     1     -11.401   8.077  14.414  1.00  0.00    -0.016 C 
HETATM   18  C26 UNL     1     -11.128   9.193  13.378  1.00  0.00     0.020 C 
HETATM   19  C27 UNL     1     -10.298   6.947  14.364  1.00  0.00     0.002 C 
HETATM   20  C28 UNL     1     -10.132   6.289  12.974  1.00  0.00     0.007 C 
HETATM   21  C29 UNL     1      -8.702   6.281  12.427  1.00  0.00     0.014 C 
HETATM   22  C30 UNL     1      -7.606   5.793  13.406  1.00  0.00     0.003 C 
HETATM   23  C31 UNL     1      -6.261   6.397  12.925  1.00  0.00     0.020 C 
ENDROOT
BRANCH   3  24
HETATM   24  O1  UNL     1      -8.783   3.599  13.318  1.00  0.00    -0.377 OA
HETATM   25  H2  UNL     1      -8.900   3.573  12.356  1.00  0.00     0.211 HD
ENDBRANCH   3  24
BRANCH  13  26
HETATM   26  O2  UNL     1     -14.939   9.670  17.647  1.00  0.00    -0.271 OA
BRANCH  26  27
HETATM   27  C13 UNL     1     -16.235   9.756  18.232  1.00  0.00     0.303 C 
BRANCH  27  28
HETATM   28  C14 UNL     1     -16.323   8.879  19.474  1.00  0.00     0.243 C 
HETATM   29  O3  UNL     1     -17.150   9.062  20.365  1.00  0.00    -0.271 OA
HETATM   30  N2  UNL     1     -15.339   7.911  19.559  1.00  0.00    -0.356 N 
HETATM   31  H16 UNL     1     -14.557   7.967  18.916  1.00  0.00     0.162 HD
BRANCH  30  32
HETATM   32  C15 UNL     1     -15.181   7.115  20.765  1.00  0.00     0.159 C 
BRANCH  32  33
HETATM   33  C16 UNL     1     -15.910   5.759  20.675  1.00  0.00     0.170 C 
BRANCH  33  34
HETATM   34  O4  UNL     1     -17.322   5.973  20.835  1.00  0.00    -0.389 OA
HETATM   35  H20 UNL     1     -17.716   5.105  21.035  1.00  0.00     0.210 HD
ENDBRANCH  33  34
BRANCH  33  36
HETATM   36  C17 UNL     1     -15.424   4.789  21.720  1.00  0.00    -0.013 A 
HETATM   37  C18 UNL     1     -14.120   4.284  21.728  1.00  0.00     0.013 A 
HETATM   38  C19 UNL     1     -13.743   3.354  22.696  1.00  0.00     0.025 A 
HETATM   39  C20 UNL     1     -14.680   2.953  23.640  1.00  0.00     0.005 A 
HETATM   40  C21 UNL     1     -14.323   1.927  24.671  1.00  0.00     0.068 C 
HETATM   41  N3  UNL     1     -15.947   3.431  23.657  1.00  0.00    -0.369 N 
HETATM   42  C22 UNL     1     -16.291   4.320  22.701  1.00  0.00     0.097 A 
ATOM     43  H3  UNL     1     -16.616   3.131  24.365  1.00  0.00     0.165 HD
ENDBRANCH  33  36
ENDBRANCH  32  33
ENDBRANCH  30  32
ENDBRANCH  27  28
ENDBRANCH  26  27
ENDBRANCH  13  26
TORSDOF 8
ENDMDL
MODEL 2
REMARK minimizedAffinity -7.66084671
REMARK CNNscore 0.531146169
REMARK CNNaffinity 6.77760935
REMARK  8 active torsions:
REMARK  status: ('A' for Active; 'I' for Inactive)
REMARK    1  A    between atoms: C3_3  and  O1_4 
REMARK    2  A    between atoms: N1_14  and  O2_16 
REMARK    3  A    between atoms: O2_16  and  C13_17 
REMARK    4  A    between atoms: C13_17  and  C14_18 
REMARK       I    between atoms: C14_18  and  N2_20 
REMARK    5  A    between atoms: N2_20  and  C15_21 
REMARK    6  A    between atoms: C15_21  and  C16_22 
REMARK    7  A    between atoms: C16_22  and  O4_23 
REMARK    8  A    between atoms: C16_22  and  C17_24 
ROOT
HETATM    1  C1  UNL     1       4.854   7.029  11.750  1.00  0.00     0.015 C 
HETATM    2  C2  UNL     1       3.769   7.262  12.210  1.00  0.00    -0.078 C 
HETATM    3  C3  UNL     1       2.443   7.564  12.780  1.00  0.00     0.128 C 
HETATM    4  C4  UNL     1       2.262   9.068  13.002  1.00  0.00     0.052 C 
HETATM    5  C5  UNL     1       0.758   9.204  13.200  1.00  0.00     0.010 C 
HETATM    6  C6  UNL     1       0.177   8.319  12.095  1.00  0.00     0.002 C 
HETATM    7  C7  UNL     1      -1.267   7.827  12.307  1.00  0.00    -0.004 C 
HETATM    8  C8  UNL     1      -2.245   8.996  12.501  1.00  0.00     0.010 C 
HETATM    9  C9  UNL     1      -3.683   8.492  12.565  1.00  0.00     0.035 C 
HETATM   10  C10 UNL     1      -3.880   7.445  13.635  1.00  0.00    -0.069 C 
HETATM   11  C11 UNL     1      -4.933   7.543  14.471  1.00  0.00     0.030 C 
HETATM   12  C12 UNL     1      -5.248   6.485  15.471  1.00  0.00     0.032 C 
HETATM   13  N1  UNL     1      -6.238   6.497  16.311  1.00  0.00    -0.271 N 
ATOM     14  H1  UNL     1      -6.421   5.753  16.983  1.00  0.00     0.194 HD
HETATM   15  C23 UNL     1      -4.367   5.253  15.484  1.00  0.00     0.060 C 
HETATM   16  C24 UNL     1      -2.947   5.588  15.061  1.00  0.00     0.020 C 
HETATM   17  C25 UNL     1      -2.867   6.292  13.674  1.00  0.00    -0.016 C 
HETATM   18  C26 UNL     1      -3.256   5.288  12.563  1.00  0.00     0.020 C 
HETATM   19  C27 UNL     1      -1.396   6.836  13.485  1.00  0.00     0.002 C 
HETATM   20  C28 UNL     1      -0.317   5.728  13.432  1.00  0.00     0.007 C 
HETATM   21  C29 UNL     1       0.604   5.778  12.209  1.00  0.00     0.014 C 
HETATM   22  C30 UNL     1       1.214   7.162  11.879  1.00  0.00     0.003 C 
HETATM   23  C31 UNL     1       1.585   7.151  10.373  1.00  0.00     0.020 C 
ENDROOT
BRANCH   3  24
HETATM   24  O1  UNL     1       2.378   6.954  14.071  1.00  0.00    -0.377 OA
HETATM   25  H2  UNL     1       2.667   6.035  13.957  1.00  0.00     0.211 HD
ENDBRANCH   3  24
BRANCH  13  26
HETATM   26  O2  UNL     1      -7.031   7.651  16.190  1.00  0.00    -0.271 OA
BRANCH  26  27
HETATM   27  C13 UNL     1      -8.367   7.320  16.558  1.00  0.00     0.303 C 
BRANCH  27  28
HETATM   28  C14 UNL     1      -9.353   8.300  15.937  1.00  0.00     0.243 C 
HETATM   29  O3  UNL     1      -9.155   8.857  14.859  1.00  0.00    -0.271 OA
HETATM   30  N2  UNL     1     -10.453   8.580  16.728  1.00  0.00    -0.356 N 
HETATM   31  H16 UNL     1     -10.437   8.274  17.695  1.00  0.00     0.162 HD
BRANCH  30  32
HETATM   32  C15 UNL     1     -11.390   9.628  16.355  1.00  0.00     0.159 C 
BRANCH  32  33
HETATM   33  C16 UNL     1     -11.023  10.992  16.974  1.00  0.00     0.170 C 
BRANCH  33  34
HETATM   34  O4  UNL     1      -9.689  11.347  16.573  1.00  0.00    -0.389 OA
HETATM   35  H20 UNL     1      -9.397  12.056  17.173  1.00  0.00     0.210 HD
ENDBRANCH  33  34
BRANCH  33  36
HETATM   36  C17 UNL     1     -11.110  10.968  18.477  1.00  0.00    -0.013 A 
HETATM   37  C18 UNL     1     -11.273   9.784  19.203  1.00  0.00     0.013 A 
HETATM   38  C19 UNL     1     -11.391   9.832  20.592  1.00  0.00     0.025 A 
HETATM   39  C20 UNL     1     -11.340  11.068  21.226  1.00  0.00     0.005 A 
HETATM   40  C21 UNL     1     -11.503  11.162  22.712  1.00  0.00     0.068 C 
HETATM   41  N3  UNL     1     -11.178  12.228  20.546  1.00  0.00    -0.369 N 
HETATM   42  C22 UNL     1     -11.078  12.155  19.202  1.00  0.00     0.097 A 
ATOM     43  H3  UNL     1     -11.132  13.123  21.032  1.00  0.00     0.165 HD
ENDBRANCH  33  36
ENDBRANCH  32  33
ENDBRANCH  30  32
ENDBRANCH  27  28
ENDBRANCH  26  27
ENDBRANCH  13  26
TORSDOF 8
ENDMDL
MODEL 3
REMARK minimizedAffinity -8.14171886
REMARK CNNscore 0.52043736
REMARK CNNaffinity 7.09804678
REMARK  8 active torsions:
REMARK  status: ('A' for Active; 'I' for Inactive)
REMARK    1  A    between atoms: C3_3  and  O1_4 
REMARK    2  A    between atoms: N1_14  and  O2_16 
REMARK    3  A    between atoms: O2_16  and  C13_17 
REMARK    4  A    between atoms: C13_17  and  C14_18 
REMARK       I    between atoms: C14_18  and  N2_20 
REMARK    5  A    between atoms: N2_20  and  C15_21 
REMARK    6  A    between atoms: C15_21  and  C16_22 
REMARK    7  A    between atoms: C16_22  and  O4_23 
REMARK    8  A    between atoms: C16_22  and  C17_24 
ROOT
HETATM    1  C1  UNL     1      -5.597   3.161  12.206  1.00  0.00     0.015 C 
HETATM    2  C2  UNL     1      -6.438   3.716  12.861  1.00  0.00    -0.078 C 
HETATM    3  C3  UNL     1      -7.465   4.387  13.680  1.00  0.00     0.128 C 
HETATM    4  C4  UNL     1      -7.168   4.240  15.174  1.00  0.00     0.052 C 
HETATM    5  C5  UNL     1      -8.069   5.293  15.805  1.00  0.00     0.010 C 
HETATM    6  C6  UNL     1      -7.870   6.513  14.901  1.00  0.00     0.002 C 
HETATM    7  C7  UNL     1      -8.983   7.575  14.938  1.00  0.00    -0.004 C 
HETATM    8  C8  UNL     1      -9.216   8.109  16.359  1.00  0.00     0.010 C 
HETATM    9  C9  UNL     1     -10.218   9.258  16.348  1.00  0.00     0.035 C 
HETATM   10  C10 UNL     1     -11.527   8.875  15.699  1.00  0.00    -0.069 C 
HETATM   11  C11 UNL     1     -12.686   9.190  16.310  1.00  0.00     0.030 C 
HETATM   12  C12 UNL     1     -14.009   8.944  15.670  1.00  0.00     0.032 C 
HETATM   13  N1  UNL     1     -15.170   9.217  16.184  1.00  0.00    -0.271 N 
ATOM     14  H1  UNL     1     -16.055   9.031  15.714  1.00  0.00     0.194 HD
HETATM   15  C23 UNL     1     -14.009   8.368  14.270  1.00  0.00     0.060 C 
HETATM   16  C24 UNL     1     -12.807   7.467  14.044  1.00  0.00     0.020 C 
HETATM   17  C25 UNL     1     -11.448   8.170  14.337  1.00  0.00    -0.016 C 
HETATM   18  C26 UNL     1     -11.186   9.253  13.264  1.00  0.00     0.020 C 
HETATM   19  C27 UNL     1     -10.317   7.067  14.345  1.00  0.00     0.002 C 
HETATM   20  C28 UNL     1     -10.116   6.361  12.983  1.00  0.00     0.007 C 
HETATM   21  C29 UNL     1      -8.677   6.369  12.456  1.00  0.00     0.014 C 
HETATM   22  C30 UNL     1      -7.585   5.944  13.467  1.00  0.00     0.003 C 
HETATM   23  C31 UNL     1      -6.248   6.563  12.983  1.00  0.00     0.020 C 
ENDROOT
BRANCH   3  24
HETATM   24  O1  UNL     1      -8.708   3.720  13.446  1.00  0.00    -0.377 OA
HETATM   25  H2  UNL     1      -8.809   3.656  12.484  1.00  0.00     0.211 HD
ENDBRANCH   3  24
BRANCH  13  26
HETATM   26  O2  UNL     1     -15.069   9.796  17.459  1.00  0.00    -0.271 OA
BRANCH  26  27
HETATM   27  C13 UNL     1     -15.913   9.072  18.351  1.00  0.00     0.303 C 
BRANCH  27  28
HETATM   28  C14 UNL     1     -15.569   9.396  19.798  1.00  0.00     0.243 C 
HETATM   29  O3  UNL     1     -16.232  10.169  20.487  1.00  0.00    -0.271 OA
HETATM   30  N2  UNL     1     -14.397   8.817  20.249  1.00  0.00    -0.356 N 
HETATM   31  H16 UNL     1     -13.781   8.389  19.566  1.00  0.00     0.162 HD
BRANCH  30  32
HETATM   32  C15 UNL     1     -13.842   9.173  21.546  1.00  0.00     0.159 C 
BRANCH  32  33
HETATM   33  C16 UNL     1     -12.376   8.721  21.702  1.00  0.00     0.170 C 
BRANCH  33  34
HETATM   34  O4  UNL     1     -12.299   7.724  22.734  1.00  0.00    -0.389 OA
HETATM   35  H20 UNL     1     -11.360   7.656  22.986  1.00  0.00     0.210 HD
ENDBRANCH  33  34
BRANCH  33  36
HETATM   36  C17 UNL     1     -11.467   9.873  22.041  1.00  0.00    -0.013 A 
HETATM   37  C18 UNL     1     -11.029  10.793  21.084  1.00  0.00     0.013 A 
HETATM   38  C19 UNL     1     -10.151  11.813  21.453  1.00  0.00     0.025 A 
HETATM   39  C20 UNL     1      -9.735  11.892  22.776  1.00  0.00     0.005 A 
HETATM   40  C21 UNL     1      -8.763  12.949  23.200  1.00  0.00     0.068 C 
HETATM   41  N3  UNL     1     -10.149  11.017  23.723  1.00  0.00    -0.369 N 
HETATM   42  C22 UNL     1     -10.988  10.031  23.338  1.00  0.00     0.097 A 
ATOM     43  H3  UNL     1      -9.839  11.099  24.691  1.00  0.00     0.165 HD
ENDBRANCH  33  36
ENDBRANCH  32  33
ENDBRANCH  30  32
ENDBRANCH  27  28
ENDBRANCH  26  27
ENDBRANCH  13  26
TORSDOF 8
ENDMDL
MODEL 4
REMARK minimizedAffinity -10.1332045
REMARK CNNscore 0.455946505
REMARK CNNaffinity 7.60006094
REMARK  8 active torsions:
REMARK  status: ('A' for Active; 'I' for Inactive)
REMARK    1  A    between atoms: C3_3  and  O1_4 
REMARK    2  A    between atoms: N1_14  and  O2_16 
REMARK    3  A    between atoms: O2_16  and  C13_17 
REMARK    4  A    between atoms: C13_17  and  C14_18 
REMARK       I    between atoms: C14_18  and  N2_20 
REMARK    5  A    between atoms: N2_20  and  C15_21 
REMARK    6  A    between atoms: C15_21  and  C16_22 
REMARK    7  A    between atoms: C16_22  and  O4_23 
REMARK    8  A    between atoms: C16_22  and  C17_24 
ROOT
HETATM    1  C1  UNL     1       3.629   8.432   9.150  1.00  0.00     0.015 C 
HETATM    2  C2  UNL     1       2.610   8.122   9.706  1.00  0.00    -0.078 C 
HETATM    3  C3  UNL     1       1.356   7.729  10.375  1.00  0.00     0.128 C 
HETATM    4  C4  UNL     1       0.897   6.340   9.924  1.00  0.00     0.052 C 
HETATM    5  C5  UNL     1      -0.136   5.964  10.978  1.00  0.00     0.010 C 
HETATM    6  C6  UNL     1       0.536   6.375  12.291  1.00  0.00     0.002 C 
HETATM    7  C7  UNL     1      -0.400   6.606  13.491  1.00  0.00    -0.004 C 
HETATM    8  C8  UNL     1      -1.251   5.365  13.797  1.00  0.00     0.010 C 
HETATM    9  C9  UNL     1      -2.063   5.567  15.072  1.00  0.00     0.035 C 
HETATM   10  C10 UNL     1      -2.924   6.807  15.017  1.00  0.00    -0.069 C 
HETATM   11  C11 UNL     1      -4.215   6.733  15.398  1.00  0.00     0.030 C 
HETATM   12  C12 UNL     1      -5.085   7.940  15.477  1.00  0.00     0.032 C 
HETATM   13  N1  UNL     1      -6.333   7.961  15.833  1.00  0.00    -0.271 N 
ATOM     14  H1  UNL     1      -6.897   8.810  15.872  1.00  0.00     0.194 HD
HETATM   15  C23 UNL     1      -4.449   9.278  15.162  1.00  0.00     0.060 C 
HETATM   16  C24 UNL     1      -3.336   9.133  14.139  1.00  0.00     0.020 C 
HETATM   17  C25 UNL     1      -2.244   8.105  14.559  1.00  0.00    -0.016 C 
HETATM   18  C26 UNL     1      -1.444   8.664  15.759  1.00  0.00     0.020 C 
HETATM   19  C27 UNL     1      -1.316   7.837  13.309  1.00  0.00     0.002 C 
HETATM   20  C28 UNL     1      -0.530   9.080  12.830  1.00  0.00     0.007 C 
HETATM   21  C29 UNL     1       0.983   8.881  12.705  1.00  0.00     0.014 C 
HETATM   22  C30 UNL     1       1.438   7.611  11.945  1.00  0.00     0.003 C 
HETATM   23  C31 UNL     1       2.876   7.282  12.423  1.00  0.00     0.020 C 
ENDROOT
BRANCH   3  24
HETATM   24  O1  UNL     1       0.340   8.645   9.962  1.00  0.00    -0.377 OA
HETATM   25  H2  UNL     1       0.705   9.535  10.084  1.00  0.00     0.211 HD
ENDBRANCH   3  24
BRANCH  13  26
HETATM   26  O2  UNL     1      -6.820   6.684  16.157  1.00  0.00    -0.271 OA
BRANCH  26  27
HETATM   27  C13 UNL     1      -8.224   6.663  15.915  1.00  0.00     0.303 C 
BRANCH  27  28
HETATM   28  C14 UNL     1      -8.512   6.340  14.455  1.00  0.00     0.243 C 
HETATM   29  O3  UNL     1      -9.464   6.815  13.839  1.00  0.00    -0.271 OA
HETATM   30  N2  UNL     1      -7.663   5.398  13.901  1.00  0.00    -0.356 N 
HETATM   31  H16 UNL     1      -7.056   4.878  14.524  1.00  0.00     0.162 HD
BRANCH  30  32
HETATM   32  C15 UNL     1      -7.919   4.854  12.577  1.00  0.00     0.159 C 
BRANCH  32  33
HETATM   33  C16 UNL     1      -7.522   3.368  12.466  1.00  0.00     0.170 C 
BRANCH  33  34
HETATM   34  O4  UNL     1      -7.831   2.705  13.703  1.00  0.00    -0.389 OA
HETATM   35  H20 UNL     1      -7.341   1.863  13.698  1.00  0.00     0.210 HD
ENDBRANCH  33  34
BRANCH  33  36
HETATM   36  C17 UNL     1      -6.059   3.200  12.152  1.00  0.00    -0.013 A 
HETATM   37  C18 UNL     1      -5.104   4.172  12.468  1.00  0.00     0.013 A 
HETATM   38  C19 UNL     1      -3.771   3.976  12.111  1.00  0.00     0.025 A 
HETATM   39  C20 UNL     1      -3.419   2.807  11.448  1.00  0.00     0.005 A 
HETATM   40  C21 UNL     1      -2.004   2.580  11.015  1.00  0.00     0.068 C 
HETATM   41  N3  UNL     1      -4.323   1.848  11.136  1.00  0.00    -0.369 N 
HETATM   42  C22 UNL     1      -5.610   2.067  11.480  1.00  0.00     0.097 A 
ATOM     43  H3  UNL     1      -4.042   0.992  10.658  1.00  0.00     0.165 HD
ENDBRANCH  33  36
ENDBRANCH  32  33
ENDBRANCH  30  32
ENDBRANCH  27  28
ENDBRANCH  26  27
ENDBRANCH  13  26
TORSDOF 8
ENDMDL
MODEL 5
REMARK minimizedAffinity -8.30590153
REMARK CNNscore 0.446743757
REMARK CNNaffinity 5.89016962
REMARK  8 active torsions:
REMARK  status: ('A' for Active; 'I' for Inactive)
REMARK    1  A    between atoms: C3_3  and  O1_4 
REMARK    2  A    between atoms: N1_14  and  O2_16 
REMARK    3  A    between atoms: O2_16  and  C13_17 
REMARK    4  A    between atoms: C13_17  and  C14_18 
REMARK       I    between atoms: C14_18  and  N2_20 
REMARK    5  A    between atoms: N2_20  and  C15_21 
REMARK    6  A    between atoms: C15_21  and  C16_22 
REMARK    7  A    between atoms: C16_22  and  O4_23 
REMARK    8  A    between atoms: C16_22  and  C17_24 
ROOT
HETATM    1  C1  UNL     1      -7.747 -10.473  -5.325  1.00  0.00     0.015 C 
HETATM    2  C2  UNL     1      -7.464 -10.189  -4.192  1.00  0.00    -0.078 C 
HETATM    3  C3  UNL     1      -7.126  -9.826  -2.804  1.00  0.00     0.128 C 
HETATM    4  C4  UNL     1      -8.128  -8.820  -2.232  1.00  0.00     0.052 C 
HETATM    5  C5  UNL     1      -7.857  -8.882  -0.735  1.00  0.00     0.010 C 
HETATM    6  C6  UNL     1      -7.741 -10.384  -0.462  1.00  0.00     0.002 C 
HETATM    7  C7  UNL     1      -6.983 -10.785   0.818  1.00  0.00    -0.004 C 
HETATM    8  C8  UNL     1      -7.606 -10.152   2.071  1.00  0.00     0.010 C 
HETATM    9  C9  UNL     1      -6.930 -10.676   3.334  1.00  0.00     0.035 C 
HETATM   10  C10 UNL     1      -5.434 -10.469   3.316  1.00  0.00    -0.069 C 
HETATM   11  C11 UNL     1      -4.824  -9.958   4.403  1.00  0.00     0.030 C 
HETATM   12  C12 UNL     1      -3.341  -9.836   4.492  1.00  0.00     0.032 C 
HETATM   13  N1  UNL     1      -2.673  -9.359   5.498  1.00  0.00    -0.271 N 
ATOM     14  H1  UNL     1      -1.656  -9.289   5.520  1.00  0.00     0.194 HD
HETATM   15  C23 UNL     1      -2.528 -10.360   3.328  1.00  0.00     0.060 C 
HETATM   16  C24 UNL     1      -3.286 -10.221   2.019  1.00  0.00     0.020 C 
HETATM   17  C25 UNL     1      -4.688 -10.901   2.045  1.00  0.00    -0.016 C 
HETATM   18  C26 UNL     1      -4.516 -12.437   2.102  1.00  0.00     0.020 C 
HETATM   19  C27 UNL     1      -5.477 -10.447   0.753  1.00  0.00     0.002 C 
HETATM   20  C28 UNL     1      -4.833 -10.912  -0.574  1.00  0.00     0.007 C 
HETATM   21  C29 UNL     1      -5.771 -11.671  -1.517  1.00  0.00     0.014 C 
HETATM   22  C30 UNL     1      -7.150 -11.016  -1.770  1.00  0.00     0.003 C 
HETATM   23  C31 UNL     1      -8.118 -12.144  -2.215  1.00  0.00     0.020 C 
ENDROOT
BRANCH   3  24
HETATM   24  O1  UNL     1      -5.858  -9.166  -2.826  1.00  0.00    -0.377 OA
HETATM   25  H2  UNL     1      -5.264  -9.728  -3.346  1.00  0.00     0.211 HD
ENDBRANCH   3  24
BRANCH  13  26
HETATM   26  O2  UNL     1      -3.507  -8.948   6.551  1.00  0.00    -0.271 OA
BRANCH  26  27
HETATM   27  C13 UNL     1      -2.930  -9.384   7.778  1.00  0.00     0.303 C 
BRANCH  27  28
HETATM   28  C14 UNL     1      -3.985 -10.027   8.668  1.00  0.00     0.243 C 
HETATM   29  O3  UNL     1      -4.887 -10.739   8.231  1.00  0.00    -0.271 OA
HETATM   30  N2  UNL     1      -3.896  -9.674  10.003  1.00  0.00    -0.356 N 
HETATM   31  H16 UNL     1      -3.283  -8.907  10.255  1.00  0.00     0.162 HD
BRANCH  30  32
HETATM   32  C15 UNL     1      -4.934 -10.062  10.945  1.00  0.00     0.159 C 
BRANCH  32  33
HETATM   33  C16 UNL     1      -5.793  -8.865  11.399  1.00  0.00     0.170 C 
BRANCH  33  34
HETATM   34  O4  UNL     1      -6.061  -8.985  12.806  1.00  0.00    -0.389 OA
HETATM   35  H20 UNL     1      -6.800  -8.382  13.002  1.00  0.00     0.210 HD
ENDBRANCH  33  34
BRANCH  33  36
HETATM   36  C17 UNL     1      -7.092  -8.785  10.641  1.00  0.00    -0.013 A 
HETATM   37  C18 UNL     1      -8.020  -9.831  10.627  1.00  0.00     0.013 A 
HETATM   38  C19 UNL     1      -9.185  -9.715   9.870  1.00  0.00     0.025 A 
HETATM   39  C20 UNL     1      -9.398  -8.549   9.144  1.00  0.00     0.005 A 
HETATM   40  C21 UNL     1     -10.619  -8.404   8.288  1.00  0.00     0.068 C 
HETATM   41  N3  UNL     1      -8.518  -7.520   9.145  1.00  0.00    -0.369 N 
HETATM   42  C22 UNL     1      -7.391  -7.663   9.876  1.00  0.00     0.097 A 
ATOM     43  H3  UNL     1      -8.698  -6.669   8.613  1.00  0.00     0.165 HD
ENDBRANCH  33  36
ENDBRANCH  32  33
ENDBRANCH  30  32
ENDBRANCH  27  28
ENDBRANCH  26  27
ENDBRANCH  13  26
TORSDOF 8
ENDMDL
MODEL 6
REMARK minimizedAffinity -7.546978
REMARK CNNscore 0.438701451
REMARK CNNaffinity 6.92483664
REMARK  8 active torsions:
REMARK  status: ('A' for Active; 'I' for Inactive)
REMARK    1  A    between atoms: C3_3  and  O1_4 
REMARK    2  A    between atoms: N1_14  and  O2_16 
REMARK    3  A    between atoms: O2_16  and  C13_17 
REMARK    4  A    between atoms: C13_17  and  C14_18 
REMARK       I    between atoms: C14_18  and  N2_20 
REMARK    5  A    between atoms: N2_20  and  C15_21 
REMARK    6  A    between atoms: C15_21  and  C16_22 
REMARK    7  A    between atoms: C16_22  and  O4_23 
REMARK    8  A    between atoms: C16_22  and  C17_24 
ROOT
HETATM    1  C1  UNL     1      -3.964   4.776  13.321  1.00  0.00     0.015 C 
HETATM    2  C2  UNL     1      -5.003   5.104  13.826  1.00  0.00    -0.078 C 
HETATM    3  C3  UNL     1      -6.272   5.504  14.462  1.00  0.00     0.128 C 
HETATM    4  C4  UNL     1      -6.075   5.818  15.947  1.00  0.00     0.052 C 
HETATM    5  C5  UNL     1      -7.351   6.567  16.309  1.00  0.00     0.010 C 
HETATM    6  C6  UNL     1      -7.533   7.536  15.137  1.00  0.00     0.002 C 
HETATM    7  C7  UNL     1      -8.958   8.080  14.921  1.00  0.00    -0.004 C 
HETATM    8  C8  UNL     1      -9.493   8.790  16.172  1.00  0.00     0.010 C 
HETATM    9  C9  UNL     1     -10.842   9.442  15.888  1.00  0.00     0.035 C 
HETATM   10  C10 UNL     1     -11.857   8.460  15.354  1.00  0.00    -0.069 C 
HETATM   11  C11 UNL     1     -13.100   8.444  15.875  1.00  0.00     0.030 C 
HETATM   12  C12 UNL     1     -14.179   7.580  15.317  1.00  0.00     0.032 C 
HETATM   13  N1  UNL     1     -15.399   7.503  15.754  1.00  0.00    -0.271 N 
ATOM     14  H1  UNL     1     -16.110   6.897  15.345  1.00  0.00     0.194 HD
HETATM   15  C23 UNL     1     -13.845   6.750  14.096  1.00  0.00     0.060 C 
HETATM   16  C24 UNL     1     -12.381   6.342  14.091  1.00  0.00     0.020 C 
HETATM   17  C25 UNL     1     -11.405   7.552  14.202  1.00  0.00    -0.016 C 
HETATM   18  C26 UNL     1     -11.465   8.384  12.899  1.00  0.00     0.020 C 
HETATM   19  C27 UNL     1      -9.954   6.988  14.471  1.00  0.00     0.002 C 
HETATM   20  C28 UNL     1      -9.390   6.125  13.318  1.00  0.00     0.007 C 
HETATM   21  C29 UNL     1      -8.014   6.555  12.801  1.00  0.00     0.014 C 
HETATM   22  C30 UNL     1      -6.935   6.811  13.882  1.00  0.00     0.003 C 
HETATM   23  C31 UNL     1      -5.881   7.763  13.259  1.00  0.00     0.020 C 
ENDROOT
BRANCH   3  24
HETATM   24  O1  UNL     1      -7.159   4.384  14.399  1.00  0.00    -0.377 OA
HETATM   25  H2  UNL     1      -7.145   4.073  13.481  1.00  0.00     0.211 HD
ENDBRANCH   3  24
BRANCH  13  26
HETATM   26  O2  UNL     1     -15.630   8.348  16.852  1.00  0.00    -0.271 OA
BRANCH  26  27
HETATM   27  C13 UNL     1     -15.967   7.541  17.977  1.00  0.00     0.303 C 
BRANCH  27  28
HETATM   28  C14 UNL     1     -14.932   7.703  19.083  1.00  0.00     0.243 C 
HETATM   29  O3  UNL     1     -14.161   8.658  19.143  1.00  0.00    -0.271 OA
HETATM   30  N2  UNL     1     -14.872   6.642  19.968  1.00  0.00    -0.356 N 
HETATM   31  H16 UNL     1     -15.366   5.790  19.726  1.00  0.00     0.162 HD
BRANCH  30  32
HETATM   32  C15 UNL     1     -13.819   6.566  20.968  1.00  0.00     0.159 C 
BRANCH  32  33
HETATM   33  C16 UNL     1     -13.850   5.241  21.755  1.00  0.00     0.170 C 
BRANCH  33  34
HETATM   34  O4  UNL     1     -14.900   4.409  21.234  1.00  0.00    -0.389 OA
HETATM   35  H20 UNL     1     -15.065   3.718  21.900  1.00  0.00     0.210 HD
ENDBRANCH  33  34
BRANCH  33  36
HETATM   36  C17 UNL     1     -14.067   5.467  23.228  1.00  0.00    -0.013 A 
HETATM   37  C18 UNL     1     -13.973   6.732  23.817  1.00  0.00     0.013 A 
HETATM   38  C19 UNL     1     -14.142   6.870  25.194  1.00  0.00     0.025 A 
HETATM   39  C20 UNL     1     -14.405   5.736  25.954  1.00  0.00     0.005 A 
HETATM   40  C21 UNL     1     -14.552   5.840  27.441  1.00  0.00     0.068 C 
HETATM   41  N3  UNL     1     -14.506   4.502  25.407  1.00  0.00    -0.369 N 
HETATM   42  C22 UNL     1     -14.326   4.393  24.073  1.00  0.00     0.097 A 
ATOM     43  H3  UNL     1     -14.710   3.684  25.981  1.00  0.00     0.165 HD
ENDBRANCH  33  36
ENDBRANCH  32  33
ENDBRANCH  30  32
ENDBRANCH  27  28
ENDBRANCH  26  27
ENDBRANCH  13  26
TORSDOF 8
ENDMDL
MODEL 7
REMARK minimizedAffinity -7.72880697
REMARK CNNscore 0.421768814
REMARK CNNaffinity 6.5742774
REMARK  8 active torsions:
REMARK  status: ('A' for Active; 'I' for Inactive)
REMARK    1  A    between atoms: C3_3  and  O1_4 
REMARK    2  A    between atoms: N1_14  and  O2_16 
REMARK    3  A    between atoms: O2_16  and  C13_17 
REMARK    4  A    between atoms: C13_17  and  C14_18 
REMARK       I    between atoms: C14_18  and  N2_20 
REMARK    5  A    between atoms: N2_20  and  C15_21 
REMARK    6  A    between atoms: C15_21  and  C16_22 
REMARK    7  A    between atoms: C16_22  and  O4_23 
REMARK    8  A    between atoms: C16_22  and  C17_24 
ROOT
HETATM    1  C1  UNL     1       5.156   7.121  11.607  1.00  0.00     0.015 C 
HETATM    2  C2  UNL     1       4.077   7.328  12.095  1.00  0.00    -0.078 C 
HETATM    3  C3  UNL     1       2.760   7.598  12.700  1.00  0.00     0.128 C 
HETATM    4  C4  UNL     1       2.599   9.081  13.042  1.00  0.00     0.052 C 
HETATM    5  C5  UNL     1       1.098   9.218  13.265  1.00  0.00     0.010 C 
HETATM    6  C6  UNL     1       0.497   8.429  12.099  1.00  0.00     0.002 C 
HETATM    7  C7  UNL     1      -0.951   7.937  12.286  1.00  0.00    -0.004 C 
HETATM    8  C8  UNL     1      -1.913   9.097  12.582  1.00  0.00     0.010 C 
HETATM    9  C9  UNL     1      -3.356   8.606  12.621  1.00  0.00     0.035 C 
HETATM   10  C10 UNL     1      -3.555   7.479  13.607  1.00  0.00    -0.069 C 
HETATM   11  C11 UNL     1      -4.599   7.522  14.458  1.00  0.00     0.030 C 
HETATM   12  C12 UNL     1      -4.917   6.392  15.375  1.00  0.00     0.032 C 
HETATM   13  N1  UNL     1      -5.899   6.348  16.223  1.00  0.00    -0.271 N 
ATOM     14  H1  UNL     1      -6.084   5.555  16.837  1.00  0.00     0.194 HD
HETATM   15  C23 UNL     1      -4.051   5.154  15.281  1.00  0.00     0.060 C 
HETATM   16  C24 UNL     1      -2.630   5.505  14.873  1.00  0.00     0.020 C 
HETATM   17  C25 UNL     1      -2.555   6.316  13.545  1.00  0.00    -0.016 C 
HETATM   18  C26 UNL     1      -2.966   5.407  12.362  1.00  0.00     0.020 C 
HETATM   19  C27 UNL     1      -1.079   6.857  13.384  1.00  0.00     0.002 C 
HETATM   20  C28 UNL     1      -0.014   5.746  13.233  1.00  0.00     0.007 C 
HETATM   21  C29 UNL     1       0.896   5.883  12.009  1.00  0.00     0.014 C 
HETATM   22  C30 UNL     1       1.519   7.282  11.782  1.00  0.00     0.003 C 
HETATM   23  C31 UNL     1       1.876   7.386  10.276  1.00  0.00     0.020 C 
ENDROOT
BRANCH   3  24
HETATM   24  O1  UNL     1       2.701   6.888  13.940  1.00  0.00    -0.377 OA
HETATM   25  H2  UNL     1       2.978   5.979  13.750  1.00  0.00     0.211 HD
ENDBRANCH   3  24
BRANCH  13  26
HETATM   26  O2  UNL     1      -6.680   7.516  16.201  1.00  0.00    -0.271 OA
BRANCH  26  27
HETATM   27  C13 UNL     1      -8.005   7.179  16.600  1.00  0.00     0.303 C 
BRANCH  27  28
HETATM   28  C14 UNL     1      -9.006   8.180  16.038  1.00  0.00     0.243 C 
HETATM   29  O3  UNL     1      -8.815   8.805  14.997  1.00  0.00    -0.271 OA
HETATM   30  N2  UNL     1     -10.111   8.394  16.842  1.00  0.00    -0.356 N 
HETATM   31  H16 UNL     1     -10.091   8.029  17.789  1.00  0.00     0.162 HD
BRANCH  30  32
HETATM   32  C15 UNL     1     -11.063   9.448  16.532  1.00  0.00     0.159 C 
BRANCH  32  33
HETATM   33  C16 UNL     1     -10.675  10.798  17.169  1.00  0.00     0.170 C 
BRANCH  33  34
HETATM   34  O4  UNL     1     -11.674  11.167  18.133  1.00  0.00    -0.389 OA
HETATM   35  H20 UNL     1     -11.548  12.115  18.318  1.00  0.00     0.210 HD
ENDBRANCH  33  34
BRANCH  33  36
HETATM   36  C17 UNL     1     -10.540  11.887  16.137  1.00  0.00    -0.013 A 
HETATM   37  C18 UNL     1      -9.315  12.493  15.839  1.00  0.00     0.013 A 
HETATM   38  C19 UNL     1      -9.262  13.527  14.906  1.00  0.00     0.025 A 
HETATM   39  C20 UNL     1     -10.439  13.931  14.286  1.00  0.00     0.005 A 
HETATM   40  C21 UNL     1     -10.427  15.064  13.307  1.00  0.00     0.068 C 
HETATM   41  N3  UNL     1     -11.636  13.356  14.553  1.00  0.00    -0.369 N 
HETATM   42  C22 UNL     1     -11.662  12.366  15.470  1.00  0.00     0.097 A 
ATOM     43  H3  UNL     1     -12.486  13.661  14.079  1.00  0.00     0.165 HD
ENDBRANCH  33  36
ENDBRANCH  32  33
ENDBRANCH  30  32
ENDBRANCH  27  28
ENDBRANCH  26  27
ENDBRANCH  13  26
TORSDOF 8
ENDMDL
MODEL 8
REMARK minimizedAffinity -7.24737787
REMARK CNNscore 0.370396733
REMARK CNNaffinity 6.41165686
REMARK  8 active torsions:
REMARK  status: ('A' for Active; 'I' for Inactive)
REMARK    1  A    between atoms: C3_3  and  O1_4 
REMARK    2  A    between atoms: N1_14  and  O2_16 
REMARK    3  A    between atoms: O2_16  and  C13_17 
REMARK    4  A    between atoms: C13_17  and  C14_18 
REMARK       I    between atoms: C14_18  and  N2_20 
REMARK    5  A    between atoms: N2_20  and  C15_21 
REMARK    6  A    between atoms: C15_21  and  C16_22 
REMARK    7  A    between atoms: C16_22  and  O4_23 
REMARK    8  A    between atoms: C16_22  and  C17_24 
ROOT
HETATM    1  C1  UNL     1      -9.750  15.750  22.068  1.00  0.00     0.015 C 
HETATM    2  C2  UNL     1      -9.091  15.146  21.266  1.00  0.00    -0.078 C 
HETATM    3  C3  UNL     1      -8.296  14.402  20.271  1.00  0.00     0.128 C 
HETATM    4  C4  UNL     1      -8.999  14.367  18.911  1.00  0.00     0.052 C 
HETATM    5  C5  UNL     1      -7.888  13.931  17.965  1.00  0.00     0.010 C 
HETATM    6  C6  UNL     1      -6.695  14.781  18.409  1.00  0.00     0.002 C 
HETATM    7  C7  UNL     1      -5.302  14.253  18.020  1.00  0.00    -0.004 C 
HETATM    8  C8  UNL     1      -5.169  14.059  16.502  1.00  0.00     0.010 C 
HETATM    9  C9  UNL     1      -3.741  13.674  16.129  1.00  0.00     0.035 C 
HETATM   10  C10 UNL     1      -3.262  12.449  16.870  1.00  0.00    -0.069 C 
HETATM   11  C11 UNL     1      -2.642  11.465  16.190  1.00  0.00     0.030 C 
HETATM   12  C12 UNL     1      -2.044  10.285  16.877  1.00  0.00     0.032 C 
HETATM   13  N1  UNL     1      -1.430   9.296  16.302  1.00  0.00    -0.271 N 
ATOM     14  H1  UNL     1      -1.035   8.503  16.808  1.00  0.00     0.194 HD
HETATM   15  C23 UNL     1      -2.111  10.252  18.389  1.00  0.00     0.060 C 
HETATM   16  C24 UNL     1      -3.354  10.959  18.902  1.00  0.00     0.020 C 
HETATM   17  C25 UNL     1      -3.484  12.424  18.390  1.00  0.00    -0.016 C 
HETATM   18  C26 UNL     1      -2.384  13.297  19.038  1.00  0.00     0.020 C 
HETATM   19  C27 UNL     1      -4.932  12.943  18.750  1.00  0.00     0.002 C 
HETATM   20  C28 UNL     1      -5.212  13.025  20.269  1.00  0.00     0.007 C 
HETATM   21  C29 UNL     1      -5.717  14.384  20.762  1.00  0.00     0.014 C 
HETATM   22  C30 UNL     1      -6.878  15.009  19.950  1.00  0.00     0.003 C 
HETATM   23  C31 UNL     1      -6.838  16.539  20.198  1.00  0.00     0.020 C 
ENDROOT
BRANCH   3  24
HETATM   24  O1  UNL     1      -8.207  13.046  20.715  1.00  0.00    -0.377 OA
HETATM   25  H2  UNL     1      -7.929  13.078  21.644  1.00  0.00     0.211 HD
ENDBRANCH   3  24
BRANCH  13  26
HETATM   26  O2  UNL     1      -1.370   9.439  14.907  1.00  0.00    -0.271 OA
BRANCH  26  27
HETATM   27  C13 UNL     1      -0.185   8.802  14.439  1.00  0.00     0.303 C 
BRANCH  27  28
HETATM   28  C14 UNL     1      -0.440   7.326  14.166  1.00  0.00     0.243 C 
HETATM   29  O3  UNL     1      -1.241   6.654  14.814  1.00  0.00    -0.271 OA
HETATM   30  N2  UNL     1       0.367   6.779  13.185  1.00  0.00    -0.356 N 
HETATM   31  H16 UNL     1       1.159   7.323  12.860  1.00  0.00     0.162 HD
BRANCH  30  32
HETATM   32  C15 UNL     1       0.368   5.347  12.935  1.00  0.00     0.159 C 
BRANCH  32  33
HETATM   33  C16 UNL     1       0.214   5.011  11.438  1.00  0.00     0.170 C 
BRANCH  33  34
HETATM   34  O4  UNL     1       0.747   3.699  11.194  1.00  0.00    -0.389 OA
HETATM   35  H20 UNL     1       0.877   3.625  10.231  1.00  0.00     0.210 HD
ENDBRANCH  33  34
BRANCH  33  36
HETATM   36  C17 UNL     1       0.918   6.015  10.562  1.00  0.00    -0.013 A 
HETATM   37  C18 UNL     1       0.276   7.147  10.051  1.00  0.00     0.013 A 
HETATM   38  C19 UNL     1       0.971   8.016   9.209  1.00  0.00     0.025 A 
HETATM   39  C20 UNL     1       2.295   7.734   8.901  1.00  0.00     0.005 A 
HETATM   40  C21 UNL     1       3.060   8.623   7.969  1.00  0.00     0.068 C 
HETATM   41  N3  UNL     1       2.940   6.647   9.387  1.00  0.00    -0.369 N 
HETATM   42  C22 UNL     1       2.243   5.814  10.189  1.00  0.00     0.097 A 
ATOM     43  H3  UNL     1       3.916   6.464   9.155  1.00  0.00     0.165 HD
ENDBRANCH  33  36
ENDBRANCH  32  33
ENDBRANCH  30  32
ENDBRANCH  27  28
ENDBRANCH  26  27
ENDBRANCH  13  26
TORSDOF 8
ENDMDL
MODEL 9
REMARK minimizedAffinity -7.32588863
REMARK CNNscore 0.279939324
REMARK CNNaffinity 5.43542719
REMARK  8 active torsions:
REMARK  status: ('A' for Active; 'I' for Inactive)
REMARK    1  A    between atoms: C3_3  and  O1_4 
REMARK    2  A    between atoms: N1_14  and  O2_16 
REMARK    3  A    between atoms: O2_16  and  C13_17 
REMARK    4  A    between atoms: C13_17  and  C14_18 
REMARK       I    between atoms: C14_18  and  N2_20 
REMARK    5  A    between atoms: N2_20  and  C15_21 
REMARK    6  A    between atoms: C15_21  and  C16_22 
REMARK    7  A    between atoms: C16_22  and  O4_23 
REMARK    8  A    between atoms: C16_22  and  C17_24 
ROOT
HETATM    1  C1  UNL     1       9.823  18.859  23.903  1.00  0.00     0.015 C 
HETATM    2  C2  UNL     1       9.205  17.970  23.383  1.00  0.00    -0.078 C 
HETATM    3  C3  UNL     1       8.461  16.874  22.735  1.00  0.00     0.128 C 
HETATM    4  C4  UNL     1       9.412  15.862  22.090  1.00  0.00     0.052 C 
HETATM    5  C5  UNL     1       8.512  14.659  21.843  1.00  0.00     0.010 C 
HETATM    6  C6  UNL     1       7.722  14.538  23.149  1.00  0.00     0.002 C 
HETATM    7  C7  UNL     1       6.392  13.765  23.070  1.00  0.00    -0.004 C 
HETATM    8  C8  UNL     1       6.592  12.338  22.538  1.00  0.00     0.010 C 
HETATM    9  C9  UNL     1       5.289  11.549  22.603  1.00  0.00     0.035 C 
HETATM   10  C10 UNL     1       4.159  12.239  21.876  1.00  0.00    -0.069 C 
HETATM   11  C11 UNL     1       3.383  11.529  21.034  1.00  0.00     0.030 C 
HETATM   12  C12 UNL     1       2.185  12.121  20.375  1.00  0.00     0.032 C 
HETATM   13  N1  UNL     1       1.383  11.511  19.556  1.00  0.00    -0.271 N 
ATOM     14  H1  UNL     1       0.573  11.952  19.123  1.00  0.00     0.194 HD
HETATM   15  C23 UNL     1       1.832  13.551  20.727  1.00  0.00     0.060 C 
HETATM   16  C24 UNL     1       3.075  14.361  21.052  1.00  0.00     0.020 C 
HETATM   17  C25 UNL     1       3.944  13.729  22.180  1.00  0.00    -0.016 C 
HETATM   18  C26 UNL     1       3.190  13.827  23.528  1.00  0.00     0.020 C 
HETATM   19  C27 UNL     1       5.325  14.495  22.224  1.00  0.00     0.002 C 
HETATM   20  C28 UNL     1       5.204  15.989  22.604  1.00  0.00     0.007 C 
HETATM   21  C29 UNL     1       6.089  16.434  23.772  1.00  0.00     0.014 C 
HETATM   22  C30 UNL     1       7.573  15.999  23.699  1.00  0.00     0.003 C 
HETATM   23  C31 UNL     1       8.122  16.004  25.150  1.00  0.00     0.020 C 
ENDROOT
BRANCH   3  24
HETATM   24  O1  UNL     1       7.693  17.442  21.672  1.00  0.00    -0.377 OA
HETATM   25  H2  UNL     1       7.222  18.202  22.048  1.00  0.00     0.211 HD
ENDBRANCH   3  24
BRANCH  13  26
HETATM   26  O2  UNL     1       1.758  10.176  19.332  1.00  0.00    -0.271 OA
BRANCH  26  27
HETATM   27  C13 UNL     1       2.186  10.049  17.979  1.00  0.00     0.303 C 
BRANCH  27  28
HETATM   28  C14 UNL     1       1.007   9.729  17.071  1.00  0.00     0.243 C 
HETATM   29  O3  UNL     1      -0.041  10.370  17.083  1.00  0.00    -0.271 OA
HETATM   30  N2  UNL     1       1.180   8.601  16.289  1.00  0.00    -0.356 N 
HETATM   31  H16 UNL     1       1.962   7.990  16.498  1.00  0.00     0.162 HD
BRANCH  30  32
HETATM   32  C15 UNL     1       0.080   8.064  15.504  1.00  0.00     0.159 C 
BRANCH  32  33
HETATM   33  C16 UNL     1       0.521   6.905  14.588  1.00  0.00     0.170 C 
BRANCH  33  34
HETATM   34  O4  UNL     1       1.897   6.591  14.858  1.00  0.00    -0.389 OA
HETATM   35  H20 UNL     1       2.215   6.058  14.106  1.00  0.00     0.210 HD
ENDBRANCH  33  34
BRANCH  33  36
HETATM   36  C17 UNL     1       0.356   7.248  13.130  1.00  0.00    -0.013 A 
HETATM   37  C18 UNL     1       0.544   6.310  12.111  1.00  0.00     0.013 A 
HETATM   38  C19 UNL     1       0.420   6.700  10.778  1.00  0.00     0.025 A 
HETATM   39  C20 UNL     1       0.105   8.023  10.494  1.00  0.00     0.005 A 
HETATM   40  C21 UNL     1       0.003   8.488   9.074  1.00  0.00     0.068 C 
HETATM   41  N3  UNL     1      -0.087   8.950  11.463  1.00  0.00    -0.369 N 
HETATM   42  C22 UNL     1       0.052   8.550  12.745  1.00  0.00     0.097 A 
ATOM     43  H3  UNL     1      -0.327   9.914  11.233  1.00  0.00     0.165 HD
ENDBRANCH  33  36
ENDBRANCH  32  33
ENDBRANCH  30  32
ENDBRANCH  27  28
ENDBRANCH  26  27
ENDBRANCH  13  26
TORSDOF 8
ENDMDL
