MODEL 1
REMARK minimizedAffinity -8.17088699
REMARK CNNscore 0.630630195
REMARK CNNaffinity 7.65454483
REMARK  7 active torsions:
REMARK  status: ('A' for Active; 'I' for Inactive)
REMARK    1  A    between atoms: C2_2  and  O2_4 
REMARK    2  A    between atoms: O2_4  and  C3_5 
REMARK    3  A    between atoms: C3_5  and  C4_6 
REMARK    4  A    between atoms: C3_5  and  C9_12 
REMARK    5  A    between atoms: C5_7  and  C6_8 
REMARK    6  A    between atoms: C6_8  and  O3_11 
REMARK    7  A    between atoms: C9_12  and  C11_14 
ROOT
HETATM    1  C11 UNL     1      -0.347   7.952  13.662  1.00  0.00     0.001 C 
HETATM    2  C12 UNL     1      -0.884   9.353  13.247  1.00  0.00     0.007 C 
HETATM    3  C13 UNL     1      -2.422   9.285  13.221  1.00  0.00     0.015 C 
HETATM    4  C14 UNL     1      -2.768   7.968  13.930  1.00  0.00    -0.013 C 
HETATM    5  C15 UNL     1      -2.767   8.256  15.464  1.00  0.00     0.021 C 
HETATM    6  C16 UNL     1      -4.120   7.325  13.646  1.00  0.00    -0.068 C 
HETATM    7  C17 UNL     1      -4.277   5.980  13.717  1.00  0.00    -0.068 C 
HETATM    8  C18 UNL     1      -3.085   5.076  14.071  1.00  0.00     0.036 C 
HETATM    9  C19 UNL     1      -1.693   5.736  14.214  1.00  0.00     0.015 C 
HETATM   10  C20 UNL     1      -1.598   7.043  13.417  1.00  0.00    -0.029 C 
HETATM   11  C21 UNL     1      -1.694   6.711  11.893  1.00  0.00     0.016 C 
HETATM   12  C22 UNL     1      -5.624   5.273  13.381  1.00  0.00    -0.015 C 
HETATM   13  C23 UNL     1      -5.372   4.391  12.124  1.00  0.00     0.020 C 
HETATM   14  C24 UNL     1      -6.072   4.391  14.568  1.00  0.00     0.021 C 
HETATM   15  C25 UNL     1      -7.298   3.534  14.267  1.00  0.00     0.080 C 
HETATM   16  C26 UNL     1      -8.269   4.202  13.322  1.00  0.00     0.135 C 
HETATM   17  O4  UNL     1      -9.079   3.520  12.693  1.00  0.00    -0.297 OA
HETATM   18  C27 UNL     1      -8.259   5.732  13.256  1.00  0.00     0.018 C 
HETATM   19  C28 UNL     1      -9.143   6.196  12.076  1.00  0.00     0.023 C 
HETATM   20  C29 UNL     1      -8.945   6.209  14.557  1.00  0.00     0.023 C 
HETATM   21  C30 UNL     1      -6.795   6.280  13.029  1.00  0.00     0.013 C 
HETATM   22  C31 UNL     1      -6.600   7.645  13.709  1.00  0.00     0.011 C 
HETATM   23  C32 UNL     1      -5.258   8.257  13.347  1.00  0.00     0.036 C 
ENDROOT
BRANCH   1  24
HETATM   24  C9  UNL     1       1.017   7.592  12.983  1.00  0.00     0.020 C 
HETATM   25  C10 UNL     1       1.679   8.838  12.371  1.00  0.00     0.013 C 
BRANCH  24  26
HETATM   26  C3  UNL     1       0.927   6.504  11.861  1.00  0.00     0.158 C 
BRANCH  26  27
HETATM   27  O2  UNL     1       1.305   5.214  12.379  1.00  0.00    -0.312 OA
BRANCH  27  28
HETATM   28  C2  UNL     1       1.083   4.137  11.579  1.00  0.00     0.255 C 
HETATM   29  C1  UNL     1      -0.278   3.572  11.850  1.00  0.00     0.126 C 
HETATM   30  O1  UNL     1       1.847   3.698  10.731  1.00  0.00    -0.266 OA
ENDBRANCH  27  28
ENDBRANCH  26  27
BRANCH  26  31
HETATM   31  C4  UNL     1       1.828   6.758  10.677  1.00  0.00     0.005 C 
HETATM   32  C5  UNL     1       1.399   6.827   9.405  1.00  0.00     0.008 C 
BRANCH  32  33
HETATM   33  C6  UNL     1       2.227   7.077   8.165  1.00  0.00     0.068 C 
HETATM   34  C7  UNL     1       1.378   7.788   7.107  1.00  0.00     0.050 C 
HETATM   35  C8  UNL     1       2.888   5.838   7.551  1.00  0.00     0.050 C 
BRANCH  33  36
HETATM   36  O3  UNL     1       3.268   7.976   8.554  1.00  0.00    -0.387 OA
HETATM   37  H13 UNL     1       3.757   7.546   9.278  1.00  0.00     0.211 HD
ENDBRANCH  33  36
ENDBRANCH  32  33
ENDBRANCH  26  31
ENDBRANCH  24  26
ENDBRANCH   1  24
TORSDOF 7
ENDMDL
MODEL 2
REMARK minimizedAffinity -9.06277657
REMARK CNNscore 0.560083866
REMARK CNNaffinity 7.6583724
REMARK  7 active torsions:
REMARK  status: ('A' for Active; 'I' for Inactive)
REMARK    1  A    between atoms: C2_2  and  O2_4 
REMARK    2  A    between atoms: O2_4  and  C3_5 
REMARK    3  A    between atoms: C3_5  and  C4_6 
REMARK    4  A    between atoms: C3_5  and  C9_12 
REMARK    5  A    between atoms: C5_7  and  C6_8 
REMARK    6  A    between atoms: C6_8  and  O3_11 
REMARK    7  A    between atoms: C9_12  and  C11_14 
ROOT
HETATM    1  C11 UNL     1      -5.414   6.424  15.110  1.00  0.00     0.001 C 
HETATM    2  C12 UNL     1      -5.068   7.880  15.539  1.00  0.00     0.007 C 
HETATM    3  C13 UNL     1      -6.369   8.702  15.526  1.00  0.00     0.015 C 
HETATM    4  C14 UNL     1      -7.490   7.659  15.415  1.00  0.00    -0.013 C 
HETATM    5  C15 UNL     1      -7.784   7.144  16.859  1.00  0.00     0.021 C 
HETATM    6  C16 UNL     1      -8.842   8.102  14.868  1.00  0.00    -0.068 C 
HETATM    7  C17 UNL     1      -9.640   7.232  14.202  1.00  0.00    -0.068 C 
HETATM    8  C18 UNL     1      -9.185   5.781  13.972  1.00  0.00     0.036 C 
HETATM    9  C19 UNL     1      -7.752   5.393  14.410  1.00  0.00     0.015 C 
HETATM   10  C20 UNL     1      -6.820   6.610  14.448  1.00  0.00    -0.029 C 
HETATM   11  C21 UNL     1      -6.630   7.143  12.992  1.00  0.00     0.016 C 
HETATM   12  C22 UNL     1     -11.002   7.652  13.575  1.00  0.00    -0.015 C 
HETATM   13  C23 UNL     1     -10.863   7.489  12.035  1.00  0.00     0.020 C 
HETATM   14  C24 UNL     1     -12.134   6.742  14.105  1.00  0.00     0.021 C 
HETATM   15  C25 UNL     1     -13.478   6.976  13.424  1.00  0.00     0.080 C 
HETATM   16  C26 UNL     1     -13.696   8.416  13.022  1.00  0.00     0.135 C 
HETATM   17  O4  UNL     1     -14.519   8.690  12.148  1.00  0.00    -0.297 OA
HETATM   18  C27 UNL     1     -12.934   9.493  13.798  1.00  0.00     0.018 C 
HETATM   19  C28 UNL     1     -13.111  10.854  13.086  1.00  0.00     0.023 C 
HETATM   20  C29 UNL     1     -13.640   9.599  15.168  1.00  0.00     0.023 C 
HETATM   21  C30 UNL     1     -11.391   9.160  13.862  1.00  0.00     0.013 C 
HETATM   22  C31 UNL     1     -10.763   9.674  15.168  1.00  0.00     0.011 C 
HETATM   23  C32 UNL     1      -9.253   9.517  15.157  1.00  0.00     0.036 C 
ENDROOT
BRANCH   1  24
HETATM   24  C9  UNL     1      -4.263   5.732  14.305  1.00  0.00     0.020 C 
HETATM   25  C10 UNL     1      -3.329   6.772  13.666  1.00  0.00     0.013 C 
BRANCH  24  26
HETATM   26  C3  UNL     1      -4.743   4.765  13.170  1.00  0.00     0.158 C 
BRANCH  26  27
HETATM   27  O2  UNL     1      -5.910   4.035  13.592  1.00  0.00    -0.312 OA
BRANCH  27  28
HETATM   28  C2  UNL     1      -6.620   3.393  12.625  1.00  0.00     0.255 C 
HETATM   29  C1  UNL     1      -7.228   2.143  13.185  1.00  0.00     0.126 C 
HETATM   30  O1  UNL     1      -6.785   3.777  11.476  1.00  0.00    -0.266 OA
ENDBRANCH  27  28
ENDBRANCH  26  27
BRANCH  26  31
HETATM   31  C4  UNL     1      -3.724   3.728  12.767  1.00  0.00     0.005 C 
HETATM   32  C5  UNL     1      -3.166   3.655  11.546  1.00  0.00     0.008 C 
BRANCH  32  33
HETATM   33  C6  UNL     1      -2.142   2.654  11.058  1.00  0.00     0.068 C 
HETATM   34  C7  UNL     1      -2.583   1.236  11.431  1.00  0.00     0.050 C 
HETATM   35  C8  UNL     1      -0.705   2.893  11.536  1.00  0.00     0.050 C 
BRANCH  33  36
HETATM   36  O3  UNL     1      -2.145   2.743   9.631  1.00  0.00    -0.387 OA
HETATM   37  H13 UNL     1      -1.937   3.667   9.405  1.00  0.00     0.211 HD
ENDBRANCH  33  36
ENDBRANCH  32  33
ENDBRANCH  26  31
ENDBRANCH  24  26
ENDBRANCH   1  24
TORSDOF 7
ENDMDL
MODEL 3
REMARK minimizedAffinity -7.57184362
REMARK CNNscore 0.538346112
REMARK CNNaffinity 6.70825815
REMARK  7 active torsions:
REMARK  status: ('A' for Active; 'I' for Inactive)
REMARK    1  A    between atoms: C2_2  and  O2_4 
REMARK    2  A    between atoms: O2_4  and  C3_5 
REMARK    3  A    between atoms: C3_5  and  C4_6 
REMARK    4  A    between atoms: C3_5  and  C9_12 
REMARK    5  A    between atoms: C5_7  and  C6_8 
REMARK    6  A    between atoms: C6_8  and  O3_11 
REMARK    7  A    between atoms: C9_12  and  C11_14 
ROOT
HETATM    1  C11 UNL     1      -2.199   7.024  13.785  1.00  0.00     0.001 C 
HETATM    2  C12 UNL     1      -3.612   7.482  13.321  1.00  0.00     0.007 C 
HETATM    3  C13 UNL     1      -3.869   8.887  13.894  1.00  0.00     0.015 C 
HETATM    4  C14 UNL     1      -2.499   9.362  14.398  1.00  0.00    -0.013 C 
HETATM    5  C15 UNL     1      -1.738   9.958  13.172  1.00  0.00     0.021 C 
HETATM    6  C16 UNL     1      -2.455  10.451  15.462  1.00  0.00    -0.068 C 
HETATM    7  C17 UNL     1      -1.434  10.511  16.352  1.00  0.00    -0.068 C 
HETATM    8  C18 UNL     1      -0.307   9.465  16.313  1.00  0.00     0.036 C 
HETATM    9  C19 UNL     1      -0.446   8.288  15.319  1.00  0.00     0.015 C 
HETATM   10  C20 UNL     1      -1.912   8.012  14.965  1.00  0.00    -0.029 C 
HETATM   11  C21 UNL     1      -2.651   7.505  16.244  1.00  0.00     0.016 C 
HETATM   12  C22 UNL     1      -1.374  11.570  17.493  1.00  0.00    -0.015 C 
HETATM   13  C23 UNL     1      -1.467  10.795  18.838  1.00  0.00     0.020 C 
HETATM   14  C24 UNL     1      -0.044  12.354  17.422  1.00  0.00     0.021 C 
HETATM   15  C25 UNL     1       0.173  13.302  18.596  1.00  0.00     0.080 C 
HETATM   16  C26 UNL     1      -1.112  13.903  19.117  1.00  0.00     0.135 C 
HETATM   17  O4  UNL     1      -1.156  14.359  20.260  1.00  0.00    -0.297 OA
HETATM   18  C27 UNL     1      -2.296  13.997  18.150  1.00  0.00     0.018 C 
HETATM   19  C28 UNL     1      -3.561  14.412  18.934  1.00  0.00     0.023 C 
HETATM   20  C29 UNL     1      -1.955  15.156  17.186  1.00  0.00     0.023 C 
HETATM   21  C30 UNL     1      -2.572  12.605  17.456  1.00  0.00     0.013 C 
HETATM   22  C31 UNL     1      -3.123  12.793  16.033  1.00  0.00     0.011 C 
HETATM   23  C32 UNL     1      -3.558  11.469  15.428  1.00  0.00     0.036 C 
ENDROOT
BRANCH   1  24
HETATM   24  C9  UNL     1      -2.103   5.480  14.027  1.00  0.00     0.020 C 
HETATM   25  C10 UNL     1      -0.795   5.109  14.744  1.00  0.00     0.013 C 
BRANCH  24  26
HETATM   26  C3  UNL     1      -2.198   4.604  12.731  1.00  0.00     0.158 C 
BRANCH  26  27
HETATM   27  O2  UNL     1      -1.584   5.283  11.619  1.00  0.00    -0.312 OA
BRANCH  27  28
HETATM   28  C2  UNL     1      -0.336   4.876  11.260  1.00  0.00     0.255 C 
HETATM   29  C1  UNL     1       0.553   6.067  11.073  1.00  0.00     0.126 C 
HETATM   30  O1  UNL     1       0.038   3.718  11.138  1.00  0.00    -0.266 OA
ENDBRANCH  27  28
ENDBRANCH  26  27
BRANCH  26  31
HETATM   31  C4  UNL     1      -3.610   4.288  12.299  1.00  0.00     0.005 C 
HETATM   32  C5  UNL     1      -3.975   3.138  11.706  1.00  0.00     0.008 C 
BRANCH  32  33
HETATM   33  C6  UNL     1      -5.358   2.739  11.242  1.00  0.00     0.068 C 
HETATM   34  C7  UNL     1      -6.413   3.562  11.987  1.00  0.00     0.050 C 
HETATM   35  C8  UNL     1      -5.689   1.246  11.357  1.00  0.00     0.050 C 
BRANCH  33  36
HETATM   36  O3  UNL     1      -5.434   3.095   9.860  1.00  0.00    -0.387 OA
HETATM   37  H13 UNL     1      -4.712   2.625   9.407  1.00  0.00     0.211 HD
ENDBRANCH  33  36
ENDBRANCH  32  33
ENDBRANCH  26  31
ENDBRANCH  24  26
ENDBRANCH   1  24
TORSDOF 7
ENDMDL
MODEL 4
REMARK minimizedAffinity -8.90591908
REMARK CNNscore 0.521126151
REMARK CNNaffinity 7.28748322
REMARK  7 active torsions:
REMARK  status: ('A' for Active; 'I' for Inactive)
REMARK    1  A    between atoms: C2_2  and  O2_4 
REMARK    2  A    between atoms: O2_4  and  C3_5 
REMARK    3  A    between atoms: C3_5  and  C4_6 
REMARK    4  A    between atoms: C3_5  and  C9_12 
REMARK    5  A    between atoms: C5_7  and  C6_8 
REMARK    6  A    between atoms: C6_8  and  O3_11 
REMARK    7  A    between atoms: C9_12  and  C11_14 
ROOT
HETATM    1  C11 UNL     1      -0.033   7.742  13.391  1.00  0.00     0.001 C 
HETATM    2  C12 UNL     1      -0.524   9.100  12.812  1.00  0.00     0.007 C 
HETATM    3  C13 UNL     1      -2.063   9.070  12.768  1.00  0.00     0.015 C 
HETATM    4  C14 UNL     1      -2.455   7.851  13.615  1.00  0.00    -0.013 C 
HETATM    5  C15 UNL     1      -2.467   8.311  15.107  1.00  0.00     0.021 C 
HETATM    6  C16 UNL     1      -3.821   7.216  13.383  1.00  0.00    -0.068 C 
HETATM    7  C17 UNL     1      -4.016   5.892  13.602  1.00  0.00    -0.068 C 
HETATM    8  C18 UNL     1      -2.854   5.003  14.075  1.00  0.00     0.036 C 
HETATM    9  C19 UNL     1      -1.447   5.638  14.166  1.00  0.00     0.015 C 
HETATM   10  C20 UNL     1      -1.305   6.844  13.228  1.00  0.00    -0.029 C 
HETATM   11  C21 UNL     1      -1.389   6.344  11.751  1.00  0.00     0.016 C 
HETATM   12  C22 UNL     1      -5.377   5.187  13.325  1.00  0.00    -0.015 C 
HETATM   13  C23 UNL     1      -5.133   4.163  12.180  1.00  0.00     0.020 C 
HETATM   14  C24 UNL     1      -5.866   4.456  14.596  1.00  0.00     0.021 C 
HETATM   15  C25 UNL     1      -7.111   3.604  14.373  1.00  0.00     0.080 C 
HETATM   16  C26 UNL     1      -8.050   4.186  13.342  1.00  0.00     0.135 C 
HETATM   17  O4  UNL     1      -8.870   3.458  12.780  1.00  0.00    -0.297 OA
HETATM   18  C27 UNL     1      -7.997   5.697  13.105  1.00  0.00     0.018 C 
HETATM   19  C28 UNL     1      -8.851   6.048  11.866  1.00  0.00     0.023 C 
HETATM   20  C29 UNL     1      -8.686   6.336  14.332  1.00  0.00     0.023 C 
HETATM   21  C30 UNL     1      -6.515   6.178  12.842  1.00  0.00     0.013 C 
HETATM   22  C31 UNL     1      -6.291   7.605  13.367  1.00  0.00     0.011 C 
HETATM   23  C32 UNL     1      -4.928   8.138  12.961  1.00  0.00     0.036 C 
ENDROOT
BRANCH   1  24
HETATM   24  C9  UNL     1       1.331   7.272  12.780  1.00  0.00     0.020 C 
HETATM   25  C10 UNL     1       2.435   7.235  13.849  1.00  0.00     0.013 C 
BRANCH  24  26
HETATM   26  C3  UNL     1       1.853   8.145  11.589  1.00  0.00     0.158 C 
BRANCH  26  27
HETATM   27  O2  UNL     1       1.251   7.719  10.352  1.00  0.00    -0.312 OA
BRANCH  27  28
HETATM   28  C2  UNL     1       1.674   6.534   9.834  1.00  0.00     0.255 C 
HETATM   29  C1  UNL     1       2.365   6.767   8.526  1.00  0.00     0.126 C 
HETATM   30  O1  UNL     1       1.554   5.435  10.358  1.00  0.00    -0.266 OA
ENDBRANCH  27  28
ENDBRANCH  26  27
BRANCH  26  31
HETATM   31  C4  UNL     1       3.345   8.072  11.374  1.00  0.00     0.005 C 
HETATM   32  C5  UNL     1       4.097   6.996  11.668  1.00  0.00     0.008 C 
BRANCH  32  33
HETATM   33  C6  UNL     1       5.589   6.837  11.487  1.00  0.00     0.068 C 
HETATM   34  C7  UNL     1       6.270   6.724  12.854  1.00  0.00     0.050 C 
HETATM   35  C8  UNL     1       6.274   7.927  10.655  1.00  0.00     0.050 C 
BRANCH  33  36
HETATM   36  O3  UNL     1       5.778   5.592  10.809  1.00  0.00    -0.387 OA
HETATM   37  H13 UNL     1       5.280   5.645   9.975  1.00  0.00     0.211 HD
ENDBRANCH  33  36
ENDBRANCH  32  33
ENDBRANCH  26  31
ENDBRANCH  24  26
ENDBRANCH   1  24
TORSDOF 7
ENDMDL
MODEL 5
REMARK minimizedAffinity -7.52624512
REMARK CNNscore 0.482535601
REMARK CNNaffinity 6.83141327
REMARK  7 active torsions:
REMARK  status: ('A' for Active; 'I' for Inactive)
REMARK    1  A    between atoms: C2_2  and  O2_4 
REMARK    2  A    between atoms: O2_4  and  C3_5 
REMARK    3  A    between atoms: C3_5  and  C4_6 
REMARK    4  A    between atoms: C3_5  and  C9_12 
REMARK    5  A    between atoms: C5_7  and  C6_8 
REMARK    6  A    between atoms: C6_8  and  O3_11 
REMARK    7  A    between atoms: C9_12  and  C11_14 
ROOT
HETATM    1  C11 UNL     1      -1.884   6.536  13.628  1.00  0.00     0.001 C 
HETATM    2  C12 UNL     1      -2.896   5.990  14.677  1.00  0.00     0.007 C 
HETATM    3  C13 UNL     1      -3.404   7.179  15.512  1.00  0.00     0.015 C 
HETATM    4  C14 UNL     1      -2.946   8.424  14.740  1.00  0.00    -0.013 C 
HETATM    5  C15 UNL     1      -4.011   8.697  13.631  1.00  0.00     0.021 C 
HETATM    6  C16 UNL     1      -2.814   9.740  15.497  1.00  0.00    -0.068 C 
HETATM    7  C17 UNL     1      -1.912  10.675  15.111  1.00  0.00    -0.068 C 
HETATM    8  C18 UNL     1      -0.990  10.415  13.907  1.00  0.00     0.036 C 
HETATM    9  C19 UNL     1      -1.042   9.019  13.243  1.00  0.00     0.015 C 
HETATM   10  C20 UNL     1      -1.538   7.943  14.218  1.00  0.00    -0.029 C 
HETATM   11  C21 UNL     1      -0.481   7.772  15.357  1.00  0.00     0.016 C 
HETATM   12  C22 UNL     1      -1.700  12.009  15.887  1.00  0.00    -0.015 C 
HETATM   13  C23 UNL     1      -0.254  11.979  16.458  1.00  0.00     0.020 C 
HETATM   14  C24 UNL     1      -1.869  13.212  14.931  1.00  0.00     0.021 C 
HETATM   15  C25 UNL     1      -1.521  14.554  15.567  1.00  0.00     0.080 C 
HETATM   16  C26 UNL     1      -1.856  14.616  17.039  1.00  0.00     0.135 C 
HETATM   17  O4  UNL     1      -1.301  15.447  17.759  1.00  0.00    -0.297 OA
HETATM   18  C27 UNL     1      -2.954  13.684  17.558  1.00  0.00     0.018 C 
HETATM   19  C28 UNL     1      -2.975  13.733  19.103  1.00  0.00     0.023 C 
HETATM   20  C29 UNL     1      -4.286  14.293  17.063  1.00  0.00     0.023 C 
HETATM   21  C30 UNL     1      -2.691  12.193  17.109  1.00  0.00     0.013 C 
HETATM   22  C31 UNL     1      -4.011  11.434  16.894  1.00  0.00     0.011 C 
HETATM   23  C32 UNL     1      -3.766   9.957  16.638  1.00  0.00     0.036 C 
ENDROOT
BRANCH   1  24
HETATM   24  C9  UNL     1      -0.732   5.525  13.305  1.00  0.00     0.020 C 
HETATM   25  C10 UNL     1       0.630   6.069  13.768  1.00  0.00     0.013 C 
BRANCH  24  26
HETATM   26  C3  UNL     1      -0.599   5.141  11.792  1.00  0.00     0.158 C 
BRANCH  26  27
HETATM   27  O2  UNL     1      -0.308   6.308  11.000  1.00  0.00    -0.312 OA
BRANCH  27  28
HETATM   28  C2  UNL     1       0.888   6.333  10.352  1.00  0.00     0.255 C 
HETATM   29  C1  UNL     1       1.282   7.749  10.066  1.00  0.00     0.126 C 
HETATM   30  O1  UNL     1       1.575   5.361  10.068  1.00  0.00    -0.266 OA
ENDBRANCH  27  28
ENDBRANCH  26  27
BRANCH  26  31
HETATM   31  C4  UNL     1      -1.845   4.532  11.196  1.00  0.00     0.005 C 
HETATM   32  C5  UNL     1      -2.640   3.661  11.842  1.00  0.00     0.008 C 
BRANCH  32  33
HETATM   33  C6  UNL     1      -3.900   3.005  11.324  1.00  0.00     0.068 C 
HETATM   34  C7  UNL     1      -4.147   3.426   9.872  1.00  0.00     0.050 C 
HETATM   35  C8  UNL     1      -5.163   3.251  12.157  1.00  0.00     0.050 C 
BRANCH  33  36
HETATM   36  O3  UNL     1      -3.647   1.598  11.325  1.00  0.00    -0.387 OA
HETATM   37  H13 UNL     1      -3.418   1.352  12.238  1.00  0.00     0.211 HD
ENDBRANCH  33  36
ENDBRANCH  32  33
ENDBRANCH  26  31
ENDBRANCH  24  26
ENDBRANCH   1  24
TORSDOF 7
ENDMDL
MODEL 6
REMARK minimizedAffinity -7.11969614
REMARK CNNscore 0.4529185
REMARK CNNaffinity 6.92559481
REMARK  7 active torsions:
REMARK  status: ('A' for Active; 'I' for Inactive)
REMARK    1  A    between atoms: C2_2  and  O2_4 
REMARK    2  A    between atoms: O2_4  and  C3_5 
REMARK    3  A    between atoms: C3_5  and  C4_6 
REMARK    4  A    between atoms: C3_5  and  C9_12 
REMARK    5  A    between atoms: C5_7  and  C6_8 
REMARK    6  A    between atoms: C6_8  and  O3_11 
REMARK    7  A    between atoms: C9_12  and  C11_14 
ROOT
HETATM    1  C11 UNL     1      -1.553   9.583  15.019  1.00  0.00     0.001 C 
HETATM    2  C12 UNL     1      -0.363   8.626  14.720  1.00  0.00     0.007 C 
HETATM    3  C13 UNL     1      -0.923   7.372  14.025  1.00  0.00     0.015 C 
HETATM    4  C14 UNL     1      -2.359   7.750  13.634  1.00  0.00    -0.013 C 
HETATM    5  C15 UNL     1      -2.280   8.516  12.276  1.00  0.00     0.021 C 
HETATM    6  C16 UNL     1      -3.366   6.630  13.401  1.00  0.00    -0.068 C 
HETATM    7  C17 UNL     1      -4.686   6.824  13.640  1.00  0.00    -0.068 C 
HETATM    8  C18 UNL     1      -5.190   8.178  14.167  1.00  0.00     0.036 C 
HETATM    9  C19 UNL     1      -4.136   9.252  14.530  1.00  0.00     0.015 C 
HETATM   10  C20 UNL     1      -2.781   8.623  14.877  1.00  0.00    -0.029 C 
HETATM   11  C21 UNL     1      -2.933   7.795  16.193  1.00  0.00     0.016 C 
HETATM   12  C22 UNL     1      -5.745   5.694  13.473  1.00  0.00    -0.015 C 
HETATM   13  C23 UNL     1      -6.333   5.409  14.884  1.00  0.00     0.020 C 
HETATM   14  C24 UNL     1      -6.866   6.154  12.514  1.00  0.00     0.021 C 
HETATM   15  C25 UNL     1      -8.031   5.174  12.416  1.00  0.00     0.080 C 
HETATM   16  C26 UNL     1      -7.602   3.731  12.554  1.00  0.00     0.135 C 
HETATM   17  O4  UNL     1      -8.427   2.876  12.880  1.00  0.00    -0.297 OA
HETATM   18  C27 UNL     1      -6.158   3.380  12.189  1.00  0.00     0.018 C 
HETATM   19  C28 UNL     1      -5.862   1.926  12.621  1.00  0.00     0.023 C 
HETATM   20  C29 UNL     1      -6.096   3.420  10.645  1.00  0.00     0.023 C 
HETATM   21  C30 UNL     1      -5.139   4.337  12.927  1.00  0.00     0.013 C 
HETATM   22  C31 UNL     1      -3.881   4.574  12.075  1.00  0.00     0.011 C 
HETATM   23  C32 UNL     1      -2.825   5.343  12.849  1.00  0.00     0.036 C 
ENDROOT
BRANCH   1  24
HETATM   24  C9  UNL     1      -1.361  10.407  16.337  1.00  0.00     0.020 C 
HETATM   25  C10 UNL     1      -2.181   9.808  17.491  1.00  0.00     0.013 C 
BRANCH  24  26
HETATM   26  C3  UNL     1      -1.737  11.924  16.225  1.00  0.00     0.158 C 
BRANCH  26  27
HETATM   27  O2  UNL     1      -0.564  12.745  16.382  1.00  0.00    -0.312 OA
BRANCH  27  28
HETATM   28  C2  UNL     1      -0.356  13.711  15.446  1.00  0.00     0.255 C 
HETATM   29  C1  UNL     1       0.609  14.729  15.972  1.00  0.00     0.126 C 
HETATM   30  O1  UNL     1      -0.841  13.744  14.324  1.00  0.00    -0.266 OA
ENDBRANCH  27  28
ENDBRANCH  26  27
BRANCH  26  31
HETATM   31  C4  UNL     1      -2.720  12.397  17.267  1.00  0.00     0.005 C 
HETATM   32  C5  UNL     1      -3.728  13.251  17.019  1.00  0.00     0.008 C 
BRANCH  32  33
HETATM   33  C6  UNL     1      -4.755  13.775  17.996  1.00  0.00     0.068 C 
HETATM   34  C7  UNL     1      -4.718  12.947  19.284  1.00  0.00     0.050 C 
HETATM   35  C8  UNL     1      -6.193  13.850  17.470  1.00  0.00     0.050 C 
BRANCH  33  36
HETATM   36  O3  UNL     1      -4.347  15.105  18.330  1.00  0.00    -0.387 OA
HETATM   37  H13 UNL     1      -4.301  15.604  17.496  1.00  0.00     0.211 HD
ENDBRANCH  33  36
ENDBRANCH  32  33
ENDBRANCH  26  31
ENDBRANCH  24  26
ENDBRANCH   1  24
TORSDOF 7
ENDMDL
MODEL 7
REMARK minimizedAffinity -7.34276628
REMARK CNNscore 0.383691043
REMARK CNNaffinity 6.77396584
REMARK  7 active torsions:
REMARK  status: ('A' for Active; 'I' for Inactive)
REMARK    1  A    between atoms: C2_2  and  O2_4 
REMARK    2  A    between atoms: O2_4  and  C3_5 
REMARK    3  A    between atoms: C3_5  and  C4_6 
REMARK    4  A    between atoms: C3_5  and  C9_12 
REMARK    5  A    between atoms: C5_7  and  C6_8 
REMARK    6  A    between atoms: C6_8  and  O3_11 
REMARK    7  A    between atoms: C9_12  and  C11_14 
ROOT
HETATM    1  C11 UNL     1      -2.091   9.876  15.224  1.00  0.00     0.001 C 
HETATM    2  C12 UNL     1      -0.794   9.079  14.900  1.00  0.00     0.007 C 
HETATM    3  C13 UNL     1      -1.199   7.793  14.157  1.00  0.00     0.015 C 
HETATM    4  C14 UNL     1      -2.669   8.010  13.770  1.00  0.00    -0.013 C 
HETATM    5  C15 UNL     1      -2.679   8.827  12.440  1.00  0.00     0.021 C 
HETATM    6  C16 UNL     1      -3.534   6.787  13.492  1.00  0.00    -0.068 C 
HETATM    7  C17 UNL     1      -4.869   6.813  13.728  1.00  0.00    -0.068 C 
HETATM    8  C18 UNL     1      -5.532   8.078  14.299  1.00  0.00     0.036 C 
HETATM    9  C19 UNL     1      -4.615   9.256  14.706  1.00  0.00     0.015 C 
HETATM   10  C20 UNL     1      -3.195   8.782  15.040  1.00  0.00    -0.029 C 
HETATM   11  C21 UNL     1      -3.251   7.895  16.325  1.00  0.00     0.016 C 
HETATM   12  C22 UNL     1      -5.784   5.572  13.514  1.00  0.00    -0.015 C 
HETATM   13  C23 UNL     1      -6.337   5.168  14.911  1.00  0.00     0.020 C 
HETATM   14  C24 UNL     1      -6.950   5.928  12.565  1.00  0.00     0.021 C 
HETATM   15  C25 UNL     1      -7.989   4.820  12.424  1.00  0.00     0.080 C 
HETATM   16  C26 UNL     1      -7.391   3.435  12.515  1.00  0.00     0.135 C 
HETATM   17  O4  UNL     1      -8.108   2.476  12.805  1.00  0.00    -0.297 OA
HETATM   18  C27 UNL     1      -5.914   3.272  12.148  1.00  0.00     0.018 C 
HETATM   19  C28 UNL     1      -5.448   1.849  12.530  1.00  0.00     0.023 C 
HETATM   20  C29 UNL     1      -5.853   3.374  10.607  1.00  0.00     0.023 C 
HETATM   21  C30 UNL     1      -5.019   4.317  12.925  1.00  0.00     0.013 C 
HETATM   22  C31 UNL     1      -3.796   4.732  12.091  1.00  0.00     0.011 C 
HETATM   23  C32 UNL     1      -2.842   5.595  12.898  1.00  0.00     0.036 C 
ENDROOT
BRANCH   1  24
HETATM   24  C9  UNL     1      -2.002  10.670  16.571  1.00  0.00     0.020 C 
HETATM   25  C10 UNL     1      -3.248  11.544  16.784  1.00  0.00     0.013 C 
BRANCH  24  26
HETATM   26  C3  UNL     1      -0.745  11.595  16.708  1.00  0.00     0.158 C 
BRANCH  26  27
HETATM   27  O2  UNL     1      -0.361  11.720  18.090  1.00  0.00    -0.312 OA
BRANCH  27  28
HETATM   28  C2  UNL     1       0.536  10.815  18.567  1.00  0.00     0.255 C 
HETATM   29  C1  UNL     1       0.612  10.911  20.060  1.00  0.00     0.126 C 
HETATM   30  O1  UNL     1       1.169  10.007  17.901  1.00  0.00    -0.266 OA
ENDBRANCH  27  28
ENDBRANCH  26  27
BRANCH  26  31
HETATM   31  C4  UNL     1      -0.954  13.002  16.204  1.00  0.00     0.005 C 
HETATM   32  C5  UNL     1      -0.287  13.536  15.165  1.00  0.00     0.008 C 
BRANCH  32  33
HETATM   33  C6  UNL     1      -0.432  14.929  14.595  1.00  0.00     0.068 C 
HETATM   34  C7  UNL     1      -1.077  14.859  13.208  1.00  0.00     0.050 C 
HETATM   35  C8  UNL     1       0.860  15.752  14.526  1.00  0.00     0.050 C 
BRANCH  33  36
HETATM   36  O3  UNL     1      -1.340  15.620  15.456  1.00  0.00    -0.387 OA
HETATM   37  H13 UNL     1      -0.957  15.595  16.351  1.00  0.00     0.211 HD
ENDBRANCH  33  36
ENDBRANCH  32  33
ENDBRANCH  26  31
ENDBRANCH  24  26
ENDBRANCH   1  24
TORSDOF 7
ENDMDL
MODEL 8
REMARK minimizedAffinity -7.7441144
REMARK CNNscore 0.377891153
REMARK CNNaffinity 7.40680075
REMARK  7 active torsions:
REMARK  status: ('A' for Active; 'I' for Inactive)
REMARK    1  A    between atoms: C2_2  and  O2_4 
REMARK    2  A    between atoms: O2_4  and  C3_5 
REMARK    3  A    between atoms: C3_5  and  C4_6 
REMARK    4  A    between atoms: C3_5  and  C9_12 
REMARK    5  A    between atoms: C5_7  and  C6_8 
REMARK    6  A    between atoms: C6_8  and  O3_11 
REMARK    7  A    between atoms: C9_12  and  C11_14 
ROOT
HETATM    1  C11 UNL     1      -5.775   5.979  14.255  1.00  0.00     0.001 C 
HETATM    2  C12 UNL     1      -6.499   4.621  14.027  1.00  0.00     0.007 C 
HETATM    3  C13 UNL     1      -8.017   4.880  14.049  1.00  0.00     0.015 C 
HETATM    4  C14 UNL     1      -8.154   6.406  13.959  1.00  0.00    -0.013 C 
HETATM    5  C15 UNL     1      -8.071   6.788  12.447  1.00  0.00     0.021 C 
HETATM    6  C16 UNL     1      -9.441   7.050  14.461  1.00  0.00    -0.068 C 
HETATM    7  C17 UNL     1      -9.436   8.309  14.964  1.00  0.00    -0.068 C 
HETATM    8  C18 UNL     1      -8.124   9.107  15.050  1.00  0.00     0.036 C 
HETATM    9  C19 UNL     1      -6.811   8.384  14.668  1.00  0.00     0.015 C 
HETATM   10  C20 UNL     1      -6.928   6.864  14.838  1.00  0.00    -0.029 C 
HETATM   11  C21 UNL     1      -7.100   6.540  16.356  1.00  0.00     0.016 C 
HETATM   12  C22 UNL     1     -10.714   8.988  15.541  1.00  0.00    -0.015 C 
HETATM   13  C23 UNL     1     -10.458   9.221  17.058  1.00  0.00     0.020 C 
HETATM   14  C24 UNL     1     -10.967  10.337  14.832  1.00  0.00     0.021 C 
HETATM   15  C25 UNL     1     -12.104  11.148  15.443  1.00  0.00     0.080 C 
HETATM   16  C26 UNL     1     -13.215  10.286  15.997  1.00  0.00     0.135 C 
HETATM   17  O4  UNL     1     -13.986  10.746  16.840  1.00  0.00    -0.297 OA
HETATM   18  C27 UNL     1     -13.387   8.883  15.409  1.00  0.00     0.018 C 
HETATM   19  C28 UNL     1     -14.404   8.093  16.263  1.00  0.00     0.023 C 
HETATM   20  C29 UNL     1     -14.022   9.090  14.015  1.00  0.00     0.023 C 
HETATM   21  C30 UNL     1     -12.016   8.096  15.411  1.00  0.00     0.013 C 
HETATM   22  C31 UNL     1     -11.929   7.127  14.220  1.00  0.00     0.011 C 
HETATM   23  C32 UNL     1     -10.698   6.242  14.315  1.00  0.00     0.036 C 
ENDROOT
BRANCH   1  24
HETATM   24  C9  UNL     1      -4.433   5.833  15.049  1.00  0.00     0.020 C 
HETATM   25  C10 UNL     1      -3.988   7.180  15.641  1.00  0.00     0.013 C 
BRANCH  24  26
HETATM   26  C3  UNL     1      -3.235   5.263  14.216  1.00  0.00     0.158 C 
BRANCH  26  27
HETATM   27  O2  UNL     1      -2.297   6.310  13.902  1.00  0.00    -0.312 OA
BRANCH  27  28
HETATM   28  C2  UNL     1      -1.084   5.929  13.418  1.00  0.00     0.255 C 
HETATM   29  C1  UNL     1      -0.756   6.718  12.188  1.00  0.00     0.126 C 
HETATM   30  O1  UNL     1      -0.338   5.097  13.916  1.00  0.00    -0.266 OA
ENDBRANCH  27  28
ENDBRANCH  26  27
BRANCH  26  31
HETATM   31  C4  UNL     1      -3.634   4.650  12.895  1.00  0.00     0.005 C 
HETATM   32  C5  UNL     1      -3.639   3.328  12.650  1.00  0.00     0.008 C 
BRANCH  32  33
HETATM   33  C6  UNL     1      -4.022   2.632  11.364  1.00  0.00     0.068 C 
HETATM   34  C7  UNL     1      -3.773   3.562  10.174  1.00  0.00     0.050 C 
HETATM   35  C8  UNL     1      -5.455   2.090  11.307  1.00  0.00     0.050 C 
BRANCH  33  36
HETATM   36  O3  UNL     1      -3.133   1.519  11.232  1.00  0.00    -0.387 OA
HETATM   37  H13 UNL     1      -3.245   0.972  12.029  1.00  0.00     0.211 HD
ENDBRANCH  33  36
ENDBRANCH  32  33
ENDBRANCH  26  31
ENDBRANCH  24  26
ENDBRANCH   1  24
TORSDOF 7
ENDMDL
MODEL 9
REMARK minimizedAffinity -7.24466991
REMARK CNNscore 0.361624211
REMARK CNNaffinity 6.91238213
REMARK  7 active torsions:
REMARK  status: ('A' for Active; 'I' for Inactive)
REMARK    1  A    between atoms: C2_2  and  O2_4 
REMARK    2  A    between atoms: O2_4  and  C3_5 
REMARK    3  A    between atoms: C3_5  and  C4_6 
REMARK    4  A    between atoms: C3_5  and  C9_12 
REMARK    5  A    between atoms: C5_7  and  C6_8 
REMARK    6  A    between atoms: C6_8  and  O3_11 
REMARK    7  A    between atoms: C9_12  and  C11_14 
ROOT
HETATM    1  C11 UNL     1      -5.476   7.668  14.924  1.00  0.00     0.001 C 
HETATM    2  C12 UNL     1      -4.962   8.827  15.827  1.00  0.00     0.007 C 
HETATM    3  C13 UNL     1      -3.510   9.139  15.423  1.00  0.00     0.015 C 
HETATM    4  C14 UNL     1      -3.308   8.400  14.092  1.00  0.00    -0.013 C 
HETATM    5  C15 UNL     1      -3.863   9.325  12.962  1.00  0.00     0.021 C 
HETATM    6  C16 UNL     1      -1.887   8.056  13.662  1.00  0.00    -0.068 C 
HETATM    7  C17 UNL     1      -1.639   6.966  12.894  1.00  0.00    -0.068 C 
HETATM    8  C18 UNL     1      -2.791   6.045  12.457  1.00  0.00     0.036 C 
HETATM    9  C19 UNL     1      -4.202   6.333  13.022  1.00  0.00     0.015 C 
HETATM   10  C20 UNL     1      -4.138   7.086  14.357  1.00  0.00    -0.029 C 
HETATM   11  C21 UNL     1      -3.494   6.152  15.430  1.00  0.00     0.016 C 
HETATM   12  C22 UNL     1      -0.200   6.542  12.478  1.00  0.00    -0.015 C 
HETATM   13  C23 UNL     1       0.079   5.165  13.146  1.00  0.00     0.020 C 
HETATM   14  C24 UNL     1      -0.107   6.414  10.940  1.00  0.00     0.021 C 
HETATM   15  C25 UNL     1       1.221   5.847  10.451  1.00  0.00     0.080 C 
HETATM   16  C26 UNL     1       2.392   6.247  11.318  1.00  0.00     0.135 C 
HETATM   17  O4  UNL     1       3.428   5.582  11.294  1.00  0.00    -0.297 OA
HETATM   18  C27 UNL     1       2.263   7.536  12.135  1.00  0.00     0.018 C 
HETATM   19  C28 UNL     1       3.451   7.636  13.118  1.00  0.00     0.023 C 
HETATM   20  C29 UNL     1       2.412   8.691  11.119  1.00  0.00     0.023 C 
HETATM   21  C30 UNL     1       0.922   7.545  12.970  1.00  0.00     0.013 C 
HETATM   22  C31 UNL     1       0.379   8.974  13.134  1.00  0.00     0.011 C 
HETATM   23  C32 UNL     1      -0.807   9.011  14.082  1.00  0.00     0.036 C 
ENDROOT
BRANCH   1  24
HETATM   24  C9  UNL     1      -6.484   6.721  15.658  1.00  0.00     0.020 C 
HETATM   25  C10 UNL     1      -5.806   5.408  16.081  1.00  0.00     0.013 C 
BRANCH  24  26
HETATM   26  C3  UNL     1      -7.760   6.349  14.828  1.00  0.00     0.158 C 
BRANCH  26  27
HETATM   27  O2  UNL     1      -7.438   6.252  13.427  1.00  0.00    -0.312 OA
BRANCH  27  28
HETATM   28  C2  UNL     1      -8.043   5.259  12.721  1.00  0.00     0.255 C 
HETATM   29  C1  UNL     1      -7.694   3.928  13.314  1.00  0.00     0.126 C 
HETATM   30  O1  UNL     1      -8.793   5.406  11.766  1.00  0.00    -0.266 OA
ENDBRANCH  27  28
ENDBRANCH  26  27
BRANCH  26  31
HETATM   31  C4  UNL     1      -8.881   7.354  14.930  1.00  0.00     0.005 C 
HETATM   32  C5  UNL     1     -10.184   7.045  14.804  1.00  0.00     0.008 C 
BRANCH  32  33
HETATM   33  C6  UNL     1     -11.366   7.982  14.891  1.00  0.00     0.068 C 
HETATM   34  C7  UNL     1     -12.664   7.206  14.651  1.00  0.00     0.050 C 
HETATM   35  C8  UNL     1     -11.313   9.202  13.965  1.00  0.00     0.050 C 
BRANCH  33  36
HETATM   36  O3  UNL     1     -11.397   8.461  16.238  1.00  0.00    -0.387 OA
HETATM   37  H13 UNL     1     -10.538   8.888  16.406  1.00  0.00     0.211 HD
ENDBRANCH  33  36
ENDBRANCH  32  33
ENDBRANCH  26  31
ENDBRANCH  24  26
ENDBRANCH   1  24
TORSDOF 7
ENDMDL
