MODEL 1
REMARK minimizedAffinity -6.29179335
REMARK CNNscore 0.662273943
REMARK CNNaffinity 6.42288065
REMARK  12 active torsions:
REMARK  status: ('A' for Active; 'I' for Inactive)
REMARK    1  A    between atoms: C4_4  and  C5_5 
REMARK    2  A    between atoms: C5_5  and  C6_6 
REMARK    3  A    between atoms: C6_6  and  C7_7 
REMARK    4  A    between atoms: C9_9  and  C10_10 
REMARK    5  A    between atoms: C11_11  and  C12_12 
REMARK    6  A    between atoms: C14_14  and  C15_15 
REMARK    7  A    between atoms: C19_20  and  C20_21 
REMARK    8  A    between atoms: C20_21  and  C21_22 
REMARK    9  A    between atoms: C21_22  and  C22_23 
REMARK   10  A    between atoms: C22_23  and  O2_24 
REMARK   11  A    between atoms: C24_26  and  C26_28 
REMARK   12  A    between atoms: C29_32  and  O4_34 
ROOT
HETATM    1  C15 UNL     1      -8.901   7.124  15.715  1.00  0.00     0.145 C 
HETATM    2  C16 UNL     1      -7.773   7.858  14.986  1.00  0.00     0.051 C 
HETATM    3  C17 UNL     1      -6.751   6.771  14.614  1.00  0.00     0.022 C 
HETATM    4  C18 UNL     1      -6.993   5.812  15.791  1.00  0.00     0.181 C 
HETATM    5  O1  UNL     1      -8.408   5.804  16.017  1.00  0.00    -0.381 OA
HETATM    6  C19 UNL     1      -7.039   6.074  13.219  1.00  0.00     0.029 C 
HETATM    7  C23 UNL     1      -6.009   4.942  13.003  1.00  0.00    -0.066 C 
HETATM    8  C24 UNL     1      -6.179   3.595  12.984  1.00  0.00    -0.021 C 
HETATM    9  C25 UNL     1      -5.098   2.612  12.605  1.00  0.00     0.052 C 
HETATM   10  C27 UNL     1      -4.615   5.547  12.875  1.00  0.00     0.038 C 
HETATM   11  C28 UNL     1      -4.258   6.251  14.186  1.00  0.00     0.042 C 
HETATM   12  C29 UNL     1      -5.277   7.333  14.604  1.00  0.00     0.065 C 
HETATM   13  C30 UNL     1      -5.114   8.581  13.711  1.00  0.00     0.047 C 
ENDROOT
BRANCH   6  14
HETATM   14  C20 UNL     1      -8.520   5.821  12.835  1.00  0.00     0.012 C 
BRANCH  14  15
HETATM   15  C21 UNL     1      -8.892   6.074  11.362  1.00  0.00     0.027 C 
BRANCH  15  16
HETATM   16  C22 UNL     1     -10.228   6.775  11.140  1.00  0.00     0.164 C 
BRANCH  16  17
HETATM   17  O2  UNL     1     -10.771   7.200  12.381  1.00  0.00    -0.401 OA
HETATM   18  H34 UNL     1     -11.683   7.493  12.207  1.00  0.00     0.209 HD
ENDBRANCH  16  17
ENDBRANCH  15  16
ENDBRANCH  14  15
ENDBRANCH   6  14
BRANCH  12  19
HETATM   19  O4  UNL     1      -4.924   7.751  15.931  1.00  0.00    -0.389 OA
HETATM   20  H46 UNL     1      -4.042   8.163  15.905  1.00  0.00     0.210 HD
ENDBRANCH  12  19
BRANCH   1  21
HETATM   21  C14 UNL     1      -9.299   7.783  17.005  1.00  0.00     0.011 C 
HETATM   22  C12 UNL     1     -10.281   8.691  17.192  1.00  0.00    -0.063 C 
HETATM   23  C13 UNL     1     -11.139   9.225  16.074  1.00  0.00     0.048 C 
BRANCH  22  24
HETATM   24  C11 UNL     1     -10.514   9.203  18.543  1.00  0.00     0.006 C 
HETATM   25  C10 UNL     1     -11.680   9.648  19.041  1.00  0.00     0.001 C 
BRANCH  25  26
HETATM   26  C9  UNL     1     -11.806  10.148  20.395  1.00  0.00     0.002 C 
HETATM   27  C7  UNL     1     -11.266  11.275  20.903  1.00  0.00    -0.084 C 
HETATM   28  C8  UNL     1     -10.438  12.276  20.140  1.00  0.00     0.043 C 
BRANCH  27  29
HETATM   29  C6  UNL     1     -11.496  11.624  22.364  1.00  0.00     0.037 C 
BRANCH  29  30
HETATM   30  C5  UNL     1     -12.899  12.187  22.613  1.00  0.00     0.031 C 
BRANCH  30  31
HETATM   31  C4  UNL     1     -12.854  13.650  22.965  1.00  0.00    -0.024 C 
HETATM   32  C2  UNL     1     -12.784  14.191  24.198  1.00  0.00    -0.091 C 
HETATM   33  C1  UNL     1     -12.704  15.684  24.381  1.00  0.00     0.042 C 
HETATM   34  C3  UNL     1     -12.793  13.408  25.483  1.00  0.00     0.042 C 
ENDBRANCH  30  31
ENDBRANCH  29  30
ENDBRANCH  27  29
ENDBRANCH  25  26
ENDBRANCH  22  24
ENDBRANCH   1  21
BRANCH   8  35
HETATM   35  C26 UNL     1      -7.446   2.926  13.409  1.00  0.00     0.265 C 
HETATM   36  O3  UNL     1      -8.116   2.227  12.659  1.00  0.00    -0.302 OA
ENDBRANCH   8  35
TORSDOF 12
ENDMDL
MODEL 2
REMARK minimizedAffinity -7.22238445
REMARK CNNscore 0.528746128
REMARK CNNaffinity 6.32267904
REMARK  12 active torsions:
REMARK  status: ('A' for Active; 'I' for Inactive)
REMARK    1  A    between atoms: C4_4  and  C5_5 
REMARK    2  A    between atoms: C5_5  and  C6_6 
REMARK    3  A    between atoms: C6_6  and  C7_7 
REMARK    4  A    between atoms: C9_9  and  C10_10 
REMARK    5  A    between atoms: C11_11  and  C12_12 
REMARK    6  A    between atoms: C14_14  and  C15_15 
REMARK    7  A    between atoms: C19_20  and  C20_21 
REMARK    8  A    between atoms: C20_21  and  C21_22 
REMARK    9  A    between atoms: C21_22  and  C22_23 
REMARK   10  A    between atoms: C22_23  and  O2_24 
REMARK   11  A    between atoms: C24_26  and  C26_28 
REMARK   12  A    between atoms: C29_32  and  O4_34 
ROOT
HETATM    1  C15 UNL     1      -8.989   7.203  15.656  1.00  0.00     0.145 C 
HETATM    2  C16 UNL     1      -7.849   7.917  14.924  1.00  0.00     0.051 C 
HETATM    3  C17 UNL     1      -6.831   6.816  14.584  1.00  0.00     0.022 C 
HETATM    4  C18 UNL     1      -7.091   5.881  15.776  1.00  0.00     0.181 C 
HETATM    5  O1  UNL     1      -8.508   5.886  15.987  1.00  0.00    -0.381 OA
HETATM    6  C19 UNL     1      -7.110   6.095  13.199  1.00  0.00     0.029 C 
HETATM    7  C23 UNL     1      -6.084   4.952  13.014  1.00  0.00    -0.066 C 
HETATM    8  C24 UNL     1      -6.264   3.606  13.019  1.00  0.00    -0.021 C 
HETATM    9  C25 UNL     1      -5.185   2.610  12.670  1.00  0.00     0.052 C 
HETATM   10  C27 UNL     1      -4.686   5.546  12.890  1.00  0.00     0.038 C 
HETATM   11  C28 UNL     1      -4.337   6.272  14.190  1.00  0.00     0.042 C 
HETATM   12  C29 UNL     1      -5.353   7.368  14.578  1.00  0.00     0.065 C 
HETATM   13  C30 UNL     1      -5.173   8.598  13.663  1.00  0.00     0.047 C 
ENDROOT
BRANCH   6  14
HETATM   14  C20 UNL     1      -8.588   5.844  12.805  1.00  0.00     0.012 C 
BRANCH  14  15
HETATM   15  C21 UNL     1      -8.979   6.220  11.363  1.00  0.00     0.027 C 
BRANCH  15  16
HETATM   16  C22 UNL     1     -10.295   6.979  11.223  1.00  0.00     0.164 C 
BRANCH  16  17
HETATM   17  O2  UNL     1     -10.849   7.239  12.504  1.00  0.00    -0.401 OA
HETATM   18  H34 UNL     1     -11.751   7.577  12.360  1.00  0.00     0.209 HD
ENDBRANCH  16  17
ENDBRANCH  15  16
ENDBRANCH  14  15
ENDBRANCH   6  14
BRANCH  12  19
HETATM   19  O4  UNL     1      -5.011   7.809  15.900  1.00  0.00    -0.389 OA
HETATM   20  H46 UNL     1      -4.125   8.215  15.875  1.00  0.00     0.210 HD
ENDBRANCH  12  19
BRANCH   1  21
HETATM   21  C14 UNL     1      -9.396   7.889  16.929  1.00  0.00     0.011 C 
HETATM   22  C12 UNL     1     -10.376   8.804  17.090  1.00  0.00    -0.063 C 
HETATM   23  C13 UNL     1     -11.223   9.319  15.954  1.00  0.00     0.048 C 
BRANCH  22  24
HETATM   24  C11 UNL     1     -10.618   9.343  18.429  1.00  0.00     0.006 C 
HETATM   25  C10 UNL     1     -11.175  10.531  18.725  1.00  0.00     0.001 C 
BRANCH  25  26
HETATM   26  C9  UNL     1     -11.361  10.981  20.090  1.00  0.00     0.002 C 
HETATM   27  C7  UNL     1     -10.641  11.912  20.748  1.00  0.00    -0.084 C 
HETATM   28  C8  UNL     1      -9.500  12.710  20.175  1.00  0.00     0.043 C 
BRANCH  27  29
HETATM   29  C6  UNL     1     -10.979  12.236  22.194  1.00  0.00     0.037 C 
BRANCH  29  30
HETATM   30  C5  UNL     1     -10.433  11.187  23.168  1.00  0.00     0.031 C 
BRANCH  30  31
HETATM   31  C4  UNL     1     -11.504  10.689  24.102  1.00  0.00    -0.024 C 
HETATM   32  C2  UNL     1     -11.769   9.409  24.431  1.00  0.00    -0.091 C 
HETATM   33  C1  UNL     1     -12.857   9.078  25.419  1.00  0.00     0.042 C 
HETATM   34  C3  UNL     1     -11.057   8.210  23.867  1.00  0.00     0.042 C 
ENDBRANCH  30  31
ENDBRANCH  29  30
ENDBRANCH  27  29
ENDBRANCH  25  26
ENDBRANCH  22  24
ENDBRANCH   1  21
BRANCH   8  35
HETATM   35  C26 UNL     1      -7.540   2.954  13.444  1.00  0.00     0.265 C 
HETATM   36  O3  UNL     1      -8.158   2.171  12.733  1.00  0.00    -0.302 OA
ENDBRANCH   8  35
TORSDOF 12
ENDMDL
MODEL 3
REMARK minimizedAffinity -7.5831089
REMARK CNNscore 0.510348499
REMARK CNNaffinity 6.70875883
REMARK  12 active torsions:
REMARK  status: ('A' for Active; 'I' for Inactive)
REMARK    1  A    between atoms: C4_4  and  C5_5 
REMARK    2  A    between atoms: C5_5  and  C6_6 
REMARK    3  A    between atoms: C6_6  and  C7_7 
REMARK    4  A    between atoms: C9_9  and  C10_10 
REMARK    5  A    between atoms: C11_11  and  C12_12 
REMARK    6  A    between atoms: C14_14  and  C15_15 
REMARK    7  A    between atoms: C19_20  and  C20_21 
REMARK    8  A    between atoms: C20_21  and  C21_22 
REMARK    9  A    between atoms: C21_22  and  C22_23 
REMARK   10  A    between atoms: C22_23  and  O2_24 
REMARK   11  A    between atoms: C24_26  and  C26_28 
REMARK   12  A    between atoms: C29_32  and  O4_34 
ROOT
HETATM    1  C15 UNL     1     -10.790   6.845  13.850  1.00  0.00     0.145 C 
HETATM    2  C16 UNL     1     -10.926   8.025  14.816  1.00  0.00     0.051 C 
HETATM    3  C17 UNL     1     -11.998   8.938  14.197  1.00  0.00     0.022 C 
HETATM    4  C18 UNL     1     -11.742   8.626  12.714  1.00  0.00     0.181 C 
HETATM    5  O1  UNL     1     -11.478   7.219  12.640  1.00  0.00    -0.381 OA
HETATM    6  C19 UNL     1     -13.478   8.567  14.629  1.00  0.00     0.029 C 
HETATM    7  C23 UNL     1     -14.465   9.487  13.874  1.00  0.00    -0.066 C 
HETATM    8  C24 UNL     1     -15.362   9.193  12.897  1.00  0.00    -0.021 C 
HETATM    9  C25 UNL     1     -16.374  10.175  12.358  1.00  0.00     0.052 C 
HETATM   10  C27 UNL     1     -14.258  10.928  14.326  1.00  0.00     0.038 C 
HETATM   11  C28 UNL     1     -12.841  11.366  13.952  1.00  0.00     0.042 C 
HETATM   12  C29 UNL     1     -11.738  10.457  14.535  1.00  0.00     0.065 C 
HETATM   13  C30 UNL     1     -11.584  10.720  16.048  1.00  0.00     0.047 C 
ENDROOT
BRANCH   6  14
HETATM   14  C20 UNL     1     -13.825   7.064  14.785  1.00  0.00     0.012 C 
BRANCH  14  15
HETATM   15  C21 UNL     1     -14.800   6.707  15.923  1.00  0.00     0.027 C 
BRANCH  15  16
HETATM   16  C22 UNL     1     -15.064   7.824  16.927  1.00  0.00     0.164 C 
BRANCH  16  17
HETATM   17  O2  UNL     1     -13.985   7.922  17.847  1.00  0.00    -0.401 OA
HETATM   18  H34 UNL     1     -14.268   8.530  18.553  1.00  0.00     0.209 HD
ENDBRANCH  16  17
ENDBRANCH  15  16
ENDBRANCH  14  15
ENDBRANCH   6  14
BRANCH  12  19
HETATM   19  O4  UNL     1     -10.498  10.866  13.938  1.00  0.00    -0.389 OA
HETATM   20  H46 UNL     1     -10.307  11.781  14.209  1.00  0.00     0.210 HD
ENDBRANCH  12  19
BRANCH   1  21
HETATM   21  C14 UNL     1      -9.364   6.527  13.500  1.00  0.00     0.011 C 
HETATM   22  C12 UNL     1      -8.352   6.257  14.352  1.00  0.00    -0.063 C 
HETATM   23  C13 UNL     1      -8.508   6.266  15.852  1.00  0.00     0.048 C 
BRANCH  22  24
HETATM   24  C11 UNL     1      -7.031   5.959  13.799  1.00  0.00     0.006 C 
HETATM   25  C10 UNL     1      -6.550   4.744  13.482  1.00  0.00     0.001 C 
BRANCH  25  26
HETATM   26  C9  UNL     1      -5.217   4.552  12.948  1.00  0.00     0.002 C 
HETATM   27  C7  UNL     1      -4.828   3.644  12.029  1.00  0.00    -0.084 C 
HETATM   28  C8  UNL     1      -5.726   2.654  11.335  1.00  0.00     0.043 C 
BRANCH  27  29
HETATM   29  C6  UNL     1      -3.369   3.583  11.607  1.00  0.00     0.037 C 
BRANCH  29  30
HETATM   30  C5  UNL     1      -2.534   4.700  12.241  1.00  0.00     0.031 C 
BRANCH  30  31
HETATM   31  C4  UNL     1      -1.240   4.910  11.501  1.00  0.00    -0.024 C 
HETATM   32  C2  UNL     1      -0.031   5.183  12.032  1.00  0.00    -0.091 C 
HETATM   33  C1  UNL     1       1.183   5.325  11.150  1.00  0.00     0.042 C 
HETATM   34  C3  UNL     1       0.240   5.384  13.497  1.00  0.00     0.042 C 
ENDBRANCH  30  31
ENDBRANCH  29  30
ENDBRANCH  27  29
ENDBRANCH  25  26
ENDBRANCH  22  24
ENDBRANCH   1  21
BRANCH   8  35
HETATM   35  C26 UNL     1     -15.399   7.876  12.191  1.00  0.00     0.265 C 
HETATM   36  O3  UNL     1     -15.908   7.725  11.087  1.00  0.00    -0.302 OA
ENDBRANCH   8  35
TORSDOF 12
ENDMDL
MODEL 4
REMARK minimizedAffinity -6.26044369
REMARK CNNscore 0.483963341
REMARK CNNaffinity 6.04222298
REMARK  12 active torsions:
REMARK  status: ('A' for Active; 'I' for Inactive)
REMARK    1  A    between atoms: C4_4  and  C5_5 
REMARK    2  A    between atoms: C5_5  and  C6_6 
REMARK    3  A    between atoms: C6_6  and  C7_7 
REMARK    4  A    between atoms: C9_9  and  C10_10 
REMARK    5  A    between atoms: C11_11  and  C12_12 
REMARK    6  A    between atoms: C14_14  and  C15_15 
REMARK    7  A    between atoms: C19_20  and  C20_21 
REMARK    8  A    between atoms: C20_21  and  C21_22 
REMARK    9  A    between atoms: C21_22  and  C22_23 
REMARK   10  A    between atoms: C22_23  and  O2_24 
REMARK   11  A    between atoms: C24_26  and  C26_28 
REMARK   12  A    between atoms: C29_32  and  O4_34 
ROOT
HETATM    1  C15 UNL     1       5.871   9.506  13.383  1.00  0.00     0.145 C 
HETATM    2  C16 UNL     1       6.043   9.952  14.838  1.00  0.00     0.051 C 
HETATM    3  C17 UNL     1       7.553   9.867  15.114  1.00  0.00     0.022 C 
HETATM    4  C18 UNL     1       7.899   8.707  14.167  1.00  0.00     0.181 C 
HETATM    5  O1  UNL     1       7.120   8.913  12.982  1.00  0.00    -0.381 OA
HETATM    6  C19 UNL     1       8.346  11.188  14.740  1.00  0.00     0.029 C 
HETATM    7  C23 UNL     1       9.856  10.948  14.971  1.00  0.00    -0.066 C 
HETATM    8  C24 UNL     1      10.873  10.852  14.077  1.00  0.00    -0.021 C 
HETATM    9  C25 UNL     1      12.331  10.770  14.463  1.00  0.00     0.052 C 
HETATM   10  C27 UNL     1      10.109  10.729  16.458  1.00  0.00     0.038 C 
HETATM   11  C28 UNL     1       9.368   9.469  16.907  1.00  0.00     0.042 C 
HETATM   12  C29 UNL     1       7.852   9.508  16.621  1.00  0.00     0.065 C 
HETATM   13  C30 UNL     1       7.154  10.458  17.617  1.00  0.00     0.047 C 
ENDROOT
BRANCH   6  14
HETATM   14  C20 UNL     1       7.896  11.961  13.473  1.00  0.00     0.012 C 
BRANCH  14  15
HETATM   15  C21 UNL     1       6.950  13.154  13.706  1.00  0.00     0.027 C 
BRANCH  15  16
HETATM   16  C22 UNL     1       6.288  13.713  12.451  1.00  0.00     0.164 C 
BRANCH  16  17
HETATM   17  O2  UNL     1       5.565  12.691  11.781  1.00  0.00    -0.401 OA
HETATM   18  H34 UNL     1       5.298  13.052  10.917  1.00  0.00     0.209 HD
ENDBRANCH  16  17
ENDBRANCH  15  16
ENDBRANCH  14  15
ENDBRANCH   6  14
BRANCH  12  19
HETATM   19  O4  UNL     1       7.338   8.197  16.903  1.00  0.00    -0.389 OA
HETATM   20  H46 UNL     1       7.461   8.011  17.851  1.00  0.00     0.210 HD
ENDBRANCH  12  19
BRANCH   1  21
HETATM   21  C14 UNL     1       4.785   8.483  13.202  1.00  0.00     0.011 C 
HETATM   22  C12 UNL     1       3.460   8.709  13.077  1.00  0.00    -0.063 C 
HETATM   23  C13 UNL     1       2.844  10.084  13.136  1.00  0.00     0.048 C 
BRANCH  22  24
HETATM   24  C11 UNL     1       2.568   7.563  12.896  1.00  0.00     0.006 C 
HETATM   25  C10 UNL     1       1.477   7.274  13.626  1.00  0.00     0.001 C 
BRANCH  25  26
HETATM   26  C9  UNL     1       0.662   6.102  13.374  1.00  0.00     0.002 C 
HETATM   27  C7  UNL     1      -0.605   6.072  12.912  1.00  0.00    -0.084 C 
HETATM   28  C8  UNL     1      -1.430   7.271  12.526  1.00  0.00     0.043 C 
BRANCH  27  29
HETATM   29  C6  UNL     1      -1.304   4.735  12.730  1.00  0.00     0.037 C 
BRANCH  29  30
HETATM   30  C5  UNL     1      -2.829   4.862  12.802  1.00  0.00     0.031 C 
BRANCH  30  31
HETATM   31  C4  UNL     1      -3.513   3.727  12.088  1.00  0.00    -0.024 C 
HETATM   32  C2  UNL     1      -4.823   3.411  12.123  1.00  0.00    -0.091 C 
HETATM   33  C1  UNL     1      -5.360   2.260  11.313  1.00  0.00     0.042 C 
HETATM   34  C3  UNL     1      -5.859   4.125  12.948  1.00  0.00     0.042 C 
ENDBRANCH  30  31
ENDBRANCH  29  30
ENDBRANCH  27  29
ENDBRANCH  25  26
ENDBRANCH  22  24
ENDBRANCH   1  21
BRANCH   8  35
HETATM   35  C26 UNL     1      10.657  10.744  12.602  1.00  0.00     0.265 C 
HETATM   36  O3  UNL     1      11.577  10.724  11.793  1.00  0.00    -0.302 OA
ENDBRANCH   8  35
TORSDOF 12
ENDMDL
MODEL 5
REMARK minimizedAffinity -5.88841486
REMARK CNNscore 0.483594984
REMARK CNNaffinity 5.73931074
REMARK  12 active torsions:
REMARK  status: ('A' for Active; 'I' for Inactive)
REMARK    1  A    between atoms: C4_4  and  C5_5 
REMARK    2  A    between atoms: C5_5  and  C6_6 
REMARK    3  A    between atoms: C6_6  and  C7_7 
REMARK    4  A    between atoms: C9_9  and  C10_10 
REMARK    5  A    between atoms: C11_11  and  C12_12 
REMARK    6  A    between atoms: C14_14  and  C15_15 
REMARK    7  A    between atoms: C19_20  and  C20_21 
REMARK    8  A    between atoms: C20_21  and  C21_22 
REMARK    9  A    between atoms: C21_22  and  C22_23 
REMARK   10  A    between atoms: C22_23  and  O2_24 
REMARK   11  A    between atoms: C24_26  and  C26_28 
REMARK   12  A    between atoms: C29_32  and  O4_34 
ROOT
HETATM    1  C15 UNL     1     -15.276  -2.572  15.296  1.00  0.00     0.145 C 
HETATM    2  C16 UNL     1     -15.729  -3.381  14.078  1.00  0.00     0.051 C 
HETATM    3  C17 UNL     1     -14.624  -4.426  13.849  1.00  0.00     0.022 C 
HETATM    4  C18 UNL     1     -13.426  -3.618  14.375  1.00  0.00     0.181 C 
HETATM    5  O1  UNL     1     -13.896  -2.912  15.530  1.00  0.00    -0.381 OA
HETATM    6  C19 UNL     1     -14.834  -5.767  14.669  1.00  0.00     0.029 C 
HETATM    7  C23 UNL     1     -13.619  -6.694  14.433  1.00  0.00    -0.066 C 
HETATM    8  C24 UNL     1     -12.637  -7.083  15.285  1.00  0.00    -0.021 C 
HETATM    9  C25 UNL     1     -11.594  -8.123  14.953  1.00  0.00     0.052 C 
HETATM   10  C27 UNL     1     -13.584  -7.114  12.968  1.00  0.00     0.038 C 
HETATM   11  C28 UNL     1     -13.391  -5.870  12.099  1.00  0.00     0.042 C 
HETATM   12  C29 UNL     1     -14.468  -4.787  12.322  1.00  0.00     0.065 C 
HETATM   13  C30 UNL     1     -15.796  -5.224  11.667  1.00  0.00     0.047 C 
ENDROOT
BRANCH   6  14
HETATM   14  C20 UNL     1     -15.418  -5.649  16.101  1.00  0.00     0.012 C 
BRANCH  14  15
HETATM   15  C21 UNL     1     -16.504  -6.675  16.478  1.00  0.00     0.027 C 
BRANCH  15  16
HETATM   16  C22 UNL     1     -16.786  -6.804  17.971  1.00  0.00     0.164 C 
BRANCH  16  17
HETATM   17  O2  UNL     1     -15.594  -6.594  18.715  1.00  0.00    -0.401 OA
HETATM   18  H34 UNL     1     -15.788  -6.841  19.637  1.00  0.00     0.209 HD
ENDBRANCH  16  17
ENDBRANCH  15  16
ENDBRANCH  14  15
ENDBRANCH   6  14
BRANCH  12  19
HETATM   19  O4  UNL     1     -14.043  -3.619  11.604  1.00  0.00    -0.389 OA
HETATM   20  H46 UNL     1     -14.018  -3.828  10.652  1.00  0.00     0.210 HD
ENDBRANCH  12  19
BRANCH   1  21
HETATM   21  C14 UNL     1     -15.366  -1.087  15.087  1.00  0.00     0.011 C 
HETATM   22  C12 UNL     1     -15.613  -0.436  13.930  1.00  0.00    -0.063 C 
HETATM   23  C13 UNL     1     -15.814  -1.138  12.611  1.00  0.00     0.048 C 
BRANCH  22  24
HETATM   24  C11 UNL     1     -15.670   1.026  13.948  1.00  0.00     0.006 C 
HETATM   25  C10 UNL     1     -14.995   1.844  14.774  1.00  0.00     0.001 C 
BRANCH  25  26
HETATM   26  C9  UNL     1     -15.130   3.286  14.720  1.00  0.00     0.002 C 
HETATM   27  C7  UNL     1     -16.123   4.033  15.244  1.00  0.00    -0.084 C 
HETATM   28  C8  UNL     1     -17.293   3.513  16.036  1.00  0.00     0.043 C 
BRANCH  27  29
HETATM   29  C6  UNL     1     -16.098   5.542  15.065  1.00  0.00     0.037 C 
BRANCH  29  30
HETATM   30  C5  UNL     1     -14.752   6.154  15.466  1.00  0.00     0.031 C 
BRANCH  30  31
HETATM   31  C4  UNL     1     -13.928   6.516  14.259  1.00  0.00    -0.024 C 
HETATM   32  C2  UNL     1     -13.019   7.506  14.159  1.00  0.00    -0.091 C 
HETATM   33  C1  UNL     1     -12.244   7.714  12.883  1.00  0.00     0.042 C 
HETATM   34  C3  UNL     1     -12.691   8.488  15.250  1.00  0.00     0.042 C 
ENDBRANCH  30  31
ENDBRANCH  29  30
ENDBRANCH  27  29
ENDBRANCH  25  26
ENDBRANCH  22  24
ENDBRANCH   1  21
BRANCH   8  35
HETATM   35  C26 UNL     1     -12.433  -6.469  16.632  1.00  0.00     0.265 C 
HETATM   36  O3  UNL     1     -11.462  -5.776  16.910  1.00  0.00    -0.302 OA
ENDBRANCH   8  35
TORSDOF 12
ENDMDL
MODEL 6
REMARK minimizedAffinity -6.05645609
REMARK CNNscore 0.4685013
REMARK CNNaffinity 5.88224268
REMARK  12 active torsions:
REMARK  status: ('A' for Active; 'I' for Inactive)
REMARK    1  A    between atoms: C4_4  and  C5_5 
REMARK    2  A    between atoms: C5_5  and  C6_6 
REMARK    3  A    between atoms: C6_6  and  C7_7 
REMARK    4  A    between atoms: C9_9  and  C10_10 
REMARK    5  A    between atoms: C11_11  and  C12_12 
REMARK    6  A    between atoms: C14_14  and  C15_15 
REMARK    7  A    between atoms: C19_20  and  C20_21 
REMARK    8  A    between atoms: C20_21  and  C21_22 
REMARK    9  A    between atoms: C21_22  and  C22_23 
REMARK   10  A    between atoms: C22_23  and  O2_24 
REMARK   11  A    between atoms: C24_26  and  C26_28 
REMARK   12  A    between atoms: C29_32  and  O4_34 
ROOT
HETATM    1  C15 UNL     1       6.406  11.593  20.885  1.00  0.00     0.145 C 
HETATM    2  C16 UNL     1       5.576  12.483  21.814  1.00  0.00     0.051 C 
HETATM    3  C17 UNL     1       4.270  12.763  21.051  1.00  0.00     0.022 C 
HETATM    4  C18 UNL     1       4.823  12.712  19.617  1.00  0.00     0.181 C 
HETATM    5  O1  UNL     1       5.773  11.639  19.593  1.00  0.00    -0.381 OA
HETATM    6  C19 UNL     1       3.146  11.669  21.288  1.00  0.00     0.029 C 
HETATM    7  C23 UNL     1       1.926  12.006  20.400  1.00  0.00    -0.066 C 
HETATM    8  C24 UNL     1       1.426  11.358  19.317  1.00  0.00    -0.021 C 
HETATM    9  C25 UNL     1       0.127  11.723  18.640  1.00  0.00     0.052 C 
HETATM   10  C27 UNL     1       1.316  13.325  20.863  1.00  0.00     0.038 C 
HETATM   11  C28 UNL     1       2.344  14.441  20.675  1.00  0.00     0.042 C 
HETATM   12  C29 UNL     1       3.679  14.181  21.406  1.00  0.00     0.065 C 
HETATM   13  C30 UNL     1       3.497  14.396  22.924  1.00  0.00     0.047 C 
ENDROOT
BRANCH   6  14
HETATM   14  C20 UNL     1       3.597  10.191  21.411  1.00  0.00     0.012 C 
BRANCH  14  15
HETATM   15  C21 UNL     1       3.646   9.612  22.837  1.00  0.00     0.027 C 
BRANCH  15  16
HETATM   16  C22 UNL     1       2.442   8.765  23.236  1.00  0.00     0.164 C 
BRANCH  16  17
HETATM   17  O2  UNL     1       1.998   7.992  22.131  1.00  0.00    -0.401 OA
HETATM   18  H34 UNL     1       1.145   7.597  22.385  1.00  0.00     0.209 HD
ENDBRANCH  16  17
ENDBRANCH  15  16
ENDBRANCH  14  15
ENDBRANCH   6  14
BRANCH  12  19
HETATM   19  O4  UNL     1       4.598  15.196  20.974  1.00  0.00    -0.389 OA
HETATM   20  H46 UNL     1       4.262  16.064  21.260  1.00  0.00     0.210 HD
ENDBRANCH  12  19
BRANCH   1  21
HETATM   21  C14 UNL     1       7.826  12.062  20.730  1.00  0.00     0.011 C 
HETATM   22  C12 UNL     1       8.772  12.142  21.690  1.00  0.00    -0.063 C 
HETATM   23  C13 UNL     1       8.520  11.786  23.133  1.00  0.00     0.048 C 
BRANCH  22  24
HETATM   24  C11 UNL     1      10.106  12.618  21.321  1.00  0.00     0.006 C 
HETATM   25  C10 UNL     1      10.871  12.156  20.317  1.00  0.00     0.001 C 
BRANCH  25  26
HETATM   26  C9  UNL     1      12.190  12.688  20.038  1.00  0.00     0.002 C 
HETATM   27  C7  UNL     1      12.951  12.455  18.950  1.00  0.00    -0.084 C 
HETATM   28  C8  UNL     1      12.561  11.608  17.767  1.00  0.00     0.043 C 
BRANCH  27  29
HETATM   29  C6  UNL     1      14.327  13.093  18.847  1.00  0.00     0.037 C 
BRANCH  29  30
HETATM   30  C5  UNL     1      15.151  12.907  20.126  1.00  0.00     0.031 C 
BRANCH  30  31
HETATM   31  C4  UNL     1      16.512  13.539  20.003  1.00  0.00    -0.024 C 
HETATM   32  C2  UNL     1      17.682  12.915  19.758  1.00  0.00    -0.091 C 
HETATM   33  C1  UNL     1      18.960  13.702  19.624  1.00  0.00     0.042 C 
HETATM   34  C3  UNL     1      17.851  11.428  19.611  1.00  0.00     0.042 C 
ENDBRANCH  30  31
ENDBRANCH  29  30
ENDBRANCH  27  29
ENDBRANCH  25  26
ENDBRANCH  22  24
ENDBRANCH   1  21
BRANCH   8  35
HETATM   35  C26 UNL     1       2.149  10.248  18.624  1.00  0.00     0.265 C 
HETATM   36  O3  UNL     1       3.009  10.440  17.773  1.00  0.00    -0.302 OA
ENDBRANCH   8  35
TORSDOF 12
ENDMDL
MODEL 7
REMARK minimizedAffinity -7.60358858
REMARK CNNscore 0.46562773
REMARK CNNaffinity 6.82676506
REMARK  12 active torsions:
REMARK  status: ('A' for Active; 'I' for Inactive)
REMARK    1  A    between atoms: C4_4  and  C5_5 
REMARK    2  A    between atoms: C5_5  and  C6_6 
REMARK    3  A    between atoms: C6_6  and  C7_7 
REMARK    4  A    between atoms: C9_9  and  C10_10 
REMARK    5  A    between atoms: C11_11  and  C12_12 
REMARK    6  A    between atoms: C14_14  and  C15_15 
REMARK    7  A    between atoms: C19_20  and  C20_21 
REMARK    8  A    between atoms: C20_21  and  C21_22 
REMARK    9  A    between atoms: C21_22  and  C22_23 
REMARK   10  A    between atoms: C22_23  and  O2_24 
REMARK   11  A    between atoms: C24_26  and  C26_28 
REMARK   12  A    between atoms: C29_32  and  O4_34 
ROOT
HETATM    1  C15 UNL     1     -10.666   6.769  13.659  1.00  0.00     0.145 C 
HETATM    2  C16 UNL     1     -10.782   7.879  14.706  1.00  0.00     0.051 C 
HETATM    3  C17 UNL     1     -11.877   8.823  14.180  1.00  0.00     0.022 C 
HETATM    4  C18 UNL     1     -11.661   8.614  12.673  1.00  0.00     0.181 C 
HETATM    5  O1  UNL     1     -11.390   7.218  12.497  1.00  0.00    -0.381 OA
HETATM    6  C19 UNL     1     -13.342   8.412  14.627  1.00  0.00     0.029 C 
HETATM    7  C23 UNL     1     -14.356   9.372  13.963  1.00  0.00    -0.066 C 
HETATM    8  C24 UNL     1     -15.277   9.138  12.993  1.00  0.00    -0.021 C 
HETATM    9  C25 UNL     1     -16.310  10.145  12.550  1.00  0.00     0.052 C 
HETATM   10  C27 UNL     1     -14.145  10.781  14.506  1.00  0.00     0.038 C 
HETATM   11  C28 UNL     1     -12.741  11.255  14.123  1.00  0.00     0.042 C 
HETATM   12  C29 UNL     1     -11.617  10.317  14.612  1.00  0.00     0.065 C 
HETATM   13  C30 UNL     1     -11.423  10.480  16.135  1.00  0.00     0.047 C 
ENDROOT
BRANCH   6  14
HETATM   14  C20 UNL     1     -13.676   6.899  14.690  1.00  0.00     0.012 C 
BRANCH  14  15
HETATM   15  C21 UNL     1     -14.833   6.497  15.623  1.00  0.00     0.027 C 
BRANCH  15  16
HETATM   16  C22 UNL     1     -15.859   5.547  15.015  1.00  0.00     0.164 C 
BRANCH  16  17
HETATM   17  O2  UNL     1     -15.328   4.232  14.943  1.00  0.00    -0.401 OA
HETATM   18  H34 UNL     1     -15.948   3.704  14.409  1.00  0.00     0.209 HD
ENDBRANCH  16  17
ENDBRANCH  15  16
ENDBRANCH  14  15
ENDBRANCH   6  14
BRANCH  12  19
HETATM   19  O4  UNL     1     -10.397  10.776  14.011  1.00  0.00    -0.389 OA
HETATM   20  H46 UNL     1     -10.205  11.673  14.338  1.00  0.00     0.210 HD
ENDBRANCH  12  19
BRANCH   1  21
HETATM   21  C14 UNL     1      -9.248   6.486  13.249  1.00  0.00     0.011 C 
HETATM   22  C12 UNL     1      -8.214   6.155  14.052  1.00  0.00    -0.063 C 
HETATM   23  C13 UNL     1      -8.331   6.046  15.551  1.00  0.00     0.048 C 
BRANCH  22  24
HETATM   24  C11 UNL     1      -6.906   5.909  13.444  1.00  0.00     0.006 C 
HETATM   25  C10 UNL     1      -6.193   4.771  13.511  1.00  0.00     0.001 C 
BRANCH  25  26
HETATM   26  C9  UNL     1      -4.896   4.630  12.882  1.00  0.00     0.002 C 
HETATM   27  C7  UNL     1      -4.569   3.815  11.858  1.00  0.00    -0.084 C 
HETATM   28  C8  UNL     1      -5.514   2.898  11.127  1.00  0.00     0.043 C 
BRANCH  27  29
HETATM   29  C6  UNL     1      -3.139   3.794  11.344  1.00  0.00     0.037 C 
BRANCH  29  30
HETATM   30  C5  UNL     1      -2.260   4.846  12.028  1.00  0.00     0.031 C 
BRANCH  30  31
HETATM   31  C4  UNL     1      -0.911   4.953  11.369  1.00  0.00    -0.024 C 
HETATM   32  C2  UNL     1       0.269   5.219  11.963  1.00  0.00    -0.091 C 
HETATM   33  C1  UNL     1       1.545   5.251  11.163  1.00  0.00     0.042 C 
HETATM   34  C3  UNL     1       0.448   5.516  13.427  1.00  0.00     0.042 C 
ENDBRANCH  30  31
ENDBRANCH  29  30
ENDBRANCH  27  29
ENDBRANCH  25  26
ENDBRANCH  22  24
ENDBRANCH   1  21
BRANCH   8  35
HETATM   35  C26 UNL     1     -15.326   7.871  12.201  1.00  0.00     0.265 C 
HETATM   36  O3  UNL     1     -15.892   7.783  11.119  1.00  0.00    -0.302 OA
ENDBRANCH   8  35
TORSDOF 12
ENDMDL
MODEL 8
REMARK minimizedAffinity -6.55181742
REMARK CNNscore 0.431738734
REMARK CNNaffinity 6.43527985
REMARK  12 active torsions:
REMARK  status: ('A' for Active; 'I' for Inactive)
REMARK    1  A    between atoms: C4_4  and  C5_5 
REMARK    2  A    between atoms: C5_5  and  C6_6 
REMARK    3  A    between atoms: C6_6  and  C7_7 
REMARK    4  A    between atoms: C9_9  and  C10_10 
REMARK    5  A    between atoms: C11_11  and  C12_12 
REMARK    6  A    between atoms: C14_14  and  C15_15 
REMARK    7  A    between atoms: C19_20  and  C20_21 
REMARK    8  A    between atoms: C20_21  and  C21_22 
REMARK    9  A    between atoms: C21_22  and  C22_23 
REMARK   10  A    between atoms: C22_23  and  O2_24 
REMARK   11  A    between atoms: C24_26  and  C26_28 
REMARK   12  A    between atoms: C29_32  and  O4_34 
ROOT
HETATM    1  C15 UNL     1     -13.370   8.977  13.532  1.00  0.00     0.145 C 
HETATM    2  C16 UNL     1     -13.496  10.290  14.309  1.00  0.00     0.051 C 
HETATM    3  C17 UNL     1     -14.402  11.187  13.448  1.00  0.00     0.022 C 
HETATM    4  C18 UNL     1     -14.017  10.646  12.062  1.00  0.00     0.181 C 
HETATM    5  O1  UNL     1     -13.882   9.227  12.209  1.00  0.00    -0.381 OA
HETATM    6  C19 UNL     1     -15.949  11.000  13.743  1.00  0.00     0.029 C 
HETATM    7  C23 UNL     1     -16.756  11.878  12.758  1.00  0.00    -0.066 C 
HETATM    8  C24 UNL     1     -17.565  11.519  11.728  1.00  0.00    -0.021 C 
HETATM    9  C25 UNL     1     -18.414  12.491  10.944  1.00  0.00     0.052 C 
HETATM   10  C27 UNL     1     -16.462  13.348  13.036  1.00  0.00     0.038 C 
HETATM   11  C28 UNL     1     -14.978  13.614  12.782  1.00  0.00     0.042 C 
HETATM   12  C29 UNL     1     -14.037  12.713  13.609  1.00  0.00     0.065 C 
HETATM   13  C30 UNL     1     -14.025  13.177  15.082  1.00  0.00     0.047 C 
ENDROOT
BRANCH   6  14
HETATM   14  C20 UNL     1     -16.454   9.568  14.055  1.00  0.00     0.012 C 
BRANCH  14  15
HETATM   15  C21 UNL     1     -16.868   8.715  12.841  1.00  0.00     0.027 C 
BRANCH  15  16
HETATM   16  C22 UNL     1     -16.525   7.232  12.941  1.00  0.00     0.164 C 
BRANCH  16  17
HETATM   17  O2  UNL     1     -15.969   6.773  11.718  1.00  0.00    -0.401 OA
HETATM   18  H34 UNL     1     -15.917   5.803  11.776  1.00  0.00     0.209 HD
ENDBRANCH  16  17
ENDBRANCH  15  16
ENDBRANCH  14  15
ENDBRANCH   6  14
BRANCH  12  19
HETATM   19  O4  UNL     1     -12.706  12.932  13.118  1.00  0.00    -0.389 OA
HETATM   20  H46 UNL     1     -12.459  13.859  13.286  1.00  0.00     0.210 HD
ENDBRANCH  12  19
BRANCH   1  21
HETATM   21  C14 UNL     1     -11.950   8.500  13.403  1.00  0.00     0.011 C 
HETATM   22  C12 UNL     1     -11.468   7.274  13.702  1.00  0.00    -0.063 C 
HETATM   23  C13 UNL     1     -12.318   6.164  14.264  1.00  0.00     0.048 C 
BRANCH  22  24
HETATM   24  C11 UNL     1     -10.044   7.012  13.490  1.00  0.00     0.006 C 
HETATM   25  C10 UNL     1      -9.179   6.514  14.390  1.00  0.00     0.001 C 
BRANCH  25  26
HETATM   26  C9  UNL     1      -7.778   6.301  14.086  1.00  0.00     0.002 C 
HETATM   27  C7  UNL     1      -7.215   5.192  13.565  1.00  0.00    -0.084 C 
HETATM   28  C8  UNL     1      -7.948   3.942  13.155  1.00  0.00     0.043 C 
BRANCH  27  29
HETATM   29  C6  UNL     1      -5.713   5.152  13.334  1.00  0.00     0.037 C 
BRANCH  29  30
HETATM   30  C5  UNL     1      -5.269   3.870  12.620  1.00  0.00     0.031 C 
BRANCH  30  31
HETATM   31  C4  UNL     1      -3.813   3.925  12.241  1.00  0.00    -0.024 C 
HETATM   32  C2  UNL     1      -3.046   2.907  11.802  1.00  0.00    -0.091 C 
HETATM   33  C1  UNL     1      -1.606   3.137  11.422  1.00  0.00     0.042 C 
HETATM   34  C3  UNL     1      -3.506   1.482  11.657  1.00  0.00     0.042 C 
ENDBRANCH  30  31
ENDBRANCH  29  30
ENDBRANCH  27  29
ENDBRANCH  25  26
ENDBRANCH  22  24
ENDBRANCH   1  21
BRANCH   8  35
HETATM   35  C26 UNL     1     -17.650  10.122  11.204  1.00  0.00     0.265 C 
HETATM   36  O3  UNL     1     -17.163   9.780  10.133  1.00  0.00    -0.302 OA
ENDBRANCH   8  35
TORSDOF 12
ENDMDL
MODEL 9
REMARK minimizedAffinity -7.5025382
REMARK CNNscore 0.410327673
REMARK CNNaffinity 7.06558561
REMARK  12 active torsions:
REMARK  status: ('A' for Active; 'I' for Inactive)
REMARK    1  A    between atoms: C4_4  and  C5_5 
REMARK    2  A    between atoms: C5_5  and  C6_6 
REMARK    3  A    between atoms: C6_6  and  C7_7 
REMARK    4  A    between atoms: C9_9  and  C10_10 
REMARK    5  A    between atoms: C11_11  and  C12_12 
REMARK    6  A    between atoms: C14_14  and  C15_15 
REMARK    7  A    between atoms: C19_20  and  C20_21 
REMARK    8  A    between atoms: C20_21  and  C21_22 
REMARK    9  A    between atoms: C21_22  and  C22_23 
REMARK   10  A    between atoms: C22_23  and  O2_24 
REMARK   11  A    between atoms: C24_26  and  C26_28 
REMARK   12  A    between atoms: C29_32  and  O4_34 
ROOT
HETATM    1  C15 UNL     1     -10.883   6.949  13.939  1.00  0.00     0.145 C 
HETATM    2  C16 UNL     1     -11.097   8.115  14.907  1.00  0.00     0.051 C 
HETATM    3  C17 UNL     1     -12.208   8.971  14.275  1.00  0.00     0.022 C 
HETATM    4  C18 UNL     1     -11.913   8.680  12.795  1.00  0.00     0.181 C 
HETATM    5  O1  UNL     1     -11.571   7.290  12.721  1.00  0.00    -0.381 OA
HETATM    6  C19 UNL     1     -13.672   8.518  14.683  1.00  0.00     0.029 C 
HETATM    7  C23 UNL     1     -14.697   9.386  13.915  1.00  0.00    -0.066 C 
HETATM    8  C24 UNL     1     -15.561   9.048  12.924  1.00  0.00    -0.021 C 
HETATM    9  C25 UNL     1     -16.617   9.975  12.373  1.00  0.00     0.052 C 
HETATM   10  C27 UNL     1     -14.575  10.834  14.376  1.00  0.00     0.038 C 
HETATM   11  C28 UNL     1     -13.179  11.351  14.025  1.00  0.00     0.042 C 
HETATM   12  C29 UNL     1     -12.037  10.500  14.622  1.00  0.00     0.065 C 
HETATM   13  C30 UNL     1     -11.921  10.766  16.138  1.00  0.00     0.047 C 
ENDROOT
BRANCH   6  14
HETATM   14  C20 UNL     1     -13.939   6.998  14.829  1.00  0.00     0.012 C 
BRANCH  14  15
HETATM   15  C21 UNL     1     -14.922   6.585  15.941  1.00  0.00     0.027 C 
BRANCH  15  16
HETATM   16  C22 UNL     1     -16.124   5.771  15.476  1.00  0.00     0.164 C 
BRANCH  16  17
HETATM   17  O2  UNL     1     -16.679   5.049  16.566  1.00  0.00    -0.401 OA
HETATM   18  H34 UNL     1     -17.333   4.430  16.194  1.00  0.00     0.209 HD
ENDBRANCH  16  17
ENDBRANCH  15  16
ENDBRANCH  14  15
ENDBRANCH   6  14
BRANCH  12  19
HETATM   19  O4  UNL     1     -10.812  10.979  14.045  1.00  0.00    -0.389 OA
HETATM   20  H46 UNL     1     -10.676  11.903  14.323  1.00  0.00     0.210 HD
ENDBRANCH  12  19
BRANCH   1  21
HETATM   21  C14 UNL     1      -9.436   6.711  13.610  1.00  0.00     0.011 C 
HETATM   22  C12 UNL     1      -8.405   6.611  14.476  1.00  0.00    -0.063 C 
HETATM   23  C13 UNL     1      -8.559   6.762  15.968  1.00  0.00     0.048 C 
BRANCH  22  24
HETATM   24  C11 UNL     1      -7.065   6.363  13.943  1.00  0.00     0.006 C 
HETATM   25  C10 UNL     1      -6.190   5.438  14.374  1.00  0.00     0.001 C 
BRANCH  25  26
HETATM   26  C9  UNL     1      -4.875   5.279  13.786  1.00  0.00     0.002 C 
HETATM   27  C7  UNL     1      -4.531   4.470  12.763  1.00  0.00    -0.084 C 
HETATM   28  C8  UNL     1      -5.467   3.579  11.990  1.00  0.00     0.043 C 
BRANCH  27  29
HETATM   29  C6  UNL     1      -3.085   4.427  12.296  1.00  0.00     0.037 C 
BRANCH  29  30
HETATM   30  C5  UNL     1      -2.957   3.966  10.841  1.00  0.00     0.031 C 
BRANCH  30  31
HETATM   31  C4  UNL     1      -1.858   2.950  10.677  1.00  0.00    -0.024 C 
HETATM   32  C2  UNL     1      -1.909   1.637  10.980  1.00  0.00    -0.091 C 
HETATM   33  C1  UNL     1      -0.727   0.740  10.716  1.00  0.00     0.042 C 
HETATM   34  C3  UNL     1      -3.088   0.942  11.602  1.00  0.00     0.042 C 
ENDBRANCH  30  31
ENDBRANCH  29  30
ENDBRANCH  27  29
ENDBRANCH  25  26
ENDBRANCH  22  24
ENDBRANCH   1  21
BRANCH   8  35
HETATM   35  C26 UNL     1     -15.515   7.734  12.213  1.00  0.00     0.265 C 
HETATM   36  O3  UNL     1     -16.004   7.558  11.104  1.00  0.00    -0.302 OA
ENDBRANCH   8  35
TORSDOF 12
ENDMDL
