MODEL 1
REMARK minimizedAffinity -8.3776207
REMARK CNNscore 0.550783038
REMARK CNNaffinity 7.40204
REMARK  6 active torsions:
REMARK  status: ('A' for Active; 'I' for Inactive)
REMARK    1  A    between atoms: C2_2  and  C4_4 
REMARK    2  A    between atoms: C4_4  and  O1_5 
REMARK    3  A    between atoms: C4_4  and  C5_6 
REMARK    4  A    between atoms: C5_6  and  C6_7 
REMARK    5  A    between atoms: C6_7  and  C7_8 
REMARK    6  A    between atoms: C7_8  and  C9_10 
ROOT
HETATM    1  C9  UNL     1       0.082   6.640  12.580  1.00  0.00    -0.001 C 
HETATM    2  C10 UNL     1       0.351   5.448  13.541  1.00  0.00     0.007 C 
HETATM    3  C11 UNL     1      -0.902   5.275  14.422  1.00  0.00     0.024 C 
HETATM    4  C12 UNL     1      -1.906   6.250  13.851  1.00  0.00     0.092 C 
HETATM    5  C13 UNL     1      -2.742   5.607  12.711  1.00  0.00     0.272 C 
HETATM    6  O2  UNL     1      -2.430   4.680  11.983  1.00  0.00    -0.264 OA
HETATM    7  O3  UNL     1      -3.954   6.269  12.632  1.00  0.00    -0.305 OA
HETATM    8  C14 UNL     1      -3.994   7.296  13.651  1.00  0.00     0.113 C 
HETATM    9  C15 UNL     1      -3.351   8.572  13.020  1.00  0.00     0.043 C 
HETATM   10  C16 UNL     1      -1.959   8.309  12.380  1.00  0.00     0.014 C 
HETATM   11  C17 UNL     1      -1.053   7.440  13.292  1.00  0.00    -0.020 C 
HETATM   12  C18 UNL     1      -0.483   8.350  14.403  1.00  0.00     0.017 C 
HETATM   13  C19 UNL     1      -3.043   6.730  14.665  1.00  0.00     0.137 A 
HETATM   14  O4  UNL     1      -2.872   7.333  15.933  1.00  0.00    -0.364 OA
HETATM   15  C20 UNL     1      -3.521   6.044  15.925  1.00  0.00     0.162 A 
HETATM   16  C21 UNL     1      -4.976   6.063  16.276  1.00  0.00     0.042 C 
HETATM   17  C22 UNL     1      -5.836   6.155  14.996  1.00  0.00     0.014 C 
HETATM   18  C23 UNL     1      -7.358   5.856  15.206  1.00  0.00     0.018 C 
HETATM   19  C24 UNL     1      -7.550   4.375  15.605  1.00  0.00     0.023 C 
HETATM   20  C25 UNL     1      -8.045   6.730  16.263  1.00  0.00     0.023 C 
HETATM   21  C26 UNL     1      -8.107   6.039  13.877  1.00  0.00     0.135 C 
HETATM   22  O5  UNL     1      -9.330   5.907  13.794  1.00  0.00    -0.297 OA
HETATM   23  C27 UNL     1      -7.280   6.371  12.661  1.00  0.00     0.080 C 
HETATM   24  C28 UNL     1      -6.464   7.619  12.965  1.00  0.00     0.020 C 
HETATM   25  C29 UNL     1      -5.477   7.459  14.168  1.00  0.00    -0.004 C 
HETATM   26  C30 UNL     1      -5.583   8.758  15.010  1.00  0.00     0.019 C 
ENDROOT
BRANCH   1  27
HETATM   27  C7  UNL     1       1.378   7.303  12.021  1.00  0.00    -0.014 C 
HETATM   28  C8  UNL     1       1.198   8.573  11.181  1.00  0.00     0.010 C 
BRANCH  27  29
HETATM   29  C6  UNL     1       2.260   6.274  11.283  1.00  0.00     0.007 C 
BRANCH  29  30
HETATM   30  C5  UNL     1       1.894   5.949   9.822  1.00  0.00     0.036 C 
BRANCH  30  31
HETATM   31  C4  UNL     1       2.978   6.318   8.793  1.00  0.00     0.146 C 
BRANCH  31  32
HETATM   32  C2  UNL     1       2.635   7.444   7.833  1.00  0.00    -0.065 C 
HETATM   33  C1  UNL     1       3.035   8.722   7.959  1.00  0.00     0.016 C 
HETATM   34  C3  UNL     1       1.770   7.033   6.667  1.00  0.00     0.045 C 
ENDBRANCH  31  32
BRANCH  31  35
HETATM   35  O1  UNL     1       4.166   6.715   9.471  1.00  0.00    -0.391 OA
HETATM   36  H7  UNL     1       3.974   7.574   9.887  1.00  0.00     0.210 HD
ENDBRANCH  31  35
ENDBRANCH  30  31
ENDBRANCH  29  30
ENDBRANCH  27  29
ENDBRANCH   1  27
TORSDOF 6
ENDMDL
MODEL 2
REMARK minimizedAffinity -6.48654461
REMARK CNNscore 0.380983949
REMARK CNNaffinity 6.36914062
REMARK  6 active torsions:
REMARK  status: ('A' for Active; 'I' for Inactive)
REMARK    1  A    between atoms: C2_2  and  C4_4 
REMARK    2  A    between atoms: C4_4  and  O1_5 
REMARK    3  A    between atoms: C4_4  and  C5_6 
REMARK    4  A    between atoms: C5_6  and  C6_7 
REMARK    5  A    between atoms: C6_7  and  C7_8 
REMARK    6  A    between atoms: C7_8  and  C9_10 
ROOT
HETATM    1  C9  UNL     1      -3.210  12.569  16.993  1.00  0.00    -0.001 C 
HETATM    2  C10 UNL     1      -1.850  13.192  17.417  1.00  0.00     0.007 C 
HETATM    3  C11 UNL     1      -0.735  12.285  16.861  1.00  0.00     0.024 C 
HETATM    4  C12 UNL     1      -1.460  11.267  16.013  1.00  0.00     0.092 C 
HETATM    5  C13 UNL     1      -1.642  11.765  14.553  1.00  0.00     0.272 C 
HETATM    6  O2  UNL     1      -1.687  12.916  14.154  1.00  0.00    -0.264 OA
HETATM    7  O3  UNL     1      -1.755  10.662  13.726  1.00  0.00    -0.305 OA
HETATM    8  C14 UNL     1      -1.641   9.462  14.528  1.00  0.00     0.113 C 
HETATM    9  C15 UNL     1      -3.082   9.127  15.031  1.00  0.00     0.043 C 
HETATM   10  C16 UNL     1      -3.792  10.330  15.712  1.00  0.00     0.014 C 
HETATM   11  C17 UNL     1      -2.857  11.077  16.699  1.00  0.00    -0.020 C 
HETATM   12  C18 UNL     1      -2.782  10.252  18.003  1.00  0.00     0.017 C 
HETATM   13  C19 UNL     1      -0.833   9.968  15.687  1.00  0.00     0.137 A 
HETATM   14  O4  UNL     1      -0.338   9.090  16.679  1.00  0.00    -0.364 OA
HETATM   15  C20 UNL     1       0.649   9.697  15.817  1.00  0.00     0.162 A 
HETATM   16  C21 UNL     1       1.320   8.759  14.862  1.00  0.00     0.042 C 
HETATM   17  C22 UNL     1       0.586   8.761  13.502  1.00  0.00     0.014 C 
HETATM   18  C23 UNL     1       1.372   8.080  12.332  1.00  0.00     0.018 C 
HETATM   19  C24 UNL     1       2.639   8.903  12.004  1.00  0.00     0.023 C 
HETATM   20  C25 UNL     1       1.798   6.631  12.601  1.00  0.00     0.023 C 
HETATM   21  C26 UNL     1       0.513   8.095  11.058  1.00  0.00     0.135 C 
HETATM   22  O5  UNL     1       0.895   7.573  10.008  1.00  0.00    -0.297 OA
HETATM   23  C27 UNL     1      -0.820   8.796  11.134  1.00  0.00     0.080 C 
HETATM   24  C28 UNL     1      -1.614   8.187  12.280  1.00  0.00     0.020 C 
HETATM   25  C29 UNL     1      -0.931   8.335  13.680  1.00  0.00    -0.004 C 
HETATM   26  C30 UNL     1      -1.096   6.973  14.404  1.00  0.00     0.019 C 
ENDROOT
BRANCH   1  27
HETATM   27  C7  UNL     1      -4.409  13.004  17.890  1.00  0.00    -0.014 C 
HETATM   28  C8  UNL     1      -5.414  13.985  17.273  1.00  0.00     0.010 C 
BRANCH  27  29
HETATM   29  C6  UNL     1      -3.926  13.504  19.268  1.00  0.00     0.007 C 
BRANCH  29  30
HETATM   30  C5  UNL     1      -4.779  14.580  19.967  1.00  0.00     0.036 C 
BRANCH  30  31
HETATM   31  C4  UNL     1      -5.696  14.045  21.082  1.00  0.00     0.146 C 
BRANCH  31  32
HETATM   32  C2  UNL     1      -6.308  15.086  22.004  1.00  0.00    -0.065 C 
HETATM   33  C1  UNL     1      -7.383  15.842  21.719  1.00  0.00     0.016 C 
HETATM   34  C3  UNL     1      -5.604  15.239  23.331  1.00  0.00     0.045 C 
ENDBRANCH  31  32
BRANCH  31  35
HETATM   35  O1  UNL     1      -6.784  13.331  20.504  1.00  0.00    -0.391 OA
HETATM   36  H7  UNL     1      -7.352  13.992  20.070  1.00  0.00     0.210 HD
ENDBRANCH  31  35
ENDBRANCH  30  31
ENDBRANCH  29  30
ENDBRANCH  27  29
ENDBRANCH   1  27
TORSDOF 6
ENDMDL
MODEL 3
REMARK minimizedAffinity -8.24492645
REMARK CNNscore 0.26894486
REMARK CNNaffinity 6.6192627
REMARK  6 active torsions:
REMARK  status: ('A' for Active; 'I' for Inactive)
REMARK    1  A    between atoms: C2_2  and  C4_4 
REMARK    2  A    between atoms: C4_4  and  O1_5 
REMARK    3  A    between atoms: C4_4  and  C5_6 
REMARK    4  A    between atoms: C5_6  and  C6_7 
REMARK    5  A    between atoms: C6_7  and  C7_8 
REMARK    6  A    between atoms: C7_8  and  C9_10 
ROOT
HETATM    1  C9  UNL     1     -10.302   7.810  14.974  1.00  0.00    -0.001 C 
HETATM    2  C10 UNL     1      -9.927   9.315  14.866  1.00  0.00     0.007 C 
HETATM    3  C11 UNL     1     -11.151  10.054  14.292  1.00  0.00     0.024 C 
HETATM    4  C12 UNL     1     -12.236   9.004  14.232  1.00  0.00     0.092 C 
HETATM    5  C13 UNL     1     -13.033   8.929  15.563  1.00  0.00     0.272 C 
HETATM    6  O2  UNL     1     -12.657   9.240  16.681  1.00  0.00    -0.264 OA
HETATM    7  O3  UNL     1     -14.294   8.432  15.290  1.00  0.00    -0.305 OA
HETATM    8  C14 UNL     1     -14.403   8.188  13.867  1.00  0.00     0.113 C 
HETATM    9  C15 UNL     1     -13.872   6.739  13.624  1.00  0.00     0.043 C 
HETATM   10  C16 UNL     1     -12.471   6.484  14.248  1.00  0.00     0.014 C 
HETATM   11  C17 UNL     1     -11.488   7.651  13.972  1.00  0.00    -0.020 C 
HETATM   12  C18 UNL     1     -10.978   7.512  12.520  1.00  0.00     0.017 C 
HETATM   13  C19 UNL     1     -13.398   9.165  13.332  1.00  0.00     0.137 A 
HETATM   14  O4  UNL     1     -13.260   9.394  11.943  1.00  0.00    -0.364 OA
HETATM   15  C20 UNL     1     -13.804  10.484  12.716  1.00  0.00     0.162 A 
HETATM   16  C21 UNL     1     -15.252  10.776  12.470  1.00  0.00     0.042 C 
HETATM   17  C22 UNL     1     -16.133  10.024  13.493  1.00  0.00     0.014 C 
HETATM   18  C23 UNL     1     -17.623  10.499  13.549  1.00  0.00     0.018 C 
HETATM   19  C24 UNL     1     -17.692  11.947  14.083  1.00  0.00     0.023 C 
HETATM   20  C25 UNL     1     -18.364  10.447  12.206  1.00  0.00     0.023 C 
HETATM   21  C26 UNL     1     -18.400   9.636  14.555  1.00  0.00     0.135 C 
HETATM   22  O5  UNL     1     -19.610   9.784  14.743  1.00  0.00    -0.297 OA
HETATM   23  C27 UNL     1     -17.617   8.604  15.327  1.00  0.00     0.080 C 
HETATM   24  C28 UNL     1     -16.899   7.707  14.330  1.00  0.00     0.020 C 
HETATM   25  C29 UNL     1     -15.888   8.460  13.405  1.00  0.00    -0.004 C 
HETATM   26  C30 UNL     1     -16.087   7.897  11.972  1.00  0.00     0.019 C 
ENDROOT
BRANCH   1  27
HETATM   27  C7  UNL     1      -9.069   6.854  15.002  1.00  0.00    -0.014 C 
HETATM   28  C8  UNL     1      -7.760   7.429  15.557  1.00  0.00     0.010 C 
BRANCH  27  29
HETATM   29  C6  UNL     1      -8.841   6.194  13.625  1.00  0.00     0.007 C 
BRANCH  29  30
HETATM   30  C5  UNL     1      -7.513   5.443  13.414  1.00  0.00     0.036 C 
BRANCH  30  31
HETATM   31  C4  UNL     1      -7.631   4.158  12.573  1.00  0.00     0.146 C 
BRANCH  31  32
HETATM   32  C2  UNL     1      -6.340   3.396  12.329  1.00  0.00    -0.065 C 
HETATM   33  C1  UNL     1      -6.246   2.197  11.726  1.00  0.00     0.016 C 
HETATM   34  C3  UNL     1      -5.097   4.090  12.830  1.00  0.00     0.045 C 
ENDBRANCH  31  32
BRANCH  31  35
HETATM   35  O1  UNL     1      -8.521   3.248  13.211  1.00  0.00    -0.391 OA
HETATM   36  H7  UNL     1      -8.066   2.930  14.011  1.00  0.00     0.210 HD
ENDBRANCH  31  35
ENDBRANCH  30  31
ENDBRANCH  29  30
ENDBRANCH  27  29
ENDBRANCH   1  27
TORSDOF 6
ENDMDL
MODEL 4
REMARK minimizedAffinity -6.32710123
REMARK CNNscore 0.225864947
REMARK CNNaffinity 6.02583313
REMARK  6 active torsions:
REMARK  status: ('A' for Active; 'I' for Inactive)
REMARK    1  A    between atoms: C2_2  and  C4_4 
REMARK    2  A    between atoms: C4_4  and  O1_5 
REMARK    3  A    between atoms: C4_4  and  C5_6 
REMARK    4  A    between atoms: C5_6  and  C6_7 
REMARK    5  A    between atoms: C6_7  and  C7_8 
REMARK    6  A    between atoms: C7_8  and  C9_10 
ROOT
HETATM    1  C9  UNL     1      -3.505  14.045  18.296  1.00  0.00    -0.001 C 
HETATM    2  C10 UNL     1      -2.752  14.941  17.274  1.00  0.00     0.007 C 
HETATM    3  C11 UNL     1      -2.009  14.005  16.301  1.00  0.00     0.024 C 
HETATM    4  C12 UNL     1      -2.470  12.617  16.681  1.00  0.00     0.092 C 
HETATM    5  C13 UNL     1      -3.764  12.216  15.919  1.00  0.00     0.272 C 
HETATM    6  O2  UNL     1      -4.619  12.951  15.456  1.00  0.00    -0.264 OA
HETATM    7  O3  UNL     1      -3.813  10.837  15.839  1.00  0.00    -0.305 OA
HETATM    8  C14 UNL     1      -2.634  10.288  16.475  1.00  0.00     0.113 C 
HETATM    9  C15 UNL     1      -2.982  10.127  17.989  1.00  0.00     0.043 C 
HETATM   10  C16 UNL     1      -3.555  11.422  18.631  1.00  0.00     0.014 C 
HETATM   11  C17 UNL     1      -2.747  12.682  18.222  1.00  0.00    -0.020 C 
HETATM   12  C18 UNL     1      -1.455  12.714  19.068  1.00  0.00     0.017 C 
HETATM   13  C19 UNL     1      -1.670  11.427  16.322  1.00  0.00     0.137 A 
HETATM   14  O4  UNL     1      -0.307  11.291  16.673  1.00  0.00    -0.364 OA
HETATM   15  C20 UNL     1      -0.589  11.433  15.264  1.00  0.00     0.162 A 
HETATM   16  C21 UNL     1      -0.347  10.205  14.442  1.00  0.00     0.042 C 
HETATM   17  C22 UNL     1      -1.650   9.386  14.302  1.00  0.00     0.014 C 
HETATM   18  C23 UNL     1      -1.607   8.269  13.207  1.00  0.00     0.018 C 
HETATM   19  C24 UNL     1      -1.490   8.911  11.807  1.00  0.00     0.023 C 
HETATM   20  C25 UNL     1      -0.465   7.256  13.367  1.00  0.00     0.023 C 
HETATM   21  C26 UNL     1      -2.934   7.494  13.211  1.00  0.00     0.135 C 
HETATM   22  O5  UNL     1      -3.128   6.529  12.468  1.00  0.00    -0.297 OA
HETATM   23  C27 UNL     1      -4.009   7.974  14.153  1.00  0.00     0.080 C 
HETATM   24  C28 UNL     1      -3.431   8.006  15.560  1.00  0.00     0.020 C 
HETATM   25  C29 UNL     1      -2.206   8.966  15.726  1.00  0.00    -0.004 C 
HETATM   26  C30 UNL     1      -1.158   8.209  16.585  1.00  0.00     0.019 C 
ENDROOT
BRANCH   1  27
HETATM   27  C7  UNL     1      -3.843  14.766  19.638  1.00  0.00    -0.014 C 
HETATM   28  C8  UNL     1      -2.659  15.302  20.452  1.00  0.00     0.010 C 
BRANCH  27  29
HETATM   29  C6  UNL     1      -4.773  13.904  20.518  1.00  0.00     0.007 C 
BRANCH  29  30
HETATM   30  C5  UNL     1      -6.190  13.623  19.983  1.00  0.00     0.036 C 
BRANCH  30  31
HETATM   31  C4  UNL     1      -7.325  14.237  20.823  1.00  0.00     0.146 C 
BRANCH  31  32
HETATM   32  C2  UNL     1      -8.059  13.288  21.754  1.00  0.00    -0.065 C 
HETATM   33  C1  UNL     1      -9.194  12.630  21.457  1.00  0.00     0.016 C 
HETATM   34  C3  UNL     1      -7.416  13.114  23.109  1.00  0.00     0.045 C 
ENDBRANCH  31  32
BRANCH  31  35
HETATM   35  O1  UNL     1      -6.804  15.280  21.642  1.00  0.00    -0.391 OA
HETATM   36  H7  UNL     1      -6.252  14.851  22.321  1.00  0.00     0.210 HD
ENDBRANCH  31  35
ENDBRANCH  30  31
ENDBRANCH  29  30
ENDBRANCH  27  29
ENDBRANCH   1  27
TORSDOF 6
ENDMDL
MODEL 5
REMARK minimizedAffinity -9.20105076
REMARK CNNscore 0.222590953
REMARK CNNaffinity 6.67975855
REMARK  6 active torsions:
REMARK  status: ('A' for Active; 'I' for Inactive)
REMARK    1  A    between atoms: C2_2  and  C4_4 
REMARK    2  A    between atoms: C4_4  and  O1_5 
REMARK    3  A    between atoms: C4_4  and  C5_6 
REMARK    4  A    between atoms: C5_6  and  C6_7 
REMARK    5  A    between atoms: C6_7  and  C7_8 
REMARK    6  A    between atoms: C7_8  and  C9_10 
ROOT
HETATM    1  C9  UNL     1       1.077   7.413  11.949  1.00  0.00    -0.001 C 
HETATM    2  C10 UNL     1       0.537   6.708  10.674  1.00  0.00     0.007 C 
HETATM    3  C11 UNL     1      -0.885   6.207  10.992  1.00  0.00     0.024 C 
HETATM    4  C12 UNL     1      -1.186   6.763  12.364  1.00  0.00     0.092 C 
HETATM    5  C13 UNL     1      -1.814   8.182  12.281  1.00  0.00     0.272 C 
HETATM    6  O2  UNL     1      -1.690   9.005  11.390  1.00  0.00    -0.264 OA
HETATM    7  O3  UNL     1      -2.571   8.392  13.419  1.00  0.00    -0.305 OA
HETATM    8  C14 UNL     1      -2.509   7.207  14.247  1.00  0.00     0.113 C 
HETATM    9  C15 UNL     1      -1.250   7.367  15.158  1.00  0.00     0.043 C 
HETATM   10  C16 UNL     1       0.044   7.706  14.366  1.00  0.00     0.014 C 
HETATM   11  C17 UNL     1       0.198   6.826  13.097  1.00  0.00    -0.020 C 
HETATM   12  C18 UNL     1       0.711   5.437  13.540  1.00  0.00     0.017 C 
HETATM   13  C19 UNL     1      -2.227   6.152  13.219  1.00  0.00     0.137 A 
HETATM   14  O4  UNL     1      -2.229   4.778  13.551  1.00  0.00    -0.364 OA
HETATM   15  C20 UNL     1      -3.302   5.226  12.696  1.00  0.00     0.162 A 
HETATM   16  C21 UNL     1      -4.659   5.230  13.328  1.00  0.00     0.042 C 
HETATM   17  C22 UNL     1      -4.970   6.622  13.923  1.00  0.00     0.014 C 
HETATM   18  C23 UNL     1      -6.469   6.846  14.316  1.00  0.00     0.018 C 
HETATM   19  C24 UNL     1      -7.349   6.845  13.046  1.00  0.00     0.023 C 
HETATM   20  C25 UNL     1      -7.038   5.811  15.295  1.00  0.00     0.023 C 
HETATM   21  C26 UNL     1      -6.632   8.238  14.947  1.00  0.00     0.135 C 
HETATM   22  O5  UNL     1      -7.715   8.632  15.384  1.00  0.00    -0.297 OA
HETATM   23  C27 UNL     1      -5.410   9.120  14.994  1.00  0.00     0.080 C 
HETATM   24  C28 UNL     1      -4.301   8.362  15.708  1.00  0.00     0.020 C 
HETATM   25  C29 UNL     1      -3.884   7.029  15.004  1.00  0.00    -0.004 C 
HETATM   26  C30 UNL     1      -3.716   5.966  16.122  1.00  0.00     0.019 C 
ENDROOT
BRANCH   1  27
HETATM   27  C7  UNL     1       2.634   7.490  12.016  1.00  0.00    -0.014 C 
HETATM   28  C8  UNL     1       3.275   8.842  11.677  1.00  0.00     0.010 C 
BRANCH  27  29
HETATM   29  C6  UNL     1       3.286   6.351  11.203  1.00  0.00     0.007 C 
BRANCH  29  30
HETATM   30  C5  UNL     1       3.753   6.683   9.773  1.00  0.00     0.036 C 
BRANCH  30  31
HETATM   31  C4  UNL     1       2.788   6.225   8.663  1.00  0.00     0.146 C 
BRANCH  31  32
HETATM   32  C2  UNL     1       2.448   7.258   7.602  1.00  0.00    -0.065 C 
HETATM   33  C1  UNL     1       1.781   7.010   6.461  1.00  0.00     0.016 C 
HETATM   34  C3  UNL     1       2.928   8.655   7.911  1.00  0.00     0.045 C 
ENDBRANCH  31  32
BRANCH  31  35
HETATM   35  O1  UNL     1       3.346   5.110   7.974  1.00  0.00    -0.391 OA
HETATM   36  H7  UNL     1       4.103   5.449   7.463  1.00  0.00     0.210 HD
ENDBRANCH  31  35
ENDBRANCH  30  31
ENDBRANCH  29  30
ENDBRANCH  27  29
ENDBRANCH   1  27
TORSDOF 6
ENDMDL
MODEL 6
REMARK minimizedAffinity -7.06240511
REMARK CNNscore 0.212368861
REMARK CNNaffinity 5.85837936
REMARK  6 active torsions:
REMARK  status: ('A' for Active; 'I' for Inactive)
REMARK    1  A    between atoms: C2_2  and  C4_4 
REMARK    2  A    between atoms: C4_4  and  O1_5 
REMARK    3  A    between atoms: C4_4  and  C5_6 
REMARK    4  A    between atoms: C5_6  and  C6_7 
REMARK    5  A    between atoms: C6_7  and  C7_8 
REMARK    6  A    between atoms: C7_8  and  C9_10 
ROOT
HETATM    1  C9  UNL     1     -11.772  10.325  22.720  1.00  0.00    -0.001 C 
HETATM    2  C10 UNL     1     -11.450  10.643  24.207  1.00  0.00     0.007 C 
HETATM    3  C11 UNL     1     -12.169   9.586  25.069  1.00  0.00     0.024 C 
HETATM    4  C12 UNL     1     -12.746   8.609  24.071  1.00  0.00     0.092 C 
HETATM    5  C13 UNL     1     -11.733   7.486  23.718  1.00  0.00     0.272 C 
HETATM    6  O2  UNL     1     -10.516   7.529  23.774  1.00  0.00    -0.264 OA
HETATM    7  O3  UNL     1     -12.442   6.371  23.308  1.00  0.00    -0.305 OA
HETATM    8  C14 UNL     1     -13.858   6.665  23.382  1.00  0.00     0.113 C 
HETATM    9  C15 UNL     1     -14.248   7.311  22.014  1.00  0.00     0.043 C 
HETATM   10  C16 UNL     1     -13.331   8.500  21.611  1.00  0.00     0.014 C 
HETATM   11  C17 UNL     1     -13.072   9.464  22.798  1.00  0.00    -0.020 C 
HETATM   12  C18 UNL     1     -14.322  10.355  22.971  1.00  0.00     0.017 C 
HETATM   13  C19 UNL     1     -13.876   7.729  24.438  1.00  0.00     0.137 A 
HETATM   14  O4  UNL     1     -15.091   8.228  24.962  1.00  0.00    -0.364 OA
HETATM   15  C20 UNL     1     -14.285   7.443  25.866  1.00  0.00     0.162 A 
HETATM   16  C21 UNL     1     -14.851   6.104  26.222  1.00  0.00     0.042 C 
HETATM   17  C22 UNL     1     -14.295   5.015  25.277  1.00  0.00     0.014 C 
HETATM   18  C23 UNL     1     -14.552   3.545  25.747  1.00  0.00     0.018 C 
HETATM   19  C24 UNL     1     -13.762   3.264  27.045  1.00  0.00     0.023 C 
HETATM   20  C25 UNL     1     -16.025   3.199  25.998  1.00  0.00     0.023 C 
HETATM   21  C26 UNL     1     -14.006   2.566  24.696  1.00  0.00     0.135 C 
HETATM   22  O5  UNL     1     -14.131   1.345  24.815  1.00  0.00    -0.297 OA
HETATM   23  C27 UNL     1     -13.286   3.159  23.511  1.00  0.00     0.080 C 
HETATM   24  C28 UNL     1     -14.213   4.162  22.843  1.00  0.00     0.020 C 
HETATM   25  C29 UNL     1     -14.642   5.350  23.767  1.00  0.00    -0.004 C 
HETATM   26  C30 UNL     1     -16.160   5.574  23.531  1.00  0.00     0.019 C 
ENDROOT
BRANCH   1  27
HETATM   27  C7  UNL     1     -11.610  11.548  21.765  1.00  0.00    -0.014 C 
HETATM   28  C8  UNL     1     -11.116  11.255  20.343  1.00  0.00     0.010 C 
BRANCH  27  29
HETATM   29  C6  UNL     1     -10.770  12.664  22.422  1.00  0.00     0.007 C 
BRANCH  29  30
HETATM   30  C5  UNL     1      -9.329  12.856  21.911  1.00  0.00     0.036 C 
BRANCH  30  31
HETATM   31  C4  UNL     1      -8.236  12.582  22.961  1.00  0.00     0.146 C 
BRANCH  31  32
HETATM   32  C2  UNL     1      -7.057  13.540  22.966  1.00  0.00    -0.065 C 
HETATM   33  C1  UNL     1      -5.867  13.312  22.382  1.00  0.00     0.016 C 
HETATM   34  C3  UNL     1      -7.301  14.832  23.708  1.00  0.00     0.045 C 
ENDBRANCH  31  32
BRANCH  31  35
HETATM   35  O1  UNL     1      -8.802  12.634  24.266  1.00  0.00    -0.391 OA
HETATM   36  H7  UNL     1      -9.023  13.567  24.436  1.00  0.00     0.210 HD
ENDBRANCH  31  35
ENDBRANCH  30  31
ENDBRANCH  29  30
ENDBRANCH  27  29
ENDBRANCH   1  27
TORSDOF 6
ENDMDL
MODEL 7
REMARK minimizedAffinity -7.06997442
REMARK CNNscore 0.210188389
REMARK CNNaffinity 5.81412697
REMARK  6 active torsions:
REMARK  status: ('A' for Active; 'I' for Inactive)
REMARK    1  A    between atoms: C2_2  and  C4_4 
REMARK    2  A    between atoms: C4_4  and  O1_5 
REMARK    3  A    between atoms: C4_4  and  C5_6 
REMARK    4  A    between atoms: C5_6  and  C6_7 
REMARK    5  A    between atoms: C6_7  and  C7_8 
REMARK    6  A    between atoms: C7_8  and  C9_10 
ROOT
HETATM    1  C9  UNL     1      -0.501  10.007  16.242  1.00  0.00    -0.001 C 
HETATM    2  C10 UNL     1       0.498  10.407  15.120  1.00  0.00     0.007 C 
HETATM    3  C11 UNL     1       1.622  11.232  15.778  1.00  0.00     0.024 C 
HETATM    4  C12 UNL     1       1.334  11.155  17.259  1.00  0.00     0.092 C 
HETATM    5  C13 UNL     1       2.005   9.913  17.908  1.00  0.00     0.272 C 
HETATM    6  O2  UNL     1       2.313   8.862  17.371  1.00  0.00    -0.264 OA
HETATM    7  O3  UNL     1       2.212  10.178  19.249  1.00  0.00    -0.305 OA
HETATM    8  C14 UNL     1       1.745  11.518  19.538  1.00  0.00     0.113 C 
HETATM    9  C15 UNL     1       0.227  11.393  19.884  1.00  0.00     0.043 C 
HETATM   10  C16 UNL     1      -0.586  10.610  18.815  1.00  0.00     0.014 C 
HETATM   11  C17 UNL     1      -0.226  11.048  17.372  1.00  0.00    -0.020 C 
HETATM   12  C18 UNL     1      -0.945  12.385  17.086  1.00  0.00     0.017 C 
HETATM   13  C19 UNL     1       1.879  12.165  18.191  1.00  0.00     0.137 A 
HETATM   14  O4  UNL     1       1.673  13.553  18.016  1.00  0.00    -0.364 OA
HETATM   15  C20 UNL     1       3.028  13.086  17.849  1.00  0.00     0.162 A 
HETATM   16  C21 UNL     1       3.983  13.513  18.920  1.00  0.00     0.042 C 
HETATM   17  C22 UNL     1       4.077  12.430  20.019  1.00  0.00     0.014 C 
HETATM   18  C23 UNL     1       5.273  12.608  21.014  1.00  0.00     0.018 C 
HETATM   19  C24 UNL     1       6.610  12.410  20.265  1.00  0.00     0.023 C 
HETATM   20  C25 UNL     1       5.318  13.966  21.727  1.00  0.00     0.023 C 
HETATM   21  C26 UNL     1       5.217  11.509  22.085  1.00  0.00     0.135 C 
HETATM   22  O5  UNL     1       6.028  11.462  23.014  1.00  0.00    -0.297 OA
HETATM   23  C27 UNL     1       4.137  10.466  21.948  1.00  0.00     0.080 C 
HETATM   24  C28 UNL     1       2.794  11.178  21.875  1.00  0.00     0.020 C 
HETATM   25  C29 UNL     1       2.654  12.154  20.661  1.00  0.00    -0.004 C 
HETATM   26  C30 UNL     1       1.974  13.441  21.199  1.00  0.00     0.019 C 
ENDROOT
BRANCH   1  27
HETATM   27  C7  UNL     1      -1.931   9.665  15.720  1.00  0.00    -0.014 C 
HETATM   28  C8  UNL     1      -3.107  10.032  16.634  1.00  0.00     0.010 C 
BRANCH  27  29
HETATM   29  C6  UNL     1      -2.024   8.193  15.265  1.00  0.00     0.007 C 
BRANCH  29  30
HETATM   30  C5  UNL     1      -3.104   7.845  14.223  1.00  0.00     0.036 C 
BRANCH  30  31
HETATM   31  C4  UNL     1      -4.350   7.148  14.802  1.00  0.00     0.146 C 
BRANCH  31  32
HETATM   32  C2  UNL     1      -5.063   6.175  13.879  1.00  0.00    -0.065 C 
HETATM   33  C1  UNL     1      -6.387   6.161  13.637  1.00  0.00     0.016 C 
HETATM   34  C3  UNL     1      -4.161   5.165  13.213  1.00  0.00     0.045 C 
ENDBRANCH  31  32
BRANCH  31  35
HETATM   35  O1  UNL     1      -3.987   6.407  15.963  1.00  0.00    -0.391 OA
HETATM   36  H7  UNL     1      -3.452   5.653  15.656  1.00  0.00     0.210 HD
ENDBRANCH  31  35
ENDBRANCH  30  31
ENDBRANCH  29  30
ENDBRANCH  27  29
ENDBRANCH   1  27
TORSDOF 6
ENDMDL
MODEL 8
REMARK minimizedAffinity -6.40535736
REMARK CNNscore 0.206158936
REMARK CNNaffinity 5.64251947
REMARK  6 active torsions:
REMARK  status: ('A' for Active; 'I' for Inactive)
REMARK    1  A    between atoms: C2_2  and  C4_4 
REMARK    2  A    between atoms: C4_4  and  O1_5 
REMARK    3  A    between atoms: C4_4  and  C5_6 
REMARK    4  A    between atoms: C5_6  and  C6_7 
REMARK    5  A    between atoms: C6_7  and  C7_8 
REMARK    6  A    between atoms: C7_8  and  C9_10 
ROOT
HETATM    1  C9  UNL     1       0.199  10.711  18.125  1.00  0.00    -0.001 C 
HETATM    2  C10 UNL     1       1.120  10.166  16.998  1.00  0.00     0.007 C 
HETATM    3  C11 UNL     1       2.515  10.787  17.203  1.00  0.00     0.024 C 
HETATM    4  C12 UNL     1       2.410  11.537  18.510  1.00  0.00     0.092 C 
HETATM    5  C13 UNL     1       2.750  10.625  19.721  1.00  0.00     0.272 C 
HETATM    6  O2  UNL     1       2.654   9.412  19.796  1.00  0.00    -0.264 OA
HETATM    7  O3  UNL     1       3.198  11.424  20.757  1.00  0.00    -0.305 OA
HETATM    8  C14 UNL     1       3.200  12.803  20.317  1.00  0.00     0.113 C 
HETATM    9  C15 UNL     1       1.773  13.366  20.614  1.00  0.00     0.043 C 
HETATM   10  C16 UNL     1       0.631  12.477  20.046  1.00  0.00     0.014 C 
HETATM   11  C17 UNL     1       0.919  12.015  18.593  1.00  0.00    -0.020 C 
HETATM   12  C18 UNL     1       0.609  13.195  17.646  1.00  0.00     0.017 C 
HETATM   13  C19 UNL     1       3.350  12.631  18.834  1.00  0.00     0.137 A 
HETATM   14  O4  UNL     1       3.554  13.739  17.980  1.00  0.00    -0.364 OA
HETATM   15  C20 UNL     1       4.671  12.837  18.128  1.00  0.00     0.162 A 
HETATM   16  C21 UNL     1       5.839  13.392  18.882  1.00  0.00     0.042 C 
HETATM   17  C22 UNL     1       5.741  13.016  20.378  1.00  0.00     0.014 C 
HETATM   18  C23 UNL     1       7.051  13.253  21.201  1.00  0.00     0.018 C 
HETATM   19  C24 UNL     1       8.158  12.293  20.710  1.00  0.00     0.023 C 
HETATM   20  C25 UNL     1       7.597  14.685  21.141  1.00  0.00     0.023 C 
HETATM   21  C26 UNL     1       6.803  12.899  22.675  1.00  0.00     0.135 C 
HETATM   22  O5  UNL     1       7.673  13.047  23.537  1.00  0.00    -0.297 OA
HETATM   23  C27 UNL     1       5.449  12.339  23.031  1.00  0.00     0.080 C 
HETATM   24  C28 UNL     1       4.387  13.319  22.554  1.00  0.00     0.020 C 
HETATM   25  C29 UNL     1       4.396  13.568  21.010  1.00  0.00    -0.004 C 
HETATM   26  C30 UNL     1       4.212  15.095  20.801  1.00  0.00     0.019 C 
ENDROOT
BRANCH   1  27
HETATM   27  C7  UNL     1      -1.321  10.648  17.783  1.00  0.00    -0.014 C 
HETATM   28  C8  UNL     1      -2.290  10.490  18.962  1.00  0.00     0.010 C 
BRANCH  27  29
HETATM   29  C6  UNL     1      -1.606   9.596  16.690  1.00  0.00     0.007 C 
BRANCH  29  30
HETATM   30  C5  UNL     1      -2.698   9.930  15.656  1.00  0.00     0.036 C 
BRANCH  30  31
HETATM   31  C4  UNL     1      -3.593   8.740  15.263  1.00  0.00     0.146 C 
BRANCH  31  32
HETATM   32  C2  UNL     1      -3.390   8.182  13.865  1.00  0.00    -0.065 C 
HETATM   33  C1  UNL     1      -2.718   8.793  12.873  1.00  0.00     0.016 C 
HETATM   34  C3  UNL     1      -4.022   6.831  13.631  1.00  0.00     0.045 C 
ENDBRANCH  31  32
BRANCH  31  35
HETATM   35  O1  UNL     1      -3.374   7.659  16.163  1.00  0.00    -0.391 OA
HETATM   36  H7  UNL     1      -2.481   7.317  15.976  1.00  0.00     0.210 HD
ENDBRANCH  31  35
ENDBRANCH  30  31
ENDBRANCH  29  30
ENDBRANCH  27  29
ENDBRANCH   1  27
TORSDOF 6
ENDMDL
MODEL 9
REMARK minimizedAffinity -7.12787533
REMARK CNNscore 0.203997925
REMARK CNNaffinity 6.36650419
REMARK  6 active torsions:
REMARK  status: ('A' for Active; 'I' for Inactive)
REMARK    1  A    between atoms: C2_2  and  C4_4 
REMARK    2  A    between atoms: C4_4  and  O1_5 
REMARK    3  A    between atoms: C4_4  and  C5_6 
REMARK    4  A    between atoms: C5_6  and  C6_7 
REMARK    5  A    between atoms: C6_7  and  C7_8 
REMARK    6  A    between atoms: C7_8  and  C9_10 
ROOT
HETATM    1  C9  UNL     1      -9.667   7.986  14.721  1.00  0.00    -0.001 C 
HETATM    2  C10 UNL     1     -10.733   6.854  14.690  1.00  0.00     0.007 C 
HETATM    3  C11 UNL     1     -12.118   7.525  14.773  1.00  0.00     0.024 C 
HETATM    4  C12 UNL     1     -11.830   9.006  14.692  1.00  0.00     0.092 C 
HETATM    5  C13 UNL     1     -11.791   9.501  13.220  1.00  0.00     0.272 C 
HETATM    6  O2  UNL     1     -11.534   8.855  12.219  1.00  0.00    -0.264 OA
HETATM    7  O3  UNL     1     -12.102  10.849  13.204  1.00  0.00    -0.305 OA
HETATM    8  C14 UNL     1     -12.366  11.284  14.559  1.00  0.00     0.113 C 
HETATM    9  C15 UNL     1     -10.988  11.696  15.169  1.00  0.00     0.043 C 
HETATM   10  C16 UNL     1      -9.893  10.604  15.011  1.00  0.00     0.014 C 
HETATM   11  C17 UNL     1     -10.425   9.190  15.363  1.00  0.00    -0.020 C 
HETATM   12  C18 UNL     1     -10.470   9.067  16.902  1.00  0.00     0.017 C 
HETATM   13  C19 UNL     1     -12.806   9.997  15.193  1.00  0.00     0.137 A 
HETATM   14  O4  UNL     1     -13.320   9.962  16.510  1.00  0.00    -0.364 OA
HETATM   15  C20 UNL     1     -14.262   9.682  15.453  1.00  0.00     0.162 A 
HETATM   16  C21 UNL     1     -15.302  10.736  15.233  1.00  0.00     0.042 C 
HETATM   17  C22 UNL     1     -14.842  11.724  14.137  1.00  0.00     0.014 C 
HETATM   18  C23 UNL     1     -15.967  12.666  13.592  1.00  0.00     0.018 C 
HETATM   19  C24 UNL     1     -17.027  11.834  12.836  1.00  0.00     0.023 C 
HETATM   20  C25 UNL     1     -16.684  13.498  14.663  1.00  0.00     0.023 C 
HETATM   21  C26 UNL     1     -15.370  13.633  12.558  1.00  0.00     0.135 C 
HETATM   22  O5  UNL     1     -16.048  14.510  12.017  1.00  0.00    -0.297 OA
HETATM   23  C27 UNL     1     -13.913  13.457  12.210  1.00  0.00     0.080 C 
HETATM   24  C28 UNL     1     -13.105  13.521  13.498  1.00  0.00     0.020 C 
HETATM   25  C29 UNL     1     -13.471  12.411  14.538  1.00  0.00    -0.004 C 
HETATM   26  C30 UNL     1     -13.524  13.100  15.927  1.00  0.00     0.019 C 
ENDROOT
BRANCH   1  27
HETATM   27  C7  UNL     1      -8.258   7.510  15.192  1.00  0.00    -0.014 C 
HETATM   28  C8  UNL     1      -7.085   8.465  14.938  1.00  0.00     0.010 C 
BRANCH  27  29
HETATM   29  C6  UNL     1      -7.940   6.094  14.667  1.00  0.00     0.007 C 
BRANCH  29  30
HETATM   30  C5  UNL     1      -7.588   5.958  13.174  1.00  0.00     0.036 C 
BRANCH  30  31
HETATM   31  C4  UNL     1      -7.781   4.543  12.597  1.00  0.00     0.146 C 
BRANCH  31  32
HETATM   32  C2  UNL     1      -6.538   3.672  12.529  1.00  0.00    -0.065 C 
HETATM   33  C1  UNL     1      -5.281   4.092  12.756  1.00  0.00     0.016 C 
HETATM   34  C3  UNL     1      -6.801   2.231  12.167  1.00  0.00     0.045 C 
ENDBRANCH  31  32
BRANCH  31  35
HETATM   35  O1  UNL     1      -8.729   3.830  13.386  1.00  0.00    -0.391 OA
HETATM   36  H7  UNL     1      -8.298   3.648  14.241  1.00  0.00     0.210 HD
ENDBRANCH  31  35
ENDBRANCH  30  31
ENDBRANCH  29  30
ENDBRANCH  27  29
ENDBRANCH   1  27
TORSDOF 6
ENDMDL
