MODEL 1
REMARK minimizedAffinity -9.73694992
REMARK  8 active torsions:
REMARK  status: ('A' for Active; 'I' for Inactive)
REMARK    1  A    between atoms: C5_5  and  O1_6 
REMARK    2  A    between atoms: C9_10  and  C10_11 
REMARK    3  A    between atoms: C10_11  and  C11_12 
REMARK    4  A    between atoms: C11_12  and  C12_13 
REMARK    5  A    between atoms: C14_15  and  C15_16 
REMARK    6  A    between atoms: C15_16  and  C16_17 
REMARK    7  A    between atoms: C16_17  and  C17_18 
REMARK    8  A    between atoms: C23_24  and  O2_25 
ROOT
HETATM    1  C12 UNL     1      -0.821   8.026  11.937  1.00  0.00    -0.087 C 
HETATM    2  C13 UNL     1      -0.871   6.525  12.048  1.00  0.00     0.043 C 
HETATM    3  C14 UNL     1      -1.855   8.859  12.169  1.00  0.00    -0.024 C 
ENDROOT
BRANCH   3   4
HETATM    4  C15 UNL     1      -3.254   8.513  12.591  1.00  0.00     0.030 C 
BRANCH   4   5
HETATM    5  C16 UNL     1      -3.408   8.177  14.085  1.00  0.00     0.042 C 
BRANCH   5   6
HETATM    6  C17 UNL     1      -4.249   6.925  14.467  1.00  0.00     0.065 C 
HETATM    7  C18 UNL     1      -3.664   6.237  15.711  1.00  0.00     0.046 C 
HETATM    8  C19 UNL     1      -5.695   7.409  14.701  1.00  0.00     0.043 C 
HETATM    9  C20 UNL     1      -6.645   6.249  14.941  1.00  0.00     0.044 C 
HETATM   10  C21 UNL     1      -6.394   5.148  13.956  1.00  0.00    -0.021 A 
HETATM   11  C22 UNL     1      -7.361   4.148  13.779  1.00  0.00     0.046 A 
HETATM   12  C27 UNL     1      -5.196   5.087  13.230  1.00  0.00     0.082 A 
HETATM   13  C23 UNL     1      -7.135   3.117  12.873  1.00  0.00     0.066 A 
HETATM   14  C24 UNL     1      -5.958   3.064  12.138  1.00  0.00     0.046 A 
HETATM   15  C25 UNL     1      -4.980   4.054  12.302  1.00  0.00    -0.025 A 
HETATM   16  C26 UNL     1      -3.701   3.973  11.518  1.00  0.00     0.051 C 
HETATM   17  O3  UNL     1      -4.195   6.015  13.355  1.00  0.00    -0.340 OA
BRANCH  13  18
HETATM   18  O2  UNL     1      -8.054   2.131  12.675  1.00  0.00    -0.361 OA
HETATM   19  H36 UNL     1      -8.820   2.302  13.247  1.00  0.00     0.217 HD
ENDBRANCH  13  18
ENDBRANCH   5   6
ENDBRANCH   4   5
ENDBRANCH   3   4
BRANCH   1  20
HETATM   20  C11 UNL     1       0.522   8.590  11.498  1.00  0.00     0.034 C 
BRANCH  20  21
HETATM   21  C10 UNL     1       0.839   8.292  10.022  1.00  0.00     0.014 C 
BRANCH  21  22
HETATM   22  C9  UNL     1       1.782   7.077   9.780  1.00  0.00     0.024 C 
HETATM   23  C2  UNL     1       2.044   6.788   8.286  1.00  0.00    -0.084 C 
HETATM   24  C1  UNL     1       1.551   7.480   7.242  1.00  0.00     0.015 C 
HETATM   25  C3  UNL     1       3.004   5.653   7.988  1.00  0.00     0.036 C 
HETATM   26  C4  UNL     1       3.326   4.815   9.215  1.00  0.00     0.037 C 
HETATM   27  C5  UNL     1       3.813   5.657  10.402  1.00  0.00     0.127 C 
HETATM   28  C6  UNL     1       3.177   7.091  10.516  1.00  0.00    -0.014 C 
HETATM   29  C7  UNL     1       4.113   8.182   9.929  1.00  0.00     0.018 C 
HETATM   30  C8  UNL     1       3.072   7.399  12.025  1.00  0.00     0.018 C 
BRANCH  27  31
HETATM   31  O1  UNL     1       5.239   5.737  10.381  1.00  0.00    -0.395 OA
HETATM   32  H8  UNL     1       5.587   4.830  10.414  1.00  0.00     0.210 HD
ENDBRANCH  27  31
ENDBRANCH  21  22
ENDBRANCH  20  21
ENDBRANCH   1  20
TORSDOF 8
ENDMDL
MODEL 2
REMARK minimizedAffinity -9.56920719
REMARK  8 active torsions:
REMARK  status: ('A' for Active; 'I' for Inactive)
REMARK    1  A    between atoms: C5_5  and  O1_6 
REMARK    2  A    between atoms: C9_10  and  C10_11 
REMARK    3  A    between atoms: C10_11  and  C11_12 
REMARK    4  A    between atoms: C11_12  and  C12_13 
REMARK    5  A    between atoms: C14_15  and  C15_16 
REMARK    6  A    between atoms: C15_16  and  C16_17 
REMARK    7  A    between atoms: C16_17  and  C17_18 
REMARK    8  A    between atoms: C23_24  and  O2_25 
ROOT
HETATM    1  C12 UNL     1      -2.654   6.467  14.873  1.00  0.00    -0.087 C 
HETATM    2  C13 UNL     1      -2.833   7.598  15.850  1.00  0.00     0.043 C 
HETATM    3  C14 UNL     1      -1.473   6.051  14.370  1.00  0.00    -0.024 C 
ENDROOT
BRANCH   3   4
HETATM    4  C15 UNL     1      -0.099   6.583  14.660  1.00  0.00     0.030 C 
BRANCH   4   5
HETATM    5  C16 UNL     1       0.939   6.310  13.556  1.00  0.00     0.042 C 
BRANCH   5   6
HETATM    6  C17 UNL     1       0.486   6.470  12.075  1.00  0.00     0.065 C 
HETATM    7  C18 UNL     1      -0.718   5.564  11.775  1.00  0.00     0.046 C 
HETATM    8  C19 UNL     1       0.154   7.962  11.865  1.00  0.00     0.043 C 
HETATM    9  C20 UNL     1      -0.164   8.269  10.412  1.00  0.00     0.044 C 
HETATM   10  C21 UNL     1       0.828   7.607   9.505  1.00  0.00    -0.021 A 
HETATM   11  C22 UNL     1       0.927   8.027   8.170  1.00  0.00     0.046 A 
HETATM   12  C27 UNL     1       1.637   6.557   9.960  1.00  0.00     0.082 A 
HETATM   13  C23 UNL     1       1.839   7.414   7.317  1.00  0.00     0.066 A 
HETATM   14  C24 UNL     1       2.655   6.387   7.770  1.00  0.00     0.046 A 
HETATM   15  C25 UNL     1       2.570   5.954   9.099  1.00  0.00    -0.025 A 
HETATM   16  C26 UNL     1       3.443   4.827   9.572  1.00  0.00     0.051 C 
HETATM   17  O3  UNL     1       1.592   6.079  11.244  1.00  0.00    -0.340 OA
BRANCH  13  18
HETATM   18  O2  UNL     1       1.962   7.798   6.015  1.00  0.00    -0.361 OA
HETATM   19  H36 UNL     1       1.338   8.523   5.845  1.00  0.00     0.217 HD
ENDBRANCH  13  18
ENDBRANCH   5   6
ENDBRANCH   4   5
ENDBRANCH   3   4
BRANCH   1  20
HETATM   20  C11 UNL     1      -3.944   5.793  14.429  1.00  0.00     0.034 C 
BRANCH  20  21
HETATM   21  C10 UNL     1      -4.741   6.640  13.422  1.00  0.00     0.014 C 
BRANCH  21  22
HETATM   22  C9  UNL     1      -6.274   6.372  13.399  1.00  0.00     0.024 C 
HETATM   23  C2  UNL     1      -6.641   4.919  13.023  1.00  0.00    -0.084 C 
HETATM   24  C1  UNL     1      -5.777   3.926  12.743  1.00  0.00     0.015 C 
HETATM   25  C3  UNL     1      -8.119   4.582  13.043  1.00  0.00     0.036 C 
HETATM   26  C4  UNL     1      -9.004   5.813  13.159  1.00  0.00     0.037 C 
HETATM   27  C5  UNL     1      -8.624   6.713  14.343  1.00  0.00     0.127 C 
HETATM   28  C6  UNL     1      -7.092   6.752  14.694  1.00  0.00    -0.014 C 
HETATM   29  C7  UNL     1      -6.748   5.805  15.875  1.00  0.00     0.018 C 
HETATM   30  C8  UNL     1      -6.802   8.179  15.205  1.00  0.00     0.018 C 
BRANCH  27  31
HETATM   31  O1  UNL     1      -9.395   6.348  15.489  1.00  0.00    -0.395 OA
HETATM   32  H8  UNL     1     -10.334   6.436  15.255  1.00  0.00     0.210 HD
ENDBRANCH  27  31
ENDBRANCH  21  22
ENDBRANCH  20  21
ENDBRANCH   1  20
TORSDOF 8
ENDMDL
MODEL 3
REMARK minimizedAffinity -9.47828102
REMARK  8 active torsions:
REMARK  status: ('A' for Active; 'I' for Inactive)
REMARK    1  A    between atoms: C5_5  and  O1_6 
REMARK    2  A    between atoms: C9_10  and  C10_11 
REMARK    3  A    between atoms: C10_11  and  C11_12 
REMARK    4  A    between atoms: C11_12  and  C12_13 
REMARK    5  A    between atoms: C14_15  and  C15_16 
REMARK    6  A    between atoms: C15_16  and  C16_17 
REMARK    7  A    between atoms: C16_17  and  C17_18 
REMARK    8  A    between atoms: C23_24  and  O2_25 
ROOT
HETATM    1  C12 UNL     1      -2.968   7.824  13.142  1.00  0.00    -0.087 C 
HETATM    2  C13 UNL     1      -2.304   6.524  13.510  1.00  0.00     0.043 C 
HETATM    3  C14 UNL     1      -2.335   8.915  12.666  1.00  0.00    -0.024 C 
ENDROOT
BRANCH   3   4
HETATM    4  C15 UNL     1      -0.871   9.092  12.383  1.00  0.00     0.030 C 
BRANCH   4   5
HETATM    5  C16 UNL     1      -0.425   8.616  10.989  1.00  0.00     0.042 C 
BRANCH   5   6
HETATM    6  C17 UNL     1       0.913   7.829  10.880  1.00  0.00     0.065 C 
HETATM    7  C18 UNL     1       2.088   8.685  11.382  1.00  0.00     0.046 C 
HETATM    8  C19 UNL     1       0.745   6.539  11.708  1.00  0.00     0.043 C 
HETATM    9  C20 UNL     1       1.942   5.615  11.561  1.00  0.00     0.044 C 
HETATM   10  C21 UNL     1       2.355   5.512  10.124  1.00  0.00    -0.021 A 
HETATM   11  C22 UNL     1       3.203   4.469   9.724  1.00  0.00     0.046 A 
HETATM   12  C27 UNL     1       1.932   6.459   9.181  1.00  0.00     0.082 A 
HETATM   13  C23 UNL     1       3.599   4.369   8.395  1.00  0.00     0.066 A 
HETATM   14  C24 UNL     1       3.166   5.293   7.454  1.00  0.00     0.046 A 
HETATM   15  C25 UNL     1       2.320   6.343   7.835  1.00  0.00    -0.025 A 
HETATM   16  C26 UNL     1       1.876   7.349   6.812  1.00  0.00     0.051 C 
HETATM   17  O3  UNL     1       1.116   7.515   9.492  1.00  0.00    -0.340 OA
BRANCH  13  18
HETATM   18  O2  UNL     1       4.420   3.367   7.972  1.00  0.00    -0.361 OA
HETATM   19  H36 UNL     1       4.633   2.800   8.731  1.00  0.00     0.217 HD
ENDBRANCH  13  18
ENDBRANCH   5   6
ENDBRANCH   4   5
ENDBRANCH   3   4
BRANCH   1  20
HETATM   20  C11 UNL     1      -4.472   7.863  13.373  1.00  0.00     0.034 C 
BRANCH  20  21
HETATM   21  C10 UNL     1      -5.049   6.491  13.762  1.00  0.00     0.014 C 
BRANCH  21  22
HETATM   22  C9  UNL     1      -6.587   6.342  13.573  1.00  0.00     0.024 C 
HETATM   23  C2  UNL     1      -7.008   4.974  12.994  1.00  0.00    -0.084 C 
HETATM   24  C1  UNL     1      -6.186   3.958  12.671  1.00  0.00     0.015 C 
HETATM   25  C3  UNL     1      -8.500   4.747  12.843  1.00  0.00     0.036 C 
HETATM   26  C4  UNL     1      -9.312   6.019  13.029  1.00  0.00     0.037 C 
HETATM   27  C5  UNL     1      -8.991   6.746  14.342  1.00  0.00     0.127 C 
HETATM   28  C6  UNL     1      -7.499   6.630  14.827  1.00  0.00    -0.014 C 
HETATM   29  C7  UNL     1      -7.331   5.531  15.911  1.00  0.00     0.018 C 
HETATM   30  C8  UNL     1      -7.169   7.964  15.531  1.00  0.00     0.018 C 
BRANCH  27  31
HETATM   31  O1  UNL     1      -9.889   6.310  15.364  1.00  0.00    -0.395 OA
HETATM   32  H8  UNL     1     -10.794   6.494  15.061  1.00  0.00     0.210 HD
ENDBRANCH  27  31
ENDBRANCH  21  22
ENDBRANCH  20  21
ENDBRANCH   1  20
TORSDOF 8
ENDMDL
MODEL 4
REMARK minimizedAffinity -9.24665451
REMARK  8 active torsions:
REMARK  status: ('A' for Active; 'I' for Inactive)
REMARK    1  A    between atoms: C5_5  and  O1_6 
REMARK    2  A    between atoms: C9_10  and  C10_11 
REMARK    3  A    between atoms: C10_11  and  C11_12 
REMARK    4  A    between atoms: C11_12  and  C12_13 
REMARK    5  A    between atoms: C14_15  and  C15_16 
REMARK    6  A    between atoms: C15_16  and  C16_17 
REMARK    7  A    between atoms: C16_17  and  C17_18 
REMARK    8  A    between atoms: C23_24  and  O2_25 
ROOT
HETATM    1  C12 UNL     1      -2.820   6.600  14.280  1.00  0.00    -0.087 C 
HETATM    2  C13 UNL     1      -3.046   8.044  13.920  1.00  0.00     0.043 C 
HETATM    3  C14 UNL     1      -1.624   6.047  14.565  1.00  0.00    -0.024 C 
ENDROOT
BRANCH   3   4
HETATM    4  C15 UNL     1      -0.277   6.709  14.607  1.00  0.00     0.030 C 
BRANCH   4   5
HETATM    5  C16 UNL     1       0.716   6.210  13.541  1.00  0.00     0.042 C 
BRANCH   5   6
HETATM    6  C17 UNL     1       0.329   6.390  12.044  1.00  0.00     0.065 C 
HETATM    7  C18 UNL     1      -0.846   5.470  11.674  1.00  0.00     0.046 C 
HETATM    8  C19 UNL     1      -0.019   7.879  11.845  1.00  0.00     0.043 C 
HETATM    9  C20 UNL     1      -0.275   8.207  10.384  1.00  0.00     0.044 C 
HETATM   10  C21 UNL     1       0.768   7.577   9.512  1.00  0.00    -0.021 A 
HETATM   11  C22 UNL     1       0.920   8.021   8.190  1.00  0.00     0.046 A 
HETATM   12  C27 UNL     1       1.573   6.532   9.986  1.00  0.00     0.082 A 
HETATM   13  C23 UNL     1       1.880   7.438   7.369  1.00  0.00     0.066 A 
HETATM   14  C24 UNL     1       2.692   6.416   7.842  1.00  0.00     0.046 A 
HETATM   15  C25 UNL     1       2.554   5.958   9.159  1.00  0.00    -0.025 A 
HETATM   16  C26 UNL     1       3.422   4.836   9.651  1.00  0.00     0.051 C 
HETATM   17  O3  UNL     1       1.477   6.030  11.258  1.00  0.00    -0.340 OA
BRANCH  13  18
HETATM   18  O2  UNL     1       2.056   7.847   6.081  1.00  0.00    -0.361 OA
HETATM   19  H36 UNL     1       1.429   8.565   5.896  1.00  0.00     0.217 HD
ENDBRANCH  13  18
ENDBRANCH   5   6
ENDBRANCH   4   5
ENDBRANCH   3   4
BRANCH   1  20
HETATM   20  C11 UNL     1      -4.072   5.736  14.278  1.00  0.00     0.034 C 
BRANCH  20  21
HETATM   21  C10 UNL     1      -4.416   5.190  12.881  1.00  0.00     0.014 C 
BRANCH  21  22
HETATM   22  C9  UNL     1      -5.442   4.020  12.861  1.00  0.00     0.024 C 
HETATM   23  C2  UNL     1      -6.912   4.490  12.785  1.00  0.00    -0.084 C 
HETATM   24  C1  UNL     1      -7.339   5.765  12.727  1.00  0.00     0.015 C 
HETATM   25  C3  UNL     1      -7.956   3.393  12.702  1.00  0.00     0.036 C 
HETATM   26  C4  UNL     1      -7.385   2.013  12.990  1.00  0.00     0.037 C 
HETATM   27  C5  UNL     1      -6.161   1.680  12.127  1.00  0.00     0.127 C 
HETATM   28  C6  UNL     1      -5.241   2.903  11.765  1.00  0.00    -0.014 C 
HETATM   29  C7  UNL     1      -5.542   3.448  10.344  1.00  0.00     0.018 C 
HETATM   30  C8  UNL     1      -3.799   2.356  11.706  1.00  0.00     0.018 C 
BRANCH  27  31
HETATM   31  O1  UNL     1      -6.579   0.996  10.944  1.00  0.00    -0.395 OA
HETATM   32  H8  UNL     1      -7.056   0.195  11.219  1.00  0.00     0.210 HD
ENDBRANCH  27  31
ENDBRANCH  21  22
ENDBRANCH  20  21
ENDBRANCH   1  20
TORSDOF 8
ENDMDL
MODEL 5
REMARK minimizedAffinity -9.16213036
REMARK  8 active torsions:
REMARK  status: ('A' for Active; 'I' for Inactive)
REMARK    1  A    between atoms: C5_5  and  O1_6 
REMARK    2  A    between atoms: C9_10  and  C10_11 
REMARK    3  A    between atoms: C10_11  and  C11_12 
REMARK    4  A    between atoms: C11_12  and  C12_13 
REMARK    5  A    between atoms: C14_15  and  C15_16 
REMARK    6  A    between atoms: C15_16  and  C16_17 
REMARK    7  A    between atoms: C16_17  and  C17_18 
REMARK    8  A    between atoms: C23_24  and  O2_25 
ROOT
HETATM    1  C12 UNL     1      -3.911   3.289  12.037  1.00  0.00    -0.087 C 
HETATM    2  C13 UNL     1      -3.903   1.830  11.668  1.00  0.00     0.043 C 
HETATM    3  C14 UNL     1      -2.899   4.154  11.820  1.00  0.00    -0.024 C 
ENDROOT
BRANCH   3   4
HETATM    4  C15 UNL     1      -1.571   3.889  11.170  1.00  0.00     0.030 C 
BRANCH   4   5
HETATM    5  C16 UNL     1      -0.354   4.125  12.082  1.00  0.00     0.042 C 
BRANCH   5   6
HETATM    6  C17 UNL     1       0.407   5.476  11.948  1.00  0.00     0.065 C 
HETATM    7  C18 UNL     1      -0.441   6.502  11.179  1.00  0.00     0.046 C 
HETATM    8  C19 UNL     1       0.732   5.952  13.378  1.00  0.00     0.043 C 
HETATM    9  C20 UNL     1       1.604   7.196  13.373  1.00  0.00     0.044 C 
HETATM   10  C21 UNL     1       2.717   7.055  12.379  1.00  0.00    -0.021 A 
HETATM   11  C22 UNL     1       3.817   7.923  12.450  1.00  0.00     0.046 A 
HETATM   12  C27 UNL     1       2.661   6.092  11.363  1.00  0.00     0.082 A 
HETATM   13  C23 UNL     1       4.851   7.807  11.528  1.00  0.00     0.066 A 
HETATM   14  C24 UNL     1       4.809   6.841  10.532  1.00  0.00     0.046 A 
HETATM   15  C25 UNL     1       3.717   5.967  10.444  1.00  0.00    -0.025 A 
HETATM   16  C26 UNL     1       3.672   4.941   9.348  1.00  0.00     0.051 C 
HETATM   17  O3  UNL     1       1.616   5.218  11.215  1.00  0.00    -0.340 OA
BRANCH  13  18
HETATM   18  O2  UNL     1       5.935   8.632  11.569  1.00  0.00    -0.361 OA
HETATM   19  H36 UNL     1       5.830   9.245  12.315  1.00  0.00     0.217 HD
ENDBRANCH  13  18
ENDBRANCH   5   6
ENDBRANCH   4   5
ENDBRANCH   3   4
BRANCH   1  20
HETATM   20  C11 UNL     1      -5.177   3.766  12.735  1.00  0.00     0.034 C 
BRANCH  20  21
HETATM   21  C10 UNL     1      -5.201   5.290  12.946  1.00  0.00     0.014 C 
BRANCH  21  22
HETATM   22  C9  UNL     1      -5.947   5.769  14.226  1.00  0.00     0.024 C 
HETATM   23  C2  UNL     1      -5.882   7.297  14.442  1.00  0.00    -0.084 C 
HETATM   24  C1  UNL     1      -5.271   8.190  13.641  1.00  0.00     0.015 C 
HETATM   25  C3  UNL     1      -6.642   7.831  15.641  1.00  0.00     0.036 C 
HETATM   26  C4  UNL     1      -7.107   6.730  16.582  1.00  0.00     0.037 C 
HETATM   27  C5  UNL     1      -7.900   5.628  15.868  1.00  0.00     0.127 C 
HETATM   28  C6  UNL     1      -7.452   5.327  14.391  1.00  0.00    -0.014 C 
HETATM   29  C7  UNL     1      -8.365   6.039  13.357  1.00  0.00     0.018 C 
HETATM   30  C8  UNL     1      -7.673   3.815  14.172  1.00  0.00     0.018 C 
BRANCH  27  31
HETATM   31  O1  UNL     1      -9.295   5.929  15.921  1.00  0.00    -0.395 OA
HETATM   32  H8  UNL     1      -9.546   6.007  16.856  1.00  0.00     0.210 HD
ENDBRANCH  27  31
ENDBRANCH  21  22
ENDBRANCH  20  21
ENDBRANCH   1  20
TORSDOF 8
ENDMDL
MODEL 6
REMARK minimizedAffinity -9.12239838
REMARK  8 active torsions:
REMARK  status: ('A' for Active; 'I' for Inactive)
REMARK    1  A    between atoms: C5_5  and  O1_6 
REMARK    2  A    between atoms: C9_10  and  C10_11 
REMARK    3  A    between atoms: C10_11  and  C11_12 
REMARK    4  A    between atoms: C11_12  and  C12_13 
REMARK    5  A    between atoms: C14_15  and  C15_16 
REMARK    6  A    between atoms: C15_16  and  C16_17 
REMARK    7  A    between atoms: C16_17  and  C17_18 
REMARK    8  A    between atoms: C23_24  and  O2_25 
ROOT
HETATM    1  C12 UNL     1      -0.302   5.960  12.292  1.00  0.00    -0.087 C 
HETATM    2  C13 UNL     1       0.190   5.296  13.551  1.00  0.00     0.043 C 
HETATM    3  C14 UNL     1      -0.658   5.319  11.161  1.00  0.00    -0.024 C 
ENDROOT
BRANCH   3   4
HETATM    4  C15 UNL     1      -0.665   3.841  10.891  1.00  0.00     0.030 C 
BRANCH   4   5
HETATM    5  C16 UNL     1      -1.690   3.043  11.716  1.00  0.00     0.042 C 
BRANCH   5   6
HETATM    6  C17 UNL     1      -3.201   3.274  11.421  1.00  0.00     0.065 C 
HETATM    7  C18 UNL     1      -3.409   3.703   9.960  1.00  0.00     0.046 C 
HETATM    8  C19 UNL     1      -3.929   1.954  11.745  1.00  0.00     0.043 C 
HETATM    9  C20 UNL     1      -5.437   2.100  11.633  1.00  0.00     0.044 C 
HETATM   10  C21 UNL     1      -5.894   3.366  12.291  1.00  0.00    -0.021 A 
HETATM   11  C22 UNL     1      -7.252   3.530  12.600  1.00  0.00     0.046 A 
HETATM   12  C27 UNL     1      -4.991   4.400  12.575  1.00  0.00     0.082 A 
HETATM   13  C23 UNL     1      -7.689   4.705  13.203  1.00  0.00     0.066 A 
HETATM   14  C24 UNL     1      -6.795   5.723  13.504  1.00  0.00     0.046 A 
HETATM   15  C25 UNL     1      -5.434   5.578  13.202  1.00  0.00    -0.025 A 
HETATM   16  C26 UNL     1      -4.480   6.696  13.511  1.00  0.00     0.051 C 
HETATM   17  O3  UNL     1      -3.652   4.326  12.292  1.00  0.00    -0.340 OA
BRANCH  13  18
HETATM   18  O2  UNL     1      -9.001   4.896  13.518  1.00  0.00    -0.361 OA
HETATM   19  H36 UNL     1      -9.500   4.105  13.258  1.00  0.00     0.217 HD
ENDBRANCH  13  18
ENDBRANCH   5   6
ENDBRANCH   4   5
ENDBRANCH   3   4
BRANCH   1  20
HETATM   20  C11 UNL     1      -0.355   7.480  12.349  1.00  0.00     0.034 C 
BRANCH  20  21
HETATM   21  C10 UNL     1       0.566   8.145  11.313  1.00  0.00     0.014 C 
BRANCH  21  22
HETATM   22  C9  UNL     1       1.576   7.188  10.614  1.00  0.00     0.024 C 
HETATM   23  C2  UNL     1       1.564   7.297   9.073  1.00  0.00    -0.084 C 
HETATM   24  C1  UNL     1       0.793   8.120   8.338  1.00  0.00     0.015 C 
HETATM   25  C3  UNL     1       2.570   6.432   8.339  1.00  0.00     0.036 C 
HETATM   26  C4  UNL     1       3.228   5.398   9.239  1.00  0.00     0.037 C 
HETATM   27  C5  UNL     1       3.842   6.012  10.504  1.00  0.00     0.127 C 
HETATM   28  C6  UNL     1       3.080   7.259  11.085  1.00  0.00    -0.014 C 
HETATM   29  C7  UNL     1       3.745   8.593  10.650  1.00  0.00     0.018 C 
HETATM   30  C8  UNL     1       3.246   7.191  12.618  1.00  0.00     0.018 C 
BRANCH  27  31
HETATM   31  O1  UNL     1       5.216   6.326  10.266  1.00  0.00    -0.395 OA
HETATM   32  H8  UNL     1       5.666   5.504  10.008  1.00  0.00     0.210 HD
ENDBRANCH  27  31
ENDBRANCH  21  22
ENDBRANCH  20  21
ENDBRANCH   1  20
TORSDOF 8
ENDMDL
MODEL 7
REMARK minimizedAffinity -9.06669712
REMARK  8 active torsions:
REMARK  status: ('A' for Active; 'I' for Inactive)
REMARK    1  A    between atoms: C5_5  and  O1_6 
REMARK    2  A    between atoms: C9_10  and  C10_11 
REMARK    3  A    between atoms: C10_11  and  C11_12 
REMARK    4  A    between atoms: C11_12  and  C12_13 
REMARK    5  A    between atoms: C14_15  and  C15_16 
REMARK    6  A    between atoms: C15_16  and  C16_17 
REMARK    7  A    between atoms: C16_17  and  C17_18 
REMARK    8  A    between atoms: C23_24  and  O2_25 
ROOT
HETATM    1  C12 UNL     1      -3.678   8.694  13.707  1.00  0.00    -0.087 C 
HETATM    2  C13 UNL     1      -3.209   8.763  15.136  1.00  0.00     0.043 C 
HETATM    3  C14 UNL     1      -2.886   8.798  12.621  1.00  0.00    -0.024 C 
ENDROOT
BRANCH   3   4
HETATM    4  C15 UNL     1      -1.397   8.987  12.569  1.00  0.00     0.030 C 
BRANCH   4   5
HETATM    5  C16 UNL     1      -0.777   8.810  11.171  1.00  0.00     0.042 C 
BRANCH   5   6
HETATM    6  C17 UNL     1       0.287   7.691  10.981  1.00  0.00     0.065 C 
HETATM    7  C18 UNL     1      -0.264   6.334  11.445  1.00  0.00     0.046 C 
HETATM    8  C19 UNL     1       0.666   7.680   9.486  1.00  0.00     0.043 C 
HETATM    9  C20 UNL     1       1.809   6.721   9.202  1.00  0.00     0.044 C 
HETATM   10  C21 UNL     1       2.891   6.871  10.229  1.00  0.00    -0.021 A 
HETATM   11  C22 UNL     1       4.162   6.338   9.972  1.00  0.00     0.046 A 
HETATM   12  C27 UNL     1       2.643   7.507  11.453  1.00  0.00     0.082 A 
HETATM   13  C23 UNL     1       5.171   6.464  10.921  1.00  0.00     0.066 A 
HETATM   14  C24 UNL     1       4.935   7.112  12.126  1.00  0.00     0.046 A 
HETATM   15  C25 UNL     1       3.670   7.648  12.401  1.00  0.00    -0.025 A 
HETATM   16  C26 UNL     1       3.420   8.326  13.718  1.00  0.00     0.051 C 
HETATM   17  O3  UNL     1       1.425   8.040  11.787  1.00  0.00    -0.340 OA
BRANCH  13  18
HETATM   18  O2  UNL     1       6.419   5.960  10.703  1.00  0.00    -0.361 OA
HETATM   19  H36 UNL     1       6.436   5.546   9.825  1.00  0.00     0.217 HD
ENDBRANCH  13  18
ENDBRANCH   5   6
ENDBRANCH   4   5
ENDBRANCH   3   4
BRANCH   1  20
HETATM   20  C11 UNL     1      -5.180   8.522  13.533  1.00  0.00     0.034 C 
BRANCH  20  21
HETATM   21  C10 UNL     1      -5.739   7.334  14.337  1.00  0.00     0.014 C 
BRANCH  21  22
HETATM   22  C9  UNL     1      -6.130   6.088  13.490  1.00  0.00     0.024 C 
HETATM   23  C2  UNL     1      -5.018   5.018  13.416  1.00  0.00    -0.084 C 
HETATM   24  C1  UNL     1      -3.810   5.082  14.007  1.00  0.00     0.015 C 
HETATM   25  C3  UNL     1      -5.364   3.753  12.655  1.00  0.00     0.036 C 
HETATM   26  C4  UNL     1      -6.653   3.878  11.859  1.00  0.00     0.037 C 
HETATM   27  C5  UNL     1      -7.837   4.354  12.709  1.00  0.00     0.127 C 
HETATM   28  C6  UNL     1      -7.474   5.353  13.868  1.00  0.00    -0.014 C 
HETATM   29  C7  UNL     1      -7.355   4.629  15.236  1.00  0.00     0.018 C 
HETATM   30  C8  UNL     1      -8.677   6.311  14.006  1.00  0.00     0.018 C 
BRANCH  27  31
HETATM   31  O1  UNL     1      -8.546   3.224  13.221  1.00  0.00    -0.395 OA
HETATM   32  H8  UNL     1      -8.837   2.690  12.464  1.00  0.00     0.210 HD
ENDBRANCH  27  31
ENDBRANCH  21  22
ENDBRANCH  20  21
ENDBRANCH   1  20
TORSDOF 8
ENDMDL
MODEL 8
REMARK minimizedAffinity -9.04676151
REMARK  8 active torsions:
REMARK  status: ('A' for Active; 'I' for Inactive)
REMARK    1  A    between atoms: C5_5  and  O1_6 
REMARK    2  A    between atoms: C9_10  and  C10_11 
REMARK    3  A    between atoms: C10_11  and  C11_12 
REMARK    4  A    between atoms: C11_12  and  C12_13 
REMARK    5  A    between atoms: C14_15  and  C15_16 
REMARK    6  A    between atoms: C15_16  and  C16_17 
REMARK    7  A    between atoms: C16_17  and  C17_18 
REMARK    8  A    between atoms: C23_24  and  O2_25 
ROOT
HETATM    1  C12 UNL     1      -0.160   6.371  11.381  1.00  0.00    -0.087 C 
HETATM    2  C13 UNL     1      -1.181   7.156  12.161  1.00  0.00     0.043 C 
HETATM    3  C14 UNL     1       0.061   5.046  11.499  1.00  0.00    -0.024 C 
ENDROOT
BRANCH   3   4
HETATM    4  C15 UNL     1      -0.638   4.061  12.392  1.00  0.00     0.030 C 
BRANCH   4   5
HETATM    5  C16 UNL     1      -1.303   2.886  11.654  1.00  0.00     0.042 C 
BRANCH   5   6
HETATM    6  C17 UNL     1      -2.822   2.993  11.333  1.00  0.00     0.065 C 
HETATM    7  C18 UNL     1      -3.040   3.503   9.899  1.00  0.00     0.046 C 
HETATM    8  C19 UNL     1      -3.426   1.590  11.545  1.00  0.00     0.043 C 
HETATM    9  C20 UNL     1      -4.938   1.600  11.401  1.00  0.00     0.044 C 
HETATM   10  C21 UNL     1      -5.530   2.768  12.131  1.00  0.00    -0.021 A 
HETATM   11  C22 UNL     1      -6.904   2.779  12.411  1.00  0.00     0.046 A 
HETATM   12  C27 UNL     1      -4.738   3.860  12.510  1.00  0.00     0.082 A 
HETATM   13  C23 UNL     1      -7.465   3.862  13.082  1.00  0.00     0.066 A 
HETATM   14  C24 UNL     1      -6.680   4.936  13.477  1.00  0.00     0.046 A 
HETATM   15  C25 UNL     1      -5.305   4.943  13.204  1.00  0.00    -0.025 A 
HETATM   16  C26 UNL     1      -4.470   6.121  13.616  1.00  0.00     0.051 C 
HETATM   17  O3  UNL     1      -3.392   3.933  12.261  1.00  0.00    -0.340 OA
BRANCH  13  18
HETATM   18  O2  UNL     1      -8.796   3.905  13.372  1.00  0.00    -0.361 OA
HETATM   19  H36 UNL     1      -9.210   3.090  13.044  1.00  0.00     0.217 HD
ENDBRANCH  13  18
ENDBRANCH   5   6
ENDBRANCH   4   5
ENDBRANCH   3   4
BRANCH   1  20
HETATM   20  C11 UNL     1       0.681   7.195  10.417  1.00  0.00     0.034 C 
BRANCH  20  21
HETATM   21  C10 UNL     1       1.254   8.466  11.065  1.00  0.00     0.014 C 
BRANCH  21  22
HETATM   22  C9  UNL     1       2.779   8.420  11.379  1.00  0.00     0.024 C 
HETATM   23  C2  UNL     1       3.101   7.913  12.801  1.00  0.00    -0.084 C 
HETATM   24  C1  UNL     1       2.208   7.521  13.729  1.00  0.00     0.015 C 
HETATM   25  C3  UNL     1       4.573   7.788  13.144  1.00  0.00     0.036 C 
HETATM   26  C4  UNL     1       5.476   8.452  12.117  1.00  0.00     0.037 C 
HETATM   27  C5  UNL     1       5.198   7.981  10.683  1.00  0.00     0.127 C 
HETATM   28  C6  UNL     1       3.698   7.629  10.370  1.00  0.00    -0.014 C 
HETATM   29  C7  UNL     1       3.437   6.101  10.450  1.00  0.00     0.018 C 
HETATM   30  C8  UNL     1       3.462   8.015   8.894  1.00  0.00     0.018 C 
BRANCH  27  31
HETATM   31  O1  UNL     1       6.052   6.880  10.366  1.00  0.00    -0.395 OA
HETATM   32  H8  UNL     1       6.971   7.177  10.477  1.00  0.00     0.210 HD
ENDBRANCH  27  31
ENDBRANCH  21  22
ENDBRANCH  20  21
ENDBRANCH   1  20
TORSDOF 8
ENDMDL
MODEL 9
REMARK minimizedAffinity -9.01940918
REMARK  8 active torsions:
REMARK  status: ('A' for Active; 'I' for Inactive)
REMARK    1  A    between atoms: C5_5  and  O1_6 
REMARK    2  A    between atoms: C9_10  and  C10_11 
REMARK    3  A    between atoms: C10_11  and  C11_12 
REMARK    4  A    between atoms: C11_12  and  C12_13 
REMARK    5  A    between atoms: C14_15  and  C15_16 
REMARK    6  A    between atoms: C15_16  and  C16_17 
REMARK    7  A    between atoms: C16_17  and  C17_18 
REMARK    8  A    between atoms: C23_24  and  O2_25 
ROOT
HETATM    1  C12 UNL     1      -1.183   8.079  12.955  1.00  0.00    -0.087 C 
HETATM    2  C13 UNL     1      -1.378   9.126  11.892  1.00  0.00     0.043 C 
HETATM    3  C14 UNL     1      -1.940   7.943  14.063  1.00  0.00    -0.024 C 
ENDROOT
BRANCH   3   4
HETATM    4  C15 UNL     1      -3.126   8.762  14.487  1.00  0.00     0.030 C 
BRANCH   4   5
HETATM    5  C16 UNL     1      -4.444   8.393  13.783  1.00  0.00     0.042 C 
BRANCH   5   6
HETATM    6  C17 UNL     1      -5.154   7.076  14.208  1.00  0.00     0.065 C 
HETATM    7  C18 UNL     1      -4.652   6.608  15.583  1.00  0.00     0.046 C 
HETATM    8  C19 UNL     1      -6.669   7.364  14.214  1.00  0.00     0.043 C 
HETATM    9  C20 UNL     1      -7.481   6.107  14.476  1.00  0.00     0.044 C 
HETATM   10  C21 UNL     1      -6.958   4.963  13.661  1.00  0.00    -0.021 A 
HETATM   11  C22 UNL     1      -7.752   3.819  13.492  1.00  0.00     0.046 A 
HETATM   12  C27 UNL     1      -5.678   5.006  13.092  1.00  0.00     0.082 A 
HETATM   13  C23 UNL     1      -7.274   2.748  12.744  1.00  0.00     0.066 A 
HETATM   14  C24 UNL     1      -6.015   2.795  12.162  1.00  0.00     0.046 A 
HETATM   15  C25 UNL     1      -5.206   3.929  12.322  1.00  0.00    -0.025 A 
HETATM   16  C26 UNL     1      -3.836   3.959  11.707  1.00  0.00     0.051 C 
HETATM   17  O3  UNL     1      -4.834   6.078  13.223  1.00  0.00    -0.340 OA
BRANCH  13  18
HETATM   18  O2  UNL     1      -8.020   1.623  12.557  1.00  0.00    -0.361 OA
HETATM   19  H36 UNL     1      -8.870   1.736  13.012  1.00  0.00     0.217 HD
ENDBRANCH  13  18
ENDBRANCH   5   6
ENDBRANCH   4   5
ENDBRANCH   3   4
BRANCH   1  20
HETATM   20  C11 UNL     1      -0.006   7.142  12.725  1.00  0.00     0.034 C 
BRANCH  20  21
HETATM   21  C10 UNL     1       1.323   7.894  12.538  1.00  0.00     0.014 C 
BRANCH  21  22
HETATM   22  C9  UNL     1       1.888   7.889  11.087  1.00  0.00     0.024 C 
HETATM   23  C2  UNL     1       3.391   8.235  11.009  1.00  0.00    -0.084 C 
HETATM   24  C1  UNL     1       4.200   8.513  12.049  1.00  0.00     0.015 C 
HETATM   25  C3  UNL     1       4.013   8.187   9.627  1.00  0.00     0.036 C 
HETATM   26  C4  UNL     1       2.977   8.078   8.518  1.00  0.00     0.037 C 
HETATM   27  C5  UNL     1       1.999   6.915   8.727  1.00  0.00     0.127 C 
HETATM   28  C6  UNL     1       1.652   6.588  10.226  1.00  0.00    -0.014 C 
HETATM   29  C7  UNL     1       2.491   5.398  10.764  1.00  0.00     0.018 C 
HETATM   30  C8  UNL     1       0.186   6.105  10.236  1.00  0.00     0.018 C 
BRANCH  27  31
HETATM   31  O1  UNL     1       2.486   5.751   8.057  1.00  0.00    -0.395 OA
HETATM   32  H8  UNL     1       2.589   5.972   7.117  1.00  0.00     0.210 HD
ENDBRANCH  27  31
ENDBRANCH  21  22
ENDBRANCH  20  21
ENDBRANCH   1  20
TORSDOF 8
ENDMDL
