MODEL 1
REMARK minimizedAffinity -10.2666483
REMARK  6 active torsions:
REMARK  status: ('A' for Active; 'I' for Inactive)
REMARK    1  A    between atoms: C2_2  and  C3_3 
REMARK    2  A    between atoms: C2_2  and  C27_30 
REMARK    3  A    between atoms: C3_3  and  C4_4 
REMARK    4  A    between atoms: C4_4  and  C5_5 
REMARK    5  A    between atoms: C5_5  and  C7_7 
REMARK    6  A    between atoms: C26_28  and  O3_29 
ROOT
HETATM    1  C7  UNL     1       1.288   6.866  13.265  1.00  0.00    -0.002 C 
HETATM    2  C8  UNL     1       0.445   7.962  13.968  1.00  0.00     0.006 C 
HETATM    3  C9  UNL     1      -1.016   7.496  13.947  1.00  0.00     0.010 C 
HETATM    4  C10 UNL     1      -0.944   6.058  13.441  1.00  0.00     0.027 C 
HETATM    5  C11 UNL     1      -2.178   5.360  12.920  1.00  0.00    -0.036 C 
HETATM    6  C12 UNL     1      -2.075   4.300  12.080  1.00  0.00     0.002 C 
HETATM    7  C13 UNL     1      -0.694   3.896  11.596  1.00  0.00     0.157 C 
HETATM    8  O1  UNL     1      -0.551   2.953  10.818  1.00  0.00    -0.293 OA
HETATM    9  C14 UNL     1       0.535   4.647  12.087  1.00  0.00     0.093 C 
HETATM   10  C15 UNL     1       0.218   6.106  12.419  1.00  0.00    -0.026 C 
HETATM   11  C16 UNL     1      -0.127   6.884  11.123  1.00  0.00     0.016 C 
HETATM   12  C17 UNL     1      -3.292   3.487  11.590  1.00  0.00    -0.008 C 
HETATM   13  C18 UNL     1      -3.540   3.912  10.118  1.00  0.00     0.021 C 
HETATM   14  C19 UNL     1      -3.039   1.944  11.641  1.00  0.00     0.022 C 
HETATM   15  C20 UNL     1      -4.264   1.074  11.925  1.00  0.00     0.080 C 
HETATM   16  C21 UNL     1      -5.539   1.713  11.441  1.00  0.00     0.131 C 
HETATM   17  O2  UNL     1      -6.336   1.101  10.730  1.00  0.00    -0.298 OA
HETATM   18  C22 UNL     1      -5.833   3.119  11.938  1.00  0.00     0.056 C 
HETATM   19  C23 UNL     1      -6.952   3.037  12.977  1.00  0.00     0.018 C 
HETATM   20  C24 UNL     1      -4.546   3.772  12.494  1.00  0.00     0.012 C 
HETATM   21  C25 UNL     1      -4.723   5.276  12.736  1.00  0.00     0.042 C 
HETATM   22  C26 UNL     1      -3.500   5.856  13.445  1.00  0.00     0.148 C 
ENDROOT
BRANCH   1  23
HETATM   23  C5  UNL     1       2.563   7.435  12.570  1.00  0.00    -0.014 C 
HETATM   24  C6  UNL     1       2.338   8.870  12.075  1.00  0.00     0.010 C 
BRANCH  23  25
HETATM   25  C4  UNL     1       2.997   6.572  11.349  1.00  0.00     0.009 C 
BRANCH  25  26
HETATM   26  C3  UNL     1       3.466   7.330  10.096  1.00  0.00     0.034 C 
BRANCH  26  27
HETATM   27  C2  UNL     1       2.973   6.804   8.759  1.00  0.00    -0.086 C 
HETATM   28  C1  UNL     1       3.074   5.492   8.476  1.00  0.00     0.014 C 
BRANCH  27  29
HETATM   29  C27 UNL     1       2.279   7.735   7.767  1.00  0.00     0.005 C 
HETATM   30  C28 UNL     1       1.893   7.054   6.452  1.00  0.00     0.014 C 
HETATM   31  C29 UNL     1       1.076   8.455   8.378  1.00  0.00     0.014 C 
ENDBRANCH  27  29
ENDBRANCH  26  27
ENDBRANCH  25  26
ENDBRANCH  23  25
ENDBRANCH   1  23
BRANCH  22  32
HETATM   32  O3  UNL     1      -3.545   5.509  14.826  1.00  0.00    -0.391 OA
HETATM   33  H37 UNL     1      -4.322   5.948  15.211  1.00  0.00     0.210 HD
ENDBRANCH  22  32
TORSDOF 6
ENDMDL
MODEL 2
REMARK minimizedAffinity -10.0316963
REMARK  6 active torsions:
REMARK  status: ('A' for Active; 'I' for Inactive)
REMARK    1  A    between atoms: C2_2  and  C3_3 
REMARK    2  A    between atoms: C2_2  and  C27_30 
REMARK    3  A    between atoms: C3_3  and  C4_4 
REMARK    4  A    between atoms: C4_4  and  C5_5 
REMARK    5  A    between atoms: C5_5  and  C7_7 
REMARK    6  A    between atoms: C26_28  and  O3_29 
ROOT
HETATM    1  C7  UNL     1       1.079   6.557  11.564  1.00  0.00    -0.002 C 
HETATM    2  C8  UNL     1       1.224   5.054  11.209  1.00  0.00     0.006 C 
HETATM    3  C9  UNL     1      -0.130   4.389  11.480  1.00  0.00     0.010 C 
HETATM    4  C10 UNL     1      -1.072   5.556  11.764  1.00  0.00     0.027 C 
HETATM    5  C11 UNL     1      -2.404   5.329  12.440  1.00  0.00    -0.036 C 
HETATM    6  C12 UNL     1      -3.035   6.338  13.090  1.00  0.00     0.002 C 
HETATM    7  C13 UNL     1      -2.324   7.674  13.209  1.00  0.00     0.157 C 
HETATM    8  O1  UNL     1      -2.848   8.615  13.805  1.00  0.00    -0.293 OA
HETATM    9  C14 UNL     1      -0.957   7.869  12.570  1.00  0.00     0.093 C 
HETATM   10  C15 UNL     1      -0.163   6.564  12.511  1.00  0.00    -0.026 C 
HETATM   11  C16 UNL     1       0.222   6.109  13.942  1.00  0.00     0.016 C 
HETATM   12  C17 UNL     1      -4.438   6.194  13.717  1.00  0.00    -0.008 C 
HETATM   13  C18 UNL     1      -4.225   6.092  15.251  1.00  0.00     0.021 C 
HETATM   14  C19 UNL     1      -5.359   7.420  13.408  1.00  0.00     0.022 C 
HETATM   15  C20 UNL     1      -6.853   7.120  13.280  1.00  0.00     0.080 C 
HETATM   16  C21 UNL     1      -7.266   5.931  14.106  1.00  0.00     0.131 C 
HETATM   17  O2  UNL     1      -8.218   5.987  14.883  1.00  0.00    -0.298 OA
HETATM   18  C22 UNL     1      -6.503   4.636  13.875  1.00  0.00     0.056 C 
HETATM   19  C23 UNL     1      -7.406   3.678  13.099  1.00  0.00     0.018 C 
HETATM   20  C24 UNL     1      -5.168   4.923  13.148  1.00  0.00     0.012 C 
HETATM   21  C25 UNL     1      -4.239   3.703  13.152  1.00  0.00     0.042 C 
HETATM   22  C26 UNL     1      -3.009   3.959  12.280  1.00  0.00     0.148 C 
ENDROOT
BRANCH   1  23
HETATM   23  C5  UNL     1       2.418   7.201  12.038  1.00  0.00    -0.014 C 
HETATM   24  C6  UNL     1       2.326   8.733  12.062  1.00  0.00     0.010 C 
BRANCH  23  25
HETATM   25  C4  UNL     1       3.612   6.810  11.119  1.00  0.00     0.009 C 
BRANCH  25  26
HETATM   26  C3  UNL     1       3.737   7.565   9.786  1.00  0.00     0.034 C 
BRANCH  26  27
HETATM   27  C2  UNL     1       2.986   6.983   8.601  1.00  0.00    -0.086 C 
HETATM   28  C1  UNL     1       3.046   5.661   8.354  1.00  0.00     0.014 C 
BRANCH  27  29
HETATM   29  C27 UNL     1       2.089   7.868   7.739  1.00  0.00     0.005 C 
HETATM   30  C28 UNL     1       1.733   7.249   6.385  1.00  0.00     0.014 C 
HETATM   31  C29 UNL     1       0.827   8.322   8.476  1.00  0.00     0.014 C 
ENDBRANCH  27  29
ENDBRANCH  26  27
ENDBRANCH  25  26
ENDBRANCH  23  25
ENDBRANCH   1  23
BRANCH  22  32
HETATM   32  O3  UNL     1      -3.367   3.830  10.908  1.00  0.00    -0.391 OA
HETATM   33  H37 UNL     1      -3.623   2.904  10.760  1.00  0.00     0.210 HD
ENDBRANCH  22  32
TORSDOF 6
ENDMDL
MODEL 3
REMARK minimizedAffinity -9.4839077
REMARK  6 active torsions:
REMARK  status: ('A' for Active; 'I' for Inactive)
REMARK    1  A    between atoms: C2_2  and  C3_3 
REMARK    2  A    between atoms: C2_2  and  C27_30 
REMARK    3  A    between atoms: C3_3  and  C4_4 
REMARK    4  A    between atoms: C4_4  and  C5_5 
REMARK    5  A    between atoms: C5_5  and  C7_7 
REMARK    6  A    between atoms: C26_28  and  O3_29 
ROOT
HETATM    1  C7  UNL     1      -5.747   7.390  14.135  1.00  0.00    -0.002 C 
HETATM    2  C8  UNL     1      -5.569   8.748  14.864  1.00  0.00     0.006 C 
HETATM    3  C9  UNL     1      -4.108   9.175  14.680  1.00  0.00     0.010 C 
HETATM    4  C10 UNL     1      -3.549   8.177  13.670  1.00  0.00     0.027 C 
HETATM    5  C11 UNL     1      -2.058   8.009  13.494  1.00  0.00    -0.036 C 
HETATM    6  C12 UNL     1      -1.544   6.869  12.968  1.00  0.00     0.002 C 
HETATM    7  C13 UNL     1      -2.494   5.728  12.655  1.00  0.00     0.157 C 
HETATM    8  O1  UNL     1      -2.074   4.666  12.193  1.00  0.00    -0.293 OA
HETATM    9  C14 UNL     1      -3.988   5.893  12.892  1.00  0.00     0.093 C 
HETATM   10  C15 UNL     1      -4.281   6.862  14.039  1.00  0.00    -0.026 C 
HETATM   11  C16 UNL     1      -3.816   6.250  15.385  1.00  0.00     0.016 C 
HETATM   12  C17 UNL     1      -0.041   6.675  12.675  1.00  0.00    -0.008 C 
HETATM   13  C18 UNL     1       0.506   5.740  13.787  1.00  0.00     0.021 C 
HETATM   14  C19 UNL     1       0.214   6.014  11.280  1.00  0.00     0.022 C 
HETATM   15  C20 UNL     1       1.500   6.434  10.565  1.00  0.00     0.080 C 
HETATM   16  C21 UNL     1       2.584   6.828  11.533  1.00  0.00     0.131 C 
HETATM   17  O2  UNL     1       3.716   6.353  11.461  1.00  0.00    -0.298 OA
HETATM   18  C22 UNL     1       2.237   7.903  12.552  1.00  0.00     0.056 C 
HETATM   19  C23 UNL     1       2.935   9.199  12.140  1.00  0.00     0.018 C 
HETATM   20  C24 UNL     1       0.702   8.059  12.664  1.00  0.00     0.012 C 
HETATM   21  C25 UNL     1       0.299   8.913  13.874  1.00  0.00     0.042 C 
HETATM   22  C26 UNL     1      -1.203   9.194  13.859  1.00  0.00     0.148 C 
ENDROOT
BRANCH   1  23
HETATM   23  C5  UNL     1      -6.851   6.496  14.780  1.00  0.00    -0.014 C 
HETATM   24  C6  UNL     1      -6.275   5.610  15.894  1.00  0.00     0.010 C 
BRANCH  23  25
HETATM   25  C4  UNL     1      -7.531   5.564  13.735  1.00  0.00     0.009 C 
BRANCH  25  26
HETATM   26  C3  UNL     1      -6.615   4.905  12.692  1.00  0.00     0.034 C 
BRANCH  26  27
HETATM   27  C2  UNL     1      -6.773   3.407  12.496  1.00  0.00    -0.086 C 
HETATM   28  C1  UNL     1      -7.894   2.790  12.917  1.00  0.00     0.014 C 
BRANCH  27  29
HETATM   29  C27 UNL     1      -5.713   2.606  11.744  1.00  0.00     0.005 C 
HETATM   30  C28 UNL     1      -6.139   1.172  11.423  1.00  0.00     0.014 C 
HETATM   31  C29 UNL     1      -5.221   3.320  10.483  1.00  0.00     0.014 C 
ENDBRANCH  27  29
ENDBRANCH  26  27
ENDBRANCH  25  26
ENDBRANCH  23  25
ENDBRANCH   1  23
BRANCH  22  32
HETATM   32  O3  UNL     1      -1.485  10.208  12.900  1.00  0.00    -0.391 OA
HETATM   33  H37 UNL     1      -1.054  11.025  13.205  1.00  0.00     0.210 HD
ENDBRANCH  22  32
TORSDOF 6
ENDMDL
MODEL 4
REMARK minimizedAffinity -9.39584827
REMARK  6 active torsions:
REMARK  status: ('A' for Active; 'I' for Inactive)
REMARK    1  A    between atoms: C2_2  and  C3_3 
REMARK    2  A    between atoms: C2_2  and  C27_30 
REMARK    3  A    between atoms: C3_3  and  C4_4 
REMARK    4  A    between atoms: C4_4  and  C5_5 
REMARK    5  A    between atoms: C5_5  and  C7_7 
REMARK    6  A    between atoms: C26_28  and  O3_29 
ROOT
HETATM    1  C7  UNL     1       1.245   6.816  13.122  1.00  0.00    -0.002 C 
HETATM    2  C8  UNL     1       0.404   7.934  13.793  1.00  0.00     0.006 C 
HETATM    3  C9  UNL     1      -1.058   7.472  13.782  1.00  0.00     0.010 C 
HETATM    4  C10 UNL     1      -0.990   6.020  13.316  1.00  0.00     0.027 C 
HETATM    5  C11 UNL     1      -2.225   5.312  12.812  1.00  0.00    -0.036 C 
HETATM    6  C12 UNL     1      -2.124   4.229  12.002  1.00  0.00     0.002 C 
HETATM    7  C13 UNL     1      -0.744   3.808  11.532  1.00  0.00     0.157 C 
HETATM    8  O1  UNL     1      -0.601   2.842  10.781  1.00  0.00    -0.293 OA
HETATM    9  C14 UNL     1       0.487   4.567  12.005  1.00  0.00     0.093 C 
HETATM   10  C15 UNL     1       0.174   6.036  12.295  1.00  0.00    -0.026 C 
HETATM   11  C16 UNL     1      -0.166   6.779  10.978  1.00  0.00     0.016 C 
HETATM   12  C17 UNL     1      -3.343   3.407  11.532  1.00  0.00    -0.008 C 
HETATM   13  C18 UNL     1      -3.586   3.791  10.048  1.00  0.00     0.021 C 
HETATM   14  C19 UNL     1      -3.095   1.865  11.626  1.00  0.00     0.022 C 
HETATM   15  C20 UNL     1      -4.323   1.006  11.932  1.00  0.00     0.080 C 
HETATM   16  C21 UNL     1      -5.595   1.636  11.427  1.00  0.00     0.131 C 
HETATM   17  O2  UNL     1      -6.392   1.008  10.732  1.00  0.00    -0.298 OA
HETATM   18  C22 UNL     1      -5.886   3.057  11.884  1.00  0.00     0.056 C 
HETATM   19  C23 UNL     1      -7.007   3.007  12.922  1.00  0.00     0.018 C 
HETATM   20  C24 UNL     1      -4.597   3.720  12.425  1.00  0.00     0.012 C 
HETATM   21  C25 UNL     1      -4.770   5.231  12.624  1.00  0.00     0.042 C 
HETATM   22  C26 UNL     1      -3.546   5.827  13.320  1.00  0.00     0.148 C 
ENDROOT
BRANCH   1  23
HETATM   23  C5  UNL     1       2.524   7.361  12.415  1.00  0.00    -0.014 C 
HETATM   24  C6  UNL     1       2.308   8.787  11.887  1.00  0.00     0.010 C 
BRANCH  23  25
HETATM   25  C4  UNL     1       2.952   6.469  11.212  1.00  0.00     0.009 C 
BRANCH  25  26
HETATM   26  C3  UNL     1       3.984   7.063  10.241  1.00  0.00     0.034 C 
BRANCH  26  27
HETATM   27  C2  UNL     1       5.325   7.461  10.832  1.00  0.00    -0.086 C 
HETATM   28  C1  UNL     1       5.804   8.703  10.632  1.00  0.00     0.014 C 
BRANCH  27  29
HETATM   29  C27 UNL     1       6.094   6.495  11.730  1.00  0.00     0.005 C 
HETATM   30  C28 UNL     1       6.891   5.441  10.959  1.00  0.00     0.014 C 
HETATM   31  C29 UNL     1       6.987   7.216  12.741  1.00  0.00     0.014 C 
ENDBRANCH  27  29
ENDBRANCH  26  27
ENDBRANCH  25  26
ENDBRANCH  23  25
ENDBRANCH   1  23
BRANCH  22  32
HETATM   32  O3  UNL     1      -3.596   5.518  14.709  1.00  0.00    -0.391 OA
HETATM   33  H37 UNL     1      -4.372   5.971  15.080  1.00  0.00     0.210 HD
ENDBRANCH  22  32
TORSDOF 6
ENDMDL
MODEL 5
REMARK minimizedAffinity -8.92614269
REMARK  6 active torsions:
REMARK  status: ('A' for Active; 'I' for Inactive)
REMARK    1  A    between atoms: C2_2  and  C3_3 
REMARK    2  A    between atoms: C2_2  and  C27_30 
REMARK    3  A    between atoms: C3_3  and  C4_4 
REMARK    4  A    between atoms: C4_4  and  C5_5 
REMARK    5  A    between atoms: C5_5  and  C7_7 
REMARK    6  A    between atoms: C26_28  and  O3_29 
ROOT
HETATM    1  C7  UNL     1       1.723   6.708  11.471  1.00  0.00    -0.002 C 
HETATM    2  C8  UNL     1       1.874   5.229  11.029  1.00  0.00     0.006 C 
HETATM    3  C9  UNL     1       0.523   4.544  11.263  1.00  0.00     0.010 C 
HETATM    4  C10 UNL     1      -0.423   5.688  11.615  1.00  0.00     0.027 C 
HETATM    5  C11 UNL     1      -1.753   5.415  12.278  1.00  0.00    -0.036 C 
HETATM    6  C12 UNL     1      -2.387   6.382  12.987  1.00  0.00     0.002 C 
HETATM    7  C13 UNL     1      -1.682   7.712  13.184  1.00  0.00     0.157 C 
HETATM    8  O1  UNL     1      -2.209   8.614  13.835  1.00  0.00    -0.293 OA
HETATM    9  C14 UNL     1      -0.317   7.950  12.556  1.00  0.00     0.093 C 
HETATM   10  C15 UNL     1       0.483   6.654  12.419  1.00  0.00    -0.026 C 
HETATM   11  C16 UNL     1       0.872   6.117  13.820  1.00  0.00     0.016 C 
HETATM   12  C17 UNL     1      -3.788   6.195  13.607  1.00  0.00    -0.008 C 
HETATM   13  C18 UNL     1      -3.573   6.005  15.132  1.00  0.00     0.021 C 
HETATM   14  C19 UNL     1      -4.715   7.434  13.371  1.00  0.00     0.022 C 
HETATM   15  C20 UNL     1      -6.208   7.136  13.228  1.00  0.00     0.080 C 
HETATM   16  C21 UNL     1      -6.615   5.898  13.984  1.00  0.00     0.131 C 
HETATM   17  O2  UNL     1      -7.566   5.904  14.764  1.00  0.00    -0.298 OA
HETATM   18  C22 UNL     1      -5.847   4.622  13.677  1.00  0.00     0.056 C 
HETATM   19  C23 UNL     1      -6.747   3.708  12.846  1.00  0.00     0.018 C 
HETATM   20  C24 UNL     1      -4.514   4.957  12.966  1.00  0.00     0.012 C 
HETATM   21  C25 UNL     1      -3.580   3.743  12.896  1.00  0.00     0.042 C 
HETATM   22  C26 UNL     1      -2.353   4.055  12.040  1.00  0.00     0.148 C 
ENDROOT
BRANCH   1  23
HETATM   23  C5  UNL     1       3.060   7.328  11.981  1.00  0.00    -0.014 C 
HETATM   24  C6  UNL     1       2.939   8.848  12.163  1.00  0.00     0.010 C 
BRANCH  23  25
HETATM   25  C4  UNL     1       4.240   7.059  11.002  1.00  0.00     0.009 C 
BRANCH  25  26
HETATM   26  C3  UNL     1       5.545   6.529  11.617  1.00  0.00     0.034 C 
BRANCH  26  27
HETATM   27  C2  UNL     1       6.337   7.501  12.474  1.00  0.00    -0.086 C 
HETATM   28  C1  UNL     1       6.750   8.672  11.954  1.00  0.00     0.014 C 
BRANCH  27  29
HETATM   29  C27 UNL     1       6.593   7.204  13.950  1.00  0.00     0.005 C 
HETATM   30  C28 UNL     1       7.966   7.668  14.442  1.00  0.00     0.014 C 
HETATM   31  C29 UNL     1       5.483   7.737  14.858  1.00  0.00     0.014 C 
ENDBRANCH  27  29
ENDBRANCH  26  27
ENDBRANCH  25  26
ENDBRANCH  23  25
ENDBRANCH   1  23
BRANCH  22  32
HETATM   32  O3  UNL     1      -2.712   4.005  10.663  1.00  0.00    -0.391 OA
HETATM   33  H37 UNL     1      -2.965   3.088  10.461  1.00  0.00     0.210 HD
ENDBRANCH  22  32
TORSDOF 6
ENDMDL
MODEL 6
REMARK minimizedAffinity -8.90547371
REMARK  6 active torsions:
REMARK  status: ('A' for Active; 'I' for Inactive)
REMARK    1  A    between atoms: C2_2  and  C3_3 
REMARK    2  A    between atoms: C2_2  and  C27_30 
REMARK    3  A    between atoms: C3_3  and  C4_4 
REMARK    4  A    between atoms: C4_4  and  C5_5 
REMARK    5  A    between atoms: C5_5  and  C7_7 
REMARK    6  A    between atoms: C26_28  and  O3_29 
ROOT
HETATM    1  C7  UNL     1      -5.553   6.451  13.268  1.00  0.00    -0.002 C 
HETATM    2  C8  UNL     1      -5.600   7.878  13.876  1.00  0.00     0.006 C 
HETATM    3  C9  UNL     1      -4.187   8.464  13.770  1.00  0.00     0.010 C 
HETATM    4  C10 UNL     1      -3.427   7.459  12.909  1.00  0.00     0.027 C 
HETATM    5  C11 UNL     1      -1.917   7.462  12.871  1.00  0.00    -0.036 C 
HETATM    6  C12 UNL     1      -1.229   6.353  12.500  1.00  0.00     0.002 C 
HETATM    7  C13 UNL     1      -2.009   5.081  12.223  1.00  0.00     0.157 C 
HETATM    8  O1  UNL     1      -1.428   4.044  11.900  1.00  0.00    -0.293 OA
HETATM    9  C14 UNL     1      -3.527   5.081  12.321  1.00  0.00     0.093 C 
HETATM   10  C15 UNL     1      -4.033   6.101  13.342  1.00  0.00    -0.026 C 
HETATM   11  C16 UNL     1      -3.626   5.668  14.774  1.00  0.00     0.016 C 
HETATM   12  C17 UNL     1       0.307   6.321  12.349  1.00  0.00    -0.008 C 
HETATM   13  C18 UNL     1       0.854   5.560  13.587  1.00  0.00     0.021 C 
HETATM   14  C19 UNL     1       0.764   5.580  11.050  1.00  0.00     0.022 C 
HETATM   15  C20 UNL     1       2.052   6.092  10.404  1.00  0.00     0.080 C 
HETATM   16  C21 UNL     1       2.990   6.699  11.414  1.00  0.00     0.131 C 
HETATM   17  O2  UNL     1       4.172   6.361  11.480  1.00  0.00    -0.298 OA
HETATM   18  C22 UNL     1       2.430   7.806  12.294  1.00  0.00     0.056 C 
HETATM   19  C23 UNL     1       3.009   9.138  11.817  1.00  0.00     0.018 C 
HETATM   20  C24 UNL     1       0.883   7.781  12.266  1.00  0.00     0.012 C 
HETATM   21  C25 UNL     1       0.276   8.678  13.351  1.00  0.00     0.042 C 
HETATM   22  C26 UNL     1      -1.241   8.770  13.188  1.00  0.00     0.148 C 
ENDROOT
BRANCH   1  23
HETATM   23  C5  UNL     1      -6.601   5.486  13.904  1.00  0.00    -0.014 C 
HETATM   24  C6  UNL     1      -6.513   4.082  13.291  1.00  0.00     0.010 C 
BRANCH  23  25
HETATM   25  C4  UNL     1      -8.059   5.999  13.713  1.00  0.00     0.009 C 
BRANCH  25  26
HETATM   26  C3  UNL     1      -8.737   6.635  14.937  1.00  0.00     0.034 C 
BRANCH  26  27
HETATM   27  C2  UNL     1      -9.952   7.504  14.666  1.00  0.00    -0.086 C 
HETATM   28  C1  UNL     1     -11.043   6.970  14.085  1.00  0.00     0.014 C 
BRANCH  27  29
HETATM   29  C27 UNL     1      -9.986   8.958  15.130  1.00  0.00     0.005 C 
HETATM   30  C28 UNL     1     -10.932   9.842  14.314  1.00  0.00     0.014 C 
HETATM   31  C29 UNL     1     -10.274   9.093  16.626  1.00  0.00     0.014 C 
ENDBRANCH  27  29
ENDBRANCH  26  27
ENDBRANCH  25  26
ENDBRANCH  23  25
ENDBRANCH   1  23
BRANCH  22  32
HETATM   32  O3  UNL     1      -1.549   9.656  12.117  1.00  0.00    -0.391 OA
HETATM   33  H37 UNL     1      -1.244  10.542  12.376  1.00  0.00     0.210 HD
ENDBRANCH  22  32
TORSDOF 6
ENDMDL
MODEL 7
REMARK minimizedAffinity -8.89322186
REMARK  6 active torsions:
REMARK  status: ('A' for Active; 'I' for Inactive)
REMARK    1  A    between atoms: C2_2  and  C3_3 
REMARK    2  A    between atoms: C2_2  and  C27_30 
REMARK    3  A    between atoms: C3_3  and  C4_4 
REMARK    4  A    between atoms: C4_4  and  C5_5 
REMARK    5  A    between atoms: C5_5  and  C7_7 
REMARK    6  A    between atoms: C26_28  and  O3_29 
ROOT
HETATM    1  C7  UNL     1      -1.762   5.261  13.212  1.00  0.00    -0.002 C 
HETATM    2  C8  UNL     1      -1.758   4.779  11.738  1.00  0.00     0.006 C 
HETATM    3  C9  UNL     1      -0.399   5.161  11.139  1.00  0.00     0.010 C 
HETATM    4  C10 UNL     1       0.417   5.642  12.335  1.00  0.00     0.027 C 
HETATM    5  C11 UNL     1       1.675   6.454  12.136  1.00  0.00    -0.036 C 
HETATM    6  C12 UNL     1       2.154   7.250  13.125  1.00  0.00     0.002 C 
HETATM    7  C13 UNL     1       1.340   7.383  14.399  1.00  0.00     0.157 C 
HETATM    8  O1  UNL     1       1.723   8.107  15.318  1.00  0.00    -0.293 OA
HETATM    9  C14 UNL     1       0.045   6.600  14.561  1.00  0.00     0.093 C 
HETATM   10  C15 UNL     1      -0.642   6.348  13.218  1.00  0.00    -0.026 C 
HETATM   11  C16 UNL     1      -1.155   7.684  12.622  1.00  0.00     0.016 C 
HETATM   12  C17 UNL     1       3.482   8.028  13.017  1.00  0.00    -0.008 C 
HETATM   13  C18 UNL     1       3.102   9.514  12.775  1.00  0.00     0.021 C 
HETATM   14  C19 UNL     1       4.341   7.925  14.320  1.00  0.00     0.022 C 
HETATM   15  C20 UNL     1       5.858   7.956  14.126  1.00  0.00     0.080 C 
HETATM   16  C21 UNL     1       6.258   8.735  12.900  1.00  0.00     0.131 C 
HETATM   17  O2  UNL     1       7.108   9.622  12.950  1.00  0.00    -0.298 OA
HETATM   18  C22 UNL     1       5.621   8.317  11.584  1.00  0.00     0.056 C 
HETATM   19  C23 UNL     1       6.674   7.585  10.752  1.00  0.00     0.018 C 
HETATM   20  C24 UNL     1       4.362   7.458  11.846  1.00  0.00     0.012 C 
HETATM   21  C25 UNL     1       3.528   7.258  10.574  1.00  0.00     0.042 C 
HETATM   22  C26 UNL     1       2.392   6.267  10.824  1.00  0.00     0.148 C 
ENDROOT
BRANCH   1  23
HETATM   23  C5  UNL     1      -3.190   5.618  13.730  1.00  0.00    -0.014 C 
HETATM   24  C6  UNL     1      -3.163   6.031  15.208  1.00  0.00     0.010 C 
BRANCH  23  25
HETATM   25  C4  UNL     1      -4.179   4.423  13.588  1.00  0.00     0.009 C 
BRANCH  25  26
HETATM   26  C3  UNL     1      -5.492   4.695  12.838  1.00  0.00     0.034 C 
BRANCH  26  27
HETATM   27  C2  UNL     1      -6.315   3.480  12.443  1.00  0.00    -0.086 C 
HETATM   28  C1  UNL     1      -7.360   3.102  13.204  1.00  0.00     0.014 C 
BRANCH  27  29
HETATM   29  C27 UNL     1      -6.025   2.736  11.142  1.00  0.00     0.005 C 
HETATM   30  C28 UNL     1      -4.764   3.221  10.424  1.00  0.00     0.014 C 
HETATM   31  C29 UNL     1      -5.994   1.218  11.326  1.00  0.00     0.014 C 
ENDBRANCH  27  29
ENDBRANCH  26  27
ENDBRANCH  25  26
ENDBRANCH  23  25
ENDBRANCH   1  23
BRANCH  22  32
HETATM   32  O3  UNL     1       2.914   4.942  10.832  1.00  0.00    -0.391 OA
HETATM   33  H37 UNL     1       3.251   4.757   9.939  1.00  0.00     0.210 HD
ENDBRANCH  22  32
TORSDOF 6
ENDMDL
MODEL 8
REMARK minimizedAffinity -8.83928394
REMARK  6 active torsions:
REMARK  status: ('A' for Active; 'I' for Inactive)
REMARK    1  A    between atoms: C2_2  and  C3_3 
REMARK    2  A    between atoms: C2_2  and  C27_30 
REMARK    3  A    between atoms: C3_3  and  C4_4 
REMARK    4  A    between atoms: C4_4  and  C5_5 
REMARK    5  A    between atoms: C5_5  and  C7_7 
REMARK    6  A    between atoms: C26_28  and  O3_29 
ROOT
HETATM    1  C7  UNL     1      -5.163   4.106  13.332  1.00  0.00    -0.002 C 
HETATM    2  C8  UNL     1      -5.050   3.636  11.858  1.00  0.00     0.006 C 
HETATM    3  C9  UNL     1      -3.683   4.096  11.338  1.00  0.00     0.010 C 
HETATM    4  C10 UNL     1      -2.963   4.614  12.579  1.00  0.00     0.027 C 
HETATM    5  C11 UNL     1      -1.743   5.496  12.453  1.00  0.00    -0.036 C 
HETATM    6  C12 UNL     1      -1.365   6.310  13.470  1.00  0.00     0.002 C 
HETATM    7  C13 UNL     1      -2.255   6.389  14.698  1.00  0.00     0.157 C 
HETATM    8  O1  UNL     1      -1.964   7.127  15.640  1.00  0.00    -0.293 OA
HETATM    9  C14 UNL     1      -3.511   5.535  14.785  1.00  0.00     0.093 C 
HETATM   10  C15 UNL     1      -4.107   5.254  13.404  1.00  0.00    -0.026 C 
HETATM   11  C16 UNL     1      -4.660   6.564  12.786  1.00  0.00     0.016 C 
HETATM   12  C17 UNL     1      -0.079   7.162  13.440  1.00  0.00    -0.008 C 
HETATM   13  C18 UNL     1      -0.527   8.626  13.183  1.00  0.00     0.021 C 
HETATM   14  C19 UNL     1       0.712   7.098  14.788  1.00  0.00     0.022 C 
HETATM   15  C20 UNL     1       2.233   7.214  14.679  1.00  0.00     0.080 C 
HETATM   16  C21 UNL     1       2.656   8.022  13.481  1.00  0.00     0.131 C 
HETATM   17  O2  UNL     1       3.451   8.955  13.582  1.00  0.00    -0.298 OA
HETATM   18  C22 UNL     1       2.118   7.579  12.129  1.00  0.00     0.056 C 
HETATM   19  C23 UNL     1       3.254   6.912  11.355  1.00  0.00     0.018 C 
HETATM   20  C24 UNL     1       0.895   6.649  12.318  1.00  0.00     0.012 C 
HETATM   21  C25 UNL     1       0.146   6.412  11.000  1.00  0.00     0.042 C 
HETATM   22  C26 UNL     1      -0.945   5.358  11.183  1.00  0.00     0.148 C 
ENDROOT
BRANCH   1  23
HETATM   23  C5  UNL     1      -6.635   4.380  13.770  1.00  0.00    -0.014 C 
HETATM   24  C6  UNL     1      -7.508   3.126  13.616  1.00  0.00     0.010 C 
BRANCH  23  25
HETATM   25  C4  UNL     1      -7.290   5.521  12.937  1.00  0.00     0.009 C 
BRANCH  25  26
HETATM   26  C3  UNL     1      -8.747   5.876  13.273  1.00  0.00     0.034 C 
BRANCH  26  27
HETATM   27  C2  UNL     1      -8.961   6.941  14.335  1.00  0.00    -0.086 C 
HETATM   28  C1  UNL     1      -7.900   7.487  14.959  1.00  0.00     0.014 C 
BRANCH  27  29
HETATM   29  C27 UNL     1     -10.362   7.465  14.638  1.00  0.00     0.005 C 
HETATM   30  C28 UNL     1     -10.375   8.699  15.544  1.00  0.00     0.014 C 
HETATM   31  C29 UNL     1     -11.184   7.714  13.372  1.00  0.00     0.014 C 
ENDBRANCH  27  29
ENDBRANCH  26  27
ENDBRANCH  25  26
ENDBRANCH  23  25
ENDBRANCH   1  23
BRANCH  22  32
HETATM   32  O3  UNL     1      -0.352   4.064  11.215  1.00  0.00    -0.391 OA
HETATM   33  H37 UNL     1       0.045   3.904  10.342  1.00  0.00     0.210 HD
ENDBRANCH  22  32
TORSDOF 6
ENDMDL
MODEL 9
REMARK minimizedAffinity -8.83604813
REMARK  6 active torsions:
REMARK  status: ('A' for Active; 'I' for Inactive)
REMARK    1  A    between atoms: C2_2  and  C3_3 
REMARK    2  A    between atoms: C2_2  and  C27_30 
REMARK    3  A    between atoms: C3_3  and  C4_4 
REMARK    4  A    between atoms: C4_4  and  C5_5 
REMARK    5  A    between atoms: C5_5  and  C7_7 
REMARK    6  A    between atoms: C26_28  and  O3_29 
ROOT
HETATM    1  C7  UNL     1      -2.143   5.577  12.303  1.00  0.00    -0.002 C 
HETATM    2  C8  UNL     1      -2.348   6.305  13.656  1.00  0.00     0.006 C 
HETATM    3  C9  UNL     1      -1.129   7.208  13.876  1.00  0.00     0.010 C 
HETATM    4  C10 UNL     1      -0.372   7.147  12.553  1.00  0.00     0.027 C 
HETATM    5  C11 UNL     1       1.070   7.590  12.466  1.00  0.00    -0.036 C 
HETATM    6  C12 UNL     1       1.875   7.146  11.468  1.00  0.00     0.002 C 
HETATM    7  C13 UNL     1       1.321   6.115  10.501  1.00  0.00     0.157 C 
HETATM    8  O1  UNL     1       2.019   5.668   9.591  1.00  0.00    -0.293 OA
HETATM    9  C14 UNL     1      -0.117   5.637  10.638  1.00  0.00     0.093 C 
HETATM   10  C15 UNL     1      -0.600   5.688  12.088  1.00  0.00    -0.026 C 
HETATM   11  C16 UNL     1       0.161   4.639  12.940  1.00  0.00     0.016 C 
HETATM   12  C17 UNL     1       3.325   7.635  11.270  1.00  0.00    -0.008 C 
HETATM   13  C18 UNL     1       4.246   6.486  11.762  1.00  0.00     0.021 C 
HETATM   14  C19 UNL     1       3.651   7.946   9.772  1.00  0.00     0.022 C 
HETATM   15  C20 UNL     1       4.658   9.070   9.525  1.00  0.00     0.080 C 
HETATM   16  C21 UNL     1       5.641   9.210  10.658  1.00  0.00     0.131 C 
HETATM   17  O2  UNL     1       6.854   9.241  10.458  1.00  0.00    -0.298 OA
HETATM   18  C22 UNL     1       5.060   9.394  12.052  1.00  0.00     0.056 C 
HETATM   19  C23 UNL     1       5.259  10.852  12.467  1.00  0.00     0.018 C 
HETATM   20  C24 UNL     1       3.574   8.962  12.074  1.00  0.00     0.012 C 
HETATM   21  C25 UNL     1       3.030   8.853  13.504  1.00  0.00     0.042 C 
HETATM   22  C26 UNL     1       1.524   8.597  13.490  1.00  0.00     0.148 C 
ENDROOT
BRANCH   1  23
HETATM   23  C5  UNL     1      -2.832   4.178  12.256  1.00  0.00    -0.014 C 
HETATM   24  C6  UNL     1      -3.050   3.708  10.811  1.00  0.00     0.010 C 
BRANCH  23  25
HETATM   25  C4  UNL     1      -4.218   4.186  12.967  1.00  0.00     0.009 C 
BRANCH  25  26
HETATM   26  C3  UNL     1      -5.307   3.278  12.374  1.00  0.00     0.034 C 
BRANCH  26  27
HETATM   27  C2  UNL     1      -6.743   3.607  12.742  1.00  0.00    -0.086 C 
HETATM   28  C1  UNL     1      -7.647   2.617  12.869  1.00  0.00     0.014 C 
BRANCH  27  29
HETATM   29  C27 UNL     1      -7.152   5.043  13.061  1.00  0.00     0.005 C 
HETATM   30  C28 UNL     1      -8.414   5.500  12.326  1.00  0.00     0.014 C 
HETATM   31  C29 UNL     1      -7.279   5.299  14.564  1.00  0.00     0.014 C 
ENDBRANCH  27  29
ENDBRANCH  26  27
ENDBRANCH  25  26
ENDBRANCH  23  25
ENDBRANCH   1  23
BRANCH  22  32
HETATM   32  O3  UNL     1       0.840   9.811  13.196  1.00  0.00    -0.391 OA
HETATM   33  H37 UNL     1       1.010  10.425  13.931  1.00  0.00     0.210 HD
ENDBRANCH  22  32
TORSDOF 6
ENDMDL
