MODEL 1
REMARK minimizedAffinity -9.64853477
REMARK  8 active torsions:
REMARK  status: ('A' for Active; 'I' for Inactive)
REMARK    1  A    between atoms: C5_5  and  O1_6 
REMARK    2  A    between atoms: C9_10  and  C10_11 
REMARK    3  A    between atoms: C10_11  and  C11_12 
REMARK    4  A    between atoms: C11_12  and  C12_13 
REMARK    5  A    between atoms: C14_15  and  C15_16 
REMARK    6  A    between atoms: C15_16  and  C16_17 
REMARK    7  A    between atoms: C16_17  and  C17_18 
REMARK    8  A    between atoms: C23_24  and  O2_25 
ROOT
HETATM    1  C12 UNL     1      -4.012  48.486 -26.555  1.00  0.00    -0.087 C 
HETATM    2  C13 UNL     1      -2.523  48.722 -26.488  1.00  0.00     0.043 C 
HETATM    3  C14 UNL     1      -4.814  48.405 -25.472  1.00  0.00    -0.024 C 
ENDROOT
BRANCH   3   4
HETATM    4  C15 UNL     1      -4.381  48.531 -24.036  1.00  0.00     0.030 C 
BRANCH   4   5
HETATM    5  C16 UNL     1      -2.937  49.013 -23.807  1.00  0.00     0.042 C 
BRANCH   5   6
HETATM    6  C17 UNL     1      -2.711  50.270 -22.920  1.00  0.00     0.065 C 
HETATM    7  C18 UNL     1      -3.877  51.265 -23.062  1.00  0.00     0.046 C 
HETATM    8  C19 UNL     1      -2.557  49.767 -21.469  1.00  0.00     0.043 C 
HETATM    9  C20 UNL     1      -2.179  50.893 -20.523  1.00  0.00     0.044 C 
HETATM   10  C21 UNL     1      -1.078  51.720 -21.114  1.00  0.00    -0.021 A 
HETATM   11  C22 UNL     1      -0.327  52.564 -20.282  1.00  0.00     0.046 A 
HETATM   12  C27 UNL     1      -0.812  51.689 -22.490  1.00  0.00     0.082 A 
HETATM   13  C23 UNL     1       0.689  53.344 -20.821  1.00  0.00     0.066 A 
HETATM   14  C24 UNL     1       0.970  53.304 -22.181  1.00  0.00     0.046 A 
HETATM   15  C25 UNL     1       0.225  52.473 -23.027  1.00  0.00    -0.025 A 
HETATM   16  C26 UNL     1       0.522  52.443 -24.497  1.00  0.00     0.051 C 
HETATM   17  O3  UNL     1      -1.501  50.902 -23.375  1.00  0.00    -0.340 OA
BRANCH  13  18
HETATM   18  O2  UNL     1       1.442  54.169 -20.040  1.00  0.00    -0.361 OA
HETATM   19  H36 UNL     1       1.162  54.063 -19.117  1.00  0.00     0.217 HD
ENDBRANCH  13  18
ENDBRANCH   5   6
ENDBRANCH   4   5
ENDBRANCH   3   4
BRANCH   1  20
HETATM   20  C11 UNL     1      -4.590  48.436 -27.961  1.00  0.00     0.034 C 
BRANCH  20  21
HETATM   21  C10 UNL     1      -5.894  47.623 -28.052  1.00  0.00     0.014 C 
BRANCH  21  22
HETATM   22  C9  UNL     1      -6.719  47.931 -29.330  1.00  0.00     0.024 C 
HETATM   23  C2  UNL     1      -8.140  48.447 -29.128  1.00  0.00    -0.084 C 
HETATM   24  C1  UNL     1      -8.875  48.316 -28.013  1.00  0.00     0.015 C 
HETATM   25  C3  UNL     1      -8.733  49.089 -30.368  1.00  0.00     0.036 C 
HETATM   26  C4  UNL     1      -8.256  48.399 -31.650  1.00  0.00     0.037 C 
HETATM   27  C5  UNL     1      -7.928  46.928 -31.393  1.00  0.00     0.127 C 
HETATM   28  C6  UNL     1      -6.741  46.744 -30.378  1.00  0.00    -0.014 C 
HETATM   29  C7  UNL     1      -5.383  46.713 -31.120  1.00  0.00     0.018 C 
HETATM   30  C8  UNL     1      -6.925  45.368 -29.699  1.00  0.00     0.018 C 
BRANCH  27  31
HETATM   31  O1  UNL     1      -7.684  46.267 -32.634  1.00  0.00    -0.395 OA
HETATM   32  H8  UNL     1      -7.043  46.795 -33.139  1.00  0.00     0.210 HD
ENDBRANCH  27  31
ENDBRANCH  21  22
ENDBRANCH  20  21
ENDBRANCH   1  20
TORSDOF 8
ENDMDL
MODEL 2
REMARK minimizedAffinity -9.45808506
REMARK  8 active torsions:
REMARK  status: ('A' for Active; 'I' for Inactive)
REMARK    1  A    between atoms: C5_5  and  O1_6 
REMARK    2  A    between atoms: C9_10  and  C10_11 
REMARK    3  A    between atoms: C10_11  and  C11_12 
REMARK    4  A    between atoms: C11_12  and  C12_13 
REMARK    5  A    between atoms: C14_15  and  C15_16 
REMARK    6  A    between atoms: C15_16  and  C16_17 
REMARK    7  A    between atoms: C16_17  and  C17_18 
REMARK    8  A    between atoms: C23_24  and  O2_25 
ROOT
HETATM    1  C12 UNL     1      -4.944  48.179 -27.008  1.00  0.00    -0.087 C 
HETATM    2  C13 UNL     1      -5.570  48.211 -25.636  1.00  0.00     0.043 C 
HETATM    3  C14 UNL     1      -3.670  48.548 -27.265  1.00  0.00    -0.024 C 
ENDROOT
BRANCH   3   4
HETATM    4  C15 UNL     1      -2.670  49.046 -26.258  1.00  0.00     0.030 C 
BRANCH   4   5
HETATM    5  C16 UNL     1      -2.641  50.569 -26.033  1.00  0.00     0.042 C 
BRANCH   5   6
HETATM    6  C17 UNL     1      -1.277  51.238 -25.700  1.00  0.00     0.065 C 
HETATM    7  C18 UNL     1      -0.107  50.447 -26.312  1.00  0.00     0.046 C 
HETATM    8  C19 UNL     1      -1.346  52.680 -26.246  1.00  0.00     0.043 C 
HETATM    9  C20 UNL     1      -0.125  53.489 -25.847  1.00  0.00     0.044 C 
HETATM   10  C21 UNL     1       0.179  53.288 -24.393  1.00  0.00    -0.021 A 
HETATM   11  C22 UNL     1       1.011  54.203 -23.731  1.00  0.00     0.046 A 
HETATM   12  C27 UNL     1      -0.328  52.183 -23.696  1.00  0.00     0.082 A 
HETATM   13  C23 UNL     1       1.309  54.020 -22.385  1.00  0.00     0.066 A 
HETATM   14  C24 UNL     1       0.795  52.937 -21.684  1.00  0.00     0.046 A 
HETATM   15  C25 UNL     1      -0.032  52.011 -22.332  1.00  0.00    -0.025 A 
HETATM   16  C26 UNL     1      -0.574  50.835 -21.575  1.00  0.00     0.051 C 
HETATM   17  O3  UNL     1      -1.141  51.238 -24.267  1.00  0.00    -0.340 OA
BRANCH  13  18
HETATM   18  O2  UNL     1       2.108  54.894 -21.709  1.00  0.00    -0.361 OA
HETATM   19  H36 UNL     1       2.358  55.614 -22.311  1.00  0.00     0.217 HD
ENDBRANCH  13  18
ENDBRANCH   5   6
ENDBRANCH   4   5
ENDBRANCH   3   4
BRANCH   1  20
HETATM   20  C11 UNL     1      -5.826  47.599 -28.103  1.00  0.00     0.034 C 
BRANCH  20  21
HETATM   21  C10 UNL     1      -5.200  47.704 -29.504  1.00  0.00     0.014 C 
BRANCH  21  22
HETATM   22  C9  UNL     1      -6.252  47.886 -30.632  1.00  0.00     0.024 C 
HETATM   23  C2  UNL     1      -7.697  47.532 -30.295  1.00  0.00    -0.084 C 
HETATM   24  C1  UNL     1      -8.101  46.748 -29.283  1.00  0.00     0.015 C 
HETATM   25  C3  UNL     1      -8.703  48.095 -31.279  1.00  0.00     0.036 C 
HETATM   26  C4  UNL     1      -8.150  48.122 -32.707  1.00  0.00     0.037 C 
HETATM   27  C5  UNL     1      -7.116  47.015 -32.917  1.00  0.00     0.127 C 
HETATM   28  C6  UNL     1      -5.852  47.190 -31.997  1.00  0.00    -0.014 C 
HETATM   29  C7  UNL     1      -4.777  48.056 -32.698  1.00  0.00     0.018 C 
HETATM   30  C8  UNL     1      -5.242  45.786 -31.781  1.00  0.00     0.018 C 
BRANCH  27  31
HETATM   31  O1  UNL     1      -6.770  46.937 -34.299  1.00  0.00    -0.395 OA
HETATM   32  H8  UNL     1      -6.549  47.832 -34.608  1.00  0.00     0.210 HD
ENDBRANCH  27  31
ENDBRANCH  21  22
ENDBRANCH  20  21
ENDBRANCH   1  20
TORSDOF 8
ENDMDL
MODEL 3
REMARK minimizedAffinity -9.31613064
REMARK  8 active torsions:
REMARK  status: ('A' for Active; 'I' for Inactive)
REMARK    1  A    between atoms: C5_5  and  O1_6 
REMARK    2  A    between atoms: C9_10  and  C10_11 
REMARK    3  A    between atoms: C10_11  and  C11_12 
REMARK    4  A    between atoms: C11_12  and  C12_13 
REMARK    5  A    between atoms: C14_15  and  C15_16 
REMARK    6  A    between atoms: C15_16  and  C16_17 
REMARK    7  A    between atoms: C16_17  and  C17_18 
REMARK    8  A    between atoms: C23_24  and  O2_25 
ROOT
HETATM    1  C12 UNL     1      -4.645  48.320 -26.636  1.00  0.00    -0.087 C 
HETATM    2  C13 UNL     1      -4.897  48.378 -25.150  1.00  0.00     0.043 C 
HETATM    3  C14 UNL     1      -3.491  48.705 -27.222  1.00  0.00    -0.024 C 
ENDROOT
BRANCH   3   4
HETATM    4  C15 UNL     1      -2.278  49.249 -26.519  1.00  0.00     0.030 C 
BRANCH   4   5
HETATM    5  C16 UNL     1      -2.107  50.779 -26.554  1.00  0.00     0.042 C 
BRANCH   5   6
HETATM    6  C17 UNL     1      -0.832  51.393 -25.909  1.00  0.00     0.065 C 
HETATM    7  C18 UNL     1       0.439  50.682 -26.408  1.00  0.00     0.046 C 
HETATM    8  C19 UNL     1      -0.832  52.893 -26.270  1.00  0.00     0.043 C 
HETATM    9  C20 UNL     1       0.289  53.638 -25.567  1.00  0.00     0.044 C 
HETATM   10  C21 UNL     1       0.344  53.250 -24.121  1.00  0.00    -0.021 A 
HETATM   11  C22 UNL     1       1.035  54.067 -23.214  1.00  0.00     0.046 A 
HETATM   12  C27 UNL     1      -0.255  52.066 -23.668  1.00  0.00     0.082 A 
HETATM   13  C23 UNL     1       1.102  53.711 -21.872  1.00  0.00     0.066 A 
HETATM   14  C24 UNL     1       0.495  52.549 -21.414  1.00  0.00     0.046 A 
HETATM   15  C25 UNL     1      -0.194  51.718 -22.307  1.00  0.00    -0.025 A 
HETATM   16  C26 UNL     1      -0.836  50.457 -21.811  1.00  0.00     0.051 C 
HETATM   17  O3  UNL     1      -0.943  51.207 -24.486  1.00  0.00    -0.340 OA
BRANCH  13  18
HETATM   18  O2  UNL     1       1.759  54.486 -20.963  1.00  0.00    -0.361 OA
HETATM   19  H36 UNL     1       2.095  55.276 -21.415  1.00  0.00     0.217 HD
ENDBRANCH  13  18
ENDBRANCH   5   6
ENDBRANCH   4   5
ENDBRANCH   3   4
BRANCH   1  20
HETATM   20  C11 UNL     1      -5.766  47.694 -27.452  1.00  0.00     0.034 C 
BRANCH  20  21
HETATM   21  C10 UNL     1      -5.711  48.067 -28.944  1.00  0.00     0.014 C 
BRANCH  21  22
HETATM   22  C9  UNL     1      -5.762  46.834 -29.886  1.00  0.00     0.024 C 
HETATM   23  C2  UNL     1      -5.223  47.021 -31.300  1.00  0.00    -0.084 C 
HETATM   24  C1  UNL     1      -5.058  48.193 -31.932  1.00  0.00     0.015 C 
HETATM   25  C3  UNL     1      -4.941  45.715 -32.017  1.00  0.00     0.036 C 
HETATM   26  C4  UNL     1      -5.944  44.624 -31.630  1.00  0.00     0.037 C 
HETATM   27  C5  UNL     1      -7.290  45.230 -31.234  1.00  0.00     0.127 C 
HETATM   28  C6  UNL     1      -7.186  46.145 -29.959  1.00  0.00    -0.014 C 
HETATM   29  C7  UNL     1      -7.403  45.317 -28.668  1.00  0.00     0.018 C 
HETATM   30  C8  UNL     1      -8.333  47.179 -30.039  1.00  0.00     0.018 C 
BRANCH  27  31
HETATM   31  O1  UNL     1      -8.257  44.193 -31.075  1.00  0.00    -0.395 OA
HETATM   32  H8  UNL     1      -7.877  43.509 -30.498  1.00  0.00     0.210 HD
ENDBRANCH  27  31
ENDBRANCH  21  22
ENDBRANCH  20  21
ENDBRANCH   1  20
TORSDOF 8
ENDMDL
MODEL 4
REMARK minimizedAffinity -9.31374454
REMARK  8 active torsions:
REMARK  status: ('A' for Active; 'I' for Inactive)
REMARK    1  A    between atoms: C5_5  and  O1_6 
REMARK    2  A    between atoms: C9_10  and  C10_11 
REMARK    3  A    between atoms: C10_11  and  C11_12 
REMARK    4  A    between atoms: C11_12  and  C12_13 
REMARK    5  A    between atoms: C14_15  and  C15_16 
REMARK    6  A    between atoms: C15_16  and  C16_17 
REMARK    7  A    between atoms: C16_17  and  C17_18 
REMARK    8  A    between atoms: C23_24  and  O2_25 
ROOT
HETATM    1  C12 UNL     1      -3.367  48.672 -24.625  1.00  0.00    -0.087 C 
HETATM    2  C13 UNL     1      -4.875  48.662 -24.609  1.00  0.00     0.043 C 
HETATM    3  C14 UNL     1      -2.600  48.727 -23.514  1.00  0.00    -0.024 C 
ENDROOT
BRANCH   3   4
HETATM    4  C15 UNL     1      -3.096  48.788 -22.096  1.00  0.00     0.030 C 
BRANCH   4   5
HETATM    5  C16 UNL     1      -2.091  48.365 -21.010  1.00  0.00     0.042 C 
BRANCH   5   6
HETATM    6  C17 UNL     1      -1.944  49.266 -19.750  1.00  0.00     0.065 C 
HETATM    7  C18 UNL     1      -3.304  49.843 -19.320  1.00  0.00     0.046 C 
HETATM    8  C19 UNL     1      -1.316  48.387 -18.648  1.00  0.00     0.043 C 
HETATM    9  C20 UNL     1      -0.980  49.198 -17.409  1.00  0.00     0.044 C 
HETATM   10  C21 UNL     1      -0.285  50.469 -17.793  1.00  0.00    -0.021 A 
HETATM   11  C22 UNL     1       0.437  51.179 -16.823  1.00  0.00     0.046 A 
HETATM   12  C27 UNL     1      -0.376  50.975 -19.097  1.00  0.00     0.082 A 
HETATM   13  C23 UNL     1       1.076  52.365 -17.165  1.00  0.00     0.066 A 
HETATM   14  C24 UNL     1       1.005  52.863 -18.459  1.00  0.00     0.046 A 
HETATM   15  C25 UNL     1       0.282  52.170 -19.439  1.00  0.00    -0.025 A 
HETATM   16  C26 UNL     1       0.196  52.718 -20.832  1.00  0.00     0.051 C 
HETATM   17  O3  UNL     1      -1.067  50.351 -20.103  1.00  0.00    -0.340 OA
BRANCH  13  18
HETATM   18  O2  UNL     1       1.793  53.077 -16.248  1.00  0.00    -0.361 OA
HETATM   19  H36 UNL     1       1.787  52.592 -15.407  1.00  0.00     0.217 HD
ENDBRANCH  13  18
ENDBRANCH   5   6
ENDBRANCH   4   5
ENDBRANCH   3   4
BRANCH   1  20
HETATM   20  C11 UNL     1      -2.738  48.517 -26.001  1.00  0.00     0.034 C 
BRANCH  20  21
HETATM   21  C10 UNL     1      -2.445  49.861 -26.689  1.00  0.00     0.014 C 
BRANCH  21  22
HETATM   22  C9  UNL     1      -1.736  50.883 -25.759  1.00  0.00     0.024 C 
HETATM   23  C2  UNL     1      -2.619  51.915 -25.065  1.00  0.00    -0.084 C 
HETATM   24  C1  UNL     1      -3.856  52.275 -25.441  1.00  0.00     0.015 C 
HETATM   25  C3  UNL     1      -1.940  52.604 -23.898  1.00  0.00     0.036 C 
HETATM   26  C4  UNL     1      -0.441  52.801 -24.146  1.00  0.00     0.037 C 
HETATM   27  C5  UNL     1      -0.143  52.925 -25.640  1.00  0.00     0.127 C 
HETATM   28  C6  UNL     1      -0.509  51.620 -26.437  1.00  0.00    -0.014 C 
HETATM   29  C7  UNL     1       0.693  50.645 -26.479  1.00  0.00     0.018 C 
HETATM   30  C8  UNL     1      -0.811  52.040 -27.894  1.00  0.00     0.018 C 
BRANCH  27  31
HETATM   31  O1  UNL     1       1.219  53.307 -25.828  1.00  0.00    -0.395 OA
HETATM   32  H8  UNL     1       1.777  52.712 -25.300  1.00  0.00     0.210 HD
ENDBRANCH  27  31
ENDBRANCH  21  22
ENDBRANCH  20  21
ENDBRANCH   1  20
TORSDOF 8
ENDMDL
MODEL 5
REMARK minimizedAffinity -9.30579281
REMARK  8 active torsions:
REMARK  status: ('A' for Active; 'I' for Inactive)
REMARK    1  A    between atoms: C5_5  and  O1_6 
REMARK    2  A    between atoms: C9_10  and  C10_11 
REMARK    3  A    between atoms: C10_11  and  C11_12 
REMARK    4  A    between atoms: C11_12  and  C12_13 
REMARK    5  A    between atoms: C14_15  and  C15_16 
REMARK    6  A    between atoms: C15_16  and  C16_17 
REMARK    7  A    between atoms: C16_17  and  C17_18 
REMARK    8  A    between atoms: C23_24  and  O2_25 
ROOT
HETATM    1  C12 UNL     1      -3.459  48.567 -23.866  1.00  0.00    -0.087 C 
HETATM    2  C13 UNL     1      -4.945  48.334 -23.748  1.00  0.00     0.043 C 
HETATM    3  C14 UNL     1      -2.593  48.456 -22.836  1.00  0.00    -0.024 C 
ENDROOT
BRANCH   3   4
HETATM    4  C15 UNL     1      -2.943  48.092 -21.419  1.00  0.00     0.030 C 
BRANCH   4   5
HETATM    5  C16 UNL     1      -2.891  49.239 -20.394  1.00  0.00     0.042 C 
BRANCH   5   6
HETATM    6  C17 UNL     1      -1.526  49.939 -20.140  1.00  0.00     0.065 C 
HETATM    7  C18 UNL     1      -0.432  49.372 -21.061  1.00  0.00     0.046 C 
HETATM    8  C19 UNL     1      -1.751  51.448 -20.375  1.00  0.00     0.043 C 
HETATM    9  C20 UNL     1      -0.523  52.262 -20.008  1.00  0.00     0.044 C 
HETATM   10  C21 UNL     1       0.019  51.817 -18.683  1.00  0.00    -0.021 A 
HETATM   11  C22 UNL     1       0.901  52.654 -17.984  1.00  0.00     0.046 A 
HETATM   12  C27 UNL     1      -0.316  50.564 -18.151  1.00  0.00     0.082 A 
HETATM   13  C23 UNL     1       1.417  52.246 -16.759  1.00  0.00     0.066 A 
HETATM   14  C24 UNL     1       1.076  51.014 -16.218  1.00  0.00     0.046 A 
HETATM   15  C25 UNL     1       0.201  50.163 -16.907  1.00  0.00    -0.025 A 
HETATM   16  C26 UNL     1      -0.155  48.827 -16.325  1.00  0.00     0.051 C 
HETATM   17  O3  UNL     1      -1.163  49.682 -18.771  1.00  0.00    -0.340 OA
BRANCH  13  18
HETATM   18  O2  UNL     1       2.272  53.037 -16.049  1.00  0.00    -0.361 OA
HETATM   19  H36 UNL     1       2.387  53.875 -16.527  1.00  0.00     0.217 HD
ENDBRANCH  13  18
ENDBRANCH   5   6
ENDBRANCH   4   5
ENDBRANCH   3   4
BRANCH   1  20
HETATM   20  C11 UNL     1      -2.964  48.849 -25.276  1.00  0.00     0.034 C 
BRANCH  20  21
HETATM   21  C10 UNL     1      -3.018  50.340 -25.651  1.00  0.00     0.014 C 
BRANCH  21  22
HETATM   22  C9  UNL     1      -1.748  51.125 -25.224  1.00  0.00     0.024 C 
HETATM   23  C2  UNL     1      -1.872  52.031 -24.003  1.00  0.00    -0.084 C 
HETATM   24  C1  UNL     1      -3.016  52.509 -23.489  1.00  0.00     0.015 C 
HETATM   25  C3  UNL     1      -0.535  52.444 -23.419  1.00  0.00     0.036 C 
HETATM   26  C4  UNL     1       0.529  52.627 -24.504  1.00  0.00     0.037 C 
HETATM   27  C5  UNL     1      -0.105  53.037 -25.834  1.00  0.00     0.127 C 
HETATM   28  C6  UNL     1      -1.070  51.934 -26.405  1.00  0.00    -0.014 C 
HETATM   29  C7  UNL     1      -0.297  50.940 -27.306  1.00  0.00     0.018 C 
HETATM   30  C8  UNL     1      -2.110  52.649 -27.297  1.00  0.00     0.018 C 
BRANCH  27  31
HETATM   31  O1  UNL     1       0.916  53.393 -26.764  1.00  0.00    -0.395 OA
HETATM   32  H8  UNL     1       1.579  52.683 -26.775  1.00  0.00     0.210 HD
ENDBRANCH  27  31
ENDBRANCH  21  22
ENDBRANCH  20  21
ENDBRANCH   1  20
TORSDOF 8
ENDMDL
MODEL 6
REMARK minimizedAffinity -9.29231739
REMARK  8 active torsions:
REMARK  status: ('A' for Active; 'I' for Inactive)
REMARK    1  A    between atoms: C5_5  and  O1_6 
REMARK    2  A    between atoms: C9_10  and  C10_11 
REMARK    3  A    between atoms: C10_11  and  C11_12 
REMARK    4  A    between atoms: C11_12  and  C12_13 
REMARK    5  A    between atoms: C14_15  and  C15_16 
REMARK    6  A    between atoms: C15_16  and  C16_17 
REMARK    7  A    between atoms: C16_17  and  C17_18 
REMARK    8  A    between atoms: C23_24  and  O2_25 
ROOT
HETATM    1  C12 UNL     1      -5.064  48.107 -27.048  1.00  0.00    -0.087 C 
HETATM    2  C13 UNL     1      -5.747  48.051 -25.705  1.00  0.00     0.043 C 
HETATM    3  C14 UNL     1      -3.742  48.328 -27.215  1.00  0.00    -0.024 C 
ENDROOT
BRANCH   3   4
HETATM    4  C15 UNL     1      -2.736  48.554 -26.120  1.00  0.00     0.030 C 
BRANCH   4   5
HETATM    5  C16 UNL     1      -3.308  48.954 -24.749  1.00  0.00     0.042 C 
BRANCH   5   6
HETATM    6  C17 UNL     1      -2.808  50.275 -24.098  1.00  0.00     0.065 C 
HETATM    7  C18 UNL     1      -3.983  51.102 -23.548  1.00  0.00     0.046 C 
HETATM    8  C19 UNL     1      -1.817  49.873 -22.985  1.00  0.00     0.043 C 
HETATM    9  C20 UNL     1      -1.140  51.086 -22.372  1.00  0.00     0.044 C 
HETATM   10  C21 UNL     1      -0.668  52.016 -23.449  1.00  0.00    -0.021 A 
HETATM   11  C22 UNL     1       0.293  52.991 -23.143  1.00  0.00     0.046 A 
HETATM   12  C27 UNL     1      -1.198  51.947 -24.745  1.00  0.00     0.082 A 
HETATM   13  C23 UNL     1       0.729  53.866 -24.131  1.00  0.00     0.066 A 
HETATM   14  C24 UNL     1       0.222  53.792 -25.422  1.00  0.00     0.046 A 
HETATM   15  C25 UNL     1      -0.743  52.828 -25.742  1.00  0.00    -0.025 A 
HETATM   16  C26 UNL     1      -1.299  52.760 -27.133  1.00  0.00     0.051 C 
HETATM   17  O3  UNL     1      -2.144  51.032 -25.127  1.00  0.00    -0.340 OA
BRANCH  13  18
HETATM   18  O2  UNL     1       1.667  54.821 -23.871  1.00  0.00    -0.361 OA
HETATM   19  H36 UNL     1       1.956  54.729 -22.949  1.00  0.00     0.217 HD
ENDBRANCH  13  18
ENDBRANCH   5   6
ENDBRANCH   4   5
ENDBRANCH   3   4
BRANCH   1  20
HETATM   20  C11 UNL     1      -5.961  47.797 -28.237  1.00  0.00     0.034 C 
BRANCH  20  21
HETATM   21  C10 UNL     1      -5.313  48.139 -29.590  1.00  0.00     0.014 C 
BRANCH  21  22
HETATM   22  C9  UNL     1      -6.316  48.104 -30.775  1.00  0.00     0.024 C 
HETATM   23  C2  UNL     1      -7.766  48.462 -30.466  1.00  0.00    -0.084 C 
HETATM   24  C1  UNL     1      -8.341  48.441 -29.253  1.00  0.00     0.015 C 
HETATM   25  C3  UNL     1      -8.585  48.789 -31.699  1.00  0.00     0.036 C 
HETATM   26  C4  UNL     1      -8.160  47.947 -32.905  1.00  0.00     0.037 C 
HETATM   27  C5  UNL     1      -7.588  46.600 -32.462  1.00  0.00     0.127 C 
HETATM   28  C6  UNL     1      -6.279  46.755 -31.604  1.00  0.00    -0.014 C 
HETATM   29  C7  UNL     1      -5.025  46.765 -32.512  1.00  0.00     0.018 C 
HETATM   30  C8  UNL     1      -6.177  45.511 -30.692  1.00  0.00     0.018 C 
BRANCH  27  31
HETATM   31  O1  UNL     1      -7.390  45.763 -33.600  1.00  0.00    -0.395 OA
HETATM   32  H8  UNL     1      -6.898  46.270 -34.268  1.00  0.00     0.210 HD
ENDBRANCH  27  31
ENDBRANCH  21  22
ENDBRANCH  20  21
ENDBRANCH   1  20
TORSDOF 8
ENDMDL
MODEL 7
REMARK minimizedAffinity -9.27338505
REMARK  8 active torsions:
REMARK  status: ('A' for Active; 'I' for Inactive)
REMARK    1  A    between atoms: C5_5  and  O1_6 
REMARK    2  A    between atoms: C9_10  and  C10_11 
REMARK    3  A    between atoms: C10_11  and  C11_12 
REMARK    4  A    between atoms: C11_12  and  C12_13 
REMARK    5  A    between atoms: C14_15  and  C15_16 
REMARK    6  A    between atoms: C15_16  and  C16_17 
REMARK    7  A    between atoms: C16_17  and  C17_18 
REMARK    8  A    between atoms: C23_24  and  O2_25 
ROOT
HETATM    1  C12 UNL     1      -3.563  48.900 -26.119  1.00  0.00    -0.087 C 
HETATM    2  C13 UNL     1      -3.774  48.471 -27.550  1.00  0.00     0.043 C 
HETATM    3  C14 UNL     1      -2.538  49.676 -25.706  1.00  0.00    -0.024 C 
ENDROOT
BRANCH   3   4
HETATM    4  C15 UNL     1      -1.445  50.238 -26.574  1.00  0.00     0.030 C 
BRANCH   4   5
HETATM    5  C16 UNL     1      -1.159  51.741 -26.410  1.00  0.00     0.042 C 
BRANCH   5   6
HETATM    6  C17 UNL     1      -0.036  52.174 -25.425  1.00  0.00     0.065 C 
HETATM    7  C18 UNL     1       1.321  51.572 -25.831  1.00  0.00     0.046 C 
HETATM    8  C19 UNL     1      -0.007  53.717 -25.437  1.00  0.00     0.043 C 
HETATM    9  C20 UNL     1       0.950  54.268 -24.395  1.00  0.00     0.044 C 
HETATM   10  C21 UNL     1       0.753  53.565 -23.086  1.00  0.00    -0.021 A 
HETATM   11  C22 UNL     1       1.249  54.148 -21.910  1.00  0.00     0.046 A 
HETATM   12  C27 UNL     1       0.111  52.321 -23.024  1.00  0.00     0.082 A 
HETATM   13  C23 UNL     1       1.082  53.500 -20.692  1.00  0.00     0.066 A 
HETATM   14  C24 UNL     1       0.430  52.276 -20.621  1.00  0.00     0.046 A 
HETATM   15  C25 UNL     1      -0.065  51.677 -21.787  1.00  0.00    -0.025 A 
HETATM   16  C26 UNL     1      -0.756  50.348 -21.709  1.00  0.00     0.051 C 
HETATM   17  O3  UNL     1      -0.397  51.678 -24.123  1.00  0.00    -0.340 OA
BRANCH  13  18
HETATM   18  O2  UNL     1       1.545  54.041 -19.529  1.00  0.00    -0.361 OA
HETATM   19  H36 UNL     1       1.938  54.907 -19.726  1.00  0.00     0.217 HD
ENDBRANCH  13  18
ENDBRANCH   5   6
ENDBRANCH   4   5
ENDBRANCH   3   4
BRANCH   1  20
HETATM   20  C11 UNL     1      -4.659  48.475 -25.154  1.00  0.00     0.034 C 
BRANCH  20  21
HETATM   21  C10 UNL     1      -4.134  48.162 -23.741  1.00  0.00     0.014 C 
BRANCH  21  22
HETATM   22  C9  UNL     1      -5.246  48.183 -22.657  1.00  0.00     0.024 C 
HETATM   23  C2  UNL     1      -6.580  47.539 -23.021  1.00  0.00    -0.084 C 
HETATM   24  C1  UNL     1      -7.024  47.294 -24.263  1.00  0.00     0.015 C 
HETATM   25  C3  UNL     1      -7.457  47.245 -21.820  1.00  0.00     0.036 C 
HETATM   26  C4  UNL     1      -7.299  48.305 -20.726  1.00  0.00     0.037 C 
HETATM   27  C5  UNL     1      -6.909  49.658 -21.323  1.00  0.00     0.127 C 
HETATM   28  C6  UNL     1      -5.512  49.618 -22.043  1.00  0.00    -0.014 C 
HETATM   29  C7  UNL     1      -4.371  49.951 -21.049  1.00  0.00     0.018 C 
HETATM   30  C8  UNL     1      -5.518  50.724 -23.122  1.00  0.00     0.018 C 
BRANCH  27  31
HETATM   31  O1  UNL     1      -6.967  50.664 -20.313  1.00  0.00    -0.395 OA
HETATM   32  H8  UNL     1      -6.470  50.347 -19.540  1.00  0.00     0.210 HD
ENDBRANCH  27  31
ENDBRANCH  21  22
ENDBRANCH  20  21
ENDBRANCH   1  20
TORSDOF 8
ENDMDL
MODEL 8
REMARK minimizedAffinity -9.17257977
REMARK  8 active torsions:
REMARK  status: ('A' for Active; 'I' for Inactive)
REMARK    1  A    between atoms: C5_5  and  O1_6 
REMARK    2  A    between atoms: C9_10  and  C10_11 
REMARK    3  A    between atoms: C10_11  and  C11_12 
REMARK    4  A    between atoms: C11_12  and  C12_13 
REMARK    5  A    between atoms: C14_15  and  C15_16 
REMARK    6  A    between atoms: C15_16  and  C16_17 
REMARK    7  A    between atoms: C16_17  and  C17_18 
REMARK    8  A    between atoms: C23_24  and  O2_25 
ROOT
HETATM    1  C12 UNL     1      -3.639  48.605 -26.413  1.00  0.00    -0.087 C 
HETATM    2  C13 UNL     1      -2.332  49.357 -26.389  1.00  0.00     0.043 C 
HETATM    3  C14 UNL     1      -4.412  48.398 -25.325  1.00  0.00    -0.024 C 
ENDROOT
BRANCH   3   4
HETATM    4  C15 UNL     1      -4.118  48.866 -23.926  1.00  0.00     0.030 C 
BRANCH   4   5
HETATM    5  C16 UNL     1      -2.631  49.049 -23.574  1.00  0.00     0.042 C 
BRANCH   5   6
HETATM    6  C17 UNL     1      -2.213  50.317 -22.777  1.00  0.00     0.065 C 
HETATM    7  C18 UNL     1      -3.447  51.102 -22.297  1.00  0.00     0.046 C 
HETATM    8  C19 UNL     1      -1.345  49.832 -21.596  1.00  0.00     0.043 C 
HETATM    9  C20 UNL     1      -0.747  50.995 -20.826  1.00  0.00     0.044 C 
HETATM   10  C21 UNL     1      -0.169  52.003 -21.773  1.00  0.00    -0.021 A 
HETATM   11  C22 UNL     1       0.746  52.952 -21.293  1.00  0.00     0.046 A 
HETATM   12  C27 UNL     1      -0.555  52.032 -23.120  1.00  0.00     0.082 A 
HETATM   13  C23 UNL     1       1.281  53.898 -22.161  1.00  0.00     0.066 A 
HETATM   14  C24 UNL     1       0.916  53.921 -23.500  1.00  0.00     0.046 A 
HETATM   15  C25 UNL     1      -0.002  52.985 -23.993  1.00  0.00    -0.025 A 
HETATM   16  C26 UNL     1      -0.404  53.022 -25.438  1.00  0.00     0.051 C 
HETATM   17  O3  UNL     1      -1.448  51.149 -23.668  1.00  0.00    -0.340 OA
BRANCH  13  18
HETATM   18  O2  UNL     1       2.178  54.831 -21.730  1.00  0.00    -0.361 OA
HETATM   19  H36 UNL     1       2.366  54.669 -20.791  1.00  0.00     0.217 HD
ENDBRANCH  13  18
ENDBRANCH   5   6
ENDBRANCH   4   5
ENDBRANCH   3   4
BRANCH   1  20
HETATM   20  C11 UNL     1      -4.098  48.160 -27.794  1.00  0.00     0.034 C 
BRANCH  20  21
HETATM   21  C10 UNL     1      -5.629  48.086 -27.929  1.00  0.00     0.014 C 
BRANCH  21  22
HETATM   22  C9  UNL     1      -6.101  47.040 -28.975  1.00  0.00     0.024 C 
HETATM   23  C2  UNL     1      -5.798  47.342 -30.440  1.00  0.00    -0.084 C 
HETATM   24  C1  UNL     1      -5.512  48.549 -30.953  1.00  0.00     0.015 C 
HETATM   25  C3  UNL     1      -5.923  46.132 -31.345  1.00  0.00     0.036 C 
HETATM   26  C4  UNL     1      -7.042  45.191 -30.888  1.00  0.00     0.037 C 
HETATM   27  C5  UNL     1      -8.142  45.961 -30.156  1.00  0.00     0.127 C 
HETATM   28  C6  UNL     1      -7.625  46.636 -28.833  1.00  0.00    -0.014 C 
HETATM   29  C7  UNL     1      -7.772  45.672 -27.630  1.00  0.00     0.018 C 
HETATM   30  C8  UNL     1      -8.531  47.857 -28.556  1.00  0.00     0.018 C 
BRANCH  27  31
HETATM   31  O1  UNL     1      -9.256  45.100 -29.922  1.00  0.00    -0.395 OA
HETATM   32  H8  UNL     1      -8.927  44.280 -29.518  1.00  0.00     0.210 HD
ENDBRANCH  27  31
ENDBRANCH  21  22
ENDBRANCH  20  21
ENDBRANCH   1  20
TORSDOF 8
ENDMDL
MODEL 9
REMARK minimizedAffinity -9.15655422
REMARK  8 active torsions:
REMARK  status: ('A' for Active; 'I' for Inactive)
REMARK    1  A    between atoms: C5_5  and  O1_6 
REMARK    2  A    between atoms: C9_10  and  C10_11 
REMARK    3  A    between atoms: C10_11  and  C11_12 
REMARK    4  A    between atoms: C11_12  and  C12_13 
REMARK    5  A    between atoms: C14_15  and  C15_16 
REMARK    6  A    between atoms: C15_16  and  C16_17 
REMARK    7  A    between atoms: C16_17  and  C17_18 
REMARK    8  A    between atoms: C23_24  and  O2_25 
ROOT
HETATM    1  C12 UNL     1      -4.113  48.372 -26.632  1.00  0.00    -0.087 C 
HETATM    2  C13 UNL     1      -5.039  48.424 -25.442  1.00  0.00     0.043 C 
HETATM    3  C14 UNL     1      -4.525  48.163 -27.901  1.00  0.00    -0.024 C 
ENDROOT
BRANCH   3   4
HETATM    4  C15 UNL     1      -5.945  47.948 -28.349  1.00  0.00     0.030 C 
BRANCH   4   5
HETATM    5  C16 UNL     1      -6.127  47.394 -29.773  1.00  0.00     0.042 C 
BRANCH   5   6
HETATM    6  C17 UNL     1      -7.528  47.515 -30.437  1.00  0.00     0.065 C 
HETATM    7  C18 UNL     1      -8.379  48.595 -29.745  1.00  0.00     0.046 C 
HETATM    8  C19 UNL     1      -7.286  47.841 -31.926  1.00  0.00     0.043 C 
HETATM    9  C20 UNL     1      -8.581  47.834 -32.719  1.00  0.00     0.044 C 
HETATM   10  C21 UNL     1      -9.394  46.624 -32.374  1.00  0.00    -0.021 A 
HETATM   11  C22 UNL     1     -10.426  46.220 -33.235  1.00  0.00     0.046 A 
HETATM   12  C27 UNL     1      -9.162  45.911 -31.190  1.00  0.00     0.082 A 
HETATM   13  C23 UNL     1     -11.194  45.105 -32.919  1.00  0.00     0.066 A 
HETATM   14  C24 UNL     1     -10.958  44.384 -31.756  1.00  0.00     0.046 A 
HETATM   15  C25 UNL     1      -9.936  44.778 -30.883  1.00  0.00    -0.025 A 
HETATM   16  C26 UNL     1      -9.692  44.006 -29.621  1.00  0.00     0.051 C 
HETATM   17  O3  UNL     1      -8.181  46.241 -30.290  1.00  0.00    -0.340 OA
BRANCH  13  18
HETATM   18  O2  UNL     1     -12.200  44.680 -33.736  1.00  0.00    -0.361 OA
HETATM   19  H36 UNL     1     -12.223  45.251 -34.521  1.00  0.00     0.217 HD
ENDBRANCH  13  18
ENDBRANCH   5   6
ENDBRANCH   4   5
ENDBRANCH   3   4
BRANCH   1  20
HETATM   20  C11 UNL     1      -2.654  48.673 -26.324  1.00  0.00     0.034 C 
BRANCH  20  21
HETATM   21  C10 UNL     1      -2.214  50.074 -26.781  1.00  0.00     0.014 C 
BRANCH  21  22
HETATM   22  C9  UNL     1      -1.579  50.918 -25.643  1.00  0.00     0.024 C 
HETATM   23  C2  UNL     1      -2.534  51.707 -24.752  1.00  0.00    -0.084 C 
HETATM   24  C1  UNL     1      -3.795  52.049 -25.057  1.00  0.00     0.015 C 
HETATM   25  C3  UNL     1      -1.904  52.174 -23.455  1.00  0.00     0.036 C 
HETATM   26  C4  UNL     1      -0.425  52.529 -23.635  1.00  0.00     0.037 C 
HETATM   27  C5  UNL     1      -0.141  52.997 -25.063  1.00  0.00     0.127 C 
HETATM   28  C6  UNL     1      -0.413  51.873 -26.128  1.00  0.00    -0.014 C 
HETATM   29  C7  UNL     1       0.858  51.021 -26.366  1.00  0.00     0.018 C 
HETATM   30  C8  UNL     1      -0.750  52.575 -27.463  1.00  0.00     0.018 C 
BRANCH  27  31
HETATM   31  O1  UNL     1       1.188  53.508 -25.146  1.00  0.00    -0.395 OA
HETATM   32  H8  UNL     1       1.790  52.855 -24.752  1.00  0.00     0.210 HD
ENDBRANCH  27  31
ENDBRANCH  21  22
ENDBRANCH  20  21
ENDBRANCH   1  20
TORSDOF 8
ENDMDL
