MODEL 1
REMARK minimizedAffinity -8.56570053
REMARK  10 active torsions:
REMARK  status: ('A' for Active; 'I' for Inactive)
REMARK    1  A    between atoms: C14_14  and  C15_15 
REMARK    2  A    between atoms: C15_15  and  C17_17 
REMARK    3  A    between atoms: C17_17  and  C18_18 
REMARK    4  A    between atoms: C18_18  and  C19_19 
REMARK    5  A    between atoms: C20_20  and  C22_22 
REMARK    6  A    between atoms: C22_22  and  O2_24 
REMARK    7  A    between atoms: C27_29  and  C28_30 
REMARK    8  A    between atoms: C28_30  and  C29_31 
REMARK    9  A    between atoms: C29_31  and  C30_32 
REMARK   10  A    between atoms: C30_32  and  O4_34 
ROOT
HETATM    1  C1  UNL     1       2.141   9.912  15.816  1.00  0.00     0.043 C 
HETATM    2  C2  UNL     1       1.594   8.847  14.883  1.00  0.00    -0.085 C 
HETATM    3  C3  UNL     1       2.562   7.699  14.760  1.00  0.00     0.043 C 
HETATM    4  C4  UNL     1       0.364   8.944  14.306  1.00  0.00    -0.073 C 
HETATM    5  C5  UNL     1      -0.595  10.018  14.804  1.00  0.00     0.035 C 
HETATM    6  C6  UNL     1      -2.064   9.731  14.501  1.00  0.00     0.010 C 
HETATM    7  C7  UNL     1      -2.472   8.243  14.680  1.00  0.00     0.003 C 
HETATM    8  C8  UNL     1      -1.463   7.209  13.967  1.00  0.00    -0.032 C 
HETATM    9  C9  UNL     1      -0.786   6.276  15.011  1.00  0.00     0.016 C 
HETATM   10  C10 UNL     1      -2.202   6.260  12.969  1.00  0.00     0.011 C 
HETATM   11  C11 UNL     1      -3.579   5.691  13.380  1.00  0.00     0.011 C 
HETATM   12  C12 UNL     1      -4.361   6.509  14.423  1.00  0.00    -0.032 C 
HETATM   13  C13 UNL     1      -4.082   5.942  15.843  1.00  0.00     0.016 C 
HETATM   14  C14 UNL     1      -5.916   6.562  14.225  1.00  0.00    -0.002 C 
HETATM   15  C23 UNL     1      -6.320   7.889  14.931  1.00  0.00     0.006 C 
HETATM   16  C24 UNL     1      -5.018   8.675  15.196  1.00  0.00     0.011 C 
HETATM   17  C25 UNL     1      -3.971   8.023  14.270  1.00  0.00    -0.032 C 
HETATM   18  C26 UNL     1      -4.229   8.632  12.845  1.00  0.00     0.016 C 
HETATM   19  C27 UNL     1      -0.314   8.042  13.248  1.00  0.00     0.024 C 
ENDROOT
BRANCH  14  20
HETATM   20  C15 UNL     1      -6.863   5.355  14.519  1.00  0.00    -0.014 C 
HETATM   21  C16 UNL     1      -7.645   5.577  15.820  1.00  0.00     0.010 C 
BRANCH  20  22
HETATM   22  C17 UNL     1      -7.813   4.900  13.385  1.00  0.00     0.008 C 
BRANCH  22  23
HETATM   23  C18 UNL     1      -7.463   3.540  12.754  1.00  0.00     0.028 C 
BRANCH  23  24
HETATM   24  C19 UNL     1      -6.039   3.464  12.275  1.00  0.00    -0.013 C 
HETATM   25  C20 UNL     1      -5.430   2.441  11.641  1.00  0.00     0.008 C 
HETATM   26  C21 UNL     1      -6.050   1.126  11.277  1.00  0.00     0.055 C 
BRANCH  25  27
HETATM   27  C22 UNL     1      -4.002   2.648  11.280  1.00  0.00     0.171 C 
HETATM   28  O1  UNL     1      -3.027   2.345  11.947  1.00  0.00    -0.646 OA
BRANCH  27  29
HETATM   29  O2  UNL     1      -3.856   3.231  10.079  1.00  0.00    -0.773 OA
HETATM   30  H35 UNL     1      -2.885   3.298   9.976  1.00  0.00     0.167 HD
ENDBRANCH  27  29
ENDBRANCH  25  27
ENDBRANCH  23  24
ENDBRANCH  22  23
ENDBRANCH  20  22
ENDBRANCH  14  20
BRANCH  19  31
HETATM   31  C28 UNL     1       0.596   7.272  12.249  1.00  0.00     0.020 C 
BRANCH  31  32
HETATM   32  C29 UNL     1      -0.051   5.998  11.694  1.00  0.00     0.110 C 
BRANCH  32  33
HETATM   33  C30 UNL     1       0.914   4.910  11.322  1.00  0.00     0.139 C 
HETATM   34  O3  UNL     1       0.669   3.716  11.268  1.00  0.00    -0.650 OA
BRANCH  33  35
HETATM   35  O4  UNL     1       2.151   5.373  11.065  1.00  0.00    -0.776 OA
HETATM   36  H48 UNL     1       2.647   4.565  10.814  1.00  0.00     0.167 HD
ENDBRANCH  33  35
ENDBRANCH  32  33
ENDBRANCH  31  32
ENDBRANCH  19  31
TORSDOF 10
ENDMDL
MODEL 2
REMARK minimizedAffinity -8.46545887
REMARK  10 active torsions:
REMARK  status: ('A' for Active; 'I' for Inactive)
REMARK    1  A    between atoms: C14_14  and  C15_15 
REMARK    2  A    between atoms: C15_15  and  C17_17 
REMARK    3  A    between atoms: C17_17  and  C18_18 
REMARK    4  A    between atoms: C18_18  and  C19_19 
REMARK    5  A    between atoms: C20_20  and  C22_22 
REMARK    6  A    between atoms: C22_22  and  O2_24 
REMARK    7  A    between atoms: C27_29  and  C28_30 
REMARK    8  A    between atoms: C28_30  and  C29_31 
REMARK    9  A    between atoms: C29_31  and  C30_32 
REMARK   10  A    between atoms: C30_32  and  O4_34 
ROOT
HETATM    1  C1  UNL     1      -6.770   3.858  12.041  1.00  0.00     0.043 C 
HETATM    2  C2  UNL     1      -5.335   3.475  11.730  1.00  0.00    -0.085 C 
HETATM    3  C3  UNL     1      -5.251   2.753  10.410  1.00  0.00     0.043 C 
HETATM    4  C4  UNL     1      -4.296   3.812  12.544  1.00  0.00    -0.073 C 
HETATM    5  C5  UNL     1      -4.540   4.817  13.662  1.00  0.00     0.035 C 
HETATM    6  C6  UNL     1      -3.276   5.514  14.161  1.00  0.00     0.010 C 
HETATM    7  C7  UNL     1      -2.274   5.896  13.037  1.00  0.00     0.003 C 
HETATM    8  C8  UNL     1      -1.972   4.693  12.008  1.00  0.00    -0.032 C 
HETATM    9  C9  UNL     1      -2.431   5.060  10.568  1.00  0.00     0.016 C 
HETATM   10  C10 UNL     1      -0.444   4.383  11.898  1.00  0.00     0.011 C 
HETATM   11  C11 UNL     1       0.545   5.569  11.865  1.00  0.00     0.011 C 
HETATM   12  C12 UNL     1       0.046   6.879  12.499  1.00  0.00    -0.032 C 
HETATM   13  C13 UNL     1      -0.558   7.794  11.396  1.00  0.00     0.016 C 
HETATM   14  C14 UNL     1       1.121   7.715  13.278  1.00  0.00    -0.002 C 
HETATM   15  C23 UNL     1       0.270   8.531  14.295  1.00  0.00     0.006 C 
HETATM   16  C24 UNL     1      -1.147   7.916  14.294  1.00  0.00     0.011 C 
HETATM   17  C25 UNL     1      -0.972   6.529  13.643  1.00  0.00    -0.032 C 
HETATM   18  C26 UNL     1      -0.403   5.599  14.773  1.00  0.00     0.016 C 
HETATM   19  C27 UNL     1      -2.803   3.417  12.468  1.00  0.00     0.024 C 
ENDROOT
BRANCH  14  20
HETATM   20  C15 UNL     1       2.252   8.532  12.576  1.00  0.00    -0.014 C 
HETATM   21  C16 UNL     1       2.614   9.780  13.391  1.00  0.00     0.010 C 
BRANCH  20  22
HETATM   22  C17 UNL     1       3.530   7.767  12.156  1.00  0.00     0.008 C 
BRANCH  22  23
HETATM   23  C18 UNL     1       3.667   7.514  10.644  1.00  0.00     0.028 C 
BRANCH  23  24
HETATM   24  C19 UNL     1       3.860   6.062  10.306  1.00  0.00    -0.013 C 
HETATM   25  C20 UNL     1       3.448   5.403   9.204  1.00  0.00     0.008 C 
HETATM   26  C21 UNL     1       2.683   5.987   8.054  1.00  0.00     0.055 C 
BRANCH  25  27
HETATM   27  C22 UNL     1       3.786   3.956   9.137  1.00  0.00     0.171 C 
HETATM   28  O1  UNL     1       4.619   3.432   8.419  1.00  0.00    -0.646 OA
BRANCH  27  29
HETATM   29  O2  UNL     1       3.053   3.219   9.988  1.00  0.00    -0.773 OA
HETATM   30  H35 UNL     1       3.380   2.309   9.837  1.00  0.00     0.167 HD
ENDBRANCH  27  29
ENDBRANCH  25  27
ENDBRANCH  23  24
ENDBRANCH  22  23
ENDBRANCH  20  22
ENDBRANCH  14  20
BRANCH  19  31
HETATM   31  C28 UNL     1      -2.436   2.060  11.804  1.00  0.00     0.020 C 
BRANCH  31  32
HETATM   32  C29 UNL     1      -1.676   2.215  10.481  1.00  0.00     0.110 C 
BRANCH  32  33
HETATM   33  C30 UNL     1      -0.793   1.056  10.120  1.00  0.00     0.139 C 
HETATM   34  O3  UNL     1      -0.700   0.536   9.020  1.00  0.00    -0.650 OA
BRANCH  33  35
HETATM   35  O4  UNL     1      -0.091   0.587  11.167  1.00  0.00    -0.776 OA
HETATM   36  H48 UNL     1       0.447  -0.133  10.774  1.00  0.00     0.167 HD
ENDBRANCH  33  35
ENDBRANCH  32  33
ENDBRANCH  31  32
ENDBRANCH  19  31
TORSDOF 10
ENDMDL
MODEL 3
REMARK minimizedAffinity -8.46333027
REMARK  10 active torsions:
REMARK  status: ('A' for Active; 'I' for Inactive)
REMARK    1  A    between atoms: C14_14  and  C15_15 
REMARK    2  A    between atoms: C15_15  and  C17_17 
REMARK    3  A    between atoms: C17_17  and  C18_18 
REMARK    4  A    between atoms: C18_18  and  C19_19 
REMARK    5  A    between atoms: C20_20  and  C22_22 
REMARK    6  A    between atoms: C22_22  and  O2_24 
REMARK    7  A    between atoms: C27_29  and  C28_30 
REMARK    8  A    between atoms: C28_30  and  C29_31 
REMARK    9  A    between atoms: C29_31  and  C30_32 
REMARK   10  A    between atoms: C30_32  and  O4_34 
ROOT
HETATM    1  C1  UNL     1       3.064   5.813   8.822  1.00  0.00     0.043 C 
HETATM    2  C2  UNL     1       2.872   6.739  10.009  1.00  0.00    -0.085 C 
HETATM    3  C3  UNL     1       3.457   8.098   9.724  1.00  0.00     0.043 C 
HETATM    4  C4  UNL     1       2.204   6.357  11.133  1.00  0.00    -0.073 C 
HETATM    5  C5  UNL     1       1.407   5.058  11.104  1.00  0.00     0.035 C 
HETATM    6  C6  UNL     1       0.309   4.977  12.163  1.00  0.00     0.010 C 
HETATM    7  C7  UNL     1      -0.463   6.308  12.382  1.00  0.00     0.003 C 
HETATM    8  C8  UNL     1       0.498   7.588  12.561  1.00  0.00    -0.032 C 
HETATM    9  C9  UNL     1       0.273   8.621  11.422  1.00  0.00     0.016 C 
HETATM   10  C10 UNL     1       0.212   8.357  13.891  1.00  0.00     0.011 C 
HETATM   11  C11 UNL     1      -1.258   8.545  14.328  1.00  0.00     0.011 C 
HETATM   12  C12 UNL     1      -2.262   7.518  13.774  1.00  0.00    -0.032 C 
HETATM   13  C13 UNL     1      -2.927   8.084  12.488  1.00  0.00     0.016 C 
HETATM   14  C14 UNL     1      -3.407   7.083  14.754  1.00  0.00    -0.002 C 
HETATM   15  C23 UNL     1      -3.806   5.672  14.232  1.00  0.00     0.006 C 
HETATM   16  C24 UNL     1      -2.707   5.230  13.241  1.00  0.00     0.011 C 
HETATM   17  C25 UNL     1      -1.512   6.158  13.540  1.00  0.00    -0.032 C 
HETATM   18  C26 UNL     1      -0.818   5.557  14.814  1.00  0.00     0.016 C 
HETATM   19  C27 UNL     1       2.010   7.098  12.476  1.00  0.00     0.024 C 
ENDROOT
BRANCH  14  20
HETATM   20  C15 UNL     1      -4.614   8.000  15.129  1.00  0.00    -0.014 C 
HETATM   21  C16 UNL     1      -4.131   9.382  15.589  1.00  0.00     0.010 C 
BRANCH  20  22
HETATM   22  C17 UNL     1      -5.754   8.141  14.093  1.00  0.00     0.008 C 
BRANCH  22  23
HETATM   23  C18 UNL     1      -7.070   7.442  14.479  1.00  0.00     0.028 C 
BRANCH  23  24
HETATM   24  C19 UNL     1      -7.065   5.969  14.173  1.00  0.00    -0.013 C 
HETATM   25  C20 UNL     1      -7.742   5.320  13.204  1.00  0.00     0.008 C 
HETATM   26  C21 UNL     1      -8.674   5.937  12.205  1.00  0.00     0.055 C 
BRANCH  25  27
HETATM   27  C22 UNL     1      -7.542   3.848  13.134  1.00  0.00     0.171 C 
HETATM   28  O1  UNL     1      -6.478   3.253  13.130  1.00  0.00    -0.646 OA
BRANCH  27  29
HETATM   29  O2  UNL     1      -8.703   3.175  13.074  1.00  0.00    -0.773 OA
HETATM   30  H35 UNL     1      -8.420   2.238  13.036  1.00  0.00     0.167 HD
ENDBRANCH  27  29
ENDBRANCH  25  27
ENDBRANCH  23  24
ENDBRANCH  22  23
ENDBRANCH  20  22
ENDBRANCH  14  20
BRANCH  19  31
HETATM   31  C28 UNL     1       3.104   8.109  12.921  1.00  0.00     0.020 C 
BRANCH  31  32
HETATM   32  C29 UNL     1       3.512   7.957  14.392  1.00  0.00     0.110 C 
BRANCH  32  33
HETATM   33  C30 UNL     1       4.992   7.899  14.633  1.00  0.00     0.139 C 
HETATM   34  O3  UNL     1       5.846   8.532  14.035  1.00  0.00    -0.650 OA
BRANCH  33  35
HETATM   35  O4  UNL     1       5.332   7.024  15.597  1.00  0.00    -0.776 OA
HETATM   36  H48 UNL     1       6.306   7.120  15.657  1.00  0.00     0.167 HD
ENDBRANCH  33  35
ENDBRANCH  32  33
ENDBRANCH  31  32
ENDBRANCH  19  31
TORSDOF 10
ENDMDL
MODEL 4
REMARK minimizedAffinity -8.45312691
REMARK  10 active torsions:
REMARK  status: ('A' for Active; 'I' for Inactive)
REMARK    1  A    between atoms: C14_14  and  C15_15 
REMARK    2  A    between atoms: C15_15  and  C17_17 
REMARK    3  A    between atoms: C17_17  and  C18_18 
REMARK    4  A    between atoms: C18_18  and  C19_19 
REMARK    5  A    between atoms: C20_20  and  C22_22 
REMARK    6  A    between atoms: C22_22  and  O2_24 
REMARK    7  A    between atoms: C27_29  and  C28_30 
REMARK    8  A    between atoms: C28_30  and  C29_31 
REMARK    9  A    between atoms: C29_31  and  C30_32 
REMARK   10  A    between atoms: C30_32  and  O4_34 
ROOT
HETATM    1  C1  UNL     1       6.009   7.551  11.825  1.00  0.00     0.043 C 
HETATM    2  C2  UNL     1       4.831   6.883  11.140  1.00  0.00    -0.085 C 
HETATM    3  C3  UNL     1       5.216   5.518  10.631  1.00  0.00     0.043 C 
HETATM    4  C4  UNL     1       3.600   7.462  11.072  1.00  0.00    -0.073 C 
HETATM    5  C5  UNL     1       3.325   8.695  11.924  1.00  0.00     0.035 C 
HETATM    6  C6  UNL     1       1.843   8.951  12.190  1.00  0.00     0.010 C 
HETATM    7  C7  UNL     1       1.016   7.666  12.471  1.00  0.00     0.003 C 
HETATM    8  C8  UNL     1       1.275   6.488  11.403  1.00  0.00    -0.032 C 
HETATM    9  C9  UNL     1       1.886   5.234  12.090  1.00  0.00     0.016 C 
HETATM   10  C10 UNL     1      -0.050   5.999  10.733  1.00  0.00     0.011 C 
HETATM   11  C11 UNL     1      -1.307   5.849  11.618  1.00  0.00     0.011 C 
HETATM   12  C12 UNL     1      -1.334   6.700  12.900  1.00  0.00    -0.032 C 
HETATM   13  C13 UNL     1      -0.808   5.856  14.095  1.00  0.00     0.016 C 
HETATM   14  C14 UNL     1      -2.732   7.283  13.305  1.00  0.00    -0.002 C 
HETATM   15  C23 UNL     1      -2.364   8.541  14.146  1.00  0.00     0.006 C 
HETATM   16  C24 UNL     1      -0.861   8.811  13.921  1.00  0.00     0.011 C 
HETATM   17  C25 UNL     1      -0.505   8.011  12.651  1.00  0.00    -0.032 C 
HETATM   18  C26 UNL     1      -0.999   8.887  11.446  1.00  0.00     0.016 C 
HETATM   19  C27 UNL     1       2.324   7.007  10.326  1.00  0.00     0.024 C 
ENDROOT
BRANCH  14  20
HETATM   20  C15 UNL     1      -3.886   6.418  13.904  1.00  0.00    -0.014 C 
HETATM   21  C16 UNL     1      -3.808   6.383  15.435  1.00  0.00     0.010 C 
BRANCH  20  22
HETATM   22  C17 UNL     1      -5.329   6.733  13.441  1.00  0.00     0.008 C 
BRANCH  22  23
HETATM   23  C18 UNL     1      -6.311   5.550  13.532  1.00  0.00     0.028 C 
BRANCH  23  24
HETATM   24  C19 UNL     1      -5.894   4.374  12.694  1.00  0.00    -0.013 C 
HETATM   25  C20 UNL     1      -6.583   3.240  12.452  1.00  0.00     0.008 C 
HETATM   26  C21 UNL     1      -7.941   2.896  12.985  1.00  0.00     0.055 C 
BRANCH  25  27
HETATM   27  C22 UNL     1      -5.919   2.240  11.575  1.00  0.00     0.171 C 
HETATM   28  O1  UNL     1      -4.916   2.407  10.903  1.00  0.00    -0.646 OA
BRANCH  27  29
HETATM   29  O2  UNL     1      -6.549   1.053  11.582  1.00  0.00    -0.773 OA
HETATM   30  H35 UNL     1      -6.009   0.506  10.976  1.00  0.00     0.167 HD
ENDBRANCH  27  29
ENDBRANCH  25  27
ENDBRANCH  23  24
ENDBRANCH  22  23
ENDBRANCH  20  22
ENDBRANCH  14  20
BRANCH  19  31
HETATM   31  C28 UNL     1       2.494   6.152   9.038  1.00  0.00     0.020 C 
BRANCH  31  32
HETATM   32  C29 UNL     1       2.161   6.917   7.751  1.00  0.00     0.110 C 
BRANCH  32  33
HETATM   33  C30 UNL     1       1.988   8.398   7.923  1.00  0.00     0.139 C 
HETATM   34  O3  UNL     1       0.979   8.966   8.310  1.00  0.00    -0.650 OA
BRANCH  33  35
HETATM   35  O4  UNL     1       3.081   9.098   7.572  1.00  0.00    -0.776 OA
HETATM   36  H48 UNL     1       2.828  10.025   7.764  1.00  0.00     0.167 HD
ENDBRANCH  33  35
ENDBRANCH  32  33
ENDBRANCH  31  32
ENDBRANCH  19  31
TORSDOF 10
ENDMDL
MODEL 5
REMARK minimizedAffinity -8.36668491
REMARK  10 active torsions:
REMARK  status: ('A' for Active; 'I' for Inactive)
REMARK    1  A    between atoms: C14_14  and  C15_15 
REMARK    2  A    between atoms: C15_15  and  C17_17 
REMARK    3  A    between atoms: C17_17  and  C18_18 
REMARK    4  A    between atoms: C18_18  and  C19_19 
REMARK    5  A    between atoms: C20_20  and  C22_22 
REMARK    6  A    between atoms: C22_22  and  O2_24 
REMARK    7  A    between atoms: C27_29  and  C28_30 
REMARK    8  A    between atoms: C28_30  and  C29_31 
REMARK    9  A    between atoms: C29_31  and  C30_32 
REMARK   10  A    between atoms: C30_32  and  O4_34 
ROOT
HETATM    1  C1  UNL     1       5.526   6.993  12.117  1.00  0.00     0.043 C 
HETATM    2  C2  UNL     1       4.159   6.776  11.495  1.00  0.00    -0.085 C 
HETATM    3  C3  UNL     1       4.157   5.539  10.634  1.00  0.00     0.043 C 
HETATM    4  C4  UNL     1       3.099   7.589  11.759  1.00  0.00    -0.073 C 
HETATM    5  C5  UNL     1       3.212   8.591  12.901  1.00  0.00     0.035 C 
HETATM    6  C6  UNL     1       1.868   9.063  13.452  1.00  0.00     0.010 C 
HETATM    7  C7  UNL     1       0.797   7.943  13.561  1.00  0.00     0.003 C 
HETATM    8  C8  UNL     1       0.658   7.052  12.226  1.00  0.00    -0.032 C 
HETATM    9  C9  UNL     1       1.026   5.567  12.503  1.00  0.00     0.016 C 
HETATM   10  C10 UNL     1      -0.808   7.030  11.683  1.00  0.00     0.011 C 
HETATM   11  C11 UNL     1      -1.965   6.914  12.700  1.00  0.00     0.011 C 
HETATM   12  C12 UNL     1      -1.656   7.394  14.129  1.00  0.00    -0.032 C 
HETATM   13  C13 UNL     1      -1.220   6.183  15.002  1.00  0.00     0.016 C 
HETATM   14  C14 UNL     1      -2.828   8.123  14.875  1.00  0.00    -0.002 C 
HETATM   15  C23 UNL     1      -2.088   9.021  15.910  1.00  0.00     0.006 C 
HETATM   16  C24 UNL     1      -0.596   9.031  15.514  1.00  0.00     0.011 C 
HETATM   17  C25 UNL     1      -0.573   8.529  14.056  1.00  0.00    -0.032 C 
HETATM   18  C26 UNL     1      -0.972   9.768  13.176  1.00  0.00     0.016 C 
HETATM   19  C27 UNL     1       1.681   7.609  11.142  1.00  0.00     0.024 C 
ENDROOT
BRANCH  14  20
HETATM   20  C15 UNL     1      -4.083   7.384  15.437  1.00  0.00    -0.014 C 
HETATM   21  C16 UNL     1      -5.255   8.356  15.623  1.00  0.00     0.010 C 
BRANCH  20  22
HETATM   22  C17 UNL     1      -4.550   6.106  14.699  1.00  0.00     0.008 C 
BRANCH  22  23
HETATM   23  C18 UNL     1      -5.582   6.344  13.582  1.00  0.00     0.028 C 
BRANCH  23  24
HETATM   24  C19 UNL     1      -6.646   5.282  13.529  1.00  0.00    -0.013 C 
HETATM   25  C20 UNL     1      -6.580   4.070  12.942  1.00  0.00     0.008 C 
HETATM   26  C21 UNL     1      -5.410   3.508  12.192  1.00  0.00     0.055 C 
BRANCH  25  27
HETATM   27  C22 UNL     1      -7.795   3.219  13.051  1.00  0.00     0.171 C 
HETATM   28  O1  UNL     1      -7.841   2.002  13.020  1.00  0.00    -0.646 OA
BRANCH  27  29
HETATM   29  O2  UNL     1      -8.917   3.944  13.198  1.00  0.00    -0.773 OA
HETATM   30  H35 UNL     1      -9.619   3.264  13.258  1.00  0.00     0.167 HD
ENDBRANCH  27  29
ENDBRANCH  25  27
ENDBRANCH  23  24
ENDBRANCH  22  23
ENDBRANCH  20  22
ENDBRANCH  14  20
BRANCH  19  31
HETATM   31  C28 UNL     1       1.508   7.098   9.683  1.00  0.00     0.020 C 
BRANCH  31  32
HETATM   32  C29 UNL     1       2.834   6.731   9.005  1.00  0.00     0.110 C 
BRANCH  32  33
HETATM   33  C30 UNL     1       2.696   5.972   7.718  1.00  0.00     0.139 C 
HETATM   34  O3  UNL     1       3.141   4.860   7.485  1.00  0.00    -0.650 OA
BRANCH  33  35
HETATM   35  O4  UNL     1       2.031   6.660   6.773  1.00  0.00    -0.776 OA
HETATM   36  H48 UNL     1       1.998   6.034   6.018  1.00  0.00     0.167 HD
ENDBRANCH  33  35
ENDBRANCH  32  33
ENDBRANCH  31  32
ENDBRANCH  19  31
TORSDOF 10
ENDMDL
MODEL 6
REMARK minimizedAffinity -8.36327553
REMARK  10 active torsions:
REMARK  status: ('A' for Active; 'I' for Inactive)
REMARK    1  A    between atoms: C14_14  and  C15_15 
REMARK    2  A    between atoms: C15_15  and  C17_17 
REMARK    3  A    between atoms: C17_17  and  C18_18 
REMARK    4  A    between atoms: C18_18  and  C19_19 
REMARK    5  A    between atoms: C20_20  and  C22_22 
REMARK    6  A    between atoms: C22_22  and  O2_24 
REMARK    7  A    between atoms: C27_29  and  C28_30 
REMARK    8  A    between atoms: C28_30  and  C29_31 
REMARK    9  A    between atoms: C29_31  and  C30_32 
REMARK   10  A    between atoms: C30_32  and  O4_34 
ROOT
HETATM    1  C1  UNL     1       1.704   6.679   9.359  1.00  0.00     0.043 C 
HETATM    2  C2  UNL     1       1.517   7.156  10.788  1.00  0.00    -0.085 C 
HETATM    3  C3  UNL     1       2.271   8.440  11.023  1.00  0.00     0.043 C 
HETATM    4  C4  UNL     1       0.720   6.503  11.678  1.00  0.00    -0.073 C 
HETATM    5  C5  UNL     1      -0.211   5.412  11.162  1.00  0.00     0.035 C 
HETATM    6  C6  UNL     1      -1.395   5.118  12.081  1.00  0.00     0.010 C 
HETATM    7  C7  UNL     1      -2.030   6.381  12.724  1.00  0.00     0.003 C 
HETATM    8  C8  UNL     1      -0.951   7.381  13.381  1.00  0.00    -0.032 C 
HETATM    9  C9  UNL     1      -0.965   8.764  12.670  1.00  0.00     0.016 C 
HETATM   10  C10 UNL     1      -1.261   7.675  14.884  1.00  0.00     0.011 C 
HETATM   11  C11 UNL     1      -2.732   7.895  15.301  1.00  0.00     0.011 C 
HETATM   12  C12 UNL     1      -3.794   7.266  14.382  1.00  0.00    -0.032 C 
HETATM   13  C13 UNL     1      -4.283   8.323  13.353  1.00  0.00     0.016 C 
HETATM   14  C14 UNL     1      -5.057   6.676  15.100  1.00  0.00    -0.002 C 
HETATM   15  C23 UNL     1      -5.565   5.597  14.099  1.00  0.00     0.006 C 
HETATM   16  C24 UNL     1      -4.444   5.382  13.059  1.00  0.00     0.011 C 
HETATM   17  C25 UNL     1      -3.183   5.982  13.713  1.00  0.00    -0.032 C 
HETATM   18  C26 UNL     1      -2.668   4.893  14.720  1.00  0.00     0.016 C 
HETATM   19  C27 UNL     1       0.498   6.754  13.188  1.00  0.00     0.024 C 
ENDROOT
BRANCH  14  20
HETATM   20  C15 UNL     1      -6.182   7.559  15.728  1.00  0.00    -0.014 C 
HETATM   21  C16 UNL     1      -6.673   8.614  14.728  1.00  0.00     0.010 C 
BRANCH  20  22
HETATM   22  C17 UNL     1      -7.381   6.831  16.381  1.00  0.00     0.008 C 
BRANCH  22  23
HETATM   23  C18 UNL     1      -8.676   6.838  15.547  1.00  0.00     0.028 C 
BRANCH  23  24
HETATM   24  C19 UNL     1      -8.493   6.256  14.173  1.00  0.00    -0.013 C 
HETATM   25  C20 UNL     1      -9.326   6.344  13.116  1.00  0.00     0.008 C 
HETATM   26  C21 UNL     1     -10.648   7.049  13.084  1.00  0.00     0.055 C 
BRANCH  25  27
HETATM   27  C22 UNL     1      -8.881   5.666  11.869  1.00  0.00     0.171 C 
HETATM   28  O1  UNL     1      -8.141   4.702  11.784  1.00  0.00    -0.646 OA
BRANCH  27  29
HETATM   29  O2  UNL     1      -9.395   6.235  10.766  1.00  0.00    -0.773 OA
HETATM   30  H35 UNL     1      -9.026   5.693  10.039  1.00  0.00     0.167 HD
ENDBRANCH  27  29
ENDBRANCH  25  27
ENDBRANCH  23  24
ENDBRANCH  22  23
ENDBRANCH  20  22
ENDBRANCH  14  20
BRANCH  19  31
HETATM   31  C28 UNL     1       1.657   7.395  14.003  1.00  0.00     0.020 C 
BRANCH  31  32
HETATM   32  C29 UNL     1       1.200   8.015  15.328  1.00  0.00     0.110 C 
BRANCH  32  33
HETATM   33  C30 UNL     1       2.290   8.662  16.132  1.00  0.00     0.139 C 
HETATM   34  O3  UNL     1       2.273   8.871  17.334  1.00  0.00    -0.650 OA
BRANCH  33  35
HETATM   35  O4  UNL     1       3.339   9.043  15.380  1.00  0.00    -0.776 OA
HETATM   36  H48 UNL     1       3.965   9.414  16.037  1.00  0.00     0.167 HD
ENDBRANCH  33  35
ENDBRANCH  32  33
ENDBRANCH  31  32
ENDBRANCH  19  31
TORSDOF 10
ENDMDL
MODEL 7
REMARK minimizedAffinity -8.2308197
REMARK  10 active torsions:
REMARK  status: ('A' for Active; 'I' for Inactive)
REMARK    1  A    between atoms: C14_14  and  C15_15 
REMARK    2  A    between atoms: C15_15  and  C17_17 
REMARK    3  A    between atoms: C17_17  and  C18_18 
REMARK    4  A    between atoms: C18_18  and  C19_19 
REMARK    5  A    between atoms: C20_20  and  C22_22 
REMARK    6  A    between atoms: C22_22  and  O2_24 
REMARK    7  A    between atoms: C27_29  and  C28_30 
REMARK    8  A    between atoms: C28_30  and  C29_31 
REMARK    9  A    between atoms: C29_31  and  C30_32 
REMARK   10  A    between atoms: C30_32  and  O4_34 
ROOT
HETATM    1  C1  UNL     1       2.730   5.978   8.561  1.00  0.00     0.043 C 
HETATM    2  C2  UNL     1       2.656   6.797   9.836  1.00  0.00    -0.085 C 
HETATM    3  C3  UNL     1       3.390   8.103   9.672  1.00  0.00     0.043 C 
HETATM    4  C4  UNL     1       1.961   6.383  10.931  1.00  0.00    -0.073 C 
HETATM    5  C5  UNL     1       1.021   5.192  10.793  1.00  0.00     0.035 C 
HETATM    6  C6  UNL     1      -0.068   5.130  11.862  1.00  0.00     0.010 C 
HETATM    7  C7  UNL     1      -0.681   6.510  12.226  1.00  0.00     0.003 C 
HETATM    8  C8  UNL     1       0.421   7.650  12.509  1.00  0.00    -0.032 C 
HETATM    9  C9  UNL     1       0.303   8.810  11.480  1.00  0.00     0.016 C 
HETATM   10  C10 UNL     1       0.237   8.311  13.913  1.00  0.00     0.011 C 
HETATM   11  C11 UNL     1      -1.197   8.619  14.398  1.00  0.00     0.011 C 
HETATM   12  C12 UNL     1      -2.317   7.771  13.767  1.00  0.00    -0.032 C 
HETATM   13  C13 UNL     1      -2.926   8.533  12.557  1.00  0.00     0.016 C 
HETATM   14  C14 UNL     1      -3.494   7.372  14.724  1.00  0.00    -0.002 C 
HETATM   15  C23 UNL     1      -4.056   6.073  14.076  1.00  0.00     0.006 C 
HETATM   16  C24 UNL     1      -3.025   5.611  13.023  1.00  0.00     0.011 C 
HETATM   17  C25 UNL     1      -1.729   6.365  13.386  1.00  0.00    -0.032 C 
HETATM   18  C26 UNL     1      -1.095   5.567  14.581  1.00  0.00     0.016 C 
HETATM   19  C27 UNL     1       1.866   7.005  12.345  1.00  0.00     0.024 C 
ENDROOT
BRANCH  14  20
HETATM   20  C15 UNL     1      -4.585   8.378  15.213  1.00  0.00    -0.014 C 
HETATM   21  C16 UNL     1      -4.114   9.827  15.036  1.00  0.00     0.010 C 
BRANCH  20  22
HETATM   22  C17 UNL     1      -6.019   8.201  14.658  1.00  0.00     0.008 C 
BRANCH  22  23
HETATM   23  C18 UNL     1      -6.968   7.395  15.564  1.00  0.00     0.028 C 
BRANCH  23  24
HETATM   24  C19 UNL     1      -8.389   7.393  15.071  1.00  0.00    -0.013 C 
HETATM   25  C20 UNL     1      -8.929   6.637  14.094  1.00  0.00     0.008 C 
HETATM   26  C21 UNL     1      -8.212   5.617  13.262  1.00  0.00     0.055 C 
BRANCH  25  27
HETATM   27  C22 UNL     1     -10.375   6.849  13.820  1.00  0.00     0.171 C 
HETATM   28  O1  UNL     1     -10.879   7.176  12.760  1.00  0.00    -0.646 OA
BRANCH  27  29
HETATM   29  O2  UNL     1     -11.139   6.635  14.904  1.00  0.00    -0.773 OA
HETATM   30  H35 UNL     1     -12.047   6.805  14.579  1.00  0.00     0.167 HD
ENDBRANCH  27  29
ENDBRANCH  25  27
ENDBRANCH  23  24
ENDBRANCH  22  23
ENDBRANCH  20  22
ENDBRANCH  14  20
BRANCH  19  31
HETATM   31  C28 UNL     1       3.073   7.837  12.862  1.00  0.00     0.020 C 
BRANCH  31  32
HETATM   32  C29 UNL     1       3.177   7.873  14.392  1.00  0.00     0.110 C 
BRANCH  32  33
HETATM   33  C30 UNL     1       4.568   8.051  14.926  1.00  0.00     0.139 C 
HETATM   34  O3  UNL     1       4.933   8.905  15.717  1.00  0.00    -0.650 OA
BRANCH  33  35
HETATM   35  O4  UNL     1       5.442   7.164  14.417  1.00  0.00    -0.776 OA
HETATM   36  H48 UNL     1       6.281   7.385  14.874  1.00  0.00     0.167 HD
ENDBRANCH  33  35
ENDBRANCH  32  33
ENDBRANCH  31  32
ENDBRANCH  19  31
TORSDOF 10
ENDMDL
MODEL 8
REMARK minimizedAffinity -8.15581322
REMARK  10 active torsions:
REMARK  status: ('A' for Active; 'I' for Inactive)
REMARK    1  A    between atoms: C14_14  and  C15_15 
REMARK    2  A    between atoms: C15_15  and  C17_17 
REMARK    3  A    between atoms: C17_17  and  C18_18 
REMARK    4  A    between atoms: C18_18  and  C19_19 
REMARK    5  A    between atoms: C20_20  and  C22_22 
REMARK    6  A    between atoms: C22_22  and  O2_24 
REMARK    7  A    between atoms: C27_29  and  C28_30 
REMARK    8  A    between atoms: C28_30  and  C29_31 
REMARK    9  A    between atoms: C29_31  and  C30_32 
REMARK   10  A    between atoms: C30_32  and  O4_34 
ROOT
HETATM    1  C1  UNL     1      -0.034   8.475   8.514  1.00  0.00     0.043 C 
HETATM    2  C2  UNL     1       1.089   8.070   9.452  1.00  0.00    -0.085 C 
HETATM    3  C3  UNL     1       2.419   8.133   8.748  1.00  0.00     0.043 C 
HETATM    4  C4  UNL     1       0.871   7.757  10.760  1.00  0.00    -0.073 C 
HETATM    5  C5  UNL     1      -0.492   8.064  11.368  1.00  0.00     0.035 C 
HETATM    6  C6  UNL     1      -0.484   8.176  12.891  1.00  0.00     0.010 C 
HETATM    7  C7  UNL     1       0.760   8.908  13.468  1.00  0.00     0.003 C 
HETATM    8  C8  UNL     1       2.156   8.379  12.863  1.00  0.00    -0.032 C 
HETATM    9  C9  UNL     1       2.895   9.508  12.091  1.00  0.00     0.016 C 
HETATM   10  C10 UNL     1       3.144   7.916  13.982  1.00  0.00     0.011 C 
HETATM   11  C11 UNL     1       3.240   8.760  15.272  1.00  0.00     0.011 C 
HETATM   12  C12 UNL     1       2.007   9.617  15.608  1.00  0.00    -0.032 C 
HETATM   13  C13 UNL     1       2.208  11.057  15.057  1.00  0.00     0.016 C 
HETATM   14  C14 UNL     1       1.649   9.734  17.131  1.00  0.00    -0.002 C 
HETATM   15  C23 UNL     1       0.122  10.038  17.117  1.00  0.00     0.006 C 
HETATM   16  C24 UNL     1      -0.380   9.763  15.683  1.00  0.00     0.011 C 
HETATM   17  C25 UNL     1       0.728   8.905  15.038  1.00  0.00    -0.032 C 
HETATM   18  C26 UNL     1       0.494   7.444  15.564  1.00  0.00     0.016 C 
HETATM   19  C27 UNL     1       1.846   7.211  11.829  1.00  0.00     0.024 C 
ENDROOT
BRANCH  14  20
HETATM   20  C15 UNL     1       2.472  10.591  18.146  1.00  0.00    -0.014 C 
HETATM   21  C16 UNL     1       3.692  11.224  17.467  1.00  0.00     0.010 C 
BRANCH  20  22
HETATM   22  C17 UNL     1       1.703  11.647  18.976  1.00  0.00     0.008 C 
BRANCH  22  23
HETATM   23  C18 UNL     1       2.144  11.760  20.447  1.00  0.00     0.028 C 
BRANCH  23  24
HETATM   24  C19 UNL     1       1.944  10.486  21.220  1.00  0.00    -0.013 C 
HETATM   25  C20 UNL     1       2.782   9.912  22.107  1.00  0.00     0.008 C 
HETATM   26  C21 UNL     1       4.128  10.427  22.519  1.00  0.00     0.055 C 
BRANCH  25  27
HETATM   27  C22 UNL     1       2.318   8.642  22.726  1.00  0.00     0.171 C 
HETATM   28  O1  UNL     1       1.877   7.664  22.148  1.00  0.00    -0.646 OA
BRANCH  27  29
HETATM   29  O2  UNL     1       2.431   8.653  24.065  1.00  0.00    -0.773 OA
HETATM   30  H35 UNL     1       2.098   7.770  24.327  1.00  0.00     0.167 HD
ENDBRANCH  27  29
ENDBRANCH  25  27
ENDBRANCH  23  24
ENDBRANCH  22  23
ENDBRANCH  20  22
ENDBRANCH  14  20
BRANCH  19  31
HETATM   31  C28 UNL     1       3.052   6.353  11.352  1.00  0.00     0.020 C 
BRANCH  31  32
HETATM   32  C29 UNL     1       2.642   5.150  10.493  1.00  0.00     0.110 C 
BRANCH  32  33
HETATM   33  C30 UNL     1       3.618   4.783   9.414  1.00  0.00     0.139 C 
HETATM   34  O3  UNL     1       3.377   4.698   8.221  1.00  0.00    -0.650 OA
BRANCH  33  35
HETATM   35  O4  UNL     1       4.847   4.511   9.890  1.00  0.00    -0.776 OA
HETATM   36  H48 UNL     1       5.367   4.321   9.080  1.00  0.00     0.167 HD
ENDBRANCH  33  35
ENDBRANCH  32  33
ENDBRANCH  31  32
ENDBRANCH  19  31
TORSDOF 10
ENDMDL
MODEL 9
REMARK minimizedAffinity -8.04592323
REMARK  10 active torsions:
REMARK  status: ('A' for Active; 'I' for Inactive)
REMARK    1  A    between atoms: C14_14  and  C15_15 
REMARK    2  A    between atoms: C15_15  and  C17_17 
REMARK    3  A    between atoms: C17_17  and  C18_18 
REMARK    4  A    between atoms: C18_18  and  C19_19 
REMARK    5  A    between atoms: C20_20  and  C22_22 
REMARK    6  A    between atoms: C22_22  and  O2_24 
REMARK    7  A    between atoms: C27_29  and  C28_30 
REMARK    8  A    between atoms: C28_30  and  C29_31 
REMARK    9  A    between atoms: C29_31  and  C30_32 
REMARK   10  A    between atoms: C30_32  and  O4_34 
ROOT
HETATM    1  C1  UNL     1       5.062   8.939  10.076  1.00  0.00     0.043 C 
HETATM    2  C2  UNL     1       4.475   8.891  11.474  1.00  0.00    -0.085 C 
HETATM    3  C3  UNL     1       4.779  10.163  12.223  1.00  0.00     0.043 C 
HETATM    4  C4  UNL     1       3.734   7.838  11.920  1.00  0.00    -0.073 C 
HETATM    5  C5  UNL     1       3.265   6.796  10.912  1.00  0.00     0.035 C 
HETATM    6  C6  UNL     1       2.055   5.985  11.372  1.00  0.00     0.010 C 
HETATM    7  C7  UNL     1       0.979   6.819  12.122  1.00  0.00     0.003 C 
HETATM    8  C8  UNL     1       1.585   7.763  13.277  1.00  0.00    -0.032 C 
HETATM    9  C9  UNL     1       1.324   9.265  12.967  1.00  0.00     0.016 C 
HETATM   10  C10 UNL     1       0.919   7.497  14.665  1.00  0.00     0.011 C 
HETATM   11  C11 UNL     1      -0.607   7.260  14.714  1.00  0.00     0.011 C 
HETATM   12  C12 UNL     1      -1.249   6.745  13.414  1.00  0.00    -0.032 C 
HETATM   13  C13 UNL     1      -1.805   7.945  12.597  1.00  0.00     0.016 C 
HETATM   14  C14 UNL     1      -2.413   5.707  13.590  1.00  0.00    -0.002 C 
HETATM   15  C23 UNL     1      -2.393   4.918  12.249  1.00  0.00     0.006 C 
HETATM   16  C24 UNL     1      -1.076   5.281  11.529  1.00  0.00     0.011 C 
HETATM   17  C25 UNL     1      -0.186   5.896  12.629  1.00  0.00    -0.032 C 
HETATM   18  C26 UNL     1       0.406   4.678  13.424  1.00  0.00     0.016 C 
HETATM   19  C27 UNL     1       3.161   7.548  13.327  1.00  0.00     0.024 C 
ENDROOT
BRANCH  14  20
HETATM   20  C15 UNL     1      -3.840   6.091  14.097  1.00  0.00    -0.014 C 
HETATM   21  C16 UNL     1      -3.836   6.342  15.610  1.00  0.00     0.010 C 
BRANCH  20  22
HETATM   22  C17 UNL     1      -4.576   7.235  13.358  1.00  0.00     0.008 C 
BRANCH  22  23
HETATM   23  C18 UNL     1      -6.112   7.154  13.408  1.00  0.00     0.028 C 
BRANCH  23  24
HETATM   24  C19 UNL     1      -6.619   5.763  13.673  1.00  0.00    -0.013 C 
HETATM   25  C20 UNL     1      -7.616   5.108  13.044  1.00  0.00     0.008 C 
HETATM   26  C21 UNL     1      -8.460   5.640  11.924  1.00  0.00     0.055 C 
BRANCH  25  27
HETATM   27  C22 UNL     1      -7.902   3.729  13.519  1.00  0.00     0.171 C 
HETATM   28  O1  UNL     1      -8.313   2.795  12.853  1.00  0.00    -0.646 OA
BRANCH  27  29
HETATM   29  O2  UNL     1      -7.653   3.577  14.831  1.00  0.00    -0.773 OA
HETATM   30  H35 UNL     1      -7.878   2.639  14.997  1.00  0.00     0.167 HD
ENDBRANCH  27  29
ENDBRANCH  25  27
ENDBRANCH  23  24
ENDBRANCH  22  23
ENDBRANCH  20  22
ENDBRANCH  14  20
BRANCH  19  31
HETATM   31  C28 UNL     1       3.913   8.127  14.558  1.00  0.00     0.020 C 
BRANCH  31  32
HETATM   32  C29 UNL     1       5.283   7.481  14.795  1.00  0.00     0.110 C 
BRANCH  32  33
HETATM   33  C30 UNL     1       6.314   8.389  15.399  1.00  0.00     0.139 C 
HETATM   34  O3  UNL     1       6.717   9.438  14.925  1.00  0.00    -0.650 OA
BRANCH  33  35
HETATM   35  O4  UNL     1       6.810   7.920  16.558  1.00  0.00    -0.776 OA
HETATM   36  H48 UNL     1       7.435   8.623  16.837  1.00  0.00     0.167 HD
ENDBRANCH  33  35
ENDBRANCH  32  33
ENDBRANCH  31  32
ENDBRANCH  19  31
TORSDOF 10
ENDMDL
