MODEL 1
REMARK minimizedAffinity -8.1039772
REMARK  4 active torsions:
REMARK  status: ('A' for Active; 'I' for Inactive)
REMARK       I    between atoms: N1_1  and  C1_2 
REMARK       I    between atoms: C1_2  and  N2_4 
REMARK    1  A    between atoms: N2_4  and  N3_5 
REMARK    2  A    between atoms: C2_7  and  C3_8 
REMARK    3  A    between atoms: C6_11  and  O2_12 
REMARK    4  A    between atoms: O2_12  and  C7_13 
ROOT
HETATM    1  C3  UNL     1       5.562  -4.269  30.724  1.00  0.00    -0.019 A 
HETATM    2  C4  UNL     1       5.615  -2.950  31.185  1.00  0.00     0.015 A 
HETATM    3  C5  UNL     1       6.849  -2.368  31.481  1.00  0.00     0.038 A 
HETATM    4  C6  UNL     1       8.023  -3.109  31.332  1.00  0.00     0.076 A 
HETATM    5  C13 UNL     1       7.973  -4.419  30.848  1.00  0.00     0.038 A 
HETATM    6  C14 UNL     1       6.740  -5.003  30.550  1.00  0.00     0.015 A 
ENDROOT
BRANCH   1   7
HETATM    7  C2  UNL     1       4.272  -4.913  30.403  1.00  0.00     0.118 C 
HETATM    8  N3  UNL     1       3.940  -5.198  29.182  1.00  0.00    -0.307 N 
ATOM      9  H3  UNL     1       4.549  -4.958  28.399  1.00  0.00     0.186 HD
BRANCH   8  10
HETATM   10  N2  UNL     1       2.741  -5.835  28.982  1.00  0.00    -0.252 N 
HETATM   11  C1  UNL     1       2.551  -6.939  28.172  1.00  0.00     0.332 C 
HETATM   12  N1  UNL     1       1.232  -7.265  28.036  1.00  0.00    -0.351 N 
HETATM   13  O1  UNL     1       3.407  -7.630  27.633  1.00  0.00    -0.246 OA
HETATM   14  H1  UNL     1       1.085  -8.015  27.370  1.00  0.00     0.160 HD
HETATM   15  H2  UNL     1       0.560  -6.515  27.972  1.00  0.00     0.160 HD
HETATM   16  H3  UNL     1       1.943  -5.225  29.103  1.00  0.00     0.191 HD
ENDBRANCH   8  10
ENDBRANCH   1   7
BRANCH   4  17
HETATM   17  O2  UNL     1       9.207  -2.465  31.609  1.00  0.00    -0.311 OA
BRANCH  17  18
HETATM   18  C7  UNL     1       9.906  -2.881  32.719  1.00  0.00     0.076 A 
HETATM   19  C8  UNL     1      11.165  -2.311  32.924  1.00  0.00     0.040 A 
HETATM   20  C9  UNL     1      11.910  -2.663  34.050  1.00  0.00     0.045 A 
HETATM   21  C10 UNL     1      11.382  -3.569  34.965  1.00  0.00     0.116 A 
HETATM   22  F1  UNL     1      12.098  -3.906  36.045  1.00  0.00    -0.206 F 
HETATM   23  C11 UNL     1      10.120  -4.124  34.780  1.00  0.00     0.045 A 
HETATM   24  C12 UNL     1       9.372  -3.773  33.656  1.00  0.00     0.040 A 
ENDBRANCH  17  18
ENDBRANCH   4  17
TORSDOF 4
ENDMDL
MODEL 2
REMARK minimizedAffinity -7.72073793
REMARK  4 active torsions:
REMARK  status: ('A' for Active; 'I' for Inactive)
REMARK       I    between atoms: N1_1  and  C1_2 
REMARK       I    between atoms: C1_2  and  N2_4 
REMARK    1  A    between atoms: N2_4  and  N3_5 
REMARK    2  A    between atoms: C2_7  and  C3_8 
REMARK    3  A    between atoms: C6_11  and  O2_12 
REMARK    4  A    between atoms: O2_12  and  C7_13 
ROOT
HETATM    1  C3  UNL     1       5.933  -5.835  29.328  1.00  0.00    -0.019 A 
HETATM    2  C4  UNL     1       7.060  -6.636  29.124  1.00  0.00     0.015 A 
HETATM    3  C5  UNL     1       8.270  -6.301  29.735  1.00  0.00     0.038 A 
HETATM    4  C6  UNL     1       8.353  -5.160  30.535  1.00  0.00     0.076 A 
HETATM    5  C13 UNL     1       7.220  -4.372  30.760  1.00  0.00     0.038 A 
HETATM    6  C14 UNL     1       6.010  -4.706  30.150  1.00  0.00     0.015 A 
ENDROOT
BRANCH   1   7
HETATM    7  C2  UNL     1       4.639  -6.164  28.694  1.00  0.00     0.118 C 
HETATM    8  N3  UNL     1       3.516  -5.740  29.184  1.00  0.00    -0.307 N 
ATOM      9  H3  UNL     1       3.487  -5.191  30.043  1.00  0.00     0.186 HD
BRANCH   8  10
HETATM   10  N2  UNL     1       2.366  -6.058  28.505  1.00  0.00    -0.252 N 
HETATM   11  C1  UNL     1       2.121  -7.265  27.877  1.00  0.00     0.332 C 
HETATM   12  N1  UNL     1       0.966  -7.248  27.147  1.00  0.00    -0.351 N 
HETATM   13  O1  UNL     1       2.782  -8.294  27.944  1.00  0.00    -0.246 OA
HETATM   14  H1  UNL     1       0.833  -8.099  26.614  1.00  0.00     0.160 HD
HETATM   15  H2  UNL     1       0.731  -6.403  26.650  1.00  0.00     0.160 HD
HETATM   16  H3  UNL     1       1.896  -5.249  28.122  1.00  0.00     0.191 HD
ENDBRANCH   8  10
ENDBRANCH   1   7
BRANCH   4  17
HETATM   17  O2  UNL     1       9.565  -4.904  31.135  1.00  0.00    -0.311 OA
BRANCH  17  18
HETATM   18  C7  UNL     1       9.569  -4.740  32.502  1.00  0.00     0.076 A 
HETATM   19  C8  UNL     1      10.560  -3.912  33.035  1.00  0.00     0.040 A 
HETATM   20  C9  UNL     1      10.599  -3.675  34.410  1.00  0.00     0.045 A 
HETATM   21  C10 UNL     1       9.640  -4.258  35.233  1.00  0.00     0.116 A 
HETATM   22  F1  UNL     1       9.678  -4.030  36.552  1.00  0.00    -0.206 F 
HETATM   23  C11 UNL     1       8.637  -5.066  34.707  1.00  0.00     0.045 A 
HETATM   24  C12 UNL     1       8.595  -5.303  33.332  1.00  0.00     0.040 A 
ENDBRANCH  17  18
ENDBRANCH   4  17
TORSDOF 4
ENDMDL
MODEL 3
REMARK minimizedAffinity -7.66732788
REMARK  4 active torsions:
REMARK  status: ('A' for Active; 'I' for Inactive)
REMARK       I    between atoms: N1_1  and  C1_2 
REMARK       I    between atoms: C1_2  and  N2_4 
REMARK    1  A    between atoms: N2_4  and  N3_5 
REMARK    2  A    between atoms: C2_7  and  C3_8 
REMARK    3  A    between atoms: C6_11  and  O2_12 
REMARK    4  A    between atoms: O2_12  and  C7_13 
ROOT
HETATM    1  C3  UNL     1       6.791  -5.591  29.342  1.00  0.00    -0.019 A 
HETATM    2  C4  UNL     1       5.981  -4.640  29.970  1.00  0.00     0.015 A 
HETATM    3  C5  UNL     1       6.463  -3.939  31.077  1.00  0.00     0.038 A 
HETATM    4  C6  UNL     1       7.745  -4.203  31.563  1.00  0.00     0.076 A 
HETATM    5  C13 UNL     1       8.565  -5.137  30.922  1.00  0.00     0.038 A 
HETATM    6  C14 UNL     1       8.085  -5.838  29.814  1.00  0.00     0.015 A 
ENDROOT
BRANCH   1   7
HETATM    7  C2  UNL     1       6.308  -6.349  28.169  1.00  0.00     0.118 C 
HETATM    8  N3  UNL     1       5.994  -7.604  28.253  1.00  0.00    -0.307 N 
ATOM      9  H3  UNL     1       6.100  -8.118  29.128  1.00  0.00     0.186 HD
BRANCH   8  10
HETATM   10  N2  UNL     1       5.513  -8.216  27.123  1.00  0.00    -0.252 N 
HETATM   11  C1  UNL     1       5.980  -7.998  25.840  1.00  0.00     0.332 C 
HETATM   12  N1  UNL     1       5.216  -8.620  24.894  1.00  0.00    -0.351 N 
HETATM   13  O1  UNL     1       6.975  -7.370  25.500  1.00  0.00    -0.246 OA
HETATM   14  H1  UNL     1       5.501  -8.385  23.950  1.00  0.00     0.160 HD
HETATM   15  H2  UNL     1       4.217  -8.648  25.033  1.00  0.00     0.160 HD
HETATM   16  H3  UNL     1       4.546  -8.500  27.206  1.00  0.00     0.191 HD
ENDBRANCH   8  10
ENDBRANCH   1   7
BRANCH   4  17
HETATM   17  O2  UNL     1       8.173  -3.455  32.636  1.00  0.00    -0.311 OA
BRANCH  17  18
HETATM   18  C7  UNL     1       9.406  -2.854  32.534  1.00  0.00     0.076 A 
HETATM   19  C8  UNL     1       9.484  -1.699  31.750  1.00  0.00     0.040 A 
HETATM   20  C9  UNL     1      10.698  -1.021  31.633  1.00  0.00     0.045 A 
HETATM   21  C10 UNL     1      11.816  -1.496  32.312  1.00  0.00     0.116 A 
HETATM   22  F1  UNL     1      12.980  -0.845  32.199  1.00  0.00    -0.206 F 
HETATM   23  C11 UNL     1      11.743  -2.632  33.111  1.00  0.00     0.045 A 
HETATM   24  C12 UNL     1      10.529  -3.312  33.232  1.00  0.00     0.040 A 
ENDBRANCH  17  18
ENDBRANCH   4  17
TORSDOF 4
ENDMDL
MODEL 4
REMARK minimizedAffinity -7.6668849
REMARK  4 active torsions:
REMARK  status: ('A' for Active; 'I' for Inactive)
REMARK       I    between atoms: N1_1  and  C1_2 
REMARK       I    between atoms: C1_2  and  N2_4 
REMARK    1  A    between atoms: N2_4  and  N3_5 
REMARK    2  A    between atoms: C2_7  and  C3_8 
REMARK    3  A    between atoms: C6_11  and  O2_12 
REMARK    4  A    between atoms: O2_12  and  C7_13 
ROOT
HETATM    1  C3  UNL     1       6.220  -5.066  30.161  1.00  0.00    -0.019 A 
HETATM    2  C4  UNL     1       7.151  -5.856  29.480  1.00  0.00     0.015 A 
HETATM    3  C5  UNL     1       8.516  -5.663  29.699  1.00  0.00     0.038 A 
HETATM    4  C6  UNL     1       8.947  -4.673  30.584  1.00  0.00     0.076 A 
HETATM    5  C13 UNL     1       8.016  -3.899  31.284  1.00  0.00     0.038 A 
HETATM    6  C14 UNL     1       6.650  -4.091  31.067  1.00  0.00     0.015 A 
ENDROOT
BRANCH   1   7
HETATM    7  C2  UNL     1       4.768  -5.245  29.950  1.00  0.00     0.118 C 
HETATM    8  N3  UNL     1       4.295  -5.680  28.824  1.00  0.00    -0.307 N 
ATOM      9  H3  UNL     1       4.909  -5.882  28.035  1.00  0.00     0.186 HD
BRANCH   8  10
HETATM   10  N2  UNL     1       2.937  -5.857  28.731  1.00  0.00    -0.252 N 
HETATM   11  C1  UNL     1       2.313  -6.951  28.161  1.00  0.00     0.332 C 
HETATM   12  N1  UNL     1       0.960  -6.789  28.066  1.00  0.00    -0.351 N 
HETATM   13  O1  UNL     1       2.827  -8.000  27.794  1.00  0.00    -0.246 OA
HETATM   14  H1  UNL     1       0.514  -7.548  27.565  1.00  0.00     0.160 HD
HETATM   15  H2  UNL     1       0.606  -5.873  27.835  1.00  0.00     0.160 HD
HETATM   16  H3  UNL     1       2.424  -4.985  28.708  1.00  0.00     0.191 HD
ENDBRANCH   8  10
ENDBRANCH   1   7
BRANCH   4  17
HETATM   17  O2  UNL     1      10.304  -4.557  30.781  1.00  0.00    -0.311 OA
BRANCH  17  18
HETATM   18  C7  UNL     1      10.723  -3.908  31.919  1.00  0.00     0.076 A 
HETATM   19  C8  UNL     1      10.557  -4.584  33.130  1.00  0.00     0.040 A 
HETATM   20  C9  UNL     1      10.993  -3.996  34.318  1.00  0.00     0.045 A 
HETATM   21  C10 UNL     1      11.602  -2.745  34.280  1.00  0.00     0.116 A 
HETATM   22  F1  UNL     1      12.021  -2.182  35.420  1.00  0.00    -0.206 F 
HETATM   23  C11 UNL     1      11.791  -2.075  33.076  1.00  0.00     0.045 A 
HETATM   24  C12 UNL     1      11.358  -2.661  31.886  1.00  0.00     0.040 A 
ENDBRANCH  17  18
ENDBRANCH   4  17
TORSDOF 4
ENDMDL
MODEL 5
REMARK minimizedAffinity -7.62942553
REMARK  4 active torsions:
REMARK  status: ('A' for Active; 'I' for Inactive)
REMARK       I    between atoms: N1_1  and  C1_2 
REMARK       I    between atoms: C1_2  and  N2_4 
REMARK    1  A    between atoms: N2_4  and  N3_5 
REMARK    2  A    between atoms: C2_7  and  C3_8 
REMARK    3  A    between atoms: C6_11  and  O2_12 
REMARK    4  A    between atoms: O2_12  and  C7_13 
ROOT
HETATM    1  C3  UNL     1       8.530  -6.136  29.471  1.00  0.00    -0.019 A 
HETATM    2  C4  UNL     1       7.439  -5.301  29.728  1.00  0.00     0.015 A 
HETATM    3  C5  UNL     1       7.392  -4.565  30.913  1.00  0.00     0.038 A 
HETATM    4  C6  UNL     1       8.427  -4.677  31.844  1.00  0.00     0.076 A 
HETATM    5  C13 UNL     1       9.530  -5.492  31.577  1.00  0.00     0.038 A 
HETATM    6  C14 UNL     1       9.579  -6.229  30.392  1.00  0.00     0.015 A 
ENDROOT
BRANCH   1   7
HETATM    7  C2  UNL     1       8.608  -6.928  28.226  1.00  0.00     0.118 C 
HETATM    8  N3  UNL     1       8.651  -6.360  27.061  1.00  0.00    -0.307 N 
ATOM      9  H3  UNL     1       8.601  -5.346  26.966  1.00  0.00     0.186 HD
BRANCH   8  10
HETATM   10  N2  UNL     1       8.765  -7.174  25.962  1.00  0.00    -0.252 N 
HETATM   11  C1  UNL     1       7.705  -7.722  25.263  1.00  0.00     0.332 C 
HETATM   12  N1  UNL     1       8.114  -8.615  24.313  1.00  0.00    -0.351 N 
HETATM   13  O1  UNL     1       6.514  -7.466  25.385  1.00  0.00    -0.246 OA
HETATM   14  H1  UNL     1       7.336  -9.085  23.865  1.00  0.00     0.160 HD
HETATM   15  H2  UNL     1       8.895  -9.215  24.530  1.00  0.00     0.160 HD
HETATM   16  H3  UNL     1       9.633  -7.693  25.941  1.00  0.00     0.191 HD
ENDBRANCH   8  10
ENDBRANCH   1   7
BRANCH   4  17
HETATM   17  O2  UNL     1       8.336  -3.899  32.976  1.00  0.00    -0.311 OA
BRANCH  17  18
HETATM   18  C7  UNL     1       9.515  -3.493  33.557  1.00  0.00     0.076 A 
HETATM   19  C8  UNL     1       9.864  -4.098  34.768  1.00  0.00     0.040 A 
HETATM   20  C9  UNL     1      11.064  -3.757  35.392  1.00  0.00     0.045 A 
HETATM   21  C10 UNL     1      11.908  -2.826  34.794  1.00  0.00     0.116 A 
HETATM   22  F1  UNL     1      13.059  -2.499  35.394  1.00  0.00    -0.206 F 
HETATM   23  C11 UNL     1      11.578  -2.235  33.578  1.00  0.00     0.045 A 
HETATM   24  C12 UNL     1      10.379  -2.575  32.950  1.00  0.00     0.040 A 
ENDBRANCH  17  18
ENDBRANCH   4  17
TORSDOF 4
ENDMDL
MODEL 6
REMARK minimizedAffinity -7.61503601
REMARK  4 active torsions:
REMARK  status: ('A' for Active; 'I' for Inactive)
REMARK       I    between atoms: N1_1  and  C1_2 
REMARK       I    between atoms: C1_2  and  N2_4 
REMARK    1  A    between atoms: N2_4  and  N3_5 
REMARK    2  A    between atoms: C2_7  and  C3_8 
REMARK    3  A    between atoms: C6_11  and  O2_12 
REMARK    4  A    between atoms: O2_12  and  C7_13 
ROOT
HETATM    1  C3  UNL     1       5.254  -6.140  29.210  1.00  0.00    -0.019 A 
HETATM    2  C4  UNL     1       6.449  -6.829  28.979  1.00  0.00     0.015 A 
HETATM    3  C5  UNL     1       7.582  -6.526  29.735  1.00  0.00     0.038 A 
HETATM    4  C6  UNL     1       7.524  -5.525  30.707  1.00  0.00     0.076 A 
HETATM    5  C13 UNL     1       6.323  -4.852  30.955  1.00  0.00     0.038 A 
HETATM    6  C14 UNL     1       5.189  -5.155  30.201  1.00  0.00     0.015 A 
ENDROOT
BRANCH   1   7
HETATM    7  C2  UNL     1       4.038  -6.439  28.425  1.00  0.00     0.118 C 
HETATM    8  N3  UNL     1       2.858  -6.114  28.852  1.00  0.00    -0.307 N 
ATOM      9  H3  UNL     1       2.728  -5.669  29.761  1.00  0.00     0.186 HD
BRANCH   8  10
HETATM   10  N2  UNL     1       1.788  -6.392  28.038  1.00  0.00    -0.252 N 
HETATM   11  C1  UNL     1       1.454  -7.647  27.564  1.00  0.00     0.332 C 
HETATM   12  N1  UNL     1       0.440  -7.605  26.649  1.00  0.00    -0.351 N 
HETATM   13  O1  UNL     1       1.927  -8.726  27.898  1.00  0.00    -0.246 OA
HETATM   14  H1  UNL     1       0.256  -8.511  26.234  1.00  0.00     0.160 HD
HETATM   15  H2  UNL     1       0.418  -6.836  25.998  1.00  0.00     0.160 HD
HETATM   16  H3  UNL     1       1.514  -5.607  27.462  1.00  0.00     0.191 HD
ENDBRANCH   8  10
ENDBRANCH   1   7
BRANCH   4  17
HETATM   17  O2  UNL     1       8.666  -5.298  31.440  1.00  0.00    -0.311 OA
BRANCH  17  18
HETATM   18  C7  UNL     1       9.235  -4.048  31.349  1.00  0.00     0.076 A 
HETATM   19  C8  UNL     1       8.826  -3.097  32.288  1.00  0.00     0.040 A 
HETATM   20  C9  UNL     1       9.390  -1.821  32.273  1.00  0.00     0.045 A 
HETATM   21  C10 UNL     1      10.365  -1.514  31.329  1.00  0.00     0.116 A 
HETATM   22  F1  UNL     1      10.906  -0.290  31.316  1.00  0.00    -0.206 F 
HETATM   23  C11 UNL     1      10.794  -2.461  30.405  1.00  0.00     0.045 A 
HETATM   24  C12 UNL     1      10.233  -3.739  30.418  1.00  0.00     0.040 A 
ENDBRANCH  17  18
ENDBRANCH   4  17
TORSDOF 4
ENDMDL
MODEL 7
REMARK minimizedAffinity -7.52956867
REMARK  4 active torsions:
REMARK  status: ('A' for Active; 'I' for Inactive)
REMARK       I    between atoms: N1_1  and  C1_2 
REMARK       I    between atoms: C1_2  and  N2_4 
REMARK    1  A    between atoms: N2_4  and  N3_5 
REMARK    2  A    between atoms: C2_7  and  C3_8 
REMARK    3  A    between atoms: C6_11  and  O2_12 
REMARK    4  A    between atoms: O2_12  and  C7_13 
ROOT
HETATM    1  C3  UNL     1       7.334  -3.981  31.416  1.00  0.00    -0.019 A 
HETATM    2  C4  UNL     1       6.368  -3.037  31.054  1.00  0.00     0.015 A 
HETATM    3  C5  UNL     1       5.147  -3.461  30.525  1.00  0.00     0.038 A 
HETATM    4  C6  UNL     1       4.902  -4.824  30.344  1.00  0.00     0.076 A 
HETATM    5  C13 UNL     1       5.858  -5.769  30.728  1.00  0.00     0.038 A 
HETATM    6  C14 UNL     1       7.079  -5.347  31.258  1.00  0.00     0.015 A 
ENDROOT
BRANCH   1   7
HETATM    7  C2  UNL     1       8.635  -3.563  31.977  1.00  0.00     0.118 C 
HETATM    8  N3  UNL     1       8.905  -2.316  32.211  1.00  0.00    -0.307 N 
ATOM      9  H3  UNL     1       8.237  -1.579  31.984  1.00  0.00     0.186 HD
BRANCH   8  10
HETATM   10  N2  UNL     1      10.122  -2.024  32.773  1.00  0.00    -0.252 N 
HETATM   11  C1  UNL     1      11.323  -1.969  32.089  1.00  0.00     0.332 C 
HETATM   12  N1  UNL     1      12.392  -1.813  32.926  1.00  0.00    -0.351 N 
HETATM   13  O1  UNL     1      11.499  -2.007  30.878  1.00  0.00    -0.246 OA
HETATM   14  H1  UNL     1      13.277  -1.866  32.435  1.00  0.00     0.160 HD
HETATM   15  H2  UNL     1      12.377  -2.295  33.812  1.00  0.00     0.160 HD
HETATM   16  H3  UNL     1      10.175  -2.268  33.753  1.00  0.00     0.191 HD
ENDBRANCH   8  10
ENDBRANCH   1   7
BRANCH   4  17
HETATM   17  O2  UNL     1       3.668  -5.176  29.850  1.00  0.00    -0.311 OA
BRANCH  17  18
HETATM   18  C7  UNL     1       3.624  -6.210  28.943  1.00  0.00     0.076 A 
HETATM   19  C8  UNL     1       4.848  -6.677  28.457  1.00  0.00     0.040 A 
HETATM   20  C9  UNL     1       4.876  -7.747  27.561  1.00  0.00     0.045 A 
HETATM   21  C10 UNL     1       3.681  -8.346  27.172  1.00  0.00     0.116 A 
HETATM   22  F1  UNL     1       3.709  -9.372  26.313  1.00  0.00    -0.206 F 
HETATM   23  C11 UNL     1       2.460  -7.901  27.667  1.00  0.00     0.045 A 
HETATM   24  C12 UNL     1       2.429  -6.833  28.565  1.00  0.00     0.040 A 
ENDBRANCH  17  18
ENDBRANCH   4  17
TORSDOF 4
ENDMDL
MODEL 8
REMARK minimizedAffinity -7.41594553
REMARK  4 active torsions:
REMARK  status: ('A' for Active; 'I' for Inactive)
REMARK       I    between atoms: N1_1  and  C1_2 
REMARK       I    between atoms: C1_2  and  N2_4 
REMARK    1  A    between atoms: N2_4  and  N3_5 
REMARK    2  A    between atoms: C2_7  and  C3_8 
REMARK    3  A    between atoms: C6_11  and  O2_12 
REMARK    4  A    between atoms: O2_12  and  C7_13 
ROOT
HETATM    1  C3  UNL     1       4.975  -5.393  29.515  1.00  0.00    -0.019 A 
HETATM    2  C4  UNL     1       6.072  -6.183  29.871  1.00  0.00     0.015 A 
HETATM    3  C5  UNL     1       7.064  -5.661  30.704  1.00  0.00     0.038 A 
HETATM    4  C6  UNL     1       6.964  -4.347  31.164  1.00  0.00     0.076 A 
HETATM    5  C13 UNL     1       5.856  -3.563  30.829  1.00  0.00     0.038 A 
HETATM    6  C14 UNL     1       4.863  -4.084  29.997  1.00  0.00     0.015 A 
ENDROOT
BRANCH   1   7
HETATM    7  C2  UNL     1       3.911  -5.918  28.635  1.00  0.00     0.118 C 
HETATM    8  N3  UNL     1       2.665  -5.904  28.994  1.00  0.00    -0.307 N 
ATOM      9  H3  UNL     1       2.383  -5.558  29.911  1.00  0.00     0.186 HD
BRANCH   8  10
HETATM   10  N2  UNL     1       1.740  -6.373  28.095  1.00  0.00    -0.252 N 
HETATM   11  C1  UNL     1       1.746  -7.635  27.531  1.00  0.00     0.332 C 
HETATM   12  N1  UNL     1       0.801  -7.774  26.554  1.00  0.00    -0.351 N 
HETATM   13  O1  UNL     1       2.451  -8.589  27.836  1.00  0.00    -0.246 OA
HETATM   14  H1  UNL     1       0.867  -8.666  26.077  1.00  0.00     0.160 HD
HETATM   15  H2  UNL     1       0.626  -6.989  25.947  1.00  0.00     0.160 HD
HETATM   16  H3  UNL     1       1.312  -5.638  27.547  1.00  0.00     0.191 HD
ENDBRANCH   8  10
ENDBRANCH   1   7
BRANCH   4  17
HETATM   17  O2  UNL     1       7.957  -3.903  32.008  1.00  0.00    -0.311 OA
BRANCH  17  18
HETATM   18  C7  UNL     1       9.248  -4.278  31.713  1.00  0.00     0.076 A 
HETATM   19  C8  UNL     1       9.770  -5.361  32.425  1.00  0.00     0.040 A 
HETATM   20  C9  UNL     1      11.061  -5.814  32.150  1.00  0.00     0.045 A 
HETATM   21  C10 UNL     1      11.810  -5.188  31.158  1.00  0.00     0.116 A 
HETATM   22  F1  UNL     1      13.048  -5.624  30.895  1.00  0.00    -0.206 F 
HETATM   23  C11 UNL     1      11.290  -4.123  30.429  1.00  0.00     0.045 A 
HETATM   24  C12 UNL     1       9.998  -3.669  30.701  1.00  0.00     0.040 A 
ENDBRANCH  17  18
ENDBRANCH   4  17
TORSDOF 4
ENDMDL
MODEL 9
REMARK minimizedAffinity -7.19033527
REMARK  4 active torsions:
REMARK  status: ('A' for Active; 'I' for Inactive)
REMARK       I    between atoms: N1_1  and  C1_2 
REMARK       I    between atoms: C1_2  and  N2_4 
REMARK    1  A    between atoms: N2_4  and  N3_5 
REMARK    2  A    between atoms: C2_7  and  C3_8 
REMARK    3  A    between atoms: C6_11  and  O2_12 
REMARK    4  A    between atoms: O2_12  and  C7_13 
ROOT
HETATM    1  C3  UNL     1       7.111  -5.882  29.944  1.00  0.00    -0.019 A 
HETATM    2  C4  UNL     1       6.262  -4.916  30.492  1.00  0.00     0.015 A 
HETATM    3  C5  UNL     1       6.796  -3.869  31.246  1.00  0.00     0.038 A 
HETATM    4  C6  UNL     1       8.173  -3.800  31.464  1.00  0.00     0.076 A 
HETATM    5  C13 UNL     1       9.026  -4.752  30.896  1.00  0.00     0.038 A 
HETATM    6  C14 UNL     1       8.494  -5.799  30.141  1.00  0.00     0.015 A 
ENDROOT
BRANCH   1   7
HETATM    7  C2  UNL     1       6.576  -7.001  29.142  1.00  0.00     0.118 C 
HETATM    8  N3  UNL     1       7.145  -7.381  28.040  1.00  0.00    -0.307 N 
ATOM      9  H3  UNL     1       7.965  -6.897  27.675  1.00  0.00     0.186 HD
BRANCH   8  10
HETATM   10  N2  UNL     1       6.603  -8.457  27.384  1.00  0.00    -0.252 N 
HETATM   11  C1  UNL     1       6.946  -9.779  27.602  1.00  0.00     0.332 C 
HETATM   12  N1  UNL     1       6.365 -10.624  26.700  1.00  0.00    -0.351 N 
HETATM   13  O1  UNL     1       7.647 -10.233  28.498  1.00  0.00    -0.246 OA
HETATM   14  H1  UNL     1       6.689 -11.579  26.802  1.00  0.00     0.160 HD
HETATM   15  H2  UNL     1       6.278 -10.313  25.745  1.00  0.00     0.160 HD
HETATM   16  H3  UNL     1       6.266  -8.228  26.458  1.00  0.00     0.191 HD
ENDBRANCH   8  10
ENDBRANCH   1   7
BRANCH   4  17
HETATM   17  O2  UNL     1       8.638  -2.726  32.187  1.00  0.00    -0.311 OA
BRANCH  17  18
HETATM   18  C7  UNL     1       9.678  -2.956  33.059  1.00  0.00     0.076 A 
HETATM   19  C8  UNL     1      10.856  -2.236  32.842  1.00  0.00     0.040 A 
HETATM   20  C9  UNL     1      11.936  -2.397  33.711  1.00  0.00     0.045 A 
HETATM   21  C10 UNL     1      11.821  -3.263  34.794  1.00  0.00     0.116 A 
HETATM   22  F1  UNL     1      12.858  -3.416  35.627  1.00  0.00    -0.206 F 
HETATM   23  C11 UNL     1      10.645  -3.967  35.029  1.00  0.00     0.045 A 
HETATM   24  C12 UNL     1       9.562  -3.807  34.163  1.00  0.00     0.040 A 
ENDBRANCH  17  18
ENDBRANCH   4  17
TORSDOF 4
ENDMDL
