MODEL 1
REMARK minimizedAffinity -8.6439333
REMARK CNNscore 0.491837859
REMARK CNNaffinity 7.05514956
REMARK  9 active torsions:
REMARK  status: ('A' for Active; 'I' for Inactive)
REMARK    1  A    between atoms: C12_14  and  C13_15 
REMARK    2  A    between atoms: C13_15  and  C15_17 
REMARK    3  A    between atoms: C15_17  and  C16_18 
REMARK    4  A    between atoms: C16_18  and  C17_19 
REMARK    5  A    between atoms: C18_20  and  C20_22 
REMARK    6  A    between atoms: C26_29  and  C27_30 
REMARK    7  A    between atoms: C27_30  and  C28_31 
REMARK    8  A    between atoms: C28_31  and  C29_32 
REMARK    9  A    between atoms: C29_32  and  O5_34 
ROOT
HETATM    1  C1  UNL     1       3.842   8.061   9.909  1.00  0.00     0.025 C 
HETATM    2  C2  UNL     1       2.733   7.400  10.262  1.00  0.00     0.015 C 
HETATM    3  C3  UNL     1       1.743   6.911   9.273  1.00  0.00     0.289 C 
HETATM    4  O1  UNL     1       1.656   7.248   8.108  1.00  0.00    -0.260 OA
HETATM    5  O2  UNL     1       0.942   6.011   9.909  1.00  0.00    -0.311 OA
HETATM    6  C4  UNL     1       1.515   5.706  11.185  1.00  0.00     0.142 C 
HETATM    7  C5  UNL     1       0.461   5.266  12.187  1.00  0.00     0.039 C 
HETATM    8  C6  UNL     1      -0.581   6.361  12.437  1.00  0.00     0.006 C 
HETATM    9  C7  UNL     1       0.102   7.657  12.947  1.00  0.00    -0.027 A 
HETATM   10  C8  UNL     1      -0.347   8.164  14.322  1.00  0.00     0.011 C 
HETATM   11  C9  UNL     1      -1.847   8.057  14.657  1.00  0.00     0.011 C 
HETATM   12  C10 UNL     1      -2.653   7.149  13.716  1.00  0.00    -0.032 C 
HETATM   13  C11 UNL     1      -3.084   7.999  12.489  1.00  0.00     0.016 C 
HETATM   14  C12 UNL     1      -3.910   6.455  14.337  1.00  0.00    -0.002 C 
HETATM   15  C21 UNL     1      -4.081   5.169  13.479  1.00  0.00     0.006 C 
HETATM   16  C22 UNL     1      -2.788   4.995  12.661  1.00  0.00     0.011 C 
HETATM   17  C23 UNL     1      -1.756   5.909  13.351  1.00  0.00    -0.032 C 
HETATM   18  C24 UNL     1      -1.217   5.107  14.581  1.00  0.00     0.016 C 
HETATM   19  C25 UNL     1       0.370   8.706  11.891  1.00  0.00     0.022 A 
HETATM   20  C26 UNL     1       1.563   7.972  12.474  1.00  0.00    -0.021 A 
HETATM   21  C30 UNL     1       2.311   6.930  11.612  1.00  0.00     0.063 C 
ENDROOT
BRANCH  14  22
HETATM   22  C13 UNL     1      -5.247   7.203  14.624  1.00  0.00    -0.014 C 
HETATM   23  C14 UNL     1      -5.182   8.733  14.714  1.00  0.00     0.010 C 
BRANCH  22  24
HETATM   24  C15 UNL     1      -5.973   6.604  15.850  1.00  0.00     0.008 C 
BRANCH  24  25
HETATM   25  C16 UNL     1      -7.111   5.647  15.478  1.00  0.00     0.028 C 
BRANCH  25  26
HETATM   26  C17 UNL     1      -7.687   5.984  14.128  1.00  0.00    -0.017 C 
HETATM   27  C18 UNL     1      -7.969   5.144  13.114  1.00  0.00    -0.028 C 
HETATM   28  C19 UNL     1      -8.585   5.610  11.829  1.00  0.00     0.051 C 
BRANCH  27  29
HETATM   29  C20 UNL     1      -7.678   3.679  13.160  1.00  0.00     0.265 C 
HETATM   30  O3  UNL     1      -8.489   2.802  12.898  1.00  0.00    -0.302 OA
ENDBRANCH  27  29
ENDBRANCH  25  26
ENDBRANCH  24  25
ENDBRANCH  22  24
ENDBRANCH  14  22
BRANCH  20  31
HETATM   31  C27 UNL     1       2.522   8.712  13.429  1.00  0.00     0.021 C 
BRANCH  31  32
HETATM   32  C28 UNL     1       3.851   8.042  13.755  1.00  0.00     0.111 C 
BRANCH  32  33
HETATM   33  C29 UNL     1       4.178   8.048  15.220  1.00  0.00     0.139 C 
HETATM   34  O4  UNL     1       3.805   8.869  16.040  1.00  0.00    -0.650 OA
BRANCH  33  35
HETATM   35  O5  UNL     1       4.919   6.990  15.602  1.00  0.00    -0.776 OA
HETATM   36  H41 UNL     1       5.013   7.122  16.570  1.00  0.00     0.167 HD
ENDBRANCH  33  35
ENDBRANCH  32  33
ENDBRANCH  31  32
ENDBRANCH  20  31
TORSDOF 9
ENDMDL
MODEL 2
REMARK minimizedAffinity -7.65004158
REMARK CNNscore 0.297991693
REMARK CNNaffinity 6.57868433
REMARK  9 active torsions:
REMARK  status: ('A' for Active; 'I' for Inactive)
REMARK    1  A    between atoms: C12_14  and  C13_15 
REMARK    2  A    between atoms: C13_15  and  C15_17 
REMARK    3  A    between atoms: C15_17  and  C16_18 
REMARK    4  A    between atoms: C16_18  and  C17_19 
REMARK    5  A    between atoms: C18_20  and  C20_22 
REMARK    6  A    between atoms: C26_29  and  C27_30 
REMARK    7  A    between atoms: C27_30  and  C28_31 
REMARK    8  A    between atoms: C28_31  and  C29_32 
REMARK    9  A    between atoms: C29_32  and  O5_34 
ROOT
HETATM    1  C1  UNL     1       2.810   8.104  11.488  1.00  0.00     0.025 C 
HETATM    2  C2  UNL     1       1.633   7.476  11.587  1.00  0.00     0.015 C 
HETATM    3  C3  UNL     1       0.795   7.157  10.407  1.00  0.00     0.289 C 
HETATM    4  O1  UNL     1       0.909   7.623   9.290  1.00  0.00    -0.260 OA
HETATM    5  O2  UNL     1      -0.135   6.242  10.801  1.00  0.00    -0.311 OA
HETATM    6  C4  UNL     1       0.214   5.767  12.107  1.00  0.00     0.142 C 
HETATM    7  C5  UNL     1      -1.004   5.283  12.876  1.00  0.00     0.039 C 
HETATM    8  C6  UNL     1      -2.026   6.404  13.088  1.00  0.00     0.006 C 
HETATM    9  C7  UNL     1      -1.381   7.594  13.845  1.00  0.00    -0.027 A 
HETATM   10  C8  UNL     1      -2.024   7.974  15.184  1.00  0.00     0.011 C 
HETATM   11  C9  UNL     1      -3.561   7.921  15.268  1.00  0.00     0.011 C 
HETATM   12  C10 UNL     1      -4.243   7.169  14.115  1.00  0.00    -0.032 C 
HETATM   13  C11 UNL     1      -4.436   8.172  12.944  1.00  0.00     0.016 C 
HETATM   14  C12 UNL     1      -5.610   6.487  14.449  1.00  0.00    -0.002 C 
HETATM   15  C21 UNL     1      -5.694   5.315  13.431  1.00  0.00     0.006 C 
HETATM   16  C22 UNL     1      -4.295   5.155  12.808  1.00  0.00     0.011 C 
HETATM   17  C23 UNL     1      -3.351   5.925  13.751  1.00  0.00    -0.032 C 
HETATM   18  C24 UNL     1      -3.049   4.964  14.947  1.00  0.00     0.016 C 
HETATM   19  C25 UNL     1      -0.905   8.734  12.973  1.00  0.00     0.022 A 
HETATM   20  C26 UNL     1       0.148   7.872  13.643  1.00  0.00    -0.021 A 
HETATM   21  C30 UNL     1       0.981   6.887  12.791  1.00  0.00     0.063 C 
ENDROOT
BRANCH  14  22
HETATM   22  C13 UNL     1      -6.944   7.278  14.612  1.00  0.00    -0.014 C 
HETATM   23  C14 UNL     1      -7.325   7.713  16.033  1.00  0.00     0.010 C 
BRANCH  22  24
HETATM   24  C15 UNL     1      -8.117   6.547  13.921  1.00  0.00     0.008 C 
BRANCH  24  25
HETATM   25  C16 UNL     1      -9.461   6.741  14.632  1.00  0.00     0.028 C 
BRANCH  25  26
HETATM   26  C17 UNL     1     -10.401   7.576  13.803  1.00  0.00    -0.017 C 
HETATM   27  C18 UNL     1     -11.732   7.436  13.666  1.00  0.00    -0.028 C 
HETATM   28  C19 UNL     1     -12.560   8.371  12.836  1.00  0.00     0.051 C 
BRANCH  27  29
HETATM   29  C20 UNL     1     -12.509   6.330  14.303  1.00  0.00     0.265 C 
HETATM   30  O3  UNL     1     -13.702   6.126  14.124  1.00  0.00    -0.302 OA
ENDBRANCH  27  29
ENDBRANCH  25  26
ENDBRANCH  24  25
ENDBRANCH  22  24
ENDBRANCH  14  22
BRANCH  20  31
HETATM   31  C27 UNL     1       0.972   8.446  14.815  1.00  0.00     0.021 C 
BRANCH  31  32
HETATM   32  C28 UNL     1       2.045   7.554  15.428  1.00  0.00     0.111 C 
BRANCH  32  33
HETATM   33  C29 UNL     1       3.407   8.186  15.443  1.00  0.00     0.139 C 
HETATM   34  O4  UNL     1       4.343   7.900  14.716  1.00  0.00    -0.650 OA
BRANCH  33  35
HETATM   35  O5  UNL     1       3.518   9.186  16.338  1.00  0.00    -0.776 OA
HETATM   36  H41 UNL     1       4.435   9.508  16.200  1.00  0.00     0.167 HD
ENDBRANCH  33  35
ENDBRANCH  32  33
ENDBRANCH  31  32
ENDBRANCH  20  31
TORSDOF 9
ENDMDL
MODEL 3
REMARK minimizedAffinity -7.59468794
REMARK CNNscore 0.291374862
REMARK CNNaffinity 6.61893082
REMARK  9 active torsions:
REMARK  status: ('A' for Active; 'I' for Inactive)
REMARK    1  A    between atoms: C12_14  and  C13_15 
REMARK    2  A    between atoms: C13_15  and  C15_17 
REMARK    3  A    between atoms: C15_17  and  C16_18 
REMARK    4  A    between atoms: C16_18  and  C17_19 
REMARK    5  A    between atoms: C18_20  and  C20_22 
REMARK    6  A    between atoms: C26_29  and  C27_30 
REMARK    7  A    between atoms: C27_30  and  C28_31 
REMARK    8  A    between atoms: C28_31  and  C29_32 
REMARK    9  A    between atoms: C29_32  and  O5_34 
ROOT
HETATM    1  C1  UNL     1      -4.511   5.046  12.643  1.00  0.00     0.025 C 
HETATM    2  C2  UNL     1      -3.639   6.002  12.981  1.00  0.00     0.015 C 
HETATM    3  C3  UNL     1      -2.190   5.741  13.147  1.00  0.00     0.289 C 
HETATM    4  O1  UNL     1      -1.658   4.653  13.262  1.00  0.00    -0.260 OA
HETATM    5  O2  UNL     1      -1.555   6.946  13.151  1.00  0.00    -0.311 OA
HETATM    6  C4  UNL     1      -2.486   7.956  12.747  1.00  0.00     0.142 C 
HETATM    7  C5  UNL     1      -2.119   9.320  13.309  1.00  0.00     0.039 C 
HETATM    8  C6  UNL     1      -2.123   9.324  14.841  1.00  0.00     0.006 C 
HETATM    9  C7  UNL     1      -3.513   8.901  15.384  1.00  0.00    -0.027 A 
HETATM   10  C8  UNL     1      -4.232   9.922  16.272  1.00  0.00     0.011 C 
HETATM   11  C9  UNL     1      -3.371  10.720  17.271  1.00  0.00     0.011 C 
HETATM   12  C10 UNL     1      -1.858  10.642  17.019  1.00  0.00    -0.032 C 
HETATM   13  C11 UNL     1      -1.325   9.364  17.725  1.00  0.00     0.016 C 
HETATM   14  C12 UNL     1      -1.018  11.879  17.478  1.00  0.00    -0.002 C 
HETATM   15  C21 UNL     1       0.220  11.852  16.538  1.00  0.00     0.006 C 
HETATM   16  C22 UNL     1      -0.095  10.860  15.402  1.00  0.00     0.011 C 
HETATM   17  C23 UNL     1      -1.622  10.659  15.464  1.00  0.00    -0.032 C 
HETATM   18  C24 UNL     1      -2.253  11.882  14.720  1.00  0.00     0.016 C 
HETATM   19  C25 UNL     1      -3.637   7.448  15.783  1.00  0.00     0.022 A 
HETATM   20  C26 UNL     1      -4.377   7.903  14.540  1.00  0.00    -0.021 A 
HETATM   21  C30 UNL     1      -3.868   7.465  13.148  1.00  0.00     0.063 C 
ENDROOT
BRANCH  14  22
HETATM   22  C13 UNL     1      -0.671  12.174  18.968  1.00  0.00    -0.014 C 
HETATM   23  C14 UNL     1      -1.003  13.576  19.495  1.00  0.00     0.010 C 
BRANCH  22  24
HETATM   24  C15 UNL     1       0.791  11.791  19.290  1.00  0.00     0.008 C 
BRANCH  24  25
HETATM   25  C16 UNL     1       0.917  10.745  20.404  1.00  0.00     0.028 C 
BRANCH  25  26
HETATM   26  C17 UNL     1       2.318  10.700  20.953  1.00  0.00    -0.017 C 
HETATM   27  C18 UNL     1       2.823   9.851  21.868  1.00  0.00    -0.028 C 
HETATM   28  C19 UNL     1       4.259   9.889  22.298  1.00  0.00     0.051 C 
BRANCH  27  29
HETATM   29  C20 UNL     1       2.003   8.809  22.558  1.00  0.00     0.265 C 
HETATM   30  O3  UNL     1       1.789   7.689  22.114  1.00  0.00    -0.302 OA
ENDBRANCH  27  29
ENDBRANCH  25  26
ENDBRANCH  24  25
ENDBRANCH  22  24
ENDBRANCH  14  22
BRANCH  20  31
HETATM   31  C27 UNL     1      -5.915   8.026  14.569  1.00  0.00     0.021 C 
BRANCH  31  32
HETATM   32  C28 UNL     1      -6.676   7.140  15.549  1.00  0.00     0.111 C 
BRANCH  32  33
HETATM   33  C29 UNL     1      -7.596   6.161  14.878  1.00  0.00     0.139 C 
HETATM   34  O4  UNL     1      -7.844   6.105  13.686  1.00  0.00    -0.650 OA
BRANCH  33  35
HETATM   35  O5  UNL     1      -8.123   5.261  15.729  1.00  0.00    -0.776 OA
HETATM   36  H41 UNL     1      -8.659   4.686  15.141  1.00  0.00     0.167 HD
ENDBRANCH  33  35
ENDBRANCH  32  33
ENDBRANCH  31  32
ENDBRANCH  20  31
TORSDOF 9
ENDMDL
MODEL 4
REMARK minimizedAffinity -6.33343792
REMARK CNNscore 0.283112437
REMARK CNNaffinity 5.87773514
REMARK  9 active torsions:
REMARK  status: ('A' for Active; 'I' for Inactive)
REMARK    1  A    between atoms: C12_14  and  C13_15 
REMARK    2  A    between atoms: C13_15  and  C15_17 
REMARK    3  A    between atoms: C15_17  and  C16_18 
REMARK    4  A    between atoms: C16_18  and  C17_19 
REMARK    5  A    between atoms: C18_20  and  C20_22 
REMARK    6  A    between atoms: C26_29  and  C27_30 
REMARK    7  A    between atoms: C27_30  and  C28_31 
REMARK    8  A    between atoms: C28_31  and  C29_32 
REMARK    9  A    between atoms: C29_32  and  O5_34 
ROOT
HETATM    1  C1  UNL     1      -3.912  16.903   6.125  1.00  0.00     0.025 C 
HETATM    2  C2  UNL     1      -2.640  16.601   5.843  1.00  0.00     0.015 C 
HETATM    3  C3  UNL     1      -1.495  17.367   6.389  1.00  0.00     0.289 C 
HETATM    4  O1  UNL     1      -1.542  18.465   6.912  1.00  0.00    -0.260 OA
HETATM    5  O2  UNL     1      -0.373  16.618   6.199  1.00  0.00    -0.311 OA
HETATM    6  C4  UNL     1      -0.764  15.304   5.785  1.00  0.00     0.142 C 
HETATM    7  C5  UNL     1       0.318  14.627   4.960  1.00  0.00     0.039 C 
HETATM    8  C6  UNL     1       0.626  15.405   3.676  1.00  0.00     0.006 C 
HETATM    9  C7  UNL     1      -0.653  15.564   2.815  1.00  0.00    -0.027 A 
HETATM   10  C8  UNL     1      -0.596  14.971   1.402  1.00  0.00     0.011 C 
HETATM   11  C9  UNL     1       0.724  15.128   0.623  1.00  0.00     0.011 C 
HETATM   12  C10 UNL     1       1.927  15.556   1.477  1.00  0.00    -0.032 C 
HETATM   13  C11 UNL     1       1.909  17.107   1.576  1.00  0.00     0.016 C 
HETATM   14  C12 UNL     1       3.331  15.081   0.978  1.00  0.00    -0.002 C 
HETATM   15  C21 UNL     1       4.184  15.028   2.276  1.00  0.00     0.006 C 
HETATM   16  C22 UNL     1       3.209  15.134   3.464  1.00  0.00     0.011 C 
HETATM   17  C23 UNL     1       1.822  14.825   2.866  1.00  0.00    -0.032 C 
HETATM   18  C24 UNL     1       1.721  13.267   2.779  1.00  0.00     0.016 C 
HETATM   19  C25 UNL     1      -1.377  16.883   2.968  1.00  0.00     0.022 A 
HETATM   20  C26 UNL     1      -2.041  15.644   3.538  1.00  0.00    -0.021 A 
HETATM   21  C30 UNL     1      -2.098  15.448   5.070  1.00  0.00     0.063 C 
ENDROOT
BRANCH  14  22
HETATM   22  C13 UNL     1       4.070  15.722  -0.236  1.00  0.00    -0.014 C 
HETATM   23  C14 UNL     1       3.919  17.237  -0.421  1.00  0.00     0.010 C 
BRANCH  22  24
HETATM   24  C15 UNL     1       3.753  14.967  -1.547  1.00  0.00     0.008 C 
BRANCH  24  25
HETATM   25  C16 UNL     1       5.003  14.574  -2.342  1.00  0.00     0.028 C 
BRANCH  25  26
HETATM   26  C17 UNL     1       4.635  13.910  -3.643  1.00  0.00    -0.017 C 
HETATM   27  C18 UNL     1       4.665  12.598  -3.942  1.00  0.00    -0.028 C 
HETATM   28  C19 UNL     1       4.227  12.063  -5.272  1.00  0.00     0.051 C 
BRANCH  27  29
HETATM   29  C20 UNL     1       5.154  11.554  -2.991  1.00  0.00     0.265 C 
HETATM   30  O3  UNL     1       5.864  11.777  -2.020  1.00  0.00    -0.302 OA
ENDBRANCH  27  29
ENDBRANCH  25  26
ENDBRANCH  24  25
ENDBRANCH  22  24
ENDBRANCH  14  22
BRANCH  20  31
HETATM   31  C27 UNL     1      -3.288  15.059   2.843  1.00  0.00     0.021 C 
BRANCH  31  32
HETATM   32  C28 UNL     1      -4.262  16.037   2.197  1.00  0.00     0.111 C 
BRANCH  32  33
HETATM   33  C29 UNL     1      -4.735  15.599   0.841  1.00  0.00     0.139 C 
HETATM   34  O4  UNL     1      -4.215  15.872  -0.227  1.00  0.00    -0.650 OA
BRANCH  33  35
HETATM   35  O5  UNL     1      -5.812  14.793   0.891  1.00  0.00    -0.776 OA
HETATM   36  H41 UNL     1      -5.969  14.573  -0.053  1.00  0.00     0.167 HD
ENDBRANCH  33  35
ENDBRANCH  32  33
ENDBRANCH  31  32
ENDBRANCH  20  31
TORSDOF 9
ENDMDL
MODEL 5
REMARK minimizedAffinity -7.8743248
REMARK CNNscore 0.267903507
REMARK CNNaffinity 6.30242968
REMARK  9 active torsions:
REMARK  status: ('A' for Active; 'I' for Inactive)
REMARK    1  A    between atoms: C12_14  and  C13_15 
REMARK    2  A    between atoms: C13_15  and  C15_17 
REMARK    3  A    between atoms: C15_17  and  C16_18 
REMARK    4  A    between atoms: C16_18  and  C17_19 
REMARK    5  A    between atoms: C18_20  and  C20_22 
REMARK    6  A    between atoms: C26_29  and  C27_30 
REMARK    7  A    between atoms: C27_30  and  C28_31 
REMARK    8  A    between atoms: C28_31  and  C29_32 
REMARK    9  A    between atoms: C29_32  and  O5_34 
ROOT
HETATM    1  C1  UNL     1       4.095   7.669  10.107  1.00  0.00     0.025 C 
HETATM    2  C2  UNL     1       2.917   7.132  10.444  1.00  0.00     0.015 C 
HETATM    3  C3  UNL     1       1.904   6.732   9.439  1.00  0.00     0.289 C 
HETATM    4  O1  UNL     1       1.878   7.056   8.267  1.00  0.00    -0.260 OA
HETATM    5  O2  UNL     1       0.999   5.930  10.068  1.00  0.00    -0.311 OA
HETATM    6  C4  UNL     1       1.510   5.589  11.361  1.00  0.00     0.142 C 
HETATM    7  C5  UNL     1       0.394   5.277  12.345  1.00  0.00     0.039 C 
HETATM    8  C6  UNL     1      -0.534   6.478  12.554  1.00  0.00     0.006 C 
HETATM    9  C7  UNL     1       0.268   7.704  13.061  1.00  0.00    -0.027 A 
HETATM   10  C8  UNL     1      -0.157   8.278  14.417  1.00  0.00     0.011 C 
HETATM   11  C9  UNL     1      -1.667   8.333  14.718  1.00  0.00     0.011 C 
HETATM   12  C10 UNL     1      -2.541   7.497  13.772  1.00  0.00    -0.032 C 
HETATM   13  C11 UNL     1      -2.854   8.367  12.523  1.00  0.00     0.016 C 
HETATM   14  C12 UNL     1      -3.877   6.947  14.373  1.00  0.00    -0.002 C 
HETATM   15  C21 UNL     1      -4.161   5.672  13.530  1.00  0.00     0.006 C 
HETATM   16  C22 UNL     1      -2.875   5.351  12.745  1.00  0.00     0.011 C 
HETATM   17  C23 UNL     1      -1.770   6.165  13.446  1.00  0.00    -0.032 C 
HETATM   18  C24 UNL     1      -1.344   5.333  14.700  1.00  0.00     0.016 C 
HETATM   19  C25 UNL     1       0.666   8.702  11.997  1.00  0.00     0.022 A 
HETATM   20  C26 UNL     1       1.763   7.859  12.618  1.00  0.00    -0.021 A 
HETATM   21  C30 UNL     1       2.418   6.731  11.789  1.00  0.00     0.063 C 
ENDROOT
BRANCH  14  22
HETATM   22  C13 UNL     1      -5.135   7.834  14.617  1.00  0.00    -0.014 C 
HETATM   23  C14 UNL     1      -4.900   9.217  15.240  1.00  0.00     0.010 C 
BRANCH  22  24
HETATM   24  C15 UNL     1      -6.228   7.057  15.385  1.00  0.00     0.008 C 
BRANCH  24  25
HETATM   25  C16 UNL     1      -7.513   7.865  15.602  1.00  0.00     0.028 C 
BRANCH  25  26
HETATM   26  C17 UNL     1      -8.670   7.261  14.853  1.00  0.00    -0.017 C 
HETATM   27  C18 UNL     1      -9.826   7.852  14.495  1.00  0.00    -0.028 C 
HETATM   28  C19 UNL     1     -10.885   7.142  13.707  1.00  0.00     0.051 C 
BRANCH  27  29
HETATM   29  C20 UNL     1     -10.175   9.257  14.866  1.00  0.00     0.265 C 
HETATM   30  O3  UNL     1     -10.429   9.633  16.002  1.00  0.00    -0.302 OA
ENDBRANCH  27  29
ENDBRANCH  25  26
ENDBRANCH  24  25
ENDBRANCH  22  24
ENDBRANCH  14  22
BRANCH  20  31
HETATM   31  C27 UNL     1       2.773   8.512  13.585  1.00  0.00     0.021 C 
BRANCH  31  32
HETATM   32  C28 UNL     1       3.264   7.679  14.764  1.00  0.00     0.111 C 
BRANCH  32  33
HETATM   33  C29 UNL     1       4.680   7.981  15.158  1.00  0.00     0.139 C 
HETATM   34  O4  UNL     1       5.098   9.039  15.595  1.00  0.00    -0.650 OA
BRANCH  33  35
HETATM   35  O5  UNL     1       5.501   6.920  15.035  1.00  0.00    -0.776 OA
HETATM   36  H41 UNL     1       6.361   7.266  15.359  1.00  0.00     0.167 HD
ENDBRANCH  33  35
ENDBRANCH  32  33
ENDBRANCH  31  32
ENDBRANCH  20  31
TORSDOF 9
ENDMDL
MODEL 6
REMARK minimizedAffinity -8.17636967
REMARK CNNscore 0.218694985
REMARK CNNaffinity 6.52270365
REMARK  9 active torsions:
REMARK  status: ('A' for Active; 'I' for Inactive)
REMARK    1  A    between atoms: C12_14  and  C13_15 
REMARK    2  A    between atoms: C13_15  and  C15_17 
REMARK    3  A    between atoms: C15_17  and  C16_18 
REMARK    4  A    between atoms: C16_18  and  C17_19 
REMARK    5  A    between atoms: C18_20  and  C20_22 
REMARK    6  A    between atoms: C26_29  and  C27_30 
REMARK    7  A    between atoms: C27_30  and  C28_31 
REMARK    8  A    between atoms: C28_31  and  C29_32 
REMARK    9  A    between atoms: C29_32  and  O5_34 
ROOT
HETATM    1  C1  UNL     1       4.299   7.474   9.884  1.00  0.00     0.025 C 
HETATM    2  C2  UNL     1       3.116   6.985  10.276  1.00  0.00     0.015 C 
HETATM    3  C3  UNL     1       2.076   6.543   9.317  1.00  0.00     0.289 C 
HETATM    4  O1  UNL     1       2.033   6.794   8.128  1.00  0.00    -0.260 OA
HETATM    5  O2  UNL     1       1.168   5.802  10.013  1.00  0.00    -0.311 OA
HETATM    6  C4  UNL     1       1.697   5.533  11.316  1.00  0.00     0.142 C 
HETATM    7  C5  UNL     1       0.595   5.308  12.338  1.00  0.00     0.039 C 
HETATM    8  C6  UNL     1      -0.304   6.539  12.487  1.00  0.00     0.006 C 
HETATM    9  C7  UNL     1       0.532   7.778  12.900  1.00  0.00    -0.027 A 
HETATM   10  C8  UNL     1       0.146   8.445  14.225  1.00  0.00     0.011 C 
HETATM   11  C9  UNL     1      -1.356   8.551  14.550  1.00  0.00     0.011 C 
HETATM   12  C10 UNL     1      -2.266   7.676  13.675  1.00  0.00    -0.032 C 
HETATM   13  C11 UNL     1      -2.586   8.471  12.379  1.00  0.00     0.016 C 
HETATM   14  C12 UNL     1      -3.601   7.193  14.334  1.00  0.00    -0.002 C 
HETATM   15  C21 UNL     1      -3.927   5.874  13.579  1.00  0.00     0.006 C 
HETATM   16  C22 UNL     1      -2.663   5.477  12.793  1.00  0.00     0.011 C 
HETATM   17  C23 UNL     1      -1.528   6.309  13.420  1.00  0.00    -0.032 C 
HETATM   18  C24 UNL     1      -1.095   5.549  14.717  1.00  0.00     0.016 C 
HETATM   19  C25 UNL     1       0.929   8.698  11.767  1.00  0.00     0.022 A 
HETATM   20  C26 UNL     1       2.021   7.872  12.420  1.00  0.00    -0.021 A 
HETATM   21  C30 UNL     1       2.637   6.680  11.653  1.00  0.00     0.063 C 
ENDROOT
BRANCH  14  22
HETATM   22  C13 UNL     1      -4.835   8.121  14.545  1.00  0.00    -0.014 C 
HETATM   23  C14 UNL     1      -4.566   9.517  15.121  1.00  0.00     0.010 C 
BRANCH  22  24
HETATM   24  C15 UNL     1      -5.950   7.399  15.335  1.00  0.00     0.008 C 
BRANCH  24  25
HETATM   25  C16 UNL     1      -7.212   7.133  14.505  1.00  0.00     0.028 C 
BRANCH  25  26
HETATM   26  C17 UNL     1      -7.334   5.675  14.151  1.00  0.00    -0.017 C 
HETATM   27  C18 UNL     1      -8.090   5.116  13.188  1.00  0.00    -0.028 C 
HETATM   28  C19 UNL     1      -8.085   3.642  12.911  1.00  0.00     0.051 C 
BRANCH  27  29
HETATM   29  C20 UNL     1      -9.021   5.900  12.320  1.00  0.00     0.265 C 
HETATM   30  O3  UNL     1      -8.958   5.947  11.099  1.00  0.00    -0.302 OA
ENDBRANCH  27  29
ENDBRANCH  25  26
ENDBRANCH  24  25
ENDBRANCH  22  24
ENDBRANCH  14  22
BRANCH  20  31
HETATM   31  C27 UNL     1       3.063   8.564  13.325  1.00  0.00     0.021 C 
BRANCH  31  32
HETATM   32  C28 UNL     1       3.491   9.979  12.955  1.00  0.00     0.111 C 
BRANCH  32  33
HETATM   33  C29 UNL     1       4.871  10.050  12.368  1.00  0.00     0.139 C 
HETATM   34  O4  UNL     1       5.309  10.941  11.661  1.00  0.00    -0.650 OA
BRANCH  33  35
HETATM   35  O5  UNL     1       5.658   9.021  12.738  1.00  0.00    -0.776 OA
HETATM   36  H41 UNL     1       6.515   9.231  12.308  1.00  0.00     0.167 HD
ENDBRANCH  33  35
ENDBRANCH  32  33
ENDBRANCH  31  32
ENDBRANCH  20  31
TORSDOF 9
ENDMDL
MODEL 7
REMARK minimizedAffinity -6.26915979
REMARK CNNscore 0.205081522
REMARK CNNaffinity 5.36003637
REMARK  9 active torsions:
REMARK  status: ('A' for Active; 'I' for Inactive)
REMARK    1  A    between atoms: C12_14  and  C13_15 
REMARK    2  A    between atoms: C13_15  and  C15_17 
REMARK    3  A    between atoms: C15_17  and  C16_18 
REMARK    4  A    between atoms: C16_18  and  C17_19 
REMARK    5  A    between atoms: C18_20  and  C20_22 
REMARK    6  A    between atoms: C26_29  and  C27_30 
REMARK    7  A    between atoms: C27_30  and  C28_31 
REMARK    8  A    between atoms: C28_31  and  C29_32 
REMARK    9  A    between atoms: C29_32  and  O5_34 
ROOT
HETATM    1  C1  UNL     1     -16.599  -0.483  15.292  1.00  0.00     0.025 C 
HETATM    2  C2  UNL     1     -16.318  -1.712  15.740  1.00  0.00     0.015 C 
HETATM    3  C3  UNL     1     -16.208  -2.032  17.183  1.00  0.00     0.289 C 
HETATM    4  O1  UNL     1     -16.094  -1.236  18.095  1.00  0.00    -0.260 OA
HETATM    5  O2  UNL     1     -16.257  -3.388  17.306  1.00  0.00    -0.311 OA
HETATM    6  C4  UNL     1     -16.642  -3.949  16.046  1.00  0.00     0.142 C 
HETATM    7  C5  UNL     1     -16.125  -5.368  15.877  1.00  0.00     0.039 C 
HETATM    8  C6  UNL     1     -14.594  -5.425  15.920  1.00  0.00     0.006 C 
HETATM    9  C7  UNL     1     -13.984  -4.522  14.817  1.00  0.00    -0.027 A 
HETATM   10  C8  UNL     1     -13.087  -5.220  13.788  1.00  0.00     0.011 C 
HETATM   11  C9  UNL     1     -12.144  -6.322  14.308  1.00  0.00     0.011 C 
HETATM   12  C10 UNL     1     -12.457  -6.821  15.726  1.00  0.00    -0.032 C 
HETATM   13  C11 UNL     1     -11.749  -5.871  16.731  1.00  0.00     0.016 C 
HETATM   14  C12 UNL     1     -12.061  -8.302  16.040  1.00  0.00    -0.002 C 
HETATM   15  C21 UNL     1     -13.052  -8.717  17.163  1.00  0.00     0.006 C 
HETATM   16  C22 UNL     1     -14.152  -7.640  17.218  1.00  0.00     0.011 C 
HETATM   17  C23 UNL     1     -14.022  -6.872  15.889  1.00  0.00    -0.032 C 
HETATM   18  C24 UNL     1     -14.763  -7.732  14.813  1.00  0.00     0.016 C 
HETATM   19  C25 UNL     1     -13.549  -3.147  15.274  1.00  0.00     0.022 A 
HETATM   20  C26 UNL     1     -14.769  -3.239  14.377  1.00  0.00    -0.021 A 
HETATM   21  C30 UNL     1     -16.172  -2.981  14.972  1.00  0.00     0.063 C 
ENDROOT
BRANCH  14  22
HETATM   22  C13 UNL     1     -10.593  -8.759  16.293  1.00  0.00    -0.014 C 
HETATM   23  C14 UNL     1     -10.184 -10.127  15.730  1.00  0.00     0.010 C 
BRANCH  22  24
HETATM   24  C15 UNL     1     -10.218  -8.639  17.787  1.00  0.00     0.008 C 
BRANCH  24  25
HETATM   25  C16 UNL     1     -10.170  -9.987  18.515  1.00  0.00     0.028 C 
BRANCH  25  26
HETATM   26  C17 UNL     1      -9.269  -9.924  19.720  1.00  0.00    -0.017 C 
HETATM   27  C18 UNL     1      -9.523 -10.358  20.969  1.00  0.00    -0.028 C 
HETATM   28  C19 UNL     1      -8.512 -10.273  22.073  1.00  0.00     0.051 C 
BRANCH  27  29
HETATM   29  C20 UNL     1     -10.835 -10.943  21.381  1.00  0.00     0.265 C 
HETATM   30  O3  UNL     1     -11.282 -10.912  22.520  1.00  0.00    -0.302 OA
ENDBRANCH  27  29
ENDBRANCH  25  26
ENDBRANCH  24  25
ENDBRANCH  22  24
ENDBRANCH  14  22
BRANCH  20  31
HETATM   31  C27 UNL     1     -14.677  -2.764  12.912  1.00  0.00     0.021 C 
BRANCH  31  32
HETATM   32  C28 UNL     1     -15.982  -2.567  12.149  1.00  0.00     0.111 C 
BRANCH  32  33
HETATM   33  C29 UNL     1     -16.227  -1.143  11.743  1.00  0.00     0.139 C 
HETATM   34  O4  UNL     1     -15.630  -0.163  12.153  1.00  0.00    -0.650 OA
BRANCH  33  35
HETATM   35  O5  UNL     1     -17.178  -1.018  10.798  1.00  0.00    -0.776 OA
HETATM   36  H41 UNL     1     -17.191  -0.052  10.622  1.00  0.00     0.167 HD
ENDBRANCH  33  35
ENDBRANCH  32  33
ENDBRANCH  31  32
ENDBRANCH  20  31
TORSDOF 9
ENDMDL
MODEL 8
REMARK minimizedAffinity -7.53068209
REMARK CNNscore 0.200203449
REMARK CNNaffinity 6.09412003
REMARK  9 active torsions:
REMARK  status: ('A' for Active; 'I' for Inactive)
REMARK    1  A    between atoms: C12_14  and  C13_15 
REMARK    2  A    between atoms: C13_15  and  C15_17 
REMARK    3  A    between atoms: C15_17  and  C16_18 
REMARK    4  A    between atoms: C16_18  and  C17_19 
REMARK    5  A    between atoms: C18_20  and  C20_22 
REMARK    6  A    between atoms: C26_29  and  C27_30 
REMARK    7  A    between atoms: C27_30  and  C28_31 
REMARK    8  A    between atoms: C28_31  and  C29_32 
REMARK    9  A    between atoms: C29_32  and  O5_34 
ROOT
HETATM    1  C1  UNL     1       2.923   7.586   8.673  1.00  0.00     0.025 C 
HETATM    2  C2  UNL     1       1.861   7.524   9.485  1.00  0.00     0.015 C 
HETATM    3  C3  UNL     1       0.550   8.120   9.134  1.00  0.00     0.289 C 
HETATM    4  O1  UNL     1       0.334   8.927   8.250  1.00  0.00    -0.260 OA
HETATM    5  O2  UNL     1      -0.376   7.598   9.986  1.00  0.00    -0.311 OA
HETATM    6  C4  UNL     1       0.220   6.513  10.704  1.00  0.00     0.142 C 
HETATM    7  C5  UNL     1      -0.443   6.296  12.054  1.00  0.00     0.039 C 
HETATM    8  C6  UNL     1      -0.314   7.527  12.957  1.00  0.00     0.006 C 
HETATM    9  C7  UNL     1       1.177   7.892  13.171  1.00  0.00    -0.027 A 
HETATM   10  C8  UNL     1       1.674   7.889  14.621  1.00  0.00     0.011 C 
HETATM   11  C9  UNL     1       0.719   8.443  15.695  1.00  0.00     0.011 C 
HETATM   12  C10 UNL     1      -0.736   8.615  15.235  1.00  0.00    -0.032 C 
HETATM   13  C11 UNL     1      -0.855  10.003  14.547  1.00  0.00     0.016 C 
HETATM   14  C12 UNL     1      -1.831   8.488  16.345  1.00  0.00    -0.002 C 
HETATM   15  C21 UNL     1      -3.091   8.017  15.566  1.00  0.00     0.006 C 
HETATM   16  C22 UNL     1      -2.622   7.579  14.166  1.00  0.00     0.011 C 
HETATM   17  C23 UNL     1      -1.096   7.404  14.297  1.00  0.00    -0.032 C 
HETATM   18  C24 UNL     1      -0.871   5.994  14.935  1.00  0.00     0.016 C 
HETATM   19  C25 UNL     1       1.711   8.987  12.274  1.00  0.00     0.022 A 
HETATM   20  C26 UNL     1       2.200   7.572  12.028  1.00  0.00    -0.021 A 
HETATM   21  C30 UNL     1       1.711   6.803  10.780  1.00  0.00     0.063 C 
ENDROOT
BRANCH  14  22
HETATM   22  C13 UNL     1      -2.118   9.603  17.396  1.00  0.00    -0.014 C 
HETATM   23  C14 UNL     1      -3.265  10.573  17.083  1.00  0.00     0.010 C 
BRANCH  22  24
HETATM   24  C15 UNL     1      -0.828  10.367  17.769  1.00  0.00     0.008 C 
BRANCH  24  25
HETATM   25  C16 UNL     1      -0.906  11.064  19.132  1.00  0.00     0.028 C 
BRANCH  25  26
HETATM   26  C17 UNL     1       0.261  11.995  19.335  1.00  0.00    -0.017 C 
HETATM   27  C18 UNL     1       1.434  11.734  19.942  1.00  0.00    -0.028 C 
HETATM   28  C19 UNL     1       2.535  12.746  20.038  1.00  0.00     0.051 C 
BRANCH  27  29
HETATM   29  C20 UNL     1       1.744  10.425  20.594  1.00  0.00     0.265 C 
HETATM   30  O3  UNL     1       2.506   9.584  20.136  1.00  0.00    -0.302 OA
ENDBRANCH  27  29
ENDBRANCH  25  26
ENDBRANCH  24  25
ENDBRANCH  22  24
ENDBRANCH  14  22
BRANCH  20  31
HETATM   31  C27 UNL     1       3.649   7.191  12.398  1.00  0.00     0.021 C 
BRANCH  31  32
HETATM   32  C28 UNL     1       4.777   7.976  11.738  1.00  0.00     0.111 C 
BRANCH  32  33
HETATM   33  C29 UNL     1       5.767   7.106  11.019  1.00  0.00     0.139 C 
HETATM   34  O4  UNL     1       6.932   7.379  10.787  1.00  0.00    -0.650 OA
BRANCH  33  35
HETATM   35  O5  UNL     1       5.263   5.907  10.668  1.00  0.00    -0.776 OA
HETATM   36  H41 UNL     1       6.029   5.458  10.250  1.00  0.00     0.167 HD
ENDBRANCH  33  35
ENDBRANCH  32  33
ENDBRANCH  31  32
ENDBRANCH  20  31
TORSDOF 9
ENDMDL
MODEL 9
REMARK minimizedAffinity -7.32241392
REMARK CNNscore 0.195480108
REMARK CNNaffinity 6.09692144
REMARK  9 active torsions:
REMARK  status: ('A' for Active; 'I' for Inactive)
REMARK    1  A    between atoms: C12_14  and  C13_15 
REMARK    2  A    between atoms: C13_15  and  C15_17 
REMARK    3  A    between atoms: C15_17  and  C16_18 
REMARK    4  A    between atoms: C16_18  and  C17_19 
REMARK    5  A    between atoms: C18_20  and  C20_22 
REMARK    6  A    between atoms: C26_29  and  C27_30 
REMARK    7  A    between atoms: C27_30  and  C28_31 
REMARK    8  A    between atoms: C28_31  and  C29_32 
REMARK    9  A    between atoms: C29_32  and  O5_34 
ROOT
HETATM    1  C1  UNL     1       3.017   7.355   9.035  1.00  0.00     0.025 C 
HETATM    2  C2  UNL     1       2.098   7.518   9.994  1.00  0.00     0.015 C 
HETATM    3  C3  UNL     1       0.812   8.216   9.759  1.00  0.00     0.289 C 
HETATM    4  O1  UNL     1       0.535   8.928   8.812  1.00  0.00    -0.260 OA
HETATM    5  O2  UNL     1      -0.012   7.916  10.802  1.00  0.00    -0.311 OA
HETATM    6  C4  UNL     1       0.584   6.865  11.570  1.00  0.00     0.142 C 
HETATM    7  C5  UNL     1       0.128   6.895  13.020  1.00  0.00     0.039 C 
HETATM    8  C6  UNL     1       0.519   8.205  13.712  1.00  0.00     0.006 C 
HETATM    9  C7  UNL     1       2.054   8.416  13.652  1.00  0.00    -0.027 A 
HETATM   10  C8  UNL     1       2.775   8.533  15.000  1.00  0.00     0.011 C 
HETATM   11  C9  UNL     1       2.063   9.324  16.115  1.00  0.00     0.011 C 
HETATM   12  C10 UNL     1       0.577   9.608  15.853  1.00  0.00    -0.032 C 
HETATM   13  C11 UNL     1       0.484  10.905  15.002  1.00  0.00     0.016 C 
HETATM   14  C12 UNL     1      -0.333   9.747  17.118  1.00  0.00    -0.002 C 
HETATM   15  C21 UNL     1      -1.741   9.335  16.605  1.00  0.00     0.006 C 
HETATM   16  C22 UNL     1      -1.548   8.676  15.227  1.00  0.00     0.011 C 
HETATM   17  C23 UNL     1      -0.045   8.341  15.156  1.00  0.00    -0.032 C 
HETATM   18  C24 UNL     1       0.142   7.003  15.946  1.00  0.00     0.016 C 
HETATM   19  C25 UNL     1       2.540   9.322  12.542  1.00  0.00     0.022 A 
HETATM   20  C26 UNL     1       2.844   7.840  12.428  1.00  0.00    -0.021 A 
HETATM   21  C30 UNL     1       2.089   6.986  11.385  1.00  0.00     0.063 C 
ENDROOT
BRANCH  14  22
HETATM   22  C13 UNL     1      -0.339  11.009  18.033  1.00  0.00    -0.014 C 
HETATM   23  C14 UNL     1      -0.767  12.334  17.387  1.00  0.00     0.010 C 
BRANCH  22  24
HETATM   24  C15 UNL     1       1.004  11.165  18.783  1.00  0.00     0.008 C 
BRANCH  24  25
HETATM   25  C16 UNL     1       0.936  10.731  20.251  1.00  0.00     0.028 C 
BRANCH  25  26
HETATM   26  C17 UNL     1       2.284  10.834  20.913  1.00  0.00    -0.017 C 
HETATM   27  C18 UNL     1       2.872   9.951  21.742  1.00  0.00    -0.028 C 
HETATM   28  C19 UNL     1       4.247  10.160  22.301  1.00  0.00     0.051 C 
BRANCH  27  29
HETATM   29  C20 UNL     1       2.207   8.694  22.202  1.00  0.00     0.265 C 
HETATM   30  O3  UNL     1       2.083   8.363  23.373  1.00  0.00    -0.302 OA
ENDBRANCH  27  29
ENDBRANCH  25  26
ENDBRANCH  24  25
ENDBRANCH  22  24
ENDBRANCH  14  22
BRANCH  20  31
HETATM   31  C27 UNL     1       4.290   7.340  12.632  1.00  0.00     0.021 C 
BRANCH  31  32
HETATM   32  C28 UNL     1       5.424   8.261  12.197  1.00  0.00     0.111 C 
BRANCH  32  33
HETATM   33  C29 UNL     1       6.188   7.748  11.011  1.00  0.00     0.139 C 
HETATM   34  O4  UNL     1       6.076   6.647  10.502  1.00  0.00    -0.650 OA
BRANCH  33  35
HETATM   35  O5  UNL     1       7.023   8.664  10.483  1.00  0.00    -0.776 OA
HETATM   36  H41 UNL     1       7.410   8.193   9.713  1.00  0.00     0.167 HD
ENDBRANCH  33  35
ENDBRANCH  32  33
ENDBRANCH  31  32
ENDBRANCH  20  31
TORSDOF 9
ENDMDL
