MODEL 1
REMARK minimizedAffinity -10.0417452
REMARK  6 active torsions:
REMARK  status: ('A' for Active; 'I' for Inactive)
REMARK    1  A    between atoms: C2_2  and  C30_31 
REMARK    2  A    between atoms: C3_3  and  C4_4 
REMARK    3  A    between atoms: C4_4  and  C5_5 
REMARK    4  A    between atoms: C5_5  and  C6_6 
REMARK    5  A    between atoms: C6_6  and  C8_8 
REMARK    6  A    between atoms: C30_31  and  O3_33 
ROOT
HETATM    1  C8  UNL     1       0.509   6.948  11.189  1.00  0.00    -0.002 C 
HETATM    2  C9  UNL     1       0.753   5.443  11.011  1.00  0.00     0.007 C 
HETATM    3  C10 UNL     1      -0.550   4.817  11.462  1.00  0.00     0.015 C 
HETATM    4  C11 UNL     1      -0.928   5.563  12.773  1.00  0.00    -0.013 C 
HETATM    5  C12 UNL     1      -0.381   4.733  13.972  1.00  0.00     0.021 C 
HETATM    6  C13 UNL     1      -2.470   5.576  12.928  1.00  0.00    -0.070 C 
HETATM    7  C14 UNL     1      -3.184   4.430  12.868  1.00  0.00    -0.022 C 
HETATM    8  C15 UNL     1      -4.658   4.311  13.104  1.00  0.00     0.034 C 
HETATM    9  C16 UNL     1      -5.401   5.659  13.150  1.00  0.00     0.013 C 
HETATM   10  C17 UNL     1      -6.929   5.560  13.525  1.00  0.00     0.018 C 
HETATM   11  C18 UNL     1      -7.777   5.749  12.249  1.00  0.00     0.023 C 
HETATM   12  C19 UNL     1      -7.321   4.198  14.141  1.00  0.00     0.023 C 
HETATM   13  C20 UNL     1      -7.390   6.653  14.503  1.00  0.00     0.135 C 
HETATM   14  O1  UNL     1      -8.342   6.471  15.269  1.00  0.00    -0.297 OA
HETATM   15  C21 UNL     1      -6.744   8.014  14.470  1.00  0.00     0.080 C 
HETATM   16  C22 UNL     1      -5.367   8.053  13.835  1.00  0.00     0.017 C 
HETATM   17  C23 UNL     1      -4.575   6.727  13.939  1.00  0.00    -0.031 C 
HETATM   18  C24 UNL     1      -4.361   6.338  15.419  1.00  0.00     0.016 C 
HETATM   19  C25 UNL     1      -3.185   6.889  13.203  1.00  0.00     0.024 C 
HETATM   20  C26 UNL     1      -2.226   7.876  13.878  1.00  0.00     0.010 C 
HETATM   21  C27 UNL     1      -1.111   8.197  12.890  1.00  0.00     0.011 C 
HETATM   22  C28 UNL     1      -0.182   6.989  12.627  1.00  0.00    -0.029 C 
HETATM   23  C29 UNL     1       0.989   7.162  13.649  1.00  0.00     0.016 C 
ENDROOT
BRANCH   1  24
HETATM   24  C6  UNL     1      -0.278   7.626  10.014  1.00  0.00    -0.014 C 
HETATM   25  C7  UNL     1      -0.957   8.910  10.532  1.00  0.00     0.010 C 
BRANCH  24  26
HETATM   26  C5  UNL     1       0.595   7.972   8.781  1.00  0.00     0.008 C 
BRANCH  26  27
HETATM   27  C4  UNL     1       2.049   7.495   8.887  1.00  0.00     0.028 C 
BRANCH  27  28
HETATM   28  C3  UNL     1       2.374   6.512   7.793  1.00  0.00    -0.013 C 
HETATM   29  C2  UNL     1       3.045   5.346   7.886  1.00  0.00     0.008 C 
HETATM   30  C1  UNL     1       3.259   4.474   6.681  1.00  0.00     0.055 C 
BRANCH  29  31
HETATM   31  C30 UNL     1       3.652   4.885   9.159  1.00  0.00     0.171 C 
HETATM   32  O2  UNL     1       4.381   5.511   9.906  1.00  0.00    -0.646 OA
BRANCH  31  33
HETATM   33  O3  UNL     1       3.314   3.614   9.436  1.00  0.00    -0.773 OA
HETATM   34  H46 UNL     1       3.772   3.438  10.285  1.00  0.00     0.167 HD
ENDBRANCH  31  33
ENDBRANCH  29  31
ENDBRANCH  27  28
ENDBRANCH  26  27
ENDBRANCH  24  26
ENDBRANCH   1  24
TORSDOF 6
ENDMDL
MODEL 2
REMARK minimizedAffinity -9.19271183
REMARK  6 active torsions:
REMARK  status: ('A' for Active; 'I' for Inactive)
REMARK    1  A    between atoms: C2_2  and  C30_31 
REMARK    2  A    between atoms: C3_3  and  C4_4 
REMARK    3  A    between atoms: C4_4  and  C5_5 
REMARK    4  A    between atoms: C5_5  and  C6_6 
REMARK    5  A    between atoms: C6_6  and  C8_8 
REMARK    6  A    between atoms: C30_31  and  O3_33 
ROOT
HETATM    1  C8  UNL     1      -4.523   6.544  13.870  1.00  0.00    -0.002 C 
HETATM    2  C9  UNL     1      -4.817   8.036  13.660  1.00  0.00     0.007 C 
HETATM    3  C10 UNL     1      -3.643   8.515  12.833  1.00  0.00     0.015 C 
HETATM    4  C11 UNL     1      -2.389   7.886  13.502  1.00  0.00    -0.013 C 
HETATM    5  C12 UNL     1      -1.809   8.925  14.507  1.00  0.00     0.021 C 
HETATM    6  C13 UNL     1      -1.291   7.667  12.431  1.00  0.00    -0.070 C 
HETATM    7  C14 UNL     1      -0.886   8.681  11.634  1.00  0.00    -0.022 C 
HETATM    8  C15 UNL     1       0.231   8.611  10.639  1.00  0.00     0.034 C 
HETATM    9  C16 UNL     1       0.739   7.185  10.358  1.00  0.00     0.013 C 
HETATM   10  C17 UNL     1       1.998   7.105   9.413  1.00  0.00     0.018 C 
HETATM   11  C18 UNL     1       1.549   6.642   8.010  1.00  0.00     0.023 C 
HETATM   12  C19 UNL     1       2.721   8.460   9.241  1.00  0.00     0.023 C 
HETATM   13  C20 UNL     1       3.047   6.084   9.878  1.00  0.00     0.135 C 
HETATM   14  O1  UNL     1       4.243   6.215   9.598  1.00  0.00    -0.297 OA
HETATM   15  C21 UNL     1       2.614   4.837  10.606  1.00  0.00     0.080 C 
HETATM   16  C22 UNL     1       1.250   4.922  11.264  1.00  0.00     0.017 C 
HETATM   17  C23 UNL     1       0.826   6.352  11.678  1.00  0.00    -0.031 C 
HETATM   18  C24 UNL     1       1.835   6.944  12.689  1.00  0.00     0.016 C 
HETATM   19  C25 UNL     1      -0.623   6.307  12.307  1.00  0.00     0.024 C 
HETATM   20  C26 UNL     1      -0.708   5.559  13.642  1.00  0.00     0.010 C 
HETATM   21  C27 UNL     1      -2.179   5.287  13.934  1.00  0.00     0.011 C 
HETATM   22  C28 UNL     1      -2.974   6.577  14.248  1.00  0.00    -0.029 C 
HETATM   23  C29 UNL     1      -2.925   6.701  15.806  1.00  0.00     0.016 C 
ENDROOT
BRANCH   1  24
HETATM   24  C6  UNL     1      -4.932   5.621  12.669  1.00  0.00    -0.014 C 
HETATM   25  C7  UNL     1      -3.725   4.751  12.264  1.00  0.00     0.010 C 
BRANCH  24  26
HETATM   26  C5  UNL     1      -6.148   4.705  12.958  1.00  0.00     0.008 C 
BRANCH  26  27
HETATM   27  C4  UNL     1      -7.496   5.436  12.980  1.00  0.00     0.028 C 
BRANCH  27  28
HETATM   28  C3  UNL     1      -7.705   6.143  14.294  1.00  0.00    -0.013 C 
HETATM   29  C2  UNL     1      -8.841   6.674  14.789  1.00  0.00     0.008 C 
HETATM   30  C1  UNL     1      -8.867   7.329  16.141  1.00  0.00     0.055 C 
BRANCH  29  31
HETATM   31  C30 UNL     1     -10.105   6.692  14.014  1.00  0.00     0.171 C 
HETATM   32  O2  UNL     1     -10.249   6.929  12.829  1.00  0.00    -0.646 OA
BRANCH  31  33
HETATM   33  O3  UNL     1     -11.166   6.417  14.791  1.00  0.00    -0.773 OA
HETATM   34  H46 UNL     1     -11.922   6.461  14.169  1.00  0.00     0.167 HD
ENDBRANCH  31  33
ENDBRANCH  29  31
ENDBRANCH  27  28
ENDBRANCH  26  27
ENDBRANCH  24  26
ENDBRANCH   1  24
TORSDOF 6
ENDMDL
MODEL 3
REMARK minimizedAffinity -8.65931606
REMARK  6 active torsions:
REMARK  status: ('A' for Active; 'I' for Inactive)
REMARK    1  A    between atoms: C2_2  and  C30_31 
REMARK    2  A    between atoms: C3_3  and  C4_4 
REMARK    3  A    between atoms: C4_4  and  C5_5 
REMARK    4  A    between atoms: C5_5  and  C6_6 
REMARK    5  A    between atoms: C6_6  and  C8_8 
REMARK    6  A    between atoms: C30_31  and  O3_33 
ROOT
HETATM    1  C8  UNL     1      -0.186   5.932  12.241  1.00  0.00    -0.002 C 
HETATM    2  C9  UNL     1       1.235   5.843  12.814  1.00  0.00     0.007 C 
HETATM    3  C10 UNL     1       1.210   6.814  13.975  1.00  0.00     0.015 C 
HETATM    4  C11 UNL     1       0.489   8.080  13.433  1.00  0.00    -0.013 C 
HETATM    5  C12 UNL     1       1.577   9.072  12.926  1.00  0.00     0.021 C 
HETATM    6  C13 UNL     1      -0.234   8.797  14.602  1.00  0.00    -0.070 C 
HETATM    7  C14 UNL     1       0.431   9.135  15.729  1.00  0.00    -0.022 C 
HETATM    8  C15 UNL     1      -0.137   9.915  16.873  1.00  0.00     0.034 C 
HETATM    9  C16 UNL     1      -1.667  10.086  16.824  1.00  0.00     0.013 C 
HETATM   10  C17 UNL     1      -2.266  11.012  17.949  1.00  0.00     0.018 C 
HETATM   11  C18 UNL     1      -2.939  10.133  19.024  1.00  0.00     0.023 C 
HETATM   12  C19 UNL     1      -1.202  11.876  18.662  1.00  0.00     0.023 C 
HETATM   13  C20 UNL     1      -3.359  11.964  17.438  1.00  0.00     0.135 C 
HETATM   14  O1  UNL     1      -3.582  13.045  17.993  1.00  0.00    -0.297 OA
HETATM   15  C21 UNL     1      -4.254  11.543  16.301  1.00  0.00     0.080 C 
HETATM   16  C22 UNL     1      -3.695  10.440  15.423  1.00  0.00     0.017 C 
HETATM   17  C23 UNL     1      -2.149  10.386  15.367  1.00  0.00    -0.031 C 
HETATM   18  C24 UNL     1      -1.581  11.713  14.814  1.00  0.00     0.016 C 
HETATM   19  C25 UNL     1      -1.700   9.172  14.459  1.00  0.00     0.024 C 
HETATM   20  C26 UNL     1      -2.059   9.327  12.977  1.00  0.00     0.010 C 
HETATM   21  C27 UNL     1      -1.901   7.965  12.311  1.00  0.00     0.011 C 
HETATM   22  C28 UNL     1      -0.425   7.509  12.229  1.00  0.00    -0.029 C 
HETATM   23  C29 UNL     1       0.060   7.995  10.824  1.00  0.00     0.016 C 
ENDROOT
BRANCH   1  24
HETATM   24  C6  UNL     1      -1.253   5.068  13.002  1.00  0.00    -0.014 C 
HETATM   25  C7  UNL     1      -1.404   5.601  14.442  1.00  0.00     0.010 C 
BRANCH  24  26
HETATM   26  C5  UNL     1      -2.645   5.034  12.321  1.00  0.00     0.008 C 
BRANCH  26  27
HETATM   27  C4  UNL     1      -3.365   3.685  12.431  1.00  0.00     0.028 C 
BRANCH  27  28
HETATM   28  C3  UNL     1      -4.828   3.879  12.737  1.00  0.00    -0.013 C 
HETATM   29  C2  UNL     1      -5.887   3.230  12.212  1.00  0.00     0.008 C 
HETATM   30  C1  UNL     1      -7.288   3.544  12.657  1.00  0.00     0.055 C 
BRANCH  29  31
HETATM   31  C30 UNL     1      -5.739   2.218  11.138  1.00  0.00     0.171 C 
HETATM   32  O2  UNL     1      -5.822   1.009  11.238  1.00  0.00    -0.646 OA
BRANCH  31  33
HETATM   33  O3  UNL     1      -5.470   2.791   9.953  1.00  0.00    -0.773 OA
HETATM   34  H46 UNL     1      -5.397   2.028   9.342  1.00  0.00     0.167 HD
ENDBRANCH  31  33
ENDBRANCH  29  31
ENDBRANCH  27  28
ENDBRANCH  26  27
ENDBRANCH  24  26
ENDBRANCH   1  24
TORSDOF 6
ENDMDL
MODEL 4
REMARK minimizedAffinity -8.16734123
REMARK  6 active torsions:
REMARK  status: ('A' for Active; 'I' for Inactive)
REMARK    1  A    between atoms: C2_2  and  C30_31 
REMARK    2  A    between atoms: C3_3  and  C4_4 
REMARK    3  A    between atoms: C4_4  and  C5_5 
REMARK    4  A    between atoms: C5_5  and  C6_6 
REMARK    5  A    between atoms: C6_6  and  C8_8 
REMARK    6  A    between atoms: C30_31  and  O3_33 
ROOT
HETATM    1  C8  UNL     1      -1.332  12.172  18.248  1.00  0.00    -0.002 C 
HETATM    2  C9  UNL     1      -2.402  11.406  19.037  1.00  0.00     0.007 C 
HETATM    3  C10 UNL     1      -2.586  10.132  18.239  1.00  0.00     0.015 C 
HETATM    4  C11 UNL     1      -2.653  10.587  16.754  1.00  0.00    -0.013 C 
HETATM    5  C12 UNL     1      -4.153  10.767  16.375  1.00  0.00     0.021 C 
HETATM    6  C13 UNL     1      -2.114   9.452  15.846  1.00  0.00    -0.070 C 
HETATM    7  C14 UNL     1      -2.612   8.198  15.931  1.00  0.00    -0.022 C 
HETATM    8  C15 UNL     1      -2.241   7.054  15.040  1.00  0.00     0.034 C 
HETATM    9  C16 UNL     1      -1.007   7.314  14.157  1.00  0.00     0.013 C 
HETATM   10  C17 UNL     1      -0.680   6.172  13.122  1.00  0.00     0.018 C 
HETATM   11  C18 UNL     1       0.526   5.355  13.633  1.00  0.00     0.023 C 
HETATM   12  C19 UNL     1      -1.849   5.183  12.913  1.00  0.00     0.023 C 
HETATM   13  C20 UNL     1      -0.276   6.700  11.736  1.00  0.00     0.135 C 
HETATM   14  O1  UNL     1      -0.463   6.033  10.713  1.00  0.00    -0.297 OA
HETATM   15  C21 UNL     1       0.456   8.012  11.615  1.00  0.00     0.080 C 
HETATM   16  C22 UNL     1       0.296   8.945  12.799  1.00  0.00     0.017 C 
HETATM   17  C23 UNL     1      -1.028   8.768  13.581  1.00  0.00    -0.031 C 
HETATM   18  C24 UNL     1      -2.241   9.024  12.658  1.00  0.00     0.016 C 
HETATM   19  C25 UNL     1      -1.048   9.764  14.809  1.00  0.00     0.024 C 
HETATM   20  C26 UNL     1      -1.115  11.245  14.418  1.00  0.00     0.010 C 
HETATM   21  C27 UNL     1      -0.765  12.071  15.650  1.00  0.00     0.011 C 
HETATM   22  C28 UNL     1      -1.850  11.989  16.750  1.00  0.00    -0.029 C 
HETATM   23  C29 UNL     1      -2.782  13.215  16.477  1.00  0.00     0.016 C 
ENDROOT
BRANCH   1  24
HETATM   24  C6  UNL     1       0.143  11.722  18.539  1.00  0.00    -0.014 C 
HETATM   25  C7  UNL     1       1.114  12.621  17.747  1.00  0.00     0.010 C 
BRANCH  24  26
HETATM   26  C5  UNL     1       0.530  11.749  20.040  1.00  0.00     0.008 C 
BRANCH  26  27
HETATM   27  C4  UNL     1       1.080  10.420  20.571  1.00  0.00     0.028 C 
BRANCH  27  28
HETATM   28  C3  UNL     1       2.424  10.615  21.223  1.00  0.00    -0.013 C 
HETATM   29  C2  UNL     1       3.014   9.858  22.170  1.00  0.00     0.008 C 
HETATM   30  C1  UNL     1       4.382  10.196  22.694  1.00  0.00     0.055 C 
BRANCH  29  31
HETATM   31  C30 UNL     1       2.334   8.692  22.784  1.00  0.00     0.171 C 
HETATM   32  O2  UNL     1       1.795   7.761  22.215  1.00  0.00    -0.646 OA
BRANCH  31  33
HETATM   33  O3  UNL     1       2.352   8.758  24.126  1.00  0.00    -0.773 OA
HETATM   34  H46 UNL     1       1.879   7.945  24.400  1.00  0.00     0.167 HD
ENDBRANCH  31  33
ENDBRANCH  29  31
ENDBRANCH  27  28
ENDBRANCH  26  27
ENDBRANCH  24  26
ENDBRANCH   1  24
TORSDOF 6
ENDMDL
MODEL 5
REMARK minimizedAffinity -8.1186676
REMARK  6 active torsions:
REMARK  status: ('A' for Active; 'I' for Inactive)
REMARK    1  A    between atoms: C2_2  and  C30_31 
REMARK    2  A    between atoms: C3_3  and  C4_4 
REMARK    3  A    between atoms: C4_4  and  C5_5 
REMARK    4  A    between atoms: C5_5  and  C6_6 
REMARK    5  A    between atoms: C6_6  and  C8_8 
REMARK    6  A    between atoms: C30_31  and  O3_33 
ROOT
HETATM    1  C8  UNL     1      -1.428   5.709  12.438  1.00  0.00    -0.002 C 
HETATM    2  C9  UNL     1      -0.267   5.102  13.237  1.00  0.00     0.007 C 
HETATM    3  C10 UNL     1      -0.133   6.030  14.426  1.00  0.00     0.015 C 
HETATM    4  C11 UNL     1      -0.224   7.465  13.836  1.00  0.00    -0.013 C 
HETATM    5  C12 UNL     1       1.226   7.968  13.573  1.00  0.00     0.021 C 
HETATM    6  C13 UNL     1      -0.822   8.419  14.901  1.00  0.00    -0.070 C 
HETATM    7  C14 UNL     1      -0.288   8.501  16.140  1.00  0.00    -0.022 C 
HETATM    8  C15 UNL     1      -0.718   9.455  17.210  1.00  0.00     0.034 C 
HETATM    9  C16 UNL     1      -2.040  10.187  16.912  1.00  0.00     0.013 C 
HETATM   10  C17 UNL     1      -2.439  11.289  17.966  1.00  0.00     0.018 C 
HETATM   11  C18 UNL     1      -3.569  10.743  18.865  1.00  0.00     0.023 C 
HETATM   12  C19 UNL     1      -1.273  11.701  18.892  1.00  0.00     0.023 C 
HETATM   13  C20 UNL     1      -2.991  12.573  17.327  1.00  0.00     0.135 C 
HETATM   14  O1  UNL     1      -2.890  13.667  17.891  1.00  0.00    -0.297 OA
HETATM   15  C21 UNL     1      -3.763  12.500  16.035  1.00  0.00     0.080 C 
HETATM   16  C22 UNL     1      -3.510  11.254  15.208  1.00  0.00     0.017 C 
HETATM   17  C23 UNL     1      -2.111  10.623  15.412  1.00  0.00    -0.031 C 
HETATM   18  C24 UNL     1      -1.002  11.631  15.033  1.00  0.00     0.016 C 
HETATM   19  C25 UNL     1      -1.993   9.315  14.532  1.00  0.00     0.024 C 
HETATM   20  C26 UNL     1      -2.001   9.570  13.020  1.00  0.00     0.010 C 
HETATM   21  C27 UNL     1      -2.247   8.238  12.321  1.00  0.00     0.011 C 
HETATM   22  C28 UNL     1      -1.057   7.260  12.467  1.00  0.00    -0.029 C 
HETATM   23  C29 UNL     1      -0.186   7.506  11.192  1.00  0.00     0.016 C 
ENDROOT
BRANCH   1  24
HETATM   24  C6  UNL     1      -2.855   5.320  12.962  1.00  0.00    -0.014 C 
HETATM   25  C7  UNL     1      -3.719   6.593  13.074  1.00  0.00     0.010 C 
BRANCH  24  26
HETATM   26  C5  UNL     1      -3.592   4.279  12.082  1.00  0.00     0.008 C 
BRANCH  26  27
HETATM   27  C4  UNL     1      -4.773   3.591  12.778  1.00  0.00     0.028 C 
BRANCH  27  28
HETATM   28  C3  UNL     1      -6.085   4.099  12.241  1.00  0.00    -0.013 C 
HETATM   29  C2  UNL     1      -7.095   4.688  12.913  1.00  0.00     0.008 C 
HETATM   30  C1  UNL     1      -8.334   5.155  12.203  1.00  0.00     0.055 C 
BRANCH  29  31
HETATM   31  C30 UNL     1      -7.066   4.860  14.386  1.00  0.00     0.171 C 
HETATM   32  O2  UNL     1      -6.417   5.663  15.030  1.00  0.00    -0.646 OA
BRANCH  31  33
HETATM   33  O3  UNL     1      -7.868   3.976  15.003  1.00  0.00    -0.773 OA
HETATM   34  H46 UNL     1      -7.759   4.192  15.952  1.00  0.00     0.167 HD
ENDBRANCH  31  33
ENDBRANCH  29  31
ENDBRANCH  27  28
ENDBRANCH  26  27
ENDBRANCH  24  26
ENDBRANCH   1  24
TORSDOF 6
ENDMDL
MODEL 6
REMARK minimizedAffinity -7.9859128
REMARK  6 active torsions:
REMARK  status: ('A' for Active; 'I' for Inactive)
REMARK    1  A    between atoms: C2_2  and  C30_31 
REMARK    2  A    between atoms: C3_3  and  C4_4 
REMARK    3  A    between atoms: C4_4  and  C5_5 
REMARK    4  A    between atoms: C5_5  and  C6_6 
REMARK    5  A    between atoms: C6_6  and  C8_8 
REMARK    6  A    between atoms: C30_31  and  O3_33 
ROOT
HETATM    1  C8  UNL     1       0.516   6.235  11.634  1.00  0.00    -0.002 C 
HETATM    2  C9  UNL     1       1.257   5.315  10.653  1.00  0.00     0.007 C 
HETATM    3  C10 UNL     1       2.715   5.648  10.890  1.00  0.00     0.015 C 
HETATM    4  C11 UNL     1       2.775   7.199  10.957  1.00  0.00    -0.013 C 
HETATM    5  C12 UNL     1       3.124   7.728   9.534  1.00  0.00     0.021 C 
HETATM    6  C13 UNL     1       3.948   7.628  11.874  1.00  0.00    -0.070 C 
HETATM    7  C14 UNL     1       5.200   7.162  11.665  1.00  0.00    -0.022 C 
HETATM    8  C15 UNL     1       6.422   7.584  12.420  1.00  0.00     0.034 C 
HETATM    9  C16 UNL     1       6.128   8.409  13.687  1.00  0.00     0.013 C 
HETATM   10  C17 UNL     1       7.405   8.970  14.422  1.00  0.00     0.018 C 
HETATM   11  C18 UNL     1       7.674   8.125  15.686  1.00  0.00     0.023 C 
HETATM   12  C19 UNL     1       8.682   8.919  13.554  1.00  0.00     0.023 C 
HETATM   13  C20 UNL     1       7.242  10.418  14.909  1.00  0.00     0.135 C 
HETATM   14  O1  UNL     1       8.215  11.167  15.041  1.00  0.00    -0.297 OA
HETATM   15  C21 UNL     1       5.886  10.920  15.337  1.00  0.00     0.080 C 
HETATM   16  C22 UNL     1       4.711  10.137  14.786  1.00  0.00     0.017 C 
HETATM   17  C23 UNL     1       4.983   9.441  13.430  1.00  0.00    -0.031 C 
HETATM   18  C24 UNL     1       5.354  10.485  12.351  1.00  0.00     0.016 C 
HETATM   19  C25 UNL     1       3.700   8.627  12.992  1.00  0.00     0.024 C 
HETATM   20  C26 UNL     1       2.485   9.499  12.656  1.00  0.00     0.010 C 
HETATM   21  C27 UNL     1       1.258   8.596  12.611  1.00  0.00     0.011 C 
HETATM   22  C28 UNL     1       1.282   7.617  11.413  1.00  0.00    -0.029 C 
HETATM   23  C29 UNL     1       0.493   8.357  10.284  1.00  0.00     0.016 C 
ENDROOT
BRANCH   1  24
HETATM   24  C6  UNL     1       0.447   5.700  13.107  1.00  0.00    -0.014 C 
HETATM   25  C7  UNL     1       1.008   6.772  14.063  1.00  0.00     0.010 C 
BRANCH  24  26
HETATM   26  C5  UNL     1      -0.976   5.296  13.570  1.00  0.00     0.008 C 
BRANCH  26  27
HETATM   27  C4  UNL     1      -1.834   4.652  12.475  1.00  0.00     0.028 C 
BRANCH  27  28
HETATM   28  C3  UNL     1      -3.295   4.690  12.843  1.00  0.00    -0.013 C 
HETATM   29  C2  UNL     1      -4.280   3.857  12.450  1.00  0.00     0.008 C 
HETATM   30  C1  UNL     1      -5.690   4.036  12.940  1.00  0.00     0.055 C 
BRANCH  29  31
HETATM   31  C30 UNL     1      -4.045   2.761  11.479  1.00  0.00     0.171 C 
HETATM   32  O2  UNL     1      -3.635   1.639  11.708  1.00  0.00    -0.646 OA
BRANCH  31  33
HETATM   33  O3  UNL     1      -4.333   3.143  10.223  1.00  0.00    -0.773 OA
HETATM   34  H46 UNL     1      -4.138   2.343   9.692  1.00  0.00     0.167 HD
ENDBRANCH  31  33
ENDBRANCH  29  31
ENDBRANCH  27  28
ENDBRANCH  26  27
ENDBRANCH  24  26
ENDBRANCH   1  24
TORSDOF 6
ENDMDL
MODEL 7
REMARK minimizedAffinity -7.81109905
REMARK  6 active torsions:
REMARK  status: ('A' for Active; 'I' for Inactive)
REMARK    1  A    between atoms: C2_2  and  C30_31 
REMARK    2  A    between atoms: C3_3  and  C4_4 
REMARK    3  A    between atoms: C4_4  and  C5_5 
REMARK    4  A    between atoms: C5_5  and  C6_6 
REMARK    5  A    between atoms: C6_6  and  C8_8 
REMARK    6  A    between atoms: C30_31  and  O3_33 
ROOT
HETATM    1  C8  UNL     1     -14.740   8.183  14.843  1.00  0.00    -0.002 C 
HETATM    2  C9  UNL     1     -14.929   7.940  13.339  1.00  0.00     0.007 C 
HETATM    3  C10 UNL     1     -13.573   7.440  12.889  1.00  0.00     0.015 C 
HETATM    4  C11 UNL     1     -12.542   8.383  13.570  1.00  0.00    -0.013 C 
HETATM    5  C12 UNL     1     -12.199   9.523  12.566  1.00  0.00     0.021 C 
HETATM    6  C13 UNL     1     -11.221   7.610  13.810  1.00  0.00    -0.070 C 
HETATM    7  C14 UNL     1     -10.601   6.961  12.799  1.00  0.00    -0.022 C 
HETATM    8  C15 UNL     1      -9.276   6.271  12.892  1.00  0.00     0.034 C 
HETATM    9  C16 UNL     1      -8.756   6.092  14.330  1.00  0.00     0.013 C 
HETATM   10  C17 UNL     1      -7.306   5.484  14.439  1.00  0.00     0.018 C 
HETATM   11  C18 UNL     1      -7.407   4.004  14.865  1.00  0.00     0.023 C 
HETATM   12  C19 UNL     1      -6.523   5.526  13.108  1.00  0.00     0.023 C 
HETATM   13  C20 UNL     1      -6.435   6.170  15.503  1.00  0.00     0.135 C 
HETATM   14  O1  UNL     1      -5.203   6.196  15.408  1.00  0.00    -0.297 OA
HETATM   15  C21 UNL     1      -7.071   6.740  16.745  1.00  0.00     0.080 C 
HETATM   16  C22 UNL     1      -8.552   7.043  16.623  1.00  0.00     0.017 C 
HETATM   17  C23 UNL     1      -9.023   7.373  15.185  1.00  0.00    -0.031 C 
HETATM   18  C24 UNL     1      -8.278   8.615  14.643  1.00  0.00     0.016 C 
HETATM   19  C25 UNL     1     -10.583   7.624  15.190  1.00  0.00     0.024 C 
HETATM   20  C26 UNL     1     -11.018   8.879  15.955  1.00  0.00     0.010 C 
HETATM   21  C27 UNL     1     -12.522   8.794  16.181  1.00  0.00     0.011 C 
HETATM   22  C28 UNL     1     -13.331   8.931  14.869  1.00  0.00    -0.029 C 
HETATM   23  C29 UNL     1     -13.666  10.456  14.770  1.00  0.00     0.016 C 
ENDROOT
BRANCH   1  24
HETATM   24  C6  UNL     1     -14.866   6.897  15.734  1.00  0.00    -0.014 C 
HETATM   25  C7  UNL     1     -15.167   7.314  17.188  1.00  0.00     0.010 C 
BRANCH  24  26
HETATM   26  C5  UNL     1     -15.949   5.897  15.254  1.00  0.00     0.008 C 
BRANCH  26  27
HETATM   27  C4  UNL     1     -15.392   4.558  14.756  1.00  0.00     0.028 C 
BRANCH  27  28
HETATM   28  C3  UNL     1     -16.507   3.625  14.361  1.00  0.00    -0.013 C 
HETATM   29  C2  UNL     1     -16.499   2.277  14.325  1.00  0.00     0.008 C 
HETATM   30  C1  UNL     1     -17.722   1.503  13.921  1.00  0.00     0.055 C 
BRANCH  29  31
HETATM   31  C30 UNL     1     -15.279   1.488  14.624  1.00  0.00     0.171 C 
HETATM   32  O2  UNL     1     -14.588   1.537  15.624  1.00  0.00    -0.646 OA
BRANCH  31  33
HETATM   33  O3  UNL     1     -14.967   0.657  13.616  1.00  0.00    -0.773 OA
HETATM   34  H46 UNL     1     -14.159   0.205  13.935  1.00  0.00     0.167 HD
ENDBRANCH  31  33
ENDBRANCH  29  31
ENDBRANCH  27  28
ENDBRANCH  26  27
ENDBRANCH  24  26
ENDBRANCH   1  24
TORSDOF 6
ENDMDL
MODEL 8
REMARK minimizedAffinity -7.79232454
REMARK  6 active torsions:
REMARK  status: ('A' for Active; 'I' for Inactive)
REMARK    1  A    between atoms: C2_2  and  C30_31 
REMARK    2  A    between atoms: C3_3  and  C4_4 
REMARK    3  A    between atoms: C4_4  and  C5_5 
REMARK    4  A    between atoms: C5_5  and  C6_6 
REMARK    5  A    between atoms: C6_6  and  C8_8 
REMARK    6  A    between atoms: C30_31  and  O3_33 
ROOT
HETATM    1  C8  UNL     1      -3.574   6.706  13.454  1.00  0.00    -0.002 C 
HETATM    2  C9  UNL     1      -4.863   7.350  12.923  1.00  0.00     0.007 C 
HETATM    3  C10 UNL     1      -4.881   8.709  13.589  1.00  0.00     0.015 C 
HETATM    4  C11 UNL     1      -4.503   8.441  15.073  1.00  0.00    -0.013 C 
HETATM    5  C12 UNL     1      -5.823   8.281  15.884  1.00  0.00     0.021 C 
HETATM    6  C13 UNL     1      -3.791   9.689  15.654  1.00  0.00    -0.070 C 
HETATM    7  C14 UNL     1      -4.358  10.913  15.573  1.00  0.00    -0.022 C 
HETATM    8  C15 UNL     1      -3.812  12.166  16.184  1.00  0.00     0.034 C 
HETATM    9  C16 UNL     1      -2.367  12.040  16.700  1.00  0.00     0.013 C 
HETATM   10  C17 UNL     1      -1.823  13.308  17.462  1.00  0.00     0.018 C 
HETATM   11  C18 UNL     1      -0.854  14.077  16.537  1.00  0.00     0.023 C 
HETATM   12  C19 UNL     1      -2.936  14.294  17.883  1.00  0.00     0.023 C 
HETATM   13  C20 UNL     1      -1.017  12.964  18.724  1.00  0.00     0.135 C 
HETATM   14  O1  UNL     1      -0.943  13.748  19.675  1.00  0.00    -0.297 OA
HETATM   15  C21 UNL     1      -0.212  11.691  18.779  1.00  0.00     0.080 C 
HETATM   16  C22 UNL     1      -0.649  10.614  17.805  1.00  0.00     0.017 C 
HETATM   17  C23 UNL     1      -2.147  10.669  17.419  1.00  0.00    -0.031 C 
HETATM   18  C24 UNL     1      -3.036  10.507  18.674  1.00  0.00     0.016 C 
HETATM   19  C25 UNL     1      -2.460   9.528  16.371  1.00  0.00     0.024 C 
HETATM   20  C26 UNL     1      -2.335   8.106  16.930  1.00  0.00     0.010 C 
HETATM   21  C27 UNL     1      -2.304   7.140  15.751  1.00  0.00     0.011 C 
HETATM   22  C28 UNL     1      -3.658   7.065  15.006  1.00  0.00    -0.029 C 
HETATM   23  C29 UNL     1      -4.409   5.866  15.673  1.00  0.00     0.016 C 
ENDROOT
BRANCH   1  24
HETATM   24  C6  UNL     1      -2.268   7.144  12.704  1.00  0.00    -0.014 C 
HETATM   25  C7  UNL     1      -1.760   8.472  13.301  1.00  0.00     0.010 C 
BRANCH  24  26
HETATM   26  C5  UNL     1      -1.128   6.095  12.749  1.00  0.00     0.008 C 
BRANCH  26  27
HETATM   27  C4  UNL     1      -1.144   5.099  11.583  1.00  0.00     0.028 C 
BRANCH  27  28
HETATM   28  C3  UNL     1      -2.256   4.097  11.745  1.00  0.00    -0.013 C 
HETATM   29  C2  UNL     1      -2.233   2.771  11.500  1.00  0.00     0.008 C 
HETATM   30  C1  UNL     1      -3.444   1.915  11.742  1.00  0.00     0.055 C 
BRANCH  29  31
HETATM   31  C30 UNL     1      -1.041   2.095  10.932  1.00  0.00     0.171 C 
HETATM   32  O2  UNL     1       0.120   2.221  11.275  1.00  0.00    -0.646 OA
BRANCH  31  33
HETATM   33  O3  UNL     1      -1.371   1.279   9.918  1.00  0.00    -0.773 OA
HETATM   34  H46 UNL     1      -0.510   0.903   9.638  1.00  0.00     0.167 HD
ENDBRANCH  31  33
ENDBRANCH  29  31
ENDBRANCH  27  28
ENDBRANCH  26  27
ENDBRANCH  24  26
ENDBRANCH   1  24
TORSDOF 6
ENDMDL
MODEL 9
REMARK minimizedAffinity -7.71168137
REMARK  6 active torsions:
REMARK  status: ('A' for Active; 'I' for Inactive)
REMARK    1  A    between atoms: C2_2  and  C30_31 
REMARK    2  A    between atoms: C3_3  and  C4_4 
REMARK    3  A    between atoms: C4_4  and  C5_5 
REMARK    4  A    between atoms: C5_5  and  C6_6 
REMARK    5  A    between atoms: C6_6  and  C8_8 
REMARK    6  A    between atoms: C30_31  and  O3_33 
ROOT
HETATM    1  C8  UNL     1      -1.667   6.366  12.649  1.00  0.00    -0.002 C 
HETATM    2  C9  UNL     1      -3.167   6.060  12.544  1.00  0.00     0.007 C 
HETATM    3  C10 UNL     1      -3.814   7.186  13.323  1.00  0.00     0.015 C 
HETATM    4  C11 UNL     1      -2.967   7.323  14.619  1.00  0.00    -0.013 C 
HETATM    5  C12 UNL     1      -3.650   6.471  15.731  1.00  0.00     0.021 C 
HETATM    6  C13 UNL     1      -3.019   8.791  15.112  1.00  0.00    -0.070 C 
HETATM    7  C14 UNL     1      -4.201   9.418  15.306  1.00  0.00    -0.022 C 
HETATM    8  C15 UNL     1      -4.374  10.793  15.873  1.00  0.00     0.034 C 
HETATM    9  C16 UNL     1      -3.068  11.603  15.973  1.00  0.00     0.013 C 
HETATM   10  C17 UNL     1      -3.209  13.002  16.686  1.00  0.00     0.018 C 
HETATM   11  C18 UNL     1      -3.188  14.118  15.619  1.00  0.00     0.023 C 
HETATM   12  C19 UNL     1      -4.525  13.153  17.482  1.00  0.00     0.023 C 
HETATM   13  C20 UNL     1      -2.055  13.316  17.649  1.00  0.00     0.135 C 
HETATM   14  O1  UNL     1      -2.211  14.064  18.620  1.00  0.00    -0.297 OA
HETATM   15  C21 UNL     1      -0.671  12.792  17.363  1.00  0.00     0.080 C 
HETATM   16  C22 UNL     1      -0.621  11.592  16.437  1.00  0.00     0.017 C 
HETATM   17  C23 UNL     1      -1.888  10.704  16.469  1.00  0.00    -0.031 C 
HETATM   18  C24 UNL     1      -2.123  10.147  17.891  1.00  0.00     0.016 C 
HETATM   19  C25 UNL     1      -1.725   9.522  15.432  1.00  0.00     0.024 C 
HETATM   20  C26 UNL     1      -0.630   8.512  15.794  1.00  0.00     0.010 C 
HETATM   21  C27 UNL     1      -0.347   7.665  14.560  1.00  0.00     0.011 C 
HETATM   22  C28 UNL     1      -1.525   6.730  14.196  1.00  0.00    -0.029 C 
HETATM   23  C29 UNL     1      -1.195   5.381  14.914  1.00  0.00     0.016 C 
ENDROOT
BRANCH   1  24
HETATM   24  C6  UNL     1      -1.145   7.436  11.627  1.00  0.00    -0.014 C 
HETATM   25  C7  UNL     1      -0.984   8.790  12.348  1.00  0.00     0.010 C 
BRANCH  24  26
HETATM   26  C5  UNL     1       0.193   7.060  10.942  1.00  0.00     0.008 C 
BRANCH  26  27
HETATM   27  C4  UNL     1       0.948   8.251  10.338  1.00  0.00     0.028 C 
BRANCH  27  28
HETATM   28  C3  UNL     1       1.076   8.107   8.844  1.00  0.00    -0.013 C 
HETATM   29  C2  UNL     1       1.884   7.282   8.148  1.00  0.00     0.008 C 
HETATM   30  C1  UNL     1       1.861   7.259   6.645  1.00  0.00     0.055 C 
BRANCH  29  31
HETATM   31  C30 UNL     1       2.871   6.398   8.814  1.00  0.00     0.171 C 
HETATM   32  O2  UNL     1       2.806   5.193   8.968  1.00  0.00    -0.646 OA
BRANCH  31  33
HETATM   33  O3  UNL     1       3.921   7.094   9.282  1.00  0.00    -0.773 OA
HETATM   34  H46 UNL     1       4.486   6.406   9.691  1.00  0.00     0.167 HD
ENDBRANCH  31  33
ENDBRANCH  29  31
ENDBRANCH  27  28
ENDBRANCH  26  27
ENDBRANCH  24  26
ENDBRANCH   1  24
TORSDOF 6
ENDMDL
