MODEL 1
REMARK minimizedAffinity -9.16449261
REMARK  4 active torsions:
REMARK  status: ('A' for Active; 'I' for Inactive)
REMARK    1  A    between atoms: C4_4  and  C5_5 
REMARK    2  A    between atoms: C5_5  and  C6_6 
REMARK    3  A    between atoms: C6_6  and  C7_7 
REMARK    4  A    between atoms: C7_7  and  C9_9 
ROOT
HETATM    1  C9  UNL     1      -5.682   6.428  14.603  1.00  0.00    -0.002 C 
HETATM    2  C10 UNL     1      -6.282   7.435  13.575  1.00  0.00     0.007 C 
HETATM    3  C11 UNL     1      -5.108   8.189  12.924  1.00  0.00     0.015 C 
HETATM    4  C12 UNL     1      -3.889   7.852  13.807  1.00  0.00    -0.013 C 
HETATM    5  C13 UNL     1      -3.946   8.842  15.015  1.00  0.00     0.021 C 
HETATM    6  C14 UNL     1      -2.499   8.002  13.199  1.00  0.00    -0.070 C 
HETATM    7  C15 UNL     1      -2.222   8.897  12.237  1.00  0.00    -0.022 C 
HETATM    8  C16 UNL     1      -0.870   9.135  11.646  1.00  0.00     0.034 C 
HETATM    9  C17 UNL     1       0.321   8.340  12.241  1.00  0.00     0.013 C 
HETATM   10  C18 UNL     1       1.008   7.351  11.231  1.00  0.00     0.018 C 
HETATM   11  C19 UNL     1       1.524   8.121   9.992  1.00  0.00     0.023 C 
HETATM   12  C20 UNL     1       0.097   6.211  10.759  1.00  0.00     0.023 C 
HETATM   13  C21 UNL     1       2.249   6.723  11.892  1.00  0.00     0.135 C 
HETATM   14  O1  UNL     1       3.087   6.093  11.243  1.00  0.00    -0.297 OA
HETATM   15  C22 UNL     1       2.428   6.916  13.379  1.00  0.00     0.080 C 
HETATM   16  C23 UNL     1       1.094   6.690  14.067  1.00  0.00     0.017 C 
HETATM   17  C24 UNL     1       0.024   7.750  13.677  1.00  0.00    -0.031 C 
HETATM   18  C25 UNL     1       0.131   8.925  14.692  1.00  0.00     0.016 C 
HETATM   19  C26 UNL     1      -1.406   7.093  13.745  1.00  0.00     0.024 C 
HETATM   20  C27 UNL     1      -1.764   6.484  15.125  1.00  0.00     0.010 C 
HETATM   21  C28 UNL     1      -3.183   5.880  15.243  1.00  0.00     0.011 C 
HETATM   22  C29 UNL     1      -4.182   6.350  14.162  1.00  0.00    -0.029 C 
HETATM   23  C30 UNL     1      -4.081   5.390  12.934  1.00  0.00     0.016 C 
ENDROOT
BRANCH   1  24
HETATM   24  C7  UNL     1      -6.536   5.126  14.717  1.00  0.00    -0.014 C 
HETATM   25  C8  UNL     1      -7.453   5.145  15.943  1.00  0.00     0.010 C 
BRANCH  24  26
HETATM   26  C6  UNL     1      -7.378   4.929  13.423  1.00  0.00     0.008 C 
BRANCH  26  27
HETATM   27  C5  UNL     1      -7.238   3.574  12.716  1.00  0.00     0.028 C 
BRANCH  27  28
HETATM   28  C4  UNL     1      -5.812   3.195  12.427  1.00  0.00    -0.025 C 
HETATM   29  C2  UNL     1      -5.373   2.129  11.728  1.00  0.00    -0.091 C 
HETATM   30  C1  UNL     1      -3.900   1.875  11.558  1.00  0.00     0.042 C 
HETATM   31  C3  UNL     1      -6.259   1.120  11.050  1.00  0.00     0.042 C 
ENDBRANCH  27  28
ENDBRANCH  26  27
ENDBRANCH  24  26
ENDBRANCH   1  24
TORSDOF 4
ENDMDL
MODEL 2
REMARK minimizedAffinity -8.74770451
REMARK  4 active torsions:
REMARK  status: ('A' for Active; 'I' for Inactive)
REMARK    1  A    between atoms: C4_4  and  C5_5 
REMARK    2  A    between atoms: C5_5  and  C6_6 
REMARK    3  A    between atoms: C6_6  and  C7_7 
REMARK    4  A    between atoms: C7_7  and  C9_9 
ROOT
HETATM    1  C9  UNL     1      -5.095   7.064  15.053  1.00  0.00    -0.002 C 
HETATM    2  C10 UNL     1      -5.825   7.767  13.868  1.00  0.00     0.007 C 
HETATM    3  C11 UNL     1      -4.744   8.335  12.930  1.00  0.00     0.015 C 
HETATM    4  C12 UNL     1      -3.436   8.246  13.741  1.00  0.00    -0.013 C 
HETATM    5  C13 UNL     1      -3.408   9.514  14.654  1.00  0.00     0.021 C 
HETATM    6  C14 UNL     1      -2.117   8.243  12.976  1.00  0.00    -0.070 C 
HETATM    7  C15 UNL     1      -1.964   8.862  11.794  1.00  0.00    -0.022 C 
HETATM    8  C16 UNL     1      -0.684   8.948  11.027  1.00  0.00     0.034 C 
HETATM    9  C17 UNL     1       0.585   8.342  11.681  1.00  0.00     0.013 C 
HETATM   10  C18 UNL     1       1.203   7.130  10.893  1.00  0.00     0.018 C 
HETATM   11  C19 UNL     1       1.571   7.557   9.453  1.00  0.00     0.023 C 
HETATM   12  C20 UNL     1       0.289   5.901  10.825  1.00  0.00     0.023 C 
HETATM   13  C21 UNL     1       2.521   6.703  11.564  1.00  0.00     0.135 C 
HETATM   14  O1  UNL     1       3.313   5.933  11.016  1.00  0.00    -0.297 OA
HETATM   15  C22 UNL     1       2.838   7.275  12.925  1.00  0.00     0.080 C 
HETATM   16  C23 UNL     1       1.584   7.225  13.780  1.00  0.00     0.017 C 
HETATM   17  C24 UNL     1       0.448   8.141  13.243  1.00  0.00    -0.031 C 
HETATM   18  C25 UNL     1       0.613   9.539  13.907  1.00  0.00     0.016 C 
HETATM   19  C26 UNL     1      -0.947   7.514  13.623  1.00  0.00     0.024 C 
HETATM   20  C27 UNL     1      -1.150   7.280  15.142  1.00  0.00     0.010 C 
HETATM   21  C28 UNL     1      -2.530   6.717  15.554  1.00  0.00     0.011 C 
HETATM   22  C29 UNL     1      -3.643   6.885  14.497  1.00  0.00    -0.029 C 
HETATM   23  C30 UNL     1      -3.630   5.641  13.552  1.00  0.00     0.016 C 
ENDROOT
BRANCH   1  24
HETATM   24  C7  UNL     1      -5.891   5.830  15.584  1.00  0.00    -0.014 C 
HETATM   25  C8  UNL     1      -7.214   6.236  16.240  1.00  0.00     0.010 C 
BRANCH  24  26
HETATM   26  C6  UNL     1      -6.157   4.831  14.421  1.00  0.00     0.008 C 
BRANCH  26  27
HETATM   27  C5  UNL     1      -7.627   4.498  14.127  1.00  0.00     0.028 C 
BRANCH  27  28
HETATM   28  C4  UNL     1      -8.083   4.957  12.770  1.00  0.00    -0.025 C 
HETATM   29  C2  UNL     1      -9.024   5.880  12.491  1.00  0.00    -0.091 C 
HETATM   30  C1  UNL     1      -9.387   6.202  11.066  1.00  0.00     0.042 C 
HETATM   31  C3  UNL     1      -9.781   6.677  13.519  1.00  0.00     0.042 C 
ENDBRANCH  27  28
ENDBRANCH  26  27
ENDBRANCH  24  26
ENDBRANCH   1  24
TORSDOF 4
ENDMDL
MODEL 3
REMARK minimizedAffinity -8.57366657
REMARK  4 active torsions:
REMARK  status: ('A' for Active; 'I' for Inactive)
REMARK    1  A    between atoms: C4_4  and  C5_5 
REMARK    2  A    between atoms: C5_5  and  C6_6 
REMARK    3  A    between atoms: C6_6  and  C7_7 
REMARK    4  A    between atoms: C7_7  and  C9_9 
ROOT
HETATM    1  C9  UNL     1      -3.454   7.446  14.471  1.00  0.00    -0.002 C 
HETATM    2  C10 UNL     1      -4.226   8.036  13.252  1.00  0.00     0.007 C 
HETATM    3  C11 UNL     1      -3.183   8.447  12.197  1.00  0.00     0.015 C 
HETATM    4  C12 UNL     1      -1.833   8.399  12.942  1.00  0.00    -0.013 C 
HETATM    5  C13 UNL     1      -1.709   9.762  13.696  1.00  0.00     0.021 C 
HETATM    6  C14 UNL     1      -0.562   8.254  12.113  1.00  0.00    -0.070 C 
HETATM    7  C15 UNL     1      -0.456   8.724  10.860  1.00  0.00    -0.022 C 
HETATM    8  C16 UNL     1       0.780   8.669  10.021  1.00  0.00     0.034 C 
HETATM    9  C17 UNL     1       2.063   8.091  10.673  1.00  0.00     0.013 C 
HETATM   10  C18 UNL     1       2.592   6.772  10.003  1.00  0.00     0.018 C 
HETATM   11  C19 UNL     1       2.891   7.013   8.504  1.00  0.00     0.023 C 
HETATM   12  C20 UNL     1       1.634   5.581  10.129  1.00  0.00     0.023 C 
HETATM   13  C21 UNL     1       3.932   6.371  10.648  1.00  0.00     0.135 C 
HETATM   14  O1  UNL     1       4.664   5.511  10.153  1.00  0.00    -0.297 OA
HETATM   15  C22 UNL     1       4.345   7.083  11.913  1.00  0.00     0.080 C 
HETATM   16  C23 UNL     1       3.143   7.184  12.834  1.00  0.00     0.017 C 
HETATM   17  C24 UNL     1       2.009   8.078  12.253  1.00  0.00    -0.031 C 
HETATM   18  C25 UNL     1       2.261   9.535  12.738  1.00  0.00     0.016 C 
HETATM   19  C26 UNL     1       0.618   7.557  12.778  1.00  0.00     0.024 C 
HETATM   20  C27 UNL     1       0.495   7.509  14.323  1.00  0.00     0.010 C 
HETATM   21  C28 UNL     1      -0.877   7.054  14.872  1.00  0.00     0.011 C 
HETATM   22  C29 UNL     1      -2.044   7.144  13.863  1.00  0.00    -0.029 C 
HETATM   23  C30 UNL     1      -2.128   5.800  13.072  1.00  0.00     0.016 C 
ENDROOT
BRANCH   1  24
HETATM   24  C7  UNL     1      -4.260   6.315  15.185  1.00  0.00    -0.014 C 
HETATM   25  C8  UNL     1      -5.676   6.765  15.558  1.00  0.00     0.010 C 
BRANCH  24  26
HETATM   26  C6  UNL     1      -4.322   5.054  14.276  1.00  0.00     0.008 C 
BRANCH  26  27
HETATM   27  C5  UNL     1      -5.538   4.940  13.346  1.00  0.00     0.028 C 
BRANCH  27  28
HETATM   28  C4  UNL     1      -5.424   3.821  12.348  1.00  0.00    -0.025 C 
HETATM   29  C2  UNL     1      -6.272   2.788  12.174  1.00  0.00    -0.091 C 
HETATM   30  C1  UNL     1      -5.991   1.728  11.143  1.00  0.00     0.042 C 
HETATM   31  C3  UNL     1      -7.550   2.586  12.940  1.00  0.00     0.042 C 
ENDBRANCH  27  28
ENDBRANCH  26  27
ENDBRANCH  24  26
ENDBRANCH   1  24
TORSDOF 4
ENDMDL
MODEL 4
REMARK minimizedAffinity -8.47294044
REMARK  4 active torsions:
REMARK  status: ('A' for Active; 'I' for Inactive)
REMARK    1  A    between atoms: C4_4  and  C5_5 
REMARK    2  A    between atoms: C5_5  and  C6_6 
REMARK    3  A    between atoms: C6_6  and  C7_7 
REMARK    4  A    between atoms: C7_7  and  C9_9 
ROOT
HETATM    1  C9  UNL     1      -4.480   7.755  15.331  1.00  0.00    -0.002 C 
HETATM    2  C10 UNL     1      -4.260   9.296  15.423  1.00  0.00     0.007 C 
HETATM    3  C11 UNL     1      -2.866   9.600  14.845  1.00  0.00     0.015 C 
HETATM    4  C12 UNL     1      -2.177   8.224  14.738  1.00  0.00    -0.013 C 
HETATM    5  C13 UNL     1      -1.599   7.921  16.157  1.00  0.00     0.021 C 
HETATM    6  C14 UNL     1      -1.014   8.079  13.764  1.00  0.00    -0.070 C 
HETATM    7  C15 UNL     1      -0.202   9.100  13.447  1.00  0.00    -0.022 C 
HETATM    8  C16 UNL     1       0.990   9.006  12.550  1.00  0.00     0.034 C 
HETATM    9  C17 UNL     1       1.365   7.605  12.001  1.00  0.00     0.013 C 
HETATM   10  C18 UNL     1       1.261   7.474  10.439  1.00  0.00     0.018 C 
HETATM   11  C19 UNL     1       2.177   8.512   9.749  1.00  0.00     0.023 C 
HETATM   12  C20 UNL     1      -0.164   7.634   9.894  1.00  0.00     0.023 C 
HETATM   13  C21 UNL     1       1.780   6.090  10.006  1.00  0.00     0.135 C 
HETATM   14  O1  UNL     1       2.018   5.821   8.826  1.00  0.00    -0.297 OA
HETATM   15  C22 UNL     1       2.014   5.057  11.082  1.00  0.00     0.080 C 
HETATM   16  C23 UNL     1       0.841   5.080  12.045  1.00  0.00     0.017 C 
HETATM   17  C24 UNL     1       0.728   6.419  12.829  1.00  0.00    -0.031 C 
HETATM   18  C25 UNL     1       1.554   6.272  14.140  1.00  0.00     0.016 C 
HETATM   19  C26 UNL     1      -0.786   6.698  13.163  1.00  0.00     0.024 C 
HETATM   20  C27 UNL     1      -1.481   5.570  13.969  1.00  0.00     0.010 C 
HETATM   21  C28 UNL     1      -2.954   5.836  14.361  1.00  0.00     0.011 C 
HETATM   22  C29 UNL     1      -3.384   7.319  14.302  1.00  0.00    -0.029 C 
HETATM   23  C30 UNL     1      -3.910   7.633  12.865  1.00  0.00     0.016 C 
ENDROOT
BRANCH   1  24
HETATM   24  C7  UNL     1      -5.978   7.390  15.087  1.00  0.00    -0.014 C 
HETATM   25  C8  UNL     1      -6.880   8.628  15.086  1.00  0.00     0.010 C 
BRANCH  24  26
HETATM   26  C6  UNL     1      -6.124   6.622  13.742  1.00  0.00     0.008 C 
BRANCH  26  27
HETATM   27  C5  UNL     1      -6.544   5.148  13.838  1.00  0.00     0.028 C 
BRANCH  27  28
HETATM   28  C4  UNL     1      -5.876   4.269  12.817  1.00  0.00    -0.025 C 
HETATM   29  C2  UNL     1      -6.294   3.068  12.371  1.00  0.00    -0.091 C 
HETATM   30  C1  UNL     1      -5.484   2.297  11.363  1.00  0.00     0.042 C 
HETATM   31  C3  UNL     1      -7.566   2.387  12.795  1.00  0.00     0.042 C 
ENDBRANCH  27  28
ENDBRANCH  26  27
ENDBRANCH  24  26
ENDBRANCH   1  24
TORSDOF 4
ENDMDL
MODEL 5
REMARK minimizedAffinity -8.34345245
REMARK  4 active torsions:
REMARK  status: ('A' for Active; 'I' for Inactive)
REMARK    1  A    between atoms: C4_4  and  C5_5 
REMARK    2  A    between atoms: C5_5  and  C6_6 
REMARK    3  A    between atoms: C6_6  and  C7_7 
REMARK    4  A    between atoms: C7_7  and  C9_9 
ROOT
HETATM    1  C9  UNL     1      -1.228   6.308  12.704  1.00  0.00    -0.002 C 
HETATM    2  C10 UNL     1      -1.048   4.806  12.326  1.00  0.00     0.007 C 
HETATM    3  C11 UNL     1       0.316   4.665  11.626  1.00  0.00     0.015 C 
HETATM    4  C12 UNL     1       0.749   6.112  11.315  1.00  0.00    -0.013 C 
HETATM    5  C13 UNL     1       0.028   6.500   9.984  1.00  0.00     0.021 C 
HETATM    6  C14 UNL     1       2.232   6.384  11.092  1.00  0.00    -0.070 C 
HETATM    7  C15 UNL     1       3.069   5.464  10.588  1.00  0.00    -0.022 C 
HETATM    8  C16 UNL     1       4.516   5.690  10.287  1.00  0.00     0.034 C 
HETATM    9  C17 UNL     1       5.078   7.119  10.503  1.00  0.00     0.013 C 
HETATM   10  C18 UNL     1       6.185   7.218  11.614  1.00  0.00     0.018 C 
HETATM   11  C19 UNL     1       7.374   6.289  11.273  1.00  0.00     0.023 C 
HETATM   12  C20 UNL     1       5.684   6.881  13.024  1.00  0.00     0.023 C 
HETATM   13  C21 UNL     1       6.754   8.649  11.644  1.00  0.00     0.135 C 
HETATM   14  O1  UNL     1       7.783   8.930  12.262  1.00  0.00    -0.297 OA
HETATM   15  C22 UNL     1       6.019   9.716  10.868  1.00  0.00     0.080 C 
HETATM   16  C23 UNL     1       4.529   9.564  11.118  1.00  0.00     0.017 C 
HETATM   17  C24 UNL     1       3.955   8.230  10.559  1.00  0.00    -0.031 C 
HETATM   18  C25 UNL     1       3.489   8.492   9.097  1.00  0.00     0.016 C 
HETATM   19  C26 UNL     1       2.739   7.775  11.450  1.00  0.00     0.024 C 
HETATM   20  C27 UNL     1       1.599   8.821  11.558  1.00  0.00     0.010 C 
HETATM   21  C28 UNL     1       0.365   8.385  12.381  1.00  0.00     0.011 C 
HETATM   22  C29 UNL     1       0.232   6.860  12.596  1.00  0.00    -0.029 C 
HETATM   23  C30 UNL     1       1.002   6.468  13.898  1.00  0.00     0.016 C 
ENDROOT
BRANCH   1  24
HETATM   24  C7  UNL     1      -2.041   6.487  14.024  1.00  0.00    -0.014 C 
HETATM   25  C8  UNL     1      -2.660   7.884  14.134  1.00  0.00     0.010 C 
BRANCH  24  26
HETATM   26  C6  UNL     1      -3.151   5.402  14.115  1.00  0.00     0.008 C 
BRANCH  26  27
HETATM   27  C5  UNL     1      -4.271   5.478  13.067  1.00  0.00     0.028 C 
BRANCH  27  28
HETATM   28  C4  UNL     1      -5.539   4.795  13.497  1.00  0.00    -0.025 C 
HETATM   29  C2  UNL     1      -6.234   3.858  12.822  1.00  0.00    -0.091 C 
HETATM   30  C1  UNL     1      -7.513   3.296  13.383  1.00  0.00     0.042 C 
HETATM   31  C3  UNL     1      -5.831   3.276  11.495  1.00  0.00     0.042 C 
ENDBRANCH  27  28
ENDBRANCH  26  27
ENDBRANCH  24  26
ENDBRANCH   1  24
TORSDOF 4
ENDMDL
MODEL 6
REMARK minimizedAffinity -8.26992607
REMARK  4 active torsions:
REMARK  status: ('A' for Active; 'I' for Inactive)
REMARK    1  A    between atoms: C4_4  and  C5_5 
REMARK    2  A    between atoms: C5_5  and  C6_6 
REMARK    3  A    between atoms: C6_6  and  C7_7 
REMARK    4  A    between atoms: C7_7  and  C9_9 
ROOT
HETATM    1  C9  UNL     1       1.876   7.163  11.281  1.00  0.00    -0.002 C 
HETATM    2  C10 UNL     1       1.832   5.607  11.361  1.00  0.00     0.007 C 
HETATM    3  C11 UNL     1       0.757   5.226  12.396  1.00  0.00     0.015 C 
HETATM    4  C12 UNL     1       0.436   6.543  13.130  1.00  0.00    -0.013 C 
HETATM    5  C13 UNL     1       1.536   6.703  14.228  1.00  0.00     0.021 C 
HETATM    6  C14 UNL     1      -0.903   6.655  13.849  1.00  0.00    -0.070 C 
HETATM    7  C15 UNL     1      -1.535   5.593  14.372  1.00  0.00    -0.022 C 
HETATM    8  C16 UNL     1      -2.816   5.646  15.142  1.00  0.00     0.034 C 
HETATM    9  C17 UNL     1      -3.425   7.044  15.424  1.00  0.00     0.013 C 
HETATM   10  C18 UNL     1      -4.825   7.286  14.753  1.00  0.00     0.018 C 
HETATM   11  C19 UNL     1      -5.842   6.223  15.231  1.00  0.00     0.023 C 
HETATM   12  C20 UNL     1      -4.790   7.282  13.220  1.00  0.00     0.023 C 
HETATM   13  C21 UNL     1      -5.382   8.647  15.210  1.00  0.00     0.135 C 
HETATM   14  O1  UNL     1      -6.555   8.973  15.013  1.00  0.00    -0.297 OA
HETATM   15  C22 UNL     1      -4.446   9.584  15.936  1.00  0.00     0.080 C 
HETATM   16  C23 UNL     1      -3.110   9.596  15.217  1.00  0.00     0.017 C 
HETATM   17  C24 UNL     1      -2.382   8.221  15.270  1.00  0.00    -0.031 C 
HETATM   18  C25 UNL     1      -1.482   8.212  16.540  1.00  0.00     0.016 C 
HETATM   19  C26 UNL     1      -1.504   8.049  13.974  1.00  0.00     0.024 C 
HETATM   20  C27 UNL     1      -0.462   9.175  13.753  1.00  0.00     0.010 C 
HETATM   21  C28 UNL     1       0.454   9.008  12.517  1.00  0.00     0.011 C 
HETATM   22  C29 UNL     1       0.520   7.573  11.947  1.00  0.00    -0.029 C 
HETATM   23  C30 UNL     1      -0.617   7.400  10.890  1.00  0.00     0.016 C 
ENDROOT
BRANCH   1  24
HETATM   24  C7  UNL     1       2.232   7.667   9.848  1.00  0.00    -0.014 C 
HETATM   25  C8  UNL     1       3.695   8.106   9.738  1.00  0.00     0.010 C 
BRANCH  24  26
HETATM   26  C6  UNL     1       1.928   6.555   8.803  1.00  0.00     0.008 C 
BRANCH  26  27
HETATM   27  C5  UNL     1       2.354   6.841   7.356  1.00  0.00     0.028 C 
BRANCH  27  28
HETATM   28  C4  UNL     1       2.688   5.600   6.576  1.00  0.00    -0.025 C 
HETATM   29  C2  UNL     1       3.340   4.505   7.017  1.00  0.00    -0.091 C 
HETATM   30  C1  UNL     1       3.625   3.354   6.091  1.00  0.00     0.042 C 
HETATM   31  C3  UNL     1       3.826   4.303   8.426  1.00  0.00     0.042 C 
ENDBRANCH  27  28
ENDBRANCH  26  27
ENDBRANCH  24  26
ENDBRANCH   1  24
TORSDOF 4
ENDMDL
MODEL 7
REMARK minimizedAffinity -8.24633503
REMARK  4 active torsions:
REMARK  status: ('A' for Active; 'I' for Inactive)
REMARK    1  A    between atoms: C4_4  and  C5_5 
REMARK    2  A    between atoms: C5_5  and  C6_6 
REMARK    3  A    between atoms: C6_6  and  C7_7 
REMARK    4  A    between atoms: C7_7  and  C9_9 
ROOT
HETATM    1  C9  UNL     1      -3.324   5.810  12.792  1.00  0.00    -0.002 C 
HETATM    2  C10 UNL     1      -1.981   5.124  13.192  1.00  0.00     0.007 C 
HETATM    3  C11 UNL     1      -1.174   6.136  14.025  1.00  0.00     0.015 C 
HETATM    4  C12 UNL     1      -1.899   7.481  13.818  1.00  0.00    -0.013 C 
HETATM    5  C13 UNL     1      -1.360   8.057  12.469  1.00  0.00     0.021 C 
HETATM    6  C14 UNL     1      -1.694   8.574  14.861  1.00  0.00    -0.070 C 
HETATM    7  C15 UNL     1      -0.564   8.689  15.576  1.00  0.00    -0.022 C 
HETATM    8  C16 UNL     1      -0.278   9.773  16.565  1.00  0.00     0.034 C 
HETATM    9  C17 UNL     1      -1.336  10.896  16.724  1.00  0.00     0.013 C 
HETATM   10  C18 UNL     1      -2.000  10.963  18.146  1.00  0.00     0.018 C 
HETATM   11  C19 UNL     1      -0.920  11.174  19.234  1.00  0.00     0.023 C 
HETATM   12  C20 UNL     1      -2.828   9.723  18.507  1.00  0.00     0.023 C 
HETATM   13  C21 UNL     1      -2.928  12.189  18.221  1.00  0.00     0.135 C 
HETATM   14  O1  UNL     1      -3.388  12.597  19.289  1.00  0.00    -0.297 OA
HETATM   15  C22 UNL     1      -3.253  12.906  16.932  1.00  0.00     0.080 C 
HETATM   16  C23 UNL     1      -3.561  11.875  15.862  1.00  0.00     0.017 C 
HETATM   17  C24 UNL     1      -2.333  10.991  15.501  1.00  0.00    -0.031 C 
HETATM   18  C25 UNL     1      -1.573  11.690  14.336  1.00  0.00     0.016 C 
HETATM   19  C26 UNL     1      -2.833   9.566  15.053  1.00  0.00     0.024 C 
HETATM   20  C27 UNL     1      -3.824   9.582  13.860  1.00  0.00     0.010 C 
HETATM   21  C28 UNL     1      -4.292   8.196  13.360  1.00  0.00     0.011 C 
HETATM   22  C29 UNL     1      -3.398   7.012  13.792  1.00  0.00    -0.029 C 
HETATM   23  C30 UNL     1      -3.906   6.475  15.168  1.00  0.00     0.016 C 
ENDROOT
BRANCH   1  24
HETATM   24  C7  UNL     1      -4.501   4.788  12.703  1.00  0.00    -0.014 C 
HETATM   25  C8  UNL     1      -4.007   3.338  12.719  1.00  0.00     0.010 C 
BRANCH  24  26
HETATM   26  C6  UNL     1      -5.499   5.026  13.872  1.00  0.00     0.008 C 
BRANCH  26  27
HETATM   27  C5  UNL     1      -6.900   4.420  13.709  1.00  0.00     0.028 C 
BRANCH  27  28
HETATM   28  C4  UNL     1      -7.616   4.893  12.475  1.00  0.00    -0.025 C 
HETATM   29  C2  UNL     1      -8.660   5.743  12.408  1.00  0.00    -0.091 C 
HETATM   30  C1  UNL     1      -9.285   6.090  11.083  1.00  0.00     0.042 C 
HETATM   31  C3  UNL     1      -9.289   6.428  13.589  1.00  0.00     0.042 C 
ENDBRANCH  27  28
ENDBRANCH  26  27
ENDBRANCH  24  26
ENDBRANCH   1  24
TORSDOF 4
ENDMDL
MODEL 8
REMARK minimizedAffinity -8.24043083
REMARK  4 active torsions:
REMARK  status: ('A' for Active; 'I' for Inactive)
REMARK    1  A    between atoms: C4_4  and  C5_5 
REMARK    2  A    between atoms: C5_5  and  C6_6 
REMARK    3  A    between atoms: C6_6  and  C7_7 
REMARK    4  A    between atoms: C7_7  and  C9_9 
ROOT
HETATM    1  C9  UNL     1      -3.536   5.626  13.320  1.00  0.00    -0.002 C 
HETATM    2  C10 UNL     1      -2.222   4.921  13.775  1.00  0.00     0.007 C 
HETATM    3  C11 UNL     1      -1.368   5.966  14.516  1.00  0.00     0.015 C 
HETATM    4  C12 UNL     1      -2.036   7.318  14.195  1.00  0.00    -0.013 C 
HETATM    5  C13 UNL     1      -1.480   7.752  12.800  1.00  0.00     0.021 C 
HETATM    6  C14 UNL     1      -1.779   8.487  15.138  1.00  0.00    -0.070 C 
HETATM    7  C15 UNL     1      -0.642   8.616  15.839  1.00  0.00    -0.022 C 
HETATM    8  C16 UNL     1      -0.305   9.769  16.730  1.00  0.00     0.034 C 
HETATM    9  C17 UNL     1      -1.314  10.944  16.792  1.00  0.00     0.013 C 
HETATM   10  C18 UNL     1      -1.967  11.163  18.204  1.00  0.00     0.018 C 
HETATM   11  C19 UNL     1      -0.874  11.421  19.268  1.00  0.00     0.023 C 
HETATM   12  C20 UNL     1      -2.844   9.995  18.672  1.00  0.00     0.023 C 
HETATM   13  C21 UNL     1      -2.842  12.430  18.173  1.00  0.00     0.135 C 
HETATM   14  O1  UNL     1      -3.279  12.948  19.203  1.00  0.00    -0.297 OA
HETATM   15  C22 UNL     1      -3.143  13.045  16.828  1.00  0.00     0.080 C 
HETATM   16  C23 UNL     1      -3.501  11.939  15.852  1.00  0.00     0.017 C 
HETATM   17  C24 UNL     1      -2.312  10.976  15.567  1.00  0.00    -0.031 C 
HETATM   18  C25 UNL     1      -1.530  11.539  14.345  1.00  0.00     0.016 C 
HETATM   19  C26 UNL     1      -2.875   9.540  15.245  1.00  0.00     0.024 C 
HETATM   20  C27 UNL     1      -3.870   9.495  14.057  1.00  0.00     0.010 C 
HETATM   21  C28 UNL     1      -4.399   8.092  13.679  1.00  0.00     0.011 C 
HETATM   22  C29 UNL     1      -3.554   6.913  14.211  1.00  0.00    -0.029 C 
HETATM   23  C30 UNL     1      -4.077   6.519  15.629  1.00  0.00     0.016 C 
ENDROOT
BRANCH   1  24
HETATM   24  C7  UNL     1      -4.755   4.652  13.322  1.00  0.00    -0.014 C 
HETATM   25  C8  UNL     1      -6.089   5.398  13.219  1.00  0.00     0.010 C 
BRANCH  24  26
HETATM   26  C6  UNL     1      -4.622   3.634  12.153  1.00  0.00     0.008 C 
BRANCH  26  27
HETATM   27  C5  UNL     1      -3.389   3.784  11.251  1.00  0.00     0.028 C 
BRANCH  27  28
HETATM   28  C4  UNL     1      -2.703   2.480  10.954  1.00  0.00    -0.025 C 
HETATM   29  C2  UNL     1      -1.393   2.193  11.089  1.00  0.00    -0.091 C 
HETATM   30  C1  UNL     1      -0.860   0.837  10.713  1.00  0.00     0.042 C 
HETATM   31  C3  UNL     1      -0.354   3.143  11.619  1.00  0.00     0.042 C 
ENDBRANCH  27  28
ENDBRANCH  26  27
ENDBRANCH  24  26
ENDBRANCH   1  24
TORSDOF 4
ENDMDL
MODEL 9
REMARK minimizedAffinity -8.13535404
REMARK  4 active torsions:
REMARK  status: ('A' for Active; 'I' for Inactive)
REMARK    1  A    between atoms: C4_4  and  C5_5 
REMARK    2  A    between atoms: C5_5  and  C6_6 
REMARK    3  A    between atoms: C6_6  and  C7_7 
REMARK    4  A    between atoms: C7_7  and  C9_9 
ROOT
HETATM    1  C9  UNL     1      -6.131   6.947  14.738  1.00  0.00    -0.002 C 
HETATM    2  C10 UNL     1      -5.771   8.096  15.728  1.00  0.00     0.007 C 
HETATM    3  C11 UNL     1      -4.249   8.316  15.649  1.00  0.00     0.015 C 
HETATM    4  C12 UNL     1      -3.715   7.091  14.880  1.00  0.00    -0.013 C 
HETATM    5  C13 UNL     1      -3.565   5.951  15.937  1.00  0.00     0.021 C 
HETATM    6  C14 UNL     1      -2.362   7.213  14.189  1.00  0.00    -0.070 C 
HETATM    7  C15 UNL     1      -1.387   8.016  14.643  1.00  0.00    -0.022 C 
HETATM    8  C16 UNL     1      -0.019   8.131  14.049  1.00  0.00     0.034 C 
HETATM    9  C17 UNL     1       0.326   7.196  12.861  1.00  0.00     0.013 C 
HETATM   10  C18 UNL     1       0.620   7.946  11.511  1.00  0.00     0.018 C 
HETATM   11  C19 UNL     1       1.795   8.936  11.691  1.00  0.00     0.023 C 
HETATM   12  C20 UNL     1      -0.586   8.707  10.947  1.00  0.00     0.023 C 
HETATM   13  C21 UNL     1       1.076   6.928  10.449  1.00  0.00     0.135 C 
HETATM   14  O1  UNL     1       1.582   7.280   9.381  1.00  0.00    -0.297 OA
HETATM   15  C22 UNL     1       0.903   5.460  10.759  1.00  0.00     0.080 C 
HETATM   16  C23 UNL     1      -0.471   5.247  11.370  1.00  0.00     0.017 C 
HETATM   17  C24 UNL     1      -0.634   5.945  12.751  1.00  0.00    -0.031 C 
HETATM   18  C25 UNL     1      -0.200   4.930  13.848  1.00  0.00     0.016 C 
HETATM   19  C26 UNL     1      -2.142   6.357  12.949  1.00  0.00     0.024 C 
HETATM   20  C27 UNL     1      -3.145   5.179  12.846  1.00  0.00     0.010 C 
HETATM   21  C28 UNL     1      -4.629   5.539  13.089  1.00  0.00     0.011 C 
HETATM   22  C29 UNL     1      -4.860   6.878  13.826  1.00  0.00    -0.029 C 
HETATM   23  C30 UNL     1      -4.953   8.023  12.768  1.00  0.00     0.016 C 
ENDROOT
BRANCH   1  24
HETATM   24  C7  UNL     1      -7.544   7.140  14.103  1.00  0.00    -0.014 C 
HETATM   25  C8  UNL     1      -8.161   5.811  13.656  1.00  0.00     0.010 C 
BRANCH  24  26
HETATM   26  C6  UNL     1      -8.486   7.853  15.115  1.00  0.00     0.008 C 
BRANCH  26  27
HETATM   27  C5  UNL     1      -9.928   7.329  15.193  1.00  0.00     0.028 C 
BRANCH  27  28
HETATM   28  C4  UNL     1     -10.870   8.030  14.255  1.00  0.00    -0.025 C 
HETATM   29  C2  UNL     1     -12.083   7.610  13.846  1.00  0.00    -0.091 C 
HETATM   30  C1  UNL     1     -12.891   8.423  12.871  1.00  0.00     0.042 C 
HETATM   31  C3  UNL     1     -12.755   6.344  14.303  1.00  0.00     0.042 C 
ENDBRANCH  27  28
ENDBRANCH  26  27
ENDBRANCH  24  26
ENDBRANCH   1  24
TORSDOF 4
ENDMDL
