MODEL 1
REMARK minimizedAffinity -9.24616623
REMARK CNNscore 0.465068191
REMARK CNNaffinity 6.8419919
REMARK  9 active torsions:
REMARK  status: ('A' for Active; 'I' for Inactive)
REMARK    1  A    between atoms: C7_8  and  O1_9 
REMARK    2  A    between atoms: O1_9  and  C8_10 
REMARK    3  A    between atoms: C8_10  and  C9_11 
REMARK       I    between atoms: C9_11  and  N1_13 
REMARK    4  A    between atoms: N1_13  and  N2_14 
REMARK    5  A    between atoms: C10_16  and  C11_17 
REMARK    6  A    between atoms: C14_20  and  O3_21 
REMARK    7  A    between atoms: C16_23  and  O4_24 
REMARK    8  A    between atoms: C25_33  and  C26_34 
REMARK    9  A    between atoms: C32_42  and  O7_43 
ROOT
HETATM    1  C11 UNL     1      -4.101   7.532  14.419  1.00  0.00     0.028 C 
HETATM    2  C12 UNL     1      -5.213   8.234  13.584  1.00  0.00     0.021 C 
HETATM    3  C13 UNL     1      -6.480   8.528  14.406  1.00  0.00     0.033 C 
HETATM    4  C14 UNL     1      -7.026   7.322  15.171  1.00  0.00     0.121 C 
HETATM    5  C15 UNL     1      -5.939   6.483  15.861  1.00  0.00     0.070 C 
HETATM    6  C16 UNL     1      -4.701   6.205  14.979  1.00  0.00     0.073 C 
HETATM    7  C17 UNL     1      -3.669   5.351  15.731  1.00  0.00     0.039 C 
HETATM    8  C18 UNL     1      -2.399   5.090  14.917  1.00  0.00     0.011 C 
HETATM    9  C19 UNL     1      -1.784   6.347  14.257  1.00  0.00     0.026 C 
HETATM   10  C20 UNL     1      -2.841   7.228  13.532  1.00  0.00     0.009 C 
HETATM   11  C21 UNL     1      -2.210   8.500  12.921  1.00  0.00     0.007 C 
HETATM   12  C22 UNL     1      -0.686   8.530  12.957  1.00  0.00     0.013 C 
HETATM   13  C23 UNL     1       0.000   7.221  12.521  1.00  0.00    -0.005 C 
HETATM   14  C24 UNL     1       1.521   7.406  12.769  1.00  0.00     0.019 C 
HETATM   15  C25 UNL     1      -0.273   6.857  11.019  1.00  0.00     0.028 C 
HETATM   16  C30 UNL     1      -0.148   5.328  11.017  1.00  0.00     0.013 C 
HETATM   17  C31 UNL     1      -0.934   4.925  12.252  1.00  0.00     0.040 C 
HETATM   18  C32 UNL     1      -0.583   5.985  13.321  1.00  0.00     0.070 C 
ENDROOT
BRANCH   1  19
HETATM   19  C10 UNL     1      -3.707   8.523  15.531  1.00  0.00     0.093 C 
HETATM   20  N2  UNL     1      -2.935   8.202  16.522  1.00  0.00    -0.312 N 
ATOM     21  H2  UNL     1      -2.493   7.285  16.579  1.00  0.00     0.185 HD
BRANCH  20  22
HETATM   22  N1  UNL     1      -2.742   9.156  17.490  1.00  0.00    -0.269 N 
HETATM   23  C9  UNL     1      -1.588   9.951  17.521  1.00  0.00     0.260 C 
HETATM   24  O2  UNL     1      -0.567   9.721  16.873  1.00  0.00    -0.269 OA
HETATM   25  H9  UNL     1      -3.610   9.615  17.756  1.00  0.00     0.190 HD
BRANCH  23  26
HETATM   26  C8  UNL     1      -1.731  11.143  18.477  1.00  0.00     0.280 C 
BRANCH  26  27
HETATM   27  O1  UNL     1      -2.454  12.249  17.964  1.00  0.00    -0.342 OA
BRANCH  27  28
HETATM   28  C7  UNL     1      -3.257  12.961  18.812  1.00  0.00     0.075 A 
HETATM   29  C2  UNL     1      -2.829  14.272  19.098  1.00  0.00    -0.027 A 
HETATM   30  C1  UNL     1      -1.575  14.824  18.475  1.00  0.00     0.051 C 
HETATM   31  C3  UNL     1      -3.594  15.080  19.953  1.00  0.00     0.033 A 
HETATM   32  C4  UNL     1      -4.761  14.585  20.525  1.00  0.00     0.034 A 
HETATM   33 CL1  UNL     1      -5.700  15.587  21.562  1.00  0.00    -0.084 Cl
HETATM   34  C5  UNL     1      -5.176  13.283  20.260  1.00  0.00     0.026 A 
HETATM   35  C6  UNL     1      -4.422  12.470  19.408  1.00  0.00     0.039 A 
ENDBRANCH  27  28
ENDBRANCH  26  27
ENDBRANCH  23  26
ENDBRANCH  20  22
ENDBRANCH   1  19
BRANCH   6  36
HETATM   36  O4  UNL     1      -5.171   5.398  13.878  1.00  0.00    -0.389 OA
HETATM   37  H19 UNL     1      -4.429   4.997  13.405  1.00  0.00     0.210 HD
ENDBRANCH   6  36
BRANCH   4  38
HETATM   38  O3  UNL     1      -7.788   6.502  14.287  1.00  0.00    -0.395 OA
HETATM   39  H16 UNL     1      -8.501   7.047  13.916  1.00  0.00     0.210 HD
ENDBRANCH   4  38
BRANCH  18  40
HETATM   40  O7  UNL     1       0.452   5.431  14.146  1.00  0.00    -0.389 OA
HETATM   41  H41 UNL     1       0.161   4.571  14.490  1.00  0.00     0.210 HD
ENDBRANCH  18  40
BRANCH  15  42
HETATM   42  C26 UNL     1       0.543   7.542   9.956  1.00  0.00    -0.045 A 
HETATM   43  C27 UNL     1       1.812   7.317   9.613  1.00  0.00     0.087 A 
HETATM   44  C28 UNL     1       2.127   8.196   8.488  1.00  0.00     0.283 A 
HETATM   45  O5  UNL     1       3.209   8.257   7.935  1.00  0.00    -0.260 OA
HETATM   46  O6  UNL     1       1.021   8.915   8.166  1.00  0.00    -0.314 OA
HETATM   47  C29 UNL     1      -0.035   8.580   9.066  1.00  0.00     0.213 A 
ENDBRANCH  15  42
TORSDOF 9
ENDMDL
MODEL 2
REMARK minimizedAffinity -9.6418438
REMARK CNNscore 0.406759232
REMARK CNNaffinity 6.85851717
REMARK  9 active torsions:
REMARK  status: ('A' for Active; 'I' for Inactive)
REMARK    1  A    between atoms: C7_8  and  O1_9 
REMARK    2  A    between atoms: O1_9  and  C8_10 
REMARK    3  A    between atoms: C8_10  and  C9_11 
REMARK       I    between atoms: C9_11  and  N1_13 
REMARK    4  A    between atoms: N1_13  and  N2_14 
REMARK    5  A    between atoms: C10_16  and  C11_17 
REMARK    6  A    between atoms: C14_20  and  O3_21 
REMARK    7  A    between atoms: C16_23  and  O4_24 
REMARK    8  A    between atoms: C25_33  and  C26_34 
REMARK    9  A    between atoms: C32_42  and  O7_43 
ROOT
HETATM    1  C11 UNL     1      -4.032   7.534  14.390  1.00  0.00     0.028 C 
HETATM    2  C12 UNL     1      -5.157   8.183  13.529  1.00  0.00     0.021 C 
HETATM    3  C13 UNL     1      -6.438   8.459  14.333  1.00  0.00     0.033 C 
HETATM    4  C14 UNL     1      -6.956   7.257  15.122  1.00  0.00     0.121 C 
HETATM    5  C15 UNL     1      -5.852   6.466  15.842  1.00  0.00     0.070 C 
HETATM    6  C16 UNL     1      -4.598   6.204  14.977  1.00  0.00     0.073 C 
HETATM    7  C17 UNL     1      -3.549   5.398  15.758  1.00  0.00     0.039 C 
HETATM    8  C18 UNL     1      -2.264   5.155  14.962  1.00  0.00     0.011 C 
HETATM    9  C19 UNL     1      -1.680   6.413  14.276  1.00  0.00     0.026 C 
HETATM   10  C20 UNL     1      -2.756   7.245  13.521  1.00  0.00     0.009 C 
HETATM   11  C21 UNL     1      -2.157   8.521  12.885  1.00  0.00     0.007 C 
HETATM   12  C22 UNL     1      -0.635   8.596  12.932  1.00  0.00     0.013 C 
HETATM   13  C23 UNL     1       0.093   7.297  12.534  1.00  0.00    -0.005 C 
HETATM   14  C24 UNL     1       1.606   7.533  12.790  1.00  0.00     0.019 C 
HETATM   15  C25 UNL     1      -0.155   6.889  11.040  1.00  0.00     0.028 C 
HETATM   16  C30 UNL     1       0.014   5.364  11.075  1.00  0.00     0.013 C 
HETATM   17  C31 UNL     1      -0.772   4.969  12.313  1.00  0.00     0.040 C 
HETATM   18  C32 UNL     1      -0.461   6.064  13.359  1.00  0.00     0.070 C 
ENDROOT
BRANCH   1  19
HETATM   19  C10 UNL     1      -3.677   8.562  15.481  1.00  0.00     0.093 C 
HETATM   20  N2  UNL     1      -2.883   8.296  16.470  1.00  0.00    -0.312 N 
ATOM     21  H2  UNL     1      -2.398   7.402  16.541  1.00  0.00     0.185 HD
BRANCH  20  22
HETATM   22  N1  UNL     1      -2.728   9.276  17.420  1.00  0.00    -0.269 N 
HETATM   23  C9  UNL     1      -2.027  10.459  17.149  1.00  0.00     0.260 C 
HETATM   24  O2  UNL     1      -1.301  10.629  16.172  1.00  0.00    -0.269 OA
HETATM   25  H9  UNL     1      -3.547   9.365  18.017  1.00  0.00     0.190 HD
BRANCH  23  26
HETATM   26  C8  UNL     1      -2.254  11.525  18.230  1.00  0.00     0.280 C 
BRANCH  26  27
HETATM   27  O1  UNL     1      -1.204  12.465  18.384  1.00  0.00    -0.342 OA
BRANCH  27  28
HETATM   28  C7  UNL     1      -0.197  12.186  19.266  1.00  0.00     0.075 A 
HETATM   29  C2  UNL     1       0.470  13.305  19.803  1.00  0.00    -0.027 A 
HETATM   30  C1  UNL     1       0.057  14.701  19.422  1.00  0.00     0.051 C 
HETATM   31  C3  UNL     1       1.514  13.116  20.722  1.00  0.00     0.033 A 
HETATM   32  C4  UNL     1       1.896  11.830  21.092  1.00  0.00     0.034 A 
HETATM   33 CL1  UNL     1       3.167  11.607  22.230  1.00  0.00    -0.084 Cl
HETATM   34  C5  UNL     1       1.252  10.722  20.549  1.00  0.00     0.026 A 
HETATM   35  C6  UNL     1       0.210  10.900  19.633  1.00  0.00     0.039 A 
ENDBRANCH  27  28
ENDBRANCH  26  27
ENDBRANCH  23  26
ENDBRANCH  20  22
ENDBRANCH   1  19
BRANCH   6  36
HETATM   36  O4  UNL     1      -5.035   5.357  13.892  1.00  0.00    -0.389 OA
HETATM   37  H19 UNL     1      -4.277   4.966  13.435  1.00  0.00     0.210 HD
ENDBRANCH   6  36
BRANCH   4  38
HETATM   38  O3  UNL     1      -7.687   6.394  14.252  1.00  0.00    -0.395 OA
HETATM   39  H16 UNL     1      -8.411   6.909  13.862  1.00  0.00     0.210 HD
ENDBRANCH   4  38
BRANCH  18  40
HETATM   40  O7  UNL     1       0.582   5.560  14.206  1.00  0.00    -0.389 OA
HETATM   41  H41 UNL     1       0.313   4.701  14.568  1.00  0.00     0.210 HD
ENDBRANCH  18  40
BRANCH  15  42
HETATM   42  C26 UNL     1       0.650   7.572   9.967  1.00  0.00    -0.045 A 
HETATM   43  C27 UNL     1       1.914   7.344   9.610  1.00  0.00     0.087 A 
HETATM   44  C28 UNL     1       2.218   8.222   8.481  1.00  0.00     0.283 A 
HETATM   45  O5  UNL     1       3.295   8.281   7.916  1.00  0.00    -0.260 OA
HETATM   46  O6  UNL     1       1.110   8.942   8.170  1.00  0.00    -0.314 OA
HETATM   47  C29 UNL     1       0.064   8.610   9.082  1.00  0.00     0.213 A 
ENDBRANCH  15  42
TORSDOF 9
ENDMDL
MODEL 3
REMARK minimizedAffinity -9.56674099
REMARK CNNscore 0.382422477
REMARK CNNaffinity 6.61451197
REMARK  9 active torsions:
REMARK  status: ('A' for Active; 'I' for Inactive)
REMARK    1  A    between atoms: C7_8  and  O1_9 
REMARK    2  A    between atoms: O1_9  and  C8_10 
REMARK    3  A    between atoms: C8_10  and  C9_11 
REMARK       I    between atoms: C9_11  and  N1_13 
REMARK    4  A    between atoms: N1_13  and  N2_14 
REMARK    5  A    between atoms: C10_16  and  C11_17 
REMARK    6  A    between atoms: C14_20  and  O3_21 
REMARK    7  A    between atoms: C16_23  and  O4_24 
REMARK    8  A    between atoms: C25_33  and  C26_34 
REMARK    9  A    between atoms: C32_42  and  O7_43 
ROOT
HETATM    1  C11 UNL     1      -2.158   8.909  15.608  1.00  0.00     0.028 C 
HETATM    2  C12 UNL     1      -2.439   7.463  16.114  1.00  0.00     0.021 C 
HETATM    3  C13 UNL     1      -3.368   6.673  15.177  1.00  0.00     0.033 C 
HETATM    4  C14 UNL     1      -4.661   7.404  14.813  1.00  0.00     0.121 C 
HETATM    5  C15 UNL     1      -4.460   8.892  14.486  1.00  0.00     0.070 C 
HETATM    6  C16 UNL     1      -3.532   9.635  15.474  1.00  0.00     0.073 C 
HETATM    7  C17 UNL     1      -3.393  11.117  15.091  1.00  0.00     0.039 C 
HETATM    8  C18 UNL     1      -2.442  11.887  16.010  1.00  0.00     0.011 C 
HETATM    9  C19 UNL     1      -1.082  11.193  16.263  1.00  0.00     0.026 C 
HETATM   10  C20 UNL     1      -1.229   9.684  16.610  1.00  0.00     0.009 C 
HETATM   11  C21 UNL     1       0.144   9.002  16.812  1.00  0.00     0.007 C 
HETATM   12  C22 UNL     1       1.328   9.963  16.848  1.00  0.00     0.013 C 
HETATM   13  C23 UNL     1       1.119  11.219  17.716  1.00  0.00    -0.005 C 
HETATM   14  C24 UNL     1       2.361  12.125  17.502  1.00  0.00     0.019 C 
HETATM   15  C25 UNL     1       0.937  10.887  19.239  1.00  0.00     0.028 C 
HETATM   16  C30 UNL     1       0.089  12.064  19.739  1.00  0.00     0.013 C 
HETATM   17  C31 UNL     1      -0.971  12.195  18.660  1.00  0.00     0.040 C 
HETATM   18  C32 UNL     1      -0.226  11.957  17.326  1.00  0.00     0.070 C 
ENDROOT
BRANCH   1  19
HETATM   19  C10 UNL     1      -1.429   8.759  14.259  1.00  0.00     0.093 C 
HETATM   20  N2  UNL     1      -0.953   7.631  13.836  1.00  0.00    -0.312 N 
ATOM     21  H2  UNL     1      -1.097   6.763  14.352  1.00  0.00     0.185 HD
BRANCH  20  22
HETATM   22  N1  UNL     1      -0.245   7.660  12.659  1.00  0.00    -0.269 N 
HETATM   23  C9  UNL     1      -0.563   8.558  11.631  1.00  0.00     0.260 C 
HETATM   24  O2  UNL     1      -1.608   9.204  11.570  1.00  0.00    -0.269 OA
HETATM   25  H9  UNL     1       0.745   7.472  12.802  1.00  0.00     0.190 HD
BRANCH  23  26
HETATM   26  C8  UNL     1       0.539   8.631  10.566  1.00  0.00     0.280 C 
BRANCH  26  27
HETATM   27  O1  UNL     1       0.458   7.656   9.540  1.00  0.00    -0.342 OA
BRANCH  27  28
HETATM   28  C7  UNL     1       1.400   6.666   9.499  1.00  0.00     0.075 A 
HETATM   29  C2  UNL     1       2.092   6.534   8.278  1.00  0.00    -0.027 A 
HETATM   30  C1  UNL     1       1.799   7.456   7.126  1.00  0.00     0.051 C 
HETATM   31  C3  UNL     1       3.083   5.549   8.145  1.00  0.00     0.033 A 
HETATM   32  C4  UNL     1       3.372   4.699   9.208  1.00  0.00     0.034 A 
HETATM   33 CL1  UNL     1       4.597   3.503   9.041  1.00  0.00    -0.084 Cl
HETATM   34  C5  UNL     1       2.676   4.814  10.409  1.00  0.00     0.026 A 
HETATM   35  C6  UNL     1       1.689   5.793  10.552  1.00  0.00     0.039 A 
ENDBRANCH  27  28
ENDBRANCH  26  27
ENDBRANCH  23  26
ENDBRANCH  20  22
ENDBRANCH   1  19
BRANCH   6  36
HETATM   36  O4  UNL     1      -4.207   9.607  16.749  1.00  0.00    -0.389 OA
HETATM   37  H19 UNL     1      -3.806  10.237  17.364  1.00  0.00     0.210 HD
ENDBRANCH   6  36
BRANCH   4  38
HETATM   38  O3  UNL     1      -5.605   7.260  15.872  1.00  0.00    -0.395 OA
HETATM   39  H16 UNL     1      -5.754   6.310  16.011  1.00  0.00     0.210 HD
ENDBRANCH   4  38
BRANCH  18  40
HETATM   40  O7  UNL     1       0.089  13.245  16.779  1.00  0.00    -0.389 OA
HETATM   41  H41 UNL     1      -0.724  13.773  16.714  1.00  0.00     0.210 HD
ENDBRANCH  18  40
BRANCH  15  42
HETATM   42  C26 UNL     1       2.165  10.619  20.067  1.00  0.00    -0.045 A 
HETATM   43  C27 UNL     1       2.275   9.871  21.165  1.00  0.00     0.087 A 
HETATM   44  C28 UNL     1       3.682   9.877  21.563  1.00  0.00     0.283 A 
HETATM   45  O5  UNL     1       4.132   9.301  22.537  1.00  0.00    -0.260 OA
HETATM   46  O6  UNL     1       4.390  10.614  20.670  1.00  0.00    -0.314 OA
HETATM   47  C29 UNL     1       3.499  11.147  19.691  1.00  0.00     0.213 A 
ENDBRANCH  15  42
TORSDOF 9
ENDMDL
MODEL 4
REMARK minimizedAffinity -7.41774845
REMARK CNNscore 0.381728768
REMARK CNNaffinity 5.7453599
REMARK  9 active torsions:
REMARK  status: ('A' for Active; 'I' for Inactive)
REMARK    1  A    between atoms: C7_8  and  O1_9 
REMARK    2  A    between atoms: O1_9  and  C8_10 
REMARK    3  A    between atoms: C8_10  and  C9_11 
REMARK       I    between atoms: C9_11  and  N1_13 
REMARK    4  A    between atoms: N1_13  and  N2_14 
REMARK    5  A    between atoms: C10_16  and  C11_17 
REMARK    6  A    between atoms: C14_20  and  O3_21 
REMARK    7  A    between atoms: C16_23  and  O4_24 
REMARK    8  A    between atoms: C25_33  and  C26_34 
REMARK    9  A    between atoms: C32_42  and  O7_43 
ROOT
HETATM    1  C11 UNL     1     -16.898   0.355  13.456  1.00  0.00     0.028 C 
HETATM    2  C12 UNL     1     -15.710   0.016  12.506  1.00  0.00     0.021 C 
HETATM    3  C13 UNL     1     -15.601  -1.487  12.201  1.00  0.00     0.033 C 
HETATM    4  C14 UNL     1     -15.602  -2.381  13.441  1.00  0.00     0.121 C 
HETATM    5  C15 UNL     1     -16.638  -1.970  14.500  1.00  0.00     0.070 C 
HETATM    6  C16 UNL     1     -16.687  -0.449  14.776  1.00  0.00     0.073 C 
HETATM    7  C17 UNL     1     -17.732  -0.119  15.853  1.00  0.00     0.039 C 
HETATM    8  C18 UNL     1     -17.857   1.382  16.128  1.00  0.00     0.011 C 
HETATM    9  C19 UNL     1     -17.987   2.262  14.862  1.00  0.00     0.026 C 
HETATM   10  C20 UNL     1     -16.952   1.895  13.760  1.00  0.00     0.009 C 
HETATM   11  C21 UNL     1     -17.133   2.756  12.489  1.00  0.00     0.007 C 
HETATM   12  C22 UNL     1     -18.116   3.911  12.642  1.00  0.00     0.013 C 
HETATM   13  C23 UNL     1     -17.957   4.733  13.937  1.00  0.00    -0.005 C 
HETATM   14  C24 UNL     1     -19.129   5.750  13.971  1.00  0.00     0.019 C 
HETATM   15  C25 UNL     1     -16.579   5.478  14.024  1.00  0.00     0.028 C 
HETATM   16  C30 UNL     1     -16.355   5.593  15.537  1.00  0.00     0.013 C 
HETATM   17  C31 UNL     1     -16.720   4.206  16.036  1.00  0.00     0.040 C 
HETATM   18  C32 UNL     1     -17.956   3.788  15.207  1.00  0.00     0.070 C 
ENDROOT
BRANCH   1  19
HETATM   19  C10 UNL     1     -18.180  -0.056  12.706  1.00  0.00     0.093 C 
HETATM   20  N2  UNL     1     -18.313   0.056  11.422  1.00  0.00    -0.312 N 
ATOM     21  H2  UNL     1     -17.542   0.364  10.830  1.00  0.00     0.185 HD
BRANCH  20  22
HETATM   22  N1  UNL     1     -19.542  -0.261  10.898  1.00  0.00    -0.269 N 
HETATM   23  C9  UNL     1     -20.403   0.724  10.393  1.00  0.00     0.260 C 
HETATM   24  O2  UNL     1     -20.267   1.931  10.585  1.00  0.00    -0.269 OA
HETATM   25  H9  UNL     1     -19.530  -1.146  10.397  1.00  0.00     0.190 HD
BRANCH  23  26
HETATM   26  C8  UNL     1     -21.557   0.122   9.581  1.00  0.00     0.280 C 
BRANCH  26  27
HETATM   27  O1  UNL     1     -22.365   1.058   8.889  1.00  0.00    -0.342 OA
BRANCH  27  28
HETATM   28  C7  UNL     1     -22.128   1.276   7.560  1.00  0.00     0.075 A 
HETATM   29  C2  UNL     1     -23.168   0.903   6.686  1.00  0.00    -0.027 A 
HETATM   30  C1  UNL     1     -24.450   0.325   7.220  1.00  0.00     0.051 C 
HETATM   31  C3  UNL     1     -23.016   1.097   5.304  1.00  0.00     0.033 A 
HETATM   32  C4  UNL     1     -21.840   1.643   4.799  1.00  0.00     0.034 A 
HETATM   33 CL1  UNL     1     -21.667   1.889   3.105  1.00  0.00    -0.084 Cl
HETATM   34  C5  UNL     1     -20.803   1.994   5.659  1.00  0.00     0.026 A 
HETATM   35  C6  UNL     1     -20.945   1.807   7.037  1.00  0.00     0.039 A 
ENDBRANCH  27  28
ENDBRANCH  26  27
ENDBRANCH  23  26
ENDBRANCH  20  22
ENDBRANCH   1  19
BRANCH   6  36
HETATM   36  O4  UNL     1     -15.403  -0.106  15.338  1.00  0.00    -0.389 OA
HETATM   37  H19 UNL     1     -15.428   0.772  15.743  1.00  0.00     0.210 HD
ENDBRANCH   6  36
BRANCH   4  38
HETATM   38  O3  UNL     1     -14.297  -2.401  14.016  1.00  0.00    -0.395 OA
HETATM   39  H16 UNL     1     -13.679  -2.723  13.340  1.00  0.00     0.210 HD
ENDBRANCH   4  38
BRANCH  18  40
HETATM   40  O7  UNL     1     -19.117   4.072  16.002  1.00  0.00    -0.389 OA
HETATM   41  H41 UNL     1     -19.027   3.638  16.866  1.00  0.00     0.210 HD
ENDBRANCH  18  40
BRANCH  15  42
HETATM   42  C26 UNL     1     -16.417   6.776  13.277  1.00  0.00    -0.045 A 
HETATM   43  C27 UNL     1     -16.293   6.964  11.963  1.00  0.00     0.087 A 
HETATM   44  C28 UNL     1     -16.223   8.405  11.730  1.00  0.00     0.283 A 
HETATM   45  O5  UNL     1     -16.094   8.928  10.638  1.00  0.00    -0.260 OA
HETATM   46  O6  UNL     1     -16.336   9.052  12.918  1.00  0.00    -0.314 OA
HETATM   47  C29 UNL     1     -16.441   8.089  13.967  1.00  0.00     0.213 A 
ENDBRANCH  15  42
TORSDOF 9
ENDMDL
MODEL 5
REMARK minimizedAffinity -7.55681133
REMARK CNNscore 0.356223434
REMARK CNNaffinity 5.94514513
REMARK  9 active torsions:
REMARK  status: ('A' for Active; 'I' for Inactive)
REMARK    1  A    between atoms: C7_8  and  O1_9 
REMARK    2  A    between atoms: O1_9  and  C8_10 
REMARK    3  A    between atoms: C8_10  and  C9_11 
REMARK       I    between atoms: C9_11  and  N1_13 
REMARK    4  A    between atoms: N1_13  and  N2_14 
REMARK    5  A    between atoms: C10_16  and  C11_17 
REMARK    6  A    between atoms: C14_20  and  O3_21 
REMARK    7  A    between atoms: C16_23  and  O4_24 
REMARK    8  A    between atoms: C25_33  and  C26_34 
REMARK    9  A    between atoms: C32_42  and  O7_43 
ROOT
HETATM    1  C11 UNL     1      -3.197  11.830  17.399  1.00  0.00     0.028 C 
HETATM    2  C12 UNL     1      -3.271  10.303  17.699  1.00  0.00     0.021 C 
HETATM    3  C13 UNL     1      -2.123   9.511  17.053  1.00  0.00     0.033 C 
HETATM    4  C14 UNL     1      -1.936   9.783  15.560  1.00  0.00     0.121 C 
HETATM    5  C15 UNL     1      -2.043  11.269  15.182  1.00  0.00     0.070 C 
HETATM    6  C16 UNL     1      -3.227  12.006  15.849  1.00  0.00     0.073 C 
HETATM    7  C17 UNL     1      -3.276  13.478  15.412  1.00  0.00     0.039 C 
HETATM    8  C18 UNL     1      -4.402  14.266  16.085  1.00  0.00     0.011 C 
HETATM    9  C19 UNL     1      -4.494  14.082  17.619  1.00  0.00     0.026 C 
HETATM   10  C20 UNL     1      -4.403  12.591  18.055  1.00  0.00     0.009 C 
HETATM   11  C21 UNL     1      -4.450  12.437  19.593  1.00  0.00     0.007 C 
HETATM   12  C22 UNL     1      -4.790  13.718  20.347  1.00  0.00     0.013 C 
HETATM   13  C23 UNL     1      -5.966  14.524  19.763  1.00  0.00    -0.005 C 
HETATM   14  C24 UNL     1      -6.051  15.846  20.572  1.00  0.00     0.019 C 
HETATM   15  C25 UNL     1      -7.330  13.751  19.827  1.00  0.00     0.028 C 
HETATM   16  C30 UNL     1      -8.111  14.350  18.650  1.00  0.00     0.013 C 
HETATM   17  C31 UNL     1      -7.078  14.367  17.537  1.00  0.00     0.040 C 
HETATM   18  C32 UNL     1      -5.755  14.790  18.216  1.00  0.00     0.070 C 
ENDROOT
BRANCH   1  19
HETATM   19  C10 UNL     1      -1.883  12.330  18.029  1.00  0.00     0.093 C 
HETATM   20  N2  UNL     1      -1.216  11.647  18.906  1.00  0.00    -0.312 N 
ATOM     21  H2  UNL     1      -1.498  10.705  19.176  1.00  0.00     0.185 HD
BRANCH  20  22
HETATM   22  N1  UNL     1      -0.112  12.253  19.454  1.00  0.00    -0.269 N 
HETATM   23  C9  UNL     1       0.859  11.521  20.151  1.00  0.00     0.260 C 
HETATM   24  O2  UNL     1       0.711  10.365  20.544  1.00  0.00    -0.269 OA
HETATM   25  H9  UNL     1       0.229  13.021  18.880  1.00  0.00     0.190 HD
BRANCH  23  26
HETATM   26  C8  UNL     1       2.137  12.338  20.389  1.00  0.00     0.280 C 
BRANCH  26  27
HETATM   27  O1  UNL     1       3.288  11.580  20.719  1.00  0.00    -0.342 OA
BRANCH  27  28
HETATM   28  C7  UNL     1       4.351  12.217  21.297  1.00  0.00     0.075 A 
HETATM   29  C2  UNL     1       4.901  11.580  22.427  1.00  0.00    -0.027 A 
HETATM   30  C1  UNL     1       4.341  10.275  22.923  1.00  0.00     0.051 C 
HETATM   31  C3  UNL     1       6.000  12.158  23.082  1.00  0.00     0.033 A 
HETATM   32  C4  UNL     1       6.536  13.358  22.625  1.00  0.00     0.034 A 
HETATM   33 CL1  UNL     1       7.891  14.052  23.426  1.00  0.00    -0.084 Cl
HETATM   34  C5  UNL     1       5.982  13.999  21.521  1.00  0.00     0.026 A 
HETATM   35  C6  UNL     1       4.888  13.431  20.861  1.00  0.00     0.039 A 
ENDBRANCH  27  28
ENDBRANCH  26  27
ENDBRANCH  23  26
ENDBRANCH  20  22
ENDBRANCH   1  19
BRANCH   6  36
HETATM   36  O4  UNL     1      -4.422  11.387  15.327  1.00  0.00    -0.389 OA
HETATM   37  H19 UNL     1      -5.200  11.930  15.517  1.00  0.00     0.210 HD
ENDBRANCH   6  36
BRANCH   4  38
HETATM   38  O3  UNL     1      -2.883   9.020  14.814  1.00  0.00    -0.395 OA
HETATM   39  H16 UNL     1      -2.748   8.084  15.030  1.00  0.00     0.210 HD
ENDBRANCH   4  38
BRANCH  18  40
HETATM   40  O7  UNL     1      -5.597  16.200  18.001  1.00  0.00    -0.389 OA
HETATM   41  H41 UNL     1      -5.657  16.387  17.050  1.00  0.00     0.210 HD
ENDBRANCH  18  40
BRANCH  15  42
HETATM   42  C26 UNL     1      -8.089  13.742  21.128  1.00  0.00    -0.045 A 
HETATM   43  C27 UNL     1      -7.790  13.094  22.254  1.00  0.00     0.087 A 
HETATM   44  C28 UNL     1      -8.801  13.452  23.248  1.00  0.00     0.283 A 
HETATM   45  O5  UNL     1      -8.837  13.026  24.388  1.00  0.00    -0.260 OA
HETATM   46  O6  UNL     1      -9.673  14.334  22.695  1.00  0.00    -0.314 OA
HETATM   47  C29 UNL     1      -9.309  14.560  21.333  1.00  0.00     0.213 A 
ENDBRANCH  15  42
TORSDOF 9
ENDMDL
MODEL 6
REMARK minimizedAffinity -7.92970705
REMARK CNNscore 0.301766753
REMARK CNNaffinity 6.64243174
REMARK  9 active torsions:
REMARK  status: ('A' for Active; 'I' for Inactive)
REMARK    1  A    between atoms: C7_8  and  O1_9 
REMARK    2  A    between atoms: O1_9  and  C8_10 
REMARK    3  A    between atoms: C8_10  and  C9_11 
REMARK       I    between atoms: C9_11  and  N1_13 
REMARK    4  A    between atoms: N1_13  and  N2_14 
REMARK    5  A    between atoms: C10_16  and  C11_17 
REMARK    6  A    between atoms: C14_20  and  O3_21 
REMARK    7  A    between atoms: C16_23  and  O4_24 
REMARK    8  A    between atoms: C25_33  and  C26_34 
REMARK    9  A    between atoms: C32_42  and  O7_43 
ROOT
HETATM    1  C11 UNL     1     -11.284   9.263  14.432  1.00  0.00     0.028 C 
HETATM    2  C12 UNL     1     -11.155  10.813  14.343  1.00  0.00     0.021 C 
HETATM    3  C13 UNL     1     -12.519  11.523  14.290  1.00  0.00     0.033 C 
HETATM    4  C14 UNL     1     -13.470  10.975  13.226  1.00  0.00     0.121 C 
HETATM    5  C15 UNL     1     -13.492   9.440  13.145  1.00  0.00     0.070 C 
HETATM    6  C16 UNL     1     -12.091   8.787  13.184  1.00  0.00     0.073 C 
HETATM    7  C17 UNL     1     -12.194   7.257  13.084  1.00  0.00     0.039 C 
HETATM    8  C18 UNL     1     -10.835   6.558  13.170  1.00  0.00     0.011 C 
HETATM    9  C19 UNL     1      -9.936   7.033  14.336  1.00  0.00     0.026 C 
HETATM   10  C20 UNL     1      -9.869   8.583  14.456  1.00  0.00     0.009 C 
HETATM   11  C21 UNL     1      -9.003   9.031  15.655  1.00  0.00     0.007 C 
HETATM   12  C22 UNL     1      -8.227   7.906  16.332  1.00  0.00     0.013 C 
HETATM   13  C23 UNL     1      -7.510   6.941  15.368  1.00  0.00    -0.005 C 
HETATM   14  C24 UNL     1      -6.914   5.800  16.236  1.00  0.00     0.019 C 
HETATM   15  C25 UNL     1      -6.383   7.639  14.528  1.00  0.00     0.028 C 
HETATM   16  C30 UNL     1      -6.332   6.781  13.257  1.00  0.00     0.013 C 
HETATM   17  C31 UNL     1      -7.800   6.601  12.916  1.00  0.00     0.040 C 
HETATM   18  C32 UNL     1      -8.511   6.389  14.272  1.00  0.00     0.070 C 
ENDROOT
BRANCH   1  19
HETATM   19  C10 UNL     1     -12.009   8.966  15.759  1.00  0.00     0.093 C 
HETATM   20  N2  UNL     1     -13.103   8.274  15.826  1.00  0.00    -0.312 N 
ATOM     21  H2  UNL     1     -13.507   7.833  15.001  1.00  0.00     0.185 HD
BRANCH  20  22
HETATM   22  N1  UNL     1     -13.691   8.166  17.062  1.00  0.00    -0.269 N 
HETATM   23  C9  UNL     1     -14.833   8.905  17.401  1.00  0.00     0.260 C 
HETATM   24  O2  UNL     1     -15.258   9.863  16.758  1.00  0.00    -0.269 OA
HETATM   25  H9  UNL     1     -13.644   7.218  17.428  1.00  0.00     0.190 HD
BRANCH  23  26
HETATM   26  C8  UNL     1     -15.491   8.393  18.690  1.00  0.00     0.280 C 
BRANCH  26  27
HETATM   27  O1  UNL     1     -15.477   9.300  19.779  1.00  0.00    -0.342 OA
BRANCH  27  28
HETATM   28  C7  UNL     1     -14.370   9.350  20.580  1.00  0.00     0.075 A 
HETATM   29  C2  UNL     1     -14.293   8.356  21.575  1.00  0.00    -0.027 A 
HETATM   30  C1  UNL     1     -15.369   7.312  21.704  1.00  0.00     0.051 C 
HETATM   31  C3  UNL     1     -13.187   8.324  22.439  1.00  0.00     0.033 A 
HETATM   32  C4  UNL     1     -12.179   9.276  22.322  1.00  0.00     0.034 A 
HETATM   33 CL1  UNL     1     -10.820   9.221  23.376  1.00  0.00    -0.084 Cl
HETATM   34  C5  UNL     1     -12.262  10.271  21.352  1.00  0.00     0.026 A 
HETATM   35  C6  UNL     1     -13.358  10.310  20.485  1.00  0.00     0.039 A 
ENDBRANCH  27  28
ENDBRANCH  26  27
ENDBRANCH  23  26
ENDBRANCH  20  22
ENDBRANCH   1  19
BRANCH   6  36
HETATM   36  O4  UNL     1     -11.414   9.228  11.988  1.00  0.00    -0.389 OA
HETATM   37  H19 UNL     1     -10.625   8.693  11.823  1.00  0.00     0.210 HD
ENDBRANCH   6  36
BRANCH   4  38
HETATM   38  O3  UNL     1     -13.132  11.526  11.954  1.00  0.00    -0.395 OA
HETATM   39  H16 UNL     1     -13.187  12.493  12.025  1.00  0.00     0.210 HD
ENDBRANCH   4  38
BRANCH  18  40
HETATM   40  O7  UNL     1      -8.670   4.975  14.454  1.00  0.00    -0.389 OA
HETATM   41  H41 UNL     1      -9.126   4.603  13.681  1.00  0.00     0.210 HD
ENDBRANCH  18  40
BRANCH  15  42
HETATM   42  C26 UNL     1      -5.041   7.862  15.174  1.00  0.00    -0.045 A 
HETATM   43  C27 UNL     1      -3.982   7.052  15.180  1.00  0.00     0.087 A 
HETATM   44  C28 UNL     1      -2.905   7.743  15.888  1.00  0.00     0.283 A 
HETATM   45  O5  UNL     1      -1.796   7.281  16.089  1.00  0.00    -0.260 OA
HETATM   46  O6  UNL     1      -3.342   8.970  16.269  1.00  0.00    -0.314 OA
HETATM   47  C29 UNL     1      -4.705   9.126  15.875  1.00  0.00     0.213 A 
ENDBRANCH  15  42
TORSDOF 9
ENDMDL
MODEL 7
REMARK minimizedAffinity -7.64631462
REMARK CNNscore 0.272336751
REMARK CNNaffinity 6.10621405
REMARK  9 active torsions:
REMARK  status: ('A' for Active; 'I' for Inactive)
REMARK    1  A    between atoms: C7_8  and  O1_9 
REMARK    2  A    between atoms: O1_9  and  C8_10 
REMARK    3  A    between atoms: C8_10  and  C9_11 
REMARK       I    between atoms: C9_11  and  N1_13 
REMARK    4  A    between atoms: N1_13  and  N2_14 
REMARK    5  A    between atoms: C10_16  and  C11_17 
REMARK    6  A    between atoms: C14_20  and  O3_21 
REMARK    7  A    between atoms: C16_23  and  O4_24 
REMARK    8  A    between atoms: C25_33  and  C26_34 
REMARK    9  A    between atoms: C32_42  and  O7_43 
ROOT
HETATM    1  C11 UNL     1       4.059  15.970   0.484  1.00  0.00     0.028 C 
HETATM    2  C12 UNL     1       4.201  17.472   0.096  1.00  0.00     0.021 C 
HETATM    3  C13 UNL     1       5.543  17.788  -0.586  1.00  0.00     0.033 C 
HETATM    4  C14 UNL     1       6.768  17.285   0.177  1.00  0.00     0.121 C 
HETATM    5  C15 UNL     1       6.605  15.867   0.747  1.00  0.00     0.070 C 
HETATM    6  C16 UNL     1       5.244  15.617   1.436  1.00  0.00     0.073 C 
HETATM    7  C17 UNL     1       5.162  14.186   1.990  1.00  0.00     0.039 C 
HETATM    8  C18 UNL     1       3.812  13.871   2.639  1.00  0.00     0.011 C 
HETATM    9  C19 UNL     1       2.579  14.267   1.792  1.00  0.00     0.026 C 
HETATM   10  C20 UNL     1       2.688  15.702   1.200  1.00  0.00     0.009 C 
HETATM   11  C21 UNL     1       1.466  16.057   0.321  1.00  0.00     0.007 C 
HETATM   12  C22 UNL     1       0.326  15.047   0.384  1.00  0.00     0.013 C 
HETATM   13  C23 UNL     1      -0.042  14.570   1.802  1.00  0.00    -0.005 C 
HETATM   14  C24 UNL     1      -1.105  13.451   1.639  1.00  0.00     0.019 C 
HETATM   15  C25 UNL     1      -0.593  15.724   2.712  1.00  0.00     0.028 C 
HETATM   16  C30 UNL     1      -0.219  15.247   4.122  1.00  0.00     0.013 C 
HETATM   17  C31 UNL     1       1.213  14.775   3.947  1.00  0.00     0.040 C 
HETATM   18  C32 UNL     1       1.241  14.059   2.577  1.00  0.00     0.070 C 
ENDROOT
BRANCH   1  19
HETATM   19  C10 UNL     1       4.100  15.178  -0.838  1.00  0.00     0.093 C 
HETATM   20  N2  UNL     1       4.175  13.885  -0.883  1.00  0.00    -0.312 N 
ATOM     21  H2  UNL     1       4.145  13.318  -0.036  1.00  0.00     0.185 HD
BRANCH  20  22
HETATM   22  N1  UNL     1       4.299  13.316  -2.127  1.00  0.00    -0.269 N 
HETATM   23  C9  UNL     1       5.175  12.248  -2.364  1.00  0.00     0.260 C 
HETATM   24  O2  UNL     1       6.063  11.892  -1.591  1.00  0.00    -0.269 OA
HETATM   25  H9  UNL     1       3.413  13.290  -2.627  1.00  0.00     0.190 HD
BRANCH  23  26
HETATM   26  C8  UNL     1       4.915  11.577  -3.719  1.00  0.00     0.280 C 
BRANCH  26  27
HETATM   27  O1  UNL     1       4.929  12.445  -4.839  1.00  0.00    -0.342 OA
BRANCH  27  28
HETATM   28  C7  UNL     1       5.585  12.047  -5.971  1.00  0.00     0.075 A 
HETATM   29  C2  UNL     1       6.110  13.084  -6.767  1.00  0.00    -0.027 A 
HETATM   30  C1  UNL     1       5.957  14.522  -6.355  1.00  0.00     0.051 C 
HETATM   31  C3  UNL     1       6.807  12.769  -7.945  1.00  0.00     0.033 A 
HETATM   32  C4  UNL     1       6.966  11.442  -8.331  1.00  0.00     0.034 A 
HETATM   33 CL1  UNL     1       7.832  11.065  -9.769  1.00  0.00    -0.084 Cl
HETATM   34  C5  UNL     1       6.431  10.416  -7.556  1.00  0.00     0.026 A 
HETATM   35  C6  UNL     1       5.737  10.719  -6.381  1.00  0.00     0.039 A 
ENDBRANCH  27  28
ENDBRANCH  26  27
ENDBRANCH  23  26
ENDBRANCH  20  22
ENDBRANCH   1  19
BRANCH   6  36
HETATM   36  O4  UNL     1       5.210  16.498   2.578  1.00  0.00    -0.389 OA
HETATM   37  H19 UNL     1       4.499  16.247   3.184  1.00  0.00     0.210 HD
ENDBRANCH   6  36
BRANCH   4  38
HETATM   38  O3  UNL     1       7.085  18.199   1.226  1.00  0.00    -0.395 OA
HETATM   39  H16 UNL     1       7.241  19.069   0.825  1.00  0.00     0.210 HD
ENDBRANCH   4  38
BRANCH  18  40
HETATM   40  O7  UNL     1       1.106  12.652   2.828  1.00  0.00    -0.389 OA
HETATM   41  H41 UNL     1       1.790  12.373   3.459  1.00  0.00     0.210 HD
ENDBRANCH  18  40
BRANCH  15  42
HETATM   42  C26 UNL     1      -2.035  16.128   2.562  1.00  0.00    -0.045 A 
HETATM   43  C27 UNL     1      -3.004  16.091   3.478  1.00  0.00     0.087 A 
HETATM   44  C28 UNL     1      -4.211  16.643   2.864  1.00  0.00     0.283 A 
HETATM   45  O5  UNL     1      -5.289  16.745   3.419  1.00  0.00    -0.260 OA
HETATM   46  O6  UNL     1      -3.926  17.024   1.593  1.00  0.00    -0.314 OA
HETATM   47  C29 UNL     1      -2.563  16.712   1.304  1.00  0.00     0.213 A 
ENDBRANCH  15  42
TORSDOF 9
ENDMDL
MODEL 8
REMARK minimizedAffinity -8.88829994
REMARK CNNscore 0.212736964
REMARK CNNaffinity 6.64465714
REMARK  9 active torsions:
REMARK  status: ('A' for Active; 'I' for Inactive)
REMARK    1  A    between atoms: C7_8  and  O1_9 
REMARK    2  A    between atoms: O1_9  and  C8_10 
REMARK    3  A    between atoms: C8_10  and  C9_11 
REMARK       I    between atoms: C9_11  and  N1_13 
REMARK    4  A    between atoms: N1_13  and  N2_14 
REMARK    5  A    between atoms: C10_16  and  C11_17 
REMARK    6  A    between atoms: C14_20  and  O3_21 
REMARK    7  A    between atoms: C16_23  and  O4_24 
REMARK    8  A    between atoms: C25_33  and  C26_34 
REMARK    9  A    between atoms: C32_42  and  O7_43 
ROOT
HETATM    1  C11 UNL     1     -10.366   9.538  15.106  1.00  0.00     0.028 C 
HETATM    2  C12 UNL     1     -10.176  10.987  14.566  1.00  0.00     0.021 C 
HETATM    3  C13 UNL     1     -11.367  11.904  14.889  1.00  0.00     0.033 C 
HETATM    4  C14 UNL     1     -12.728  11.329  14.494  1.00  0.00     0.121 C 
HETATM    5  C15 UNL     1     -12.895   9.840  14.839  1.00  0.00     0.070 C 
HETATM    6  C16 UNL     1     -11.673   8.967  14.473  1.00  0.00     0.073 C 
HETATM    7  C17 UNL     1     -11.921   7.495  14.834  1.00  0.00     0.039 C 
HETATM    8  C18 UNL     1     -10.719   6.594  14.538  1.00  0.00     0.011 C 
HETATM    9  C19 UNL     1      -9.365   7.130  15.062  1.00  0.00     0.026 C 
HETATM   10  C20 UNL     1      -9.139   8.633  14.729  1.00  0.00     0.009 C 
HETATM   11  C21 UNL     1      -7.802   9.156  15.303  1.00  0.00     0.007 C 
HETATM   12  C22 UNL     1      -6.892   8.074  15.874  1.00  0.00     0.013 C 
HETATM   13  C23 UNL     1      -6.746   6.817  14.995  1.00  0.00    -0.005 C 
HETATM   14  C24 UNL     1      -5.914   5.792  15.811  1.00  0.00     0.019 C 
HETATM   15  C25 UNL     1      -6.058   7.110  13.616  1.00  0.00     0.028 C 
HETATM   16  C30 UNL     1      -6.636   6.013  12.712  1.00  0.00     0.013 C 
HETATM   17  C31 UNL     1      -8.113   6.035  13.062  1.00  0.00     0.040 C 
HETATM   18  C32 UNL     1      -8.166   6.241  14.594  1.00  0.00     0.070 C 
ENDROOT
BRANCH   1  19
HETATM   19  C10 UNL     1     -10.450   9.658  16.640  1.00  0.00     0.093 C 
HETATM   20  N2  UNL     1     -11.048   8.782  17.385  1.00  0.00    -0.312 N 
ATOM     21  H2  UNL     1     -11.441   7.926  16.993  1.00  0.00     0.185 HD
BRANCH  20  22
HETATM   22  N1  UNL     1     -11.128   9.062  18.727  1.00  0.00    -0.269 N 
HETATM   23  C9  UNL     1     -12.359   9.116  19.396  1.00  0.00     0.260 C 
HETATM   24  O2  UNL     1     -13.453   9.166  18.836  1.00  0.00    -0.269 OA
HETATM   25  H9  UNL     1     -10.350   8.666  19.249  1.00  0.00     0.190 HD
BRANCH  23  26
HETATM   26  C8  UNL     1     -12.188   9.124  20.921  1.00  0.00     0.280 C 
BRANCH  26  27
HETATM   27  O1  UNL     1     -13.336   8.750  21.662  1.00  0.00    -0.342 OA
BRANCH  27  28
HETATM   28  C7  UNL     1     -13.525   7.428  21.958  1.00  0.00     0.075 A 
HETATM   29  C2  UNL     1     -13.145   7.034  23.256  1.00  0.00    -0.027 A 
HETATM   30  C1  UNL     1     -12.590   8.037  24.232  1.00  0.00     0.051 C 
HETATM   31  C3  UNL     1     -13.310   5.698  23.652  1.00  0.00     0.033 A 
HETATM   32  C4  UNL     1     -13.834   4.764  22.763  1.00  0.00     0.034 A 
HETATM   33 CL1  UNL     1     -14.045   3.131  23.261  1.00  0.00    -0.084 Cl
HETATM   34  C5  UNL     1     -14.192   5.146  21.473  1.00  0.00     0.026 A 
HETATM   35  C6  UNL     1     -14.034   6.475  21.070  1.00  0.00     0.039 A 
ENDBRANCH  27  28
ENDBRANCH  26  27
ENDBRANCH  23  26
ENDBRANCH  20  22
ENDBRANCH   1  19
BRANCH   6  36
HETATM   36  O4  UNL     1     -11.563   9.021  13.035  1.00  0.00    -0.389 OA
HETATM   37  H19 UNL     1     -10.969   8.330  12.710  1.00  0.00     0.210 HD
ENDBRANCH   6  36
BRANCH   4  38
HETATM   38  O3  UNL     1     -12.946  11.535  13.099  1.00  0.00    -0.395 OA
HETATM   39  H16 UNL     1     -12.894  12.489  12.927  1.00  0.00     0.210 HD
ENDBRANCH   4  38
BRANCH  18  40
HETATM   40  O7  UNL     1      -8.331   4.947  15.192  1.00  0.00    -0.389 OA
HETATM   41  H41 UNL     1      -9.107   4.511  14.803  1.00  0.00     0.210 HD
ENDBRANCH  18  40
BRANCH  15  42
HETATM   42  C26 UNL     1      -4.557   7.216  13.572  1.00  0.00    -0.045 A 
HETATM   43  C27 UNL     1      -3.677   6.315  13.134  1.00  0.00     0.087 A 
HETATM   44  C28 UNL     1      -2.346   6.910  13.243  1.00  0.00     0.283 A 
HETATM   45  O5  UNL     1      -1.308   6.352  12.940  1.00  0.00    -0.260 OA
HETATM   46  O6  UNL     1      -2.465   8.174  13.724  1.00  0.00    -0.314 OA
HETATM   47  C29 UNL     1      -3.842   8.449  13.985  1.00  0.00     0.213 A 
ENDBRANCH  15  42
TORSDOF 9
ENDMDL
MODEL 9
REMARK minimizedAffinity -7.39517546
REMARK CNNscore 0.20967105
REMARK CNNaffinity 5.82444143
REMARK  9 active torsions:
REMARK  status: ('A' for Active; 'I' for Inactive)
REMARK    1  A    between atoms: C7_8  and  O1_9 
REMARK    2  A    between atoms: O1_9  and  C8_10 
REMARK    3  A    between atoms: C8_10  and  C9_11 
REMARK       I    between atoms: C9_11  and  N1_13 
REMARK    4  A    between atoms: N1_13  and  N2_14 
REMARK    5  A    between atoms: C10_16  and  C11_17 
REMARK    6  A    between atoms: C14_20  and  O3_21 
REMARK    7  A    between atoms: C16_23  and  O4_24 
REMARK    8  A    between atoms: C25_33  and  C26_34 
REMARK    9  A    between atoms: C32_42  and  O7_43 
ROOT
HETATM    1  C11 UNL     1      -1.906  10.235  16.454  1.00  0.00     0.028 C 
HETATM    2  C12 UNL     1      -2.791   8.954  16.399  1.00  0.00     0.021 C 
HETATM    3  C13 UNL     1      -1.991   7.691  16.039  1.00  0.00     0.033 C 
HETATM    4  C14 UNL     1      -1.125   7.833  14.787  1.00  0.00     0.121 C 
HETATM    5  C15 UNL     1      -0.372   9.170  14.702  1.00  0.00     0.070 C 
HETATM    6  C16 UNL     1      -1.234  10.403  15.057  1.00  0.00     0.073 C 
HETATM    7  C17 UNL     1      -0.417  11.699  14.934  1.00  0.00     0.039 C 
HETATM    8  C18 UNL     1      -1.213  12.947  15.325  1.00  0.00     0.011 C 
HETATM    9  C19 UNL     1      -1.979  12.834  16.664  1.00  0.00     0.026 C 
HETATM   10  C20 UNL     1      -2.770  11.501  16.797  1.00  0.00     0.009 C 
HETATM   11  C21 UNL     1      -3.489  11.390  18.162  1.00  0.00     0.007 C 
HETATM   12  C22 UNL     1      -3.463  12.667  18.995  1.00  0.00     0.013 C 
HETATM   13  C23 UNL     1      -3.791  13.957  18.218  1.00  0.00    -0.005 C 
HETATM   14  C24 UNL     1      -3.567  15.141  19.197  1.00  0.00     0.019 C 
HETATM   15  C25 UNL     1      -5.256  13.978  17.655  1.00  0.00     0.028 C 
HETATM   16  C30 UNL     1      -5.130  14.890  16.428  1.00  0.00     0.013 C 
HETATM   17  C31 UNL     1      -3.862  14.384  15.763  1.00  0.00     0.040 C 
HETATM   18  C32 UNL     1      -2.887  14.081  16.924  1.00  0.00     0.070 C 
ENDROOT
BRANCH   1  19
HETATM   19  C10 UNL     1      -0.883  10.003  17.583  1.00  0.00     0.093 C 
HETATM   20  N2  UNL     1       0.188  10.720  17.724  1.00  0.00    -0.312 N 
ATOM     21  H2  UNL     1       0.375  11.524  17.125  1.00  0.00     0.185 HD
BRANCH  20  22
HETATM   22  N1  UNL     1       1.059  10.343  18.717  1.00  0.00    -0.269 N 
HETATM   23  C9  UNL     1       1.084  10.993  19.958  1.00  0.00     0.260 C 
HETATM   24  O2  UNL     1       0.539  12.070  20.191  1.00  0.00    -0.269 OA
HETATM   25  H9  UNL     1       1.212   9.337  18.732  1.00  0.00     0.190 HD
BRANCH  23  26
HETATM   26  C8  UNL     1       1.893  10.212  21.003  1.00  0.00     0.280 C 
BRANCH  26  27
HETATM   27  O1  UNL     1       3.231   9.917  20.638  1.00  0.00    -0.342 OA
BRANCH  27  28
HETATM   28  C7  UNL     1       4.237  10.695  21.141  1.00  0.00     0.075 A 
HETATM   29  C2  UNL     1       4.497  10.539  22.517  1.00  0.00    -0.027 A 
HETATM   30  C1  UNL     1       3.711   9.555  23.341  1.00  0.00     0.051 C 
HETATM   31  C3  UNL     1       5.517  11.291  23.119  1.00  0.00     0.033 A 
HETATM   32  C4  UNL     1       6.259  12.195  22.365  1.00  0.00     0.034 A 
HETATM   33 CL1  UNL     1       7.516  13.104  23.109  1.00  0.00    -0.084 Cl
HETATM   34  C5  UNL     1       5.991  12.366  21.010  1.00  0.00     0.026 A 
HETATM   35  C6  UNL     1       4.978  11.620  20.400  1.00  0.00     0.039 A 
ENDBRANCH  27  28
ENDBRANCH  26  27
ENDBRANCH  23  26
ENDBRANCH  20  22
ENDBRANCH   1  19
BRANCH   6  36
HETATM   36  O4  UNL     1      -2.261  10.473  14.044  1.00  0.00    -0.389 OA
HETATM   37  H19 UNL     1      -2.702  11.334  14.062  1.00  0.00     0.210 HD
ENDBRANCH   6  36
BRANCH   4  38
HETATM   38  O3  UNL     1      -1.933   7.653  13.625  1.00  0.00    -0.395 OA
HETATM   39  H16 UNL     1      -2.345   6.775  13.682  1.00  0.00     0.210 HD
ENDBRANCH   4  38
BRANCH  18  40
HETATM   40  O7  UNL     1      -2.024  15.219  17.063  1.00  0.00    -0.389 OA
HETATM   41  H41 UNL     1      -1.607  15.411  16.207  1.00  0.00     0.210 HD
ENDBRANCH  18  40
BRANCH  15  42
HETATM   42  C26 UNL     1      -6.377  14.352  18.588  1.00  0.00    -0.045 A 
HETATM   43  C27 UNL     1      -7.212  15.388  18.504  1.00  0.00     0.087 A 
HETATM   44  C28 UNL     1      -8.158  15.282  19.613  1.00  0.00     0.283 A 
HETATM   45  O5  UNL     1      -9.052  16.075  19.842  1.00  0.00    -0.260 OA
HETATM   46  O6  UNL     1      -7.880  14.160  20.325  1.00  0.00    -0.314 OA
HETATM   47  C29 UNL     1      -6.742  13.514  19.757  1.00  0.00     0.213 A 
ENDBRANCH  15  42
TORSDOF 9
ENDMDL
