MODEL 1
REMARK minimizedAffinity -10.3186083
REMARK  4 active torsions:
REMARK  status: ('A' for Active; 'I' for Inactive)
REMARK    1  A    between atoms: C4_4  and  C5_5 
REMARK    2  A    between atoms: C5_5  and  C6_6 
REMARK    3  A    between atoms: C6_6  and  C7_7 
REMARK    4  A    between atoms: C9_9  and  O1_10 
ROOT
HETATM    1  C7  UNL     1       1.382   6.879  11.131  1.00  0.00    -0.007 C 
HETATM    2  C8  UNL     1       0.840   5.449  11.146  1.00  0.00     0.038 C 
HETATM    3  C9  UNL     1      -0.657   5.320  11.459  1.00  0.00     0.131 C 
HETATM    4  C10 UNL     1      -1.104   6.091  12.766  1.00  0.00     0.013 C 
HETATM    5  C11 UNL     1      -0.459   5.348  13.978  1.00  0.00     0.023 C 
HETATM    6  C12 UNL     1      -2.648   6.071  13.038  1.00  0.00    -0.067 C 
HETATM    7  C13 UNL     1      -3.460   5.074  12.625  1.00  0.00    -0.022 C 
HETATM    8  C14 UNL     1      -4.930   4.957  12.907  1.00  0.00     0.034 C 
HETATM    9  C15 UNL     1      -5.551   6.202  13.568  1.00  0.00     0.013 C 
HETATM   10  C16 UNL     1      -7.057   6.017  13.969  1.00  0.00     0.018 C 
HETATM   11  C17 UNL     1      -7.909   5.902  12.679  1.00  0.00     0.023 C 
HETATM   12  C18 UNL     1      -7.377   4.782  14.825  1.00  0.00     0.023 C 
HETATM   13  C19 UNL     1      -7.536   7.252  14.742  1.00  0.00     0.135 C 
HETATM   14  O2  UNL     1      -8.660   7.737  14.583  1.00  0.00    -0.297 OA
HETATM   15  C20 UNL     1      -6.628   7.804  15.814  1.00  0.00     0.080 C 
HETATM   16  C21 UNL     1      -5.238   8.060  15.261  1.00  0.00     0.017 C 
HETATM   17  C22 UNL     1      -4.573   6.803  14.642  1.00  0.00    -0.031 C 
HETATM   18  C23 UNL     1      -4.211   5.814  15.777  1.00  0.00     0.016 C 
HETATM   19  C24 UNL     1      -3.259   7.225  13.850  1.00  0.00     0.024 C 
HETATM   20  C25 UNL     1      -2.222   7.959  14.704  1.00  0.00     0.010 C 
HETATM   21  C26 UNL     1      -0.953   8.381  13.955  1.00  0.00     0.011 C 
HETATM   22  C27 UNL     1      -0.614   7.603  12.644  1.00  0.00    -0.027 C 
HETATM   23  C28 UNL     1      -1.320   8.339  11.457  1.00  0.00     0.016 C 
HETATM   24  C29 UNL     1       0.955   7.668  12.402  1.00  0.00    -0.005 C 
HETATM   25  C30 UNL     1       1.511   9.106  12.352  1.00  0.00     0.011 C 
ENDROOT
BRANCH   1  26
HETATM   26  C6  UNL     1       2.907   6.878  10.846  1.00  0.00     0.009 C 
BRANCH  26  27
HETATM   27  C5  UNL     1       3.375   5.941   9.726  1.00  0.00     0.028 C 
BRANCH  27  28
HETATM   28  C4  UNL     1       2.558   6.148   8.477  1.00  0.00    -0.025 C 
HETATM   29  C2  UNL     1       2.462   7.267   7.733  1.00  0.00    -0.091 C 
HETATM   30  C1  UNL     1       1.628   7.286   6.478  1.00  0.00     0.042 C 
HETATM   31  C3  UNL     1       3.142   8.573   8.042  1.00  0.00     0.042 C 
ENDBRANCH  27  28
ENDBRANCH  26  27
ENDBRANCH   1  26
BRANCH   3  32
HETATM   32  O1  UNL     1      -0.890   3.906  11.559  1.00  0.00    -0.394 OA
HETATM   33  H16 UNL     1      -0.697   3.517  10.688  1.00  0.00     0.210 HD
ENDBRANCH   3  32
TORSDOF 4
ENDMDL
MODEL 2
REMARK minimizedAffinity -9.41726494
REMARK  4 active torsions:
REMARK  status: ('A' for Active; 'I' for Inactive)
REMARK    1  A    between atoms: C4_4  and  C5_5 
REMARK    2  A    between atoms: C5_5  and  C6_6 
REMARK    3  A    between atoms: C6_6  and  C7_7 
REMARK    4  A    between atoms: C9_9  and  O1_10 
ROOT
HETATM    1  C7  UNL     1      -4.367   7.389  14.484  1.00  0.00    -0.007 C 
HETATM    2  C8  UNL     1      -3.815   8.742  14.029  1.00  0.00     0.038 C 
HETATM    3  C9  UNL     1      -2.796   8.680  12.882  1.00  0.00     0.131 C 
HETATM    4  C10 UNL     1      -1.613   7.660  13.135  1.00  0.00     0.013 C 
HETATM    5  C11 UNL     1      -0.751   8.242  14.300  1.00  0.00     0.023 C 
HETATM    6  C12 UNL     1      -0.627   7.494  11.928  1.00  0.00    -0.067 C 
HETATM    7  C13 UNL     1      -0.393   8.470  11.024  1.00  0.00    -0.022 C 
HETATM    8  C14 UNL     1       0.585   8.405   9.887  1.00  0.00     0.034 C 
HETATM    9  C15 UNL     1       1.210   7.015   9.665  1.00  0.00     0.013 C 
HETATM   10  C16 UNL     1       2.319   6.991   8.555  1.00  0.00     0.018 C 
HETATM   11  C17 UNL     1       1.656   7.247   7.178  1.00  0.00     0.023 C 
HETATM   12  C18 UNL     1       3.442   8.029   8.708  1.00  0.00     0.023 C 
HETATM   13  C19 UNL     1       2.974   5.605   8.514  1.00  0.00     0.135 C 
HETATM   14  O2  UNL     1       3.291   5.055   7.456  1.00  0.00    -0.297 OA
HETATM   15  C20 UNL     1       3.340   4.963   9.830  1.00  0.00     0.080 C 
HETATM   16  C21 UNL     1       2.144   4.931  10.764  1.00  0.00     0.017 C 
HETATM   17  C22 UNL     1       1.535   6.330  11.043  1.00  0.00    -0.031 C 
HETATM   18  C23 UNL     1       2.517   7.140  11.924  1.00  0.00     0.016 C 
HETATM   19  C24 UNL     1       0.140   6.170  11.791  1.00  0.00     0.024 C 
HETATM   20  C25 UNL     1       0.223   5.397  13.112  1.00  0.00     0.010 C 
HETATM   21  C26 UNL     1      -1.114   5.225  13.842  1.00  0.00     0.011 C 
HETATM   22  C27 UNL     1      -2.246   6.242  13.493  1.00  0.00    -0.027 C 
HETATM   23  C28 UNL     1      -3.057   5.658  12.288  1.00  0.00     0.016 C 
HETATM   24  C29 UNL     1      -3.228   6.361  14.736  1.00  0.00    -0.005 C 
HETATM   25  C30 UNL     1      -3.817   5.009  15.187  1.00  0.00     0.011 C 
ENDROOT
BRANCH   1  26
HETATM   26  C6  UNL     1      -5.351   7.577  15.669  1.00  0.00     0.009 C 
BRANCH  26  27
HETATM   27  C5  UNL     1      -6.569   6.644  15.678  1.00  0.00     0.028 C 
BRANCH  27  28
HETATM   28  C4  UNL     1      -7.227   6.610  14.323  1.00  0.00    -0.025 C 
HETATM   29  C2  UNL     1      -7.554   5.525  13.594  1.00  0.00    -0.091 C 
HETATM   30  C1  UNL     1      -8.256   5.673  12.269  1.00  0.00     0.042 C 
HETATM   31  C3  UNL     1      -7.276   4.100  13.991  1.00  0.00     0.042 C 
ENDBRANCH  27  28
ENDBRANCH  26  27
ENDBRANCH   1  26
BRANCH   3  32
HETATM   32  O1  UNL     1      -2.326  10.030  12.737  1.00  0.00    -0.394 OA
HETATM   33  H16 UNL     1      -3.087  10.576  12.477  1.00  0.00     0.210 HD
ENDBRANCH   3  32
TORSDOF 4
ENDMDL
MODEL 3
REMARK minimizedAffinity -9.27104378
REMARK  4 active torsions:
REMARK  status: ('A' for Active; 'I' for Inactive)
REMARK    1  A    between atoms: C4_4  and  C5_5 
REMARK    2  A    between atoms: C5_5  and  C6_6 
REMARK    3  A    between atoms: C6_6  and  C7_7 
REMARK    4  A    between atoms: C9_9  and  O1_10 
ROOT
HETATM    1  C7  UNL     1       1.610   6.747  11.352  1.00  0.00    -0.007 C 
HETATM    2  C8  UNL     1       1.057   5.321  11.384  1.00  0.00     0.038 C 
HETATM    3  C9  UNL     1      -0.450   5.209  11.651  1.00  0.00     0.131 C 
HETATM    4  C10 UNL     1      -0.934   6.015  12.923  1.00  0.00     0.013 C 
HETATM    5  C11 UNL     1      -0.333   5.297  14.173  1.00  0.00     0.023 C 
HETATM    6  C12 UNL     1      -2.486   6.011  13.145  1.00  0.00    -0.067 C 
HETATM    7  C13 UNL     1      -3.290   5.009  12.730  1.00  0.00    -0.022 C 
HETATM    8  C14 UNL     1      -4.770   4.908  12.967  1.00  0.00     0.034 C 
HETATM    9  C15 UNL     1      -5.404   6.173  13.576  1.00  0.00     0.013 C 
HETATM   10  C16 UNL     1      -6.923   6.008  13.932  1.00  0.00     0.018 C 
HETATM   11  C17 UNL     1      -7.733   5.866  12.619  1.00  0.00     0.023 C 
HETATM   12  C18 UNL     1      -7.279   4.795  14.807  1.00  0.00     0.023 C 
HETATM   13  C19 UNL     1      -7.419   7.264  14.660  1.00  0.00     0.135 C 
HETATM   14  O2  UNL     1      -8.532   7.752  14.452  1.00  0.00    -0.297 OA
HETATM   15  C20 UNL     1      -6.542   7.836  15.747  1.00  0.00     0.080 C 
HETATM   16  C21 UNL     1      -5.132   8.070  15.234  1.00  0.00     0.017 C 
HETATM   17  C22 UNL     1      -4.457   6.794  14.668  1.00  0.00    -0.031 C 
HETATM   18  C23 UNL     1      -4.139   5.831  15.837  1.00  0.00     0.016 C 
HETATM   19  C24 UNL     1      -3.115   7.188  13.908  1.00  0.00     0.024 C 
HETATM   20  C25 UNL     1      -2.100   7.937  14.779  1.00  0.00     0.010 C 
HETATM   21  C26 UNL     1      -0.805   8.332  14.061  1.00  0.00     0.011 C 
HETATM   22  C27 UNL     1      -0.429   7.520  12.781  1.00  0.00    -0.027 C 
HETATM   23  C28 UNL     1      -1.090   8.231  11.554  1.00  0.00     0.016 C 
HETATM   24  C29 UNL     1       1.147   7.569  12.589  1.00  0.00    -0.005 C 
HETATM   25  C30 UNL     1       1.715   9.001  12.522  1.00  0.00     0.011 C 
ENDROOT
BRANCH   1  26
HETATM   26  C6  UNL     1       3.144   6.729  11.117  1.00  0.00     0.009 C 
BRANCH  26  27
HETATM   27  C5  UNL     1       3.623   7.345   9.797  1.00  0.00     0.028 C 
BRANCH  27  28
HETATM   28  C4  UNL     1       4.464   8.569  10.052  1.00  0.00    -0.025 C 
HETATM   29  C2  UNL     1       5.732   8.617  10.505  1.00  0.00    -0.091 C 
HETATM   30  C1  UNL     1       6.443   9.936  10.659  1.00  0.00     0.042 C 
HETATM   31  C3  UNL     1       6.557   7.421  10.894  1.00  0.00     0.042 C 
ENDBRANCH  27  28
ENDBRANCH  26  27
ENDBRANCH   1  26
BRANCH   3  32
HETATM   32  O1  UNL     1      -0.696   3.799  11.777  1.00  0.00    -0.394 OA
HETATM   33  H16 UNL     1      -0.477   3.388  10.923  1.00  0.00     0.210 HD
ENDBRANCH   3  32
TORSDOF 4
ENDMDL
MODEL 4
REMARK minimizedAffinity -9.06463909
REMARK  4 active torsions:
REMARK  status: ('A' for Active; 'I' for Inactive)
REMARK    1  A    between atoms: C4_4  and  C5_5 
REMARK    2  A    between atoms: C5_5  and  C6_6 
REMARK    3  A    between atoms: C6_6  and  C7_7 
REMARK    4  A    between atoms: C9_9  and  O1_10 
ROOT
HETATM    1  C7  UNL     1      -2.915   5.900  13.356  1.00  0.00    -0.007 C 
HETATM    2  C8  UNL     1      -3.957   4.781  13.401  1.00  0.00     0.038 C 
HETATM    3  C9  UNL     1      -5.419   5.244  13.336  1.00  0.00     0.131 C 
HETATM    4  C10 UNL     1      -5.778   6.372  14.386  1.00  0.00     0.013 C 
HETATM    5  C11 UNL     1      -5.713   5.715  15.801  1.00  0.00     0.023 C 
HETATM    6  C12 UNL     1      -7.232   6.943  14.257  1.00  0.00    -0.067 C 
HETATM    7  C13 UNL     1      -8.268   6.226  13.772  1.00  0.00    -0.022 C 
HETATM    8  C14 UNL     1      -9.695   6.684  13.683  1.00  0.00     0.034 C 
HETATM    9  C15 UNL     1      -9.906   8.174  14.011  1.00  0.00     0.013 C 
HETATM   10  C16 UNL     1     -11.414   8.608  14.035  1.00  0.00     0.018 C 
HETATM   11  C17 UNL     1     -11.980   8.534  12.594  1.00  0.00     0.023 C 
HETATM   12  C18 UNL     1     -12.341   7.762  14.922  1.00  0.00     0.023 C 
HETATM   13  C19 UNL     1     -11.521  10.063  14.510  1.00  0.00     0.135 C 
HETATM   14  O2  UNL     1     -12.319  10.863  14.014  1.00  0.00    -0.297 OA
HETATM   15  C20 UNL     1     -10.695  10.472  15.705  1.00  0.00     0.080 C 
HETATM   16  C21 UNL     1      -9.234  10.114  15.498  1.00  0.00     0.017 C 
HETATM   17  C22 UNL     1      -8.998   8.606  15.221  1.00  0.00    -0.031 C 
HETATM   18  C23 UNL     1      -9.268   7.807  16.518  1.00  0.00     0.016 C 
HETATM   19  C24 UNL     1      -7.497   8.376  14.744  1.00  0.00     0.024 C 
HETATM   20  C25 UNL     1      -6.442   8.865  15.742  1.00  0.00     0.010 C 
HETATM   21  C26 UNL     1      -4.990   8.659  15.295  1.00  0.00     0.011 C 
HETATM   22  C27 UNL     1      -4.731   7.562  14.215  1.00  0.00    -0.027 C 
HETATM   23  C28 UNL     1      -4.858   8.237  12.809  1.00  0.00     0.016 C 
HETATM   24  C29 UNL     1      -3.242   7.029  14.374  1.00  0.00    -0.005 C 
HETATM   25  C30 UNL     1      -2.179   8.144  14.298  1.00  0.00     0.011 C 
ENDROOT
BRANCH   1  26
HETATM   26  C6  UNL     1      -1.484   5.313  13.470  1.00  0.00     0.009 C 
BRANCH  26  27
HETATM   27  C5  UNL     1      -0.756   5.068  12.142  1.00  0.00     0.028 C 
BRANCH  27  28
HETATM   28  C4  UNL     1      -0.681   3.594  11.837  1.00  0.00    -0.025 C 
HETATM   29  C2  UNL     1      -1.494   2.876  11.038  1.00  0.00    -0.091 C 
HETATM   30  C1  UNL     1      -1.244   1.408  10.807  1.00  0.00     0.042 C 
HETATM   31  C3  UNL     1      -2.694   3.421  10.311  1.00  0.00     0.042 C 
ENDBRANCH  27  28
ENDBRANCH  26  27
ENDBRANCH   1  26
BRANCH   3  32
HETATM   32  O1  UNL     1      -6.191   4.050  13.539  1.00  0.00    -0.394 OA
HETATM   33  H16 UNL     1      -5.999   3.450  12.798  1.00  0.00     0.210 HD
ENDBRANCH   3  32
TORSDOF 4
ENDMDL
MODEL 5
REMARK minimizedAffinity -9.06272507
REMARK  4 active torsions:
REMARK  status: ('A' for Active; 'I' for Inactive)
REMARK    1  A    between atoms: C4_4  and  C5_5 
REMARK    2  A    between atoms: C5_5  and  C6_6 
REMARK    3  A    between atoms: C6_6  and  C7_7 
REMARK    4  A    between atoms: C9_9  and  O1_10 
ROOT
HETATM    1  C7  UNL     1      -1.853   6.525  13.096  1.00  0.00    -0.007 C 
HETATM    2  C8  UNL     1      -2.681   5.239  13.077  1.00  0.00     0.038 C 
HETATM    3  C9  UNL     1      -4.201   5.440  13.020  1.00  0.00     0.131 C 
HETATM    4  C10 UNL     1      -4.754   6.433  14.120  1.00  0.00     0.013 C 
HETATM    5  C11 UNL     1      -4.575   5.728  15.502  1.00  0.00     0.023 C 
HETATM    6  C12 UNL     1      -6.287   6.745  14.006  1.00  0.00    -0.067 C 
HETATM    7  C13 UNL     1      -7.179   5.882  13.476  1.00  0.00    -0.022 C 
HETATM    8  C14 UNL     1      -8.665   6.085  13.396  1.00  0.00     0.034 C 
HETATM    9  C15 UNL     1      -9.135   7.496  13.795  1.00  0.00     0.013 C 
HETATM   10  C16 UNL     1     -10.696   7.656  13.826  1.00  0.00     0.018 C 
HETATM   11  C17 UNL     1     -11.239   7.555  12.378  1.00  0.00     0.023 C 
HETATM   12  C18 UNL     1     -11.460   6.616  14.660  1.00  0.00     0.023 C 
HETATM   13  C19 UNL     1     -11.059   9.043  14.371  1.00  0.00     0.135 C 
HETATM   14  O2  UNL     1     -11.985   9.714  13.907  1.00  0.00    -0.297 OA
HETATM   15  C20 UNL     1     -10.319   9.532  15.592  1.00  0.00     0.080 C 
HETATM   16  C21 UNL     1      -8.818   9.447  15.381  1.00  0.00     0.017 C 
HETATM   17  C22 UNL     1      -8.319   8.021  15.033  1.00  0.00    -0.031 C 
HETATM   18  C23 UNL     1      -8.445   7.122  16.287  1.00  0.00     0.016 C 
HETATM   19  C24 UNL     1      -6.801   8.083  14.560  1.00  0.00     0.024 C 
HETATM   20  C25 UNL     1      -5.849   8.699  15.591  1.00  0.00     0.010 C 
HETATM   21  C26 UNL     1      -4.383   8.775  15.149  1.00  0.00     0.011 C 
HETATM   22  C27 UNL     1      -3.934   7.796  14.019  1.00  0.00    -0.027 C 
HETATM   23  C28 UNL     1      -4.177   8.508  12.646  1.00  0.00     0.016 C 
HETATM   24  C29 UNL     1      -2.375   7.527  14.165  1.00  0.00    -0.005 C 
HETATM   25  C30 UNL     1      -1.525   8.814  14.154  1.00  0.00     0.011 C 
ENDROOT
BRANCH   1  26
HETATM   26  C6  UNL     1      -0.340   6.195  13.195  1.00  0.00     0.009 C 
BRANCH  26  27
HETATM   27  C5  UNL     1       0.395   6.028  11.860  1.00  0.00     0.028 C 
BRANCH  27  28
HETATM   28  C4  UNL     1      -0.051   7.073  10.869  1.00  0.00    -0.025 C 
HETATM   29  C2  UNL     1       0.538   7.406   9.704  1.00  0.00    -0.091 C 
HETATM   30  C1  UNL     1      -0.073   8.451   8.806  1.00  0.00     0.042 C 
HETATM   31  C3  UNL     1       1.815   6.809   9.177  1.00  0.00     0.042 C 
ENDBRANCH  27  28
ENDBRANCH  26  27
ENDBRANCH   1  26
BRANCH   3  32
HETATM   32  O1  UNL     1      -4.751   4.120  13.157  1.00  0.00    -0.394 OA
HETATM   33  H16 UNL     1      -4.454   3.601  12.390  1.00  0.00     0.210 HD
ENDBRANCH   3  32
TORSDOF 4
ENDMDL
MODEL 6
REMARK minimizedAffinity -8.61361027
REMARK  4 active torsions:
REMARK  status: ('A' for Active; 'I' for Inactive)
REMARK    1  A    between atoms: C4_4  and  C5_5 
REMARK    2  A    between atoms: C5_5  and  C6_6 
REMARK    3  A    between atoms: C6_6  and  C7_7 
REMARK    4  A    between atoms: C9_9  and  O1_10 
ROOT
HETATM    1  C7  UNL     1      -2.830   5.289  12.478  1.00  0.00    -0.007 C 
HETATM    2  C8  UNL     1      -4.189   5.810  12.947  1.00  0.00     0.038 C 
HETATM    3  C9  UNL     1      -4.182   7.233  13.521  1.00  0.00     0.131 C 
HETATM    4  C10 UNL     1      -3.089   7.463  14.641  1.00  0.00     0.013 C 
HETATM    5  C11 UNL     1      -3.523   6.619  15.882  1.00  0.00     0.023 C 
HETATM    6  C12 UNL     1      -2.984   8.940  15.157  1.00  0.00    -0.067 C 
HETATM    7  C13 UNL     1      -4.024   9.801  15.151  1.00  0.00    -0.022 C 
HETATM    8  C14 UNL     1      -4.014  11.203  15.688  1.00  0.00     0.034 C 
HETATM    9  C15 UNL     1      -2.621  11.716  16.100  1.00  0.00     0.013 C 
HETATM   10  C16 UNL     1      -2.644  13.133  16.774  1.00  0.00     0.018 C 
HETATM   11  C17 UNL     1      -3.053  14.186  15.713  1.00  0.00     0.023 C 
HETATM   12  C18 UNL     1      -3.610  13.296  17.958  1.00  0.00     0.023 C 
HETATM   13  C19 UNL     1      -1.237  13.486  17.273  1.00  0.00     0.135 C 
HETATM   14  O2  UNL     1      -0.769  14.623  17.179  1.00  0.00    -0.297 OA
HETATM   15  C20 UNL     1      -0.465  12.416  18.005  1.00  0.00     0.080 C 
HETATM   16  C21 UNL     1      -0.406  11.139  17.187  1.00  0.00     0.017 C 
HETATM   17  C22 UNL     1      -1.802  10.577  16.811  1.00  0.00    -0.031 C 
HETATM   18  C23 UNL     1      -2.483  10.024  18.086  1.00  0.00     0.016 C 
HETATM   19  C24 UNL     1      -1.642   9.417  15.734  1.00  0.00     0.024 C 
HETATM   20  C25 UNL     1      -0.751   8.257  16.192  1.00  0.00     0.010 C 
HETATM   21  C26 UNL     1      -0.579   7.133  15.163  1.00  0.00     0.011 C 
HETATM   22  C27 UNL     1      -1.676   7.011  14.058  1.00  0.00    -0.027 C 
HETATM   23  C28 UNL     1      -1.241   7.910  12.853  1.00  0.00     0.016 C 
HETATM   24  C29 UNL     1      -1.730   5.504  13.556  1.00  0.00    -0.005 C 
HETATM   25  C30 UNL     1      -0.373   4.975  13.050  1.00  0.00     0.011 C 
ENDROOT
BRANCH   1  26
HETATM   26  C6  UNL     1      -2.957   3.832  11.958  1.00  0.00     0.009 C 
BRANCH  26  27
HETATM   27  C5  UNL     1      -4.138   3.561  11.018  1.00  0.00     0.028 C 
BRANCH  27  28
HETATM   28  C4  UNL     1      -5.425   3.448  11.792  1.00  0.00    -0.025 C 
HETATM   29  C2  UNL     1      -6.248   2.384  11.872  1.00  0.00    -0.091 C 
HETATM   30  C1  UNL     1      -7.481   2.429  12.737  1.00  0.00     0.042 C 
HETATM   31  C3  UNL     1      -6.050   1.081  11.146  1.00  0.00     0.042 C 
ENDBRANCH  27  28
ENDBRANCH  26  27
ENDBRANCH   1  26
BRANCH   3  32
HETATM   32  O1  UNL     1      -5.515   7.436  14.016  1.00  0.00    -0.394 OA
HETATM   33  H16 UNL     1      -6.118   7.387  13.255  1.00  0.00     0.210 HD
ENDBRANCH   3  32
TORSDOF 4
ENDMDL
MODEL 7
REMARK minimizedAffinity -8.54618073
REMARK  4 active torsions:
REMARK  status: ('A' for Active; 'I' for Inactive)
REMARK    1  A    between atoms: C4_4  and  C5_5 
REMARK    2  A    between atoms: C5_5  and  C6_6 
REMARK    3  A    between atoms: C6_6  and  C7_7 
REMARK    4  A    between atoms: C9_9  and  O1_10 
ROOT
HETATM    1  C7  UNL     1      -3.797   7.225  13.739  1.00  0.00    -0.007 C 
HETATM    2  C8  UNL     1      -3.380   8.232  12.666  1.00  0.00     0.038 C 
HETATM    3  C9  UNL     1      -1.881   8.256  12.338  1.00  0.00     0.131 C 
HETATM    4  C10 UNL     1      -0.952   8.394  13.612  1.00  0.00     0.013 C 
HETATM    5  C11 UNL     1      -1.178   9.828  14.187  1.00  0.00     0.023 C 
HETATM    6  C12 UNL     1       0.584   8.302  13.311  1.00  0.00    -0.067 C 
HETATM    7  C13 UNL     1       1.130   8.664  12.131  1.00  0.00    -0.022 C 
HETATM    8  C14 UNL     1       2.594   8.666  11.798  1.00  0.00     0.034 C 
HETATM    9  C15 UNL     1       3.490   8.010  12.866  1.00  0.00     0.013 C 
HETATM   10  C16 UNL     1       5.025   8.130  12.563  1.00  0.00     0.018 C 
HETATM   11  C17 UNL     1       5.359   7.268  11.319  1.00  0.00     0.023 C 
HETATM   12  C18 UNL     1       5.543   9.548  12.274  1.00  0.00     0.023 C 
HETATM   13  C19 UNL     1       5.826   7.578  13.749  1.00  0.00     0.135 C 
HETATM   14  O2  UNL     1       6.851   6.907  13.599  1.00  0.00    -0.297 OA
HETATM   15  C20 UNL     1       5.391   7.981  15.136  1.00  0.00     0.080 C 
HETATM   16  C21 UNL     1       3.916   7.692  15.344  1.00  0.00     0.017 C 
HETATM   17  C22 UNL     1       2.994   8.390  14.310  1.00  0.00    -0.031 C 
HETATM   18  C23 UNL     1       2.990   9.913  14.586  1.00  0.00     0.016 C 
HETATM   19  C24 UNL     1       1.517   7.812  14.430  1.00  0.00     0.024 C 
HETATM   20  C25 UNL     1       0.897   7.964  15.824  1.00  0.00     0.010 C 
HETATM   21  C26 UNL     1      -0.524   7.404  15.961  1.00  0.00     0.011 C 
HETATM   22  C27 UNL     1      -1.353   7.250  14.647  1.00  0.00    -0.027 C 
HETATM   23  C28 UNL     1      -1.063   5.826  14.065  1.00  0.00     0.016 C 
HETATM   24  C29 UNL     1      -2.899   7.331  15.004  1.00  0.00    -0.005 C 
HETATM   25  C30 UNL     1      -3.340   6.299  16.063  1.00  0.00     0.011 C 
ENDROOT
BRANCH   1  26
HETATM   26  C6  UNL     1      -5.321   7.322  14.011  1.00  0.00     0.009 C 
BRANCH  26  27
HETATM   27  C5  UNL     1      -6.080   5.990  14.039  1.00  0.00     0.028 C 
BRANCH  27  28
HETATM   28  C4  UNL     1      -5.439   4.989  13.113  1.00  0.00    -0.025 C 
HETATM   29  C2  UNL     1      -5.951   3.818  12.685  1.00  0.00    -0.091 C 
HETATM   30  C1  UNL     1      -5.186   2.954  11.716  1.00  0.00     0.042 C 
HETATM   31  C3  UNL     1      -7.283   3.254  13.098  1.00  0.00     0.042 C 
ENDBRANCH  27  28
ENDBRANCH  26  27
ENDBRANCH   1  26
BRANCH   3  32
HETATM   32  O1  UNL     1      -1.721   9.358  11.430  1.00  0.00    -0.394 OA
HETATM   33  H16 UNL     1      -2.234   9.152  10.630  1.00  0.00     0.210 HD
ENDBRANCH   3  32
TORSDOF 4
ENDMDL
MODEL 8
REMARK minimizedAffinity -8.50910854
REMARK  4 active torsions:
REMARK  status: ('A' for Active; 'I' for Inactive)
REMARK    1  A    between atoms: C4_4  and  C5_5 
REMARK    2  A    between atoms: C5_5  and  C6_6 
REMARK    3  A    between atoms: C6_6  and  C7_7 
REMARK    4  A    between atoms: C9_9  and  O1_10 
ROOT
HETATM    1  C7  UNL     1      -2.120   4.968  12.153  1.00  0.00    -0.007 C 
HETATM    2  C8  UNL     1      -1.114   5.024  11.001  1.00  0.00     0.038 C 
HETATM    3  C9  UNL     1       0.299   5.482  11.389  1.00  0.00     0.131 C 
HETATM    4  C10 UNL     1       0.328   6.833  12.211  1.00  0.00     0.013 C 
HETATM    5  C11 UNL     1      -0.121   7.969  11.239  1.00  0.00     0.023 C 
HETATM    6  C12 UNL     1       1.750   7.256  12.719  1.00  0.00    -0.067 C 
HETATM    7  C13 UNL     1       2.893   6.917  12.086  1.00  0.00    -0.022 C 
HETATM    8  C14 UNL     1       4.279   7.342  12.476  1.00  0.00     0.034 C 
HETATM    9  C15 UNL     1       4.363   8.071  13.830  1.00  0.00     0.013 C 
HETATM   10  C16 UNL     1       5.795   8.617  14.165  1.00  0.00     0.018 C 
HETATM   11  C17 UNL     1       6.745   7.417  14.409  1.00  0.00     0.023 C 
HETATM   12  C18 UNL     1       6.450   9.490  13.083  1.00  0.00     0.023 C 
HETATM   13  C19 UNL     1       5.739   9.445  15.456  1.00  0.00     0.135 C 
HETATM   14  O2  UNL     1       6.630   9.401  16.308  1.00  0.00    -0.297 OA
HETATM   15  C20 UNL     1       4.603  10.426  15.610  1.00  0.00     0.080 C 
HETATM   16  C21 UNL     1       3.266   9.741  15.389  1.00  0.00     0.017 C 
HETATM   17  C22 UNL     1       3.144   9.049  14.007  1.00  0.00    -0.031 C 
HETATM   18  C23 UNL     1       3.052  10.133  12.906  1.00  0.00     0.016 C 
HETATM   19  C24 UNL     1       1.842   8.134  13.977  1.00  0.00     0.024 C 
HETATM   20  C25 UNL     1       0.540   8.889  14.267  1.00  0.00     0.010 C 
HETATM   21  C26 UNL     1      -0.723   8.021  14.252  1.00  0.00     0.011 C 
HETATM   22  C27 UNL     1      -0.649   6.677  13.461  1.00  0.00    -0.027 C 
HETATM   23  C28 UNL     1      -0.143   5.571  14.447  1.00  0.00     0.016 C 
HETATM   24  C29 UNL     1      -2.112   6.281  12.986  1.00  0.00    -0.005 C 
HETATM   25  C30 UNL     1      -3.131   6.189  14.140  1.00  0.00     0.011 C 
ENDROOT
BRANCH   1  26
HETATM   26  C6  UNL     1      -3.516   4.533  11.632  1.00  0.00     0.009 C 
BRANCH  26  27
HETATM   27  C5  UNL     1      -4.181   3.380  12.392  1.00  0.00     0.028 C 
BRANCH  27  28
HETATM   28  C4  UNL     1      -5.589   3.742  12.790  1.00  0.00    -0.025 C 
HETATM   29  C2  UNL     1      -6.715   3.037  12.565  1.00  0.00    -0.091 C 
HETATM   30  C1  UNL     1      -8.044   3.529  13.078  1.00  0.00     0.042 C 
HETATM   31  C3  UNL     1      -6.785   1.735  11.815  1.00  0.00     0.042 C 
ENDBRANCH  27  28
ENDBRANCH  26  27
ENDBRANCH   1  26
BRANCH   3  32
HETATM   32  O1  UNL     1       1.004   5.592  10.142  1.00  0.00    -0.394 OA
HETATM   33  H16 UNL     1       1.038   4.703   9.748  1.00  0.00     0.210 HD
ENDBRANCH   3  32
TORSDOF 4
ENDMDL
MODEL 9
REMARK minimizedAffinity -8.37169647
REMARK  4 active torsions:
REMARK  status: ('A' for Active; 'I' for Inactive)
REMARK    1  A    between atoms: C4_4  and  C5_5 
REMARK    2  A    between atoms: C5_5  and  C6_6 
REMARK    3  A    between atoms: C6_6  and  C7_7 
REMARK    4  A    between atoms: C9_9  and  O1_10 
ROOT
HETATM    1  C7  UNL     1      -2.226   5.488  12.786  1.00  0.00    -0.007 C 
HETATM    2  C8  UNL     1      -2.715   5.351  14.229  1.00  0.00     0.038 C 
HETATM    3  C9  UNL     1      -2.994   6.675  14.954  1.00  0.00     0.131 C 
HETATM    4  C10 UNL     1      -1.798   7.708  14.874  1.00  0.00     0.013 C 
HETATM    5  C11 UNL     1      -0.628   7.118  15.723  1.00  0.00     0.023 C 
HETATM    6  C12 UNL     1      -2.106   9.110  15.506  1.00  0.00    -0.067 C 
HETATM    7  C13 UNL     1      -2.986   9.291  16.513  1.00  0.00    -0.022 C 
HETATM    8  C14 UNL     1      -3.280  10.589  17.209  1.00  0.00     0.034 C 
HETATM    9  C15 UNL     1      -2.632  11.822  16.551  1.00  0.00     0.013 C 
HETATM   10  C16 UNL     1      -2.844  13.151  17.358  1.00  0.00     0.018 C 
HETATM   11  C17 UNL     1      -4.345  13.535  17.306  1.00  0.00     0.023 C 
HETATM   12  C18 UNL     1      -2.448  13.106  18.842  1.00  0.00     0.023 C 
HETATM   13  C19 UNL     1      -2.045  14.283  16.700  1.00  0.00     0.135 C 
HETATM   14  O2  UNL     1      -2.485  15.431  16.600  1.00  0.00    -0.297 OA
HETATM   15  C20 UNL     1      -0.627  13.985  16.276  1.00  0.00     0.080 C 
HETATM   16  C21 UNL     1      -0.578  12.751  15.393  1.00  0.00     0.017 C 
HETATM   17  C22 UNL     1      -1.176  11.485  16.061  1.00  0.00    -0.031 C 
HETATM   18  C23 UNL     1      -0.230  11.018  17.194  1.00  0.00     0.016 C 
HETATM   19  C24 UNL     1      -1.336  10.331  14.977  1.00  0.00     0.024 C 
HETATM   20  C25 UNL     1      -0.030   9.947  14.274  1.00  0.00     0.010 C 
HETATM   21  C26 UNL     1      -0.168   8.842  13.220  1.00  0.00     0.011 C 
HETATM   22  C27 UNL     1      -1.406   7.899  13.341  1.00  0.00    -0.027 C 
HETATM   23  C28 UNL     1      -2.578   8.545  12.528  1.00  0.00     0.016 C 
HETATM   24  C29 UNL     1      -1.053   6.502  12.672  1.00  0.00    -0.005 C 
HETATM   25  C30 UNL     1      -0.589   6.622  11.206  1.00  0.00     0.011 C 
ENDROOT
BRANCH   1  26
HETATM   26  C6  UNL     1      -1.942   4.090  12.175  1.00  0.00     0.009 C 
BRANCH  26  27
HETATM   27  C5  UNL     1      -3.053   3.510  11.292  1.00  0.00     0.028 C 
BRANCH  27  28
HETATM   28  C4  UNL     1      -4.411   3.902  11.812  1.00  0.00    -0.025 C 
HETATM   29  C2  UNL     1      -5.526   3.147  11.856  1.00  0.00    -0.091 C 
HETATM   30  C1  UNL     1      -6.797   3.688  12.457  1.00  0.00     0.042 C 
HETATM   31  C3  UNL     1      -5.637   1.738  11.339  1.00  0.00     0.042 C 
ENDBRANCH  27  28
ENDBRANCH  26  27
ENDBRANCH   1  26
BRANCH   3  32
HETATM   32  O1  UNL     1      -3.292   6.296  16.307  1.00  0.00    -0.394 OA
HETATM   33  H16 UNL     1      -4.098   5.753  16.286  1.00  0.00     0.210 HD
ENDBRANCH   3  32
TORSDOF 4
ENDMDL
