MODEL 1
REMARK minimizedAffinity -9.65288162
REMARK  7 active torsions:
REMARK  status: ('A' for Active; 'I' for Inactive)
REMARK    1  A    between atoms: C19_20  and  O2_21 
REMARK    2  A    between atoms: O2_21  and  C20_22 
REMARK    3  A    between atoms: C20_22  and  C21_24 
REMARK    4  A    between atoms: C21_24  and  C22_25 
REMARK    5  A    between atoms: C22_25  and  C23_26 
REMARK       I    between atoms: C23_26  and  N1_28 
REMARK    6  A    between atoms: N1_28  and  C24_29 
REMARK    7  A    between atoms: C24_29  and  C25_30 
ROOT
HETATM    1  C1  UNL     1       1.133   9.509  13.615  1.00  0.00     0.018 C 
HETATM    2  C2  UNL     1       0.434   8.180  13.231  1.00  0.00    -0.013 C 
HETATM    3  C3  UNL     1       1.410   7.010  13.440  1.00  0.00     0.012 C 
HETATM    4  C4  UNL     1       2.576   7.039  12.435  1.00  0.00     0.007 C 
HETATM    5  C5  UNL     1       2.101   7.112  10.962  1.00  0.00     0.002 C 
HETATM    6  C6  UNL     1       1.075   8.282  10.751  1.00  0.00    -0.004 C 
HETATM    7  C7  UNL     1       0.539   8.318   9.306  1.00  0.00     0.010 C 
HETATM    8  C8  UNL     1       1.661   8.322   8.264  1.00  0.00     0.035 C 
HETATM    9  C9  UNL     1       2.574   7.152   8.534  1.00  0.00    -0.068 C 
HETATM   10  C10 UNL     1       2.621   6.125   7.667  1.00  0.00     0.053 C 
HETATM   11  C11 UNL     1       3.242   4.831   8.041  1.00  0.00     0.149 C 
HETATM   12  O1  UNL     1       3.289   3.924   7.216  1.00  0.00    -0.293 OA
HETATM   13  C12 UNL     1       3.673   4.649   9.474  1.00  0.00     0.084 C 
HETATM   14  C13 UNL     1       4.241   5.951  10.009  1.00  0.00     0.022 C 
HETATM   15  C14 UNL     1       3.262   7.156   9.905  1.00  0.00    -0.016 C 
HETATM   16  C15 UNL     1       4.144   8.419  10.072  1.00  0.00     0.020 C 
HETATM   17  C16 UNL     1      -0.060   8.121  11.770  1.00  0.00     0.001 C 
HETATM   18  C17 UNL     1      -1.214   9.115  11.740  1.00  0.00     0.008 C 
HETATM   19  C18 UNL     1      -1.866   8.983  13.130  1.00  0.00     0.034 C 
HETATM   20  C19 UNL     1      -0.915   8.114  13.988  1.00  0.00     0.140 C 
ENDROOT
BRANCH  20  21
HETATM   21  O2  UNL     1      -1.462   6.782  13.995  1.00  0.00    -0.315 OA
BRANCH  21  22
HETATM   22  C20 UNL     1      -2.782   6.674  13.684  1.00  0.00     0.259 C 
HETATM   23  O3  UNL     1      -3.221   6.189  12.648  1.00  0.00    -0.265 OA
BRANCH  22  24
HETATM   24  C21 UNL     1      -3.660   7.337  14.719  1.00  0.00     0.120 C 
BRANCH  24  25
HETATM   25  C22 UNL     1      -4.290   6.384  15.729  1.00  0.00     0.112 C 
BRANCH  25  26
HETATM   26  C23 UNL     1      -5.695   5.980  15.335  1.00  0.00     0.218 C 
HETATM   27  O4  UNL     1      -6.659   6.072  16.085  1.00  0.00    -0.274 OA
HETATM   28  N1  UNL     1      -5.775   5.490  14.050  1.00  0.00    -0.357 N 
HETATM   29  H32 UNL     1      -4.918   5.279  13.556  1.00  0.00     0.162 HD
BRANCH  28  30
HETATM   30  C24 UNL     1      -7.001   4.913  13.542  1.00  0.00     0.162 C 
BRANCH  30  31
HETATM   31  C25 UNL     1      -6.720   3.671  12.749  1.00  0.00    -0.025 A 
HETATM   32  C26 UNL     1      -5.653   3.596  11.848  1.00  0.00     0.011 A 
HETATM   33  C27 UNL     1      -5.419   2.414  11.151  1.00  0.00     0.018 A 
HETATM   34  C28 UNL     1      -6.260   1.338  11.383  1.00  0.00     0.087 A 
HETATM   35  N2  UNL     1      -7.292   1.367  12.252  1.00  0.00    -0.375 N 
HETATM   36  C29 UNL     1      -7.499   2.528  12.915  1.00  0.00     0.096 A 
ATOM     37  H2  UNL     1      -7.888   0.552  12.401  1.00  0.00     0.164 HD
ENDBRANCH  30  31
ENDBRANCH  28  30
ENDBRANCH  25  26
ENDBRANCH  24  25
ENDBRANCH  22  24
ENDBRANCH  21  22
ENDBRANCH  20  21
TORSDOF 7
ENDMDL
MODEL 2
REMARK minimizedAffinity -9.45333004
REMARK  7 active torsions:
REMARK  status: ('A' for Active; 'I' for Inactive)
REMARK    1  A    between atoms: C19_20  and  O2_21 
REMARK    2  A    between atoms: O2_21  and  C20_22 
REMARK    3  A    between atoms: C20_22  and  C21_24 
REMARK    4  A    between atoms: C21_24  and  C22_25 
REMARK    5  A    between atoms: C22_25  and  C23_26 
REMARK       I    between atoms: C23_26  and  N1_28 
REMARK    6  A    between atoms: N1_28  and  C24_29 
REMARK    7  A    between atoms: C24_29  and  C25_30 
ROOT
HETATM    1  C1  UNL     1      -2.862   5.415  15.188  1.00  0.00     0.018 C 
HETATM    2  C2  UNL     1      -3.344   6.415  14.106  1.00  0.00    -0.013 C 
HETATM    3  C3  UNL     1      -4.150   7.542  14.772  1.00  0.00     0.012 C 
HETATM    4  C4  UNL     1      -5.492   7.040  15.337  1.00  0.00     0.007 C 
HETATM    5  C5  UNL     1      -6.347   6.291  14.285  1.00  0.00     0.002 C 
HETATM    6  C6  UNL     1      -5.517   5.163  13.574  1.00  0.00    -0.004 C 
HETATM    7  C7  UNL     1      -6.334   4.459  12.474  1.00  0.00     0.010 C 
HETATM    8  C8  UNL     1      -7.692   3.963  12.978  1.00  0.00     0.035 C 
HETATM    9  C9  UNL     1      -8.420   5.118  13.617  1.00  0.00    -0.068 C 
HETATM   10  C10 UNL     1      -9.522   5.622  13.033  1.00  0.00     0.053 C 
HETATM   11  C11 UNL     1     -10.075   6.937  13.438  1.00  0.00     0.149 C 
HETATM   12  O1  UNL     1     -11.096   7.354  12.900  1.00  0.00    -0.293 OA
HETATM   13  C12 UNL     1      -9.272   7.765  14.409  1.00  0.00     0.084 C 
HETATM   14  C13 UNL     1      -8.622   6.860  15.440  1.00  0.00     0.022 C 
HETATM   15  C14 UNL     1      -7.719   5.752  14.826  1.00  0.00    -0.016 C 
HETATM   16  C15 UNL     1      -7.523   4.708  15.955  1.00  0.00     0.020 C 
HETATM   17  C16 UNL     1      -4.233   5.787  13.011  1.00  0.00     0.001 C 
HETATM   18  C17 UNL     1      -3.272   4.901  12.231  1.00  0.00     0.008 C 
HETATM   19  C18 UNL     1      -1.937   5.670  12.258  1.00  0.00     0.034 C 
HETATM   20  C19 UNL     1      -2.113   6.833  13.263  1.00  0.00     0.140 C 
ENDROOT
BRANCH  20  21
HETATM   21  O2  UNL     1      -2.374   8.017  12.486  1.00  0.00    -0.315 OA
BRANCH  21  22
HETATM   22  C20 UNL     1      -1.505   9.050  12.656  1.00  0.00     0.259 C 
HETATM   23  O3  UNL     1      -1.747  10.076  13.279  1.00  0.00    -0.265 OA
BRANCH  22  24
HETATM   24  C21 UNL     1      -0.226   8.842  11.879  1.00  0.00     0.120 C 
BRANCH  24  25
HETATM   25  C22 UNL     1      -0.414   8.638  10.379  1.00  0.00     0.112 C 
BRANCH  25  26
HETATM   26  C23 UNL     1       0.463   7.529   9.838  1.00  0.00     0.218 C 
HETATM   27  O4  UNL     1       0.504   6.404  10.320  1.00  0.00    -0.274 OA
HETATM   28  N1  UNL     1       1.218   7.919   8.753  1.00  0.00    -0.357 N 
HETATM   29  H32 UNL     1       1.265   8.902   8.522  1.00  0.00     0.162 HD
BRANCH  28  30
HETATM   30  C24 UNL     1       2.227   7.048   8.189  1.00  0.00     0.162 C 
BRANCH  30  31
HETATM   31  C25 UNL     1       3.372   6.868   9.143  1.00  0.00    -0.025 A 
HETATM   32  C26 UNL     1       4.063   7.959   9.680  1.00  0.00     0.011 A 
HETATM   33  C27 UNL     1       5.104   7.741  10.579  1.00  0.00     0.018 A 
HETATM   34  C28 UNL     1       5.417   6.435  10.917  1.00  0.00     0.087 A 
HETATM   35  N2  UNL     1       4.767   5.358  10.429  1.00  0.00    -0.375 N 
HETATM   36  C29 UNL     1       3.761   5.596   9.556  1.00  0.00     0.096 A 
ATOM     37  H2  UNL     1       5.022   4.409  10.705  1.00  0.00     0.164 HD
ENDBRANCH  30  31
ENDBRANCH  28  30
ENDBRANCH  25  26
ENDBRANCH  24  25
ENDBRANCH  22  24
ENDBRANCH  21  22
ENDBRANCH  20  21
TORSDOF 7
ENDMDL
MODEL 3
REMARK minimizedAffinity -9.42076683
REMARK  7 active torsions:
REMARK  status: ('A' for Active; 'I' for Inactive)
REMARK    1  A    between atoms: C19_20  and  O2_21 
REMARK    2  A    between atoms: O2_21  and  C20_22 
REMARK    3  A    between atoms: C20_22  and  C21_24 
REMARK    4  A    between atoms: C21_24  and  C22_25 
REMARK    5  A    between atoms: C22_25  and  C23_26 
REMARK       I    between atoms: C23_26  and  N1_28 
REMARK    6  A    between atoms: N1_28  and  C24_29 
REMARK    7  A    between atoms: C24_29  and  C25_30 
ROOT
HETATM    1  C1  UNL     1      -0.350   4.970  13.954  1.00  0.00     0.018 C 
HETATM    2  C2  UNL     1      -0.568   6.453  13.557  1.00  0.00    -0.013 C 
HETATM    3  C3  UNL     1      -1.123   6.523  12.125  1.00  0.00     0.012 C 
HETATM    4  C4  UNL     1      -0.085   6.079  11.077  1.00  0.00     0.007 C 
HETATM    5  C5  UNL     1       1.255   6.848  11.193  1.00  0.00     0.002 C 
HETATM    6  C6  UNL     1       1.808   6.811  12.662  1.00  0.00    -0.004 C 
HETATM    7  C7  UNL     1       3.103   7.634  12.806  1.00  0.00     0.010 C 
HETATM    8  C8  UNL     1       4.161   7.250  11.768  1.00  0.00     0.035 C 
HETATM    9  C9  UNL     1       3.545   7.340  10.395  1.00  0.00    -0.068 C 
HETATM   10  C10 UNL     1       3.952   8.294   9.540  1.00  0.00     0.053 C 
HETATM   11  C11 UNL     1       3.167   8.625   8.326  1.00  0.00     0.149 C 
HETATM   12  O1  UNL     1       3.582   9.485   7.554  1.00  0.00    -0.293 OA
HETATM   13  C12 UNL     1       1.817   7.973   8.165  1.00  0.00     0.084 C 
HETATM   14  C13 UNL     1       1.874   6.543   8.671  1.00  0.00     0.022 C 
HETATM   15  C14 UNL     1       2.346   6.416  10.148  1.00  0.00    -0.016 C 
HETATM   16  C15 UNL     1       2.753   4.931  10.324  1.00  0.00     0.020 C 
HETATM   17  C16 UNL     1       0.709   7.318  13.606  1.00  0.00     0.001 C 
HETATM   18  C17 UNL     1       1.017   7.421  15.094  1.00  0.00     0.008 C 
HETATM   19  C18 UNL     1      -0.368   7.463  15.767  1.00  0.00     0.034 C 
HETATM   20  C19 UNL     1      -1.407   7.126  14.670  1.00  0.00     0.140 C 
ENDROOT
BRANCH  20  21
HETATM   21  O2  UNL     1      -1.972   8.376  14.234  1.00  0.00    -0.315 OA
BRANCH  21  22
HETATM   22  C20 UNL     1      -3.312   8.524  14.413  1.00  0.00     0.259 C 
HETATM   23  O3  UNL     1      -3.837   9.020  15.402  1.00  0.00    -0.265 OA
BRANCH  22  24
HETATM   24  C21 UNL     1      -4.103   7.891  13.292  1.00  0.00     0.120 C 
BRANCH  24  25
HETATM   25  C22 UNL     1      -5.613   7.879  13.501  1.00  0.00     0.112 C 
BRANCH  25  26
HETATM   26  C23 UNL     1      -6.092   6.595  14.145  1.00  0.00     0.218 C 
HETATM   27  O4  UNL     1      -5.664   6.177  15.215  1.00  0.00    -0.274 OA
HETATM   28  N1  UNL     1      -7.050   5.942  13.401  1.00  0.00    -0.357 N 
HETATM   29  H32 UNL     1      -7.223   6.251  12.454  1.00  0.00     0.162 HD
BRANCH  28  30
HETATM   30  C24 UNL     1      -7.521   4.626  13.774  1.00  0.00     0.162 C 
BRANCH  30  31
HETATM   31  C25 UNL     1      -6.939   3.574  12.876  1.00  0.00    -0.025 A 
HETATM   32  C26 UNL     1      -5.775   3.800  12.134  1.00  0.00     0.011 A 
HETATM   33  C27 UNL     1      -5.261   2.785  11.331  1.00  0.00     0.018 A 
HETATM   34  C28 UNL     1      -5.927   1.571  11.302  1.00  0.00     0.087 A 
HETATM   35  N2  UNL     1      -7.045   1.311  12.011  1.00  0.00    -0.375 N 
HETATM   36  C29 UNL     1      -7.525   2.315  12.781  1.00  0.00     0.096 A 
ATOM     37  H2  UNL     1      -7.506   0.402  11.968  1.00  0.00     0.164 HD
ENDBRANCH  30  31
ENDBRANCH  28  30
ENDBRANCH  25  26
ENDBRANCH  24  25
ENDBRANCH  22  24
ENDBRANCH  21  22
ENDBRANCH  20  21
TORSDOF 7
ENDMDL
MODEL 4
REMARK minimizedAffinity -9.30795383
REMARK  7 active torsions:
REMARK  status: ('A' for Active; 'I' for Inactive)
REMARK    1  A    between atoms: C19_20  and  O2_21 
REMARK    2  A    between atoms: O2_21  and  C20_22 
REMARK    3  A    between atoms: C20_22  and  C21_24 
REMARK    4  A    between atoms: C21_24  and  C22_25 
REMARK    5  A    between atoms: C22_25  and  C23_26 
REMARK       I    between atoms: C23_26  and  N1_28 
REMARK    6  A    between atoms: N1_28  and  C24_29 
REMARK    7  A    between atoms: C24_29  and  C25_30 
ROOT
HETATM    1  C1  UNL     1      -3.444   6.218  15.472  1.00  0.00     0.018 C 
HETATM    2  C2  UNL     1      -3.677   5.869  13.980  1.00  0.00    -0.013 C 
HETATM    3  C3  UNL     1      -2.728   4.732  13.566  1.00  0.00     0.012 C 
HETATM    4  C4  UNL     1      -1.256   5.184  13.543  1.00  0.00     0.007 C 
HETATM    5  C5  UNL     1      -1.026   6.446  12.674  1.00  0.00     0.002 C 
HETATM    6  C6  UNL     1      -2.018   7.597  13.068  1.00  0.00    -0.004 C 
HETATM    7  C7  UNL     1      -1.848   8.833  12.163  1.00  0.00     0.010 C 
HETATM    8  C8  UNL     1      -0.395   9.308  12.084  1.00  0.00     0.035 C 
HETATM    9  C9  UNL     1       0.471   8.144  11.676  1.00  0.00    -0.068 C 
HETATM   10  C10 UNL     1       1.063   8.139  10.468  1.00  0.00     0.053 C 
HETATM   11  C11 UNL     1       1.645   6.899   9.901  1.00  0.00     0.149 C 
HETATM   12  O1  UNL     1       2.199   6.938   8.806  1.00  0.00    -0.293 OA
HETATM   13  C12 UNL     1       1.412   5.610  10.647  1.00  0.00     0.084 C 
HETATM   14  C13 UNL     1       1.467   5.866  12.143  1.00  0.00     0.022 C 
HETATM   15  C14 UNL     1       0.463   6.947  12.635  1.00  0.00    -0.016 C 
HETATM   16  C15 UNL     1       0.965   7.366  14.040  1.00  0.00     0.020 C 
HETATM   17  C16 UNL     1      -3.449   7.046  13.009  1.00  0.00     0.001 C 
HETATM   18  C17 UNL     1      -4.607   7.989  13.307  1.00  0.00     0.008 C 
HETATM   19  C18 UNL     1      -5.782   7.052  13.645  1.00  0.00     0.034 C 
HETATM   20  C19 UNL     1      -5.193   5.628  13.779  1.00  0.00     0.140 C 
ENDROOT
BRANCH  20  21
HETATM   21  O2  UNL     1      -5.468   4.947  12.540  1.00  0.00    -0.315 OA
BRANCH  21  22
HETATM   22  C20 UNL     1      -5.910   3.665  12.645  1.00  0.00     0.259 C 
HETATM   23  O3  UNL     1      -5.442   2.709  12.037  1.00  0.00    -0.265 OA
BRANCH  22  24
HETATM   24  C21 UNL     1      -7.140   3.563  13.517  1.00  0.00     0.120 C 
BRANCH  24  25
HETATM   25  C22 UNL     1      -8.463   3.732  12.779  1.00  0.00     0.112 C 
BRANCH  25  26
HETATM   26  C23 UNL     1      -8.872   5.186  12.664  1.00  0.00     0.218 C 
HETATM   27  O4  UNL     1      -8.721   5.851  11.647  1.00  0.00    -0.274 OA
HETATM   28  N1  UNL     1      -9.424   5.685  13.824  1.00  0.00    -0.357 N 
HETATM   29  H32 UNL     1      -9.355   5.136  14.670  1.00  0.00     0.162 HD
BRANCH  28  30
HETATM   30  C24 UNL     1      -9.738   7.091  13.961  1.00  0.00     0.162 C 
BRANCH  30  31
HETATM   31  C25 UNL     1     -11.180   7.351  13.639  1.00  0.00    -0.025 A 
HETATM   32  C26 UNL     1     -12.210   6.585  14.196  1.00  0.00     0.011 A 
HETATM   33  C27 UNL     1     -13.534   6.879  13.883  1.00  0.00     0.018 A 
HETATM   34  C28 UNL     1     -13.787   7.938  13.026  1.00  0.00     0.087 A 
HETATM   35  N2  UNL     1     -12.823   8.706  12.478  1.00  0.00    -0.375 N 
HETATM   36  C29 UNL     1     -11.544   8.398  12.796  1.00  0.00     0.096 A 
ATOM     37  H2  UNL     1     -13.047   9.481  11.854  1.00  0.00     0.164 HD
ENDBRANCH  30  31
ENDBRANCH  28  30
ENDBRANCH  25  26
ENDBRANCH  24  25
ENDBRANCH  22  24
ENDBRANCH  21  22
ENDBRANCH  20  21
TORSDOF 7
ENDMDL
MODEL 5
REMARK minimizedAffinity -9.14513969
REMARK  7 active torsions:
REMARK  status: ('A' for Active; 'I' for Inactive)
REMARK    1  A    between atoms: C19_20  and  O2_21 
REMARK    2  A    between atoms: O2_21  and  C20_22 
REMARK    3  A    between atoms: C20_22  and  C21_24 
REMARK    4  A    between atoms: C21_24  and  C22_25 
REMARK    5  A    between atoms: C22_25  and  C23_26 
REMARK       I    between atoms: C23_26  and  N1_28 
REMARK    6  A    between atoms: N1_28  and  C24_29 
REMARK    7  A    between atoms: C24_29  and  C25_30 
ROOT
HETATM    1  C1  UNL     1      -2.819   5.257  15.129  1.00  0.00     0.018 C 
HETATM    2  C2  UNL     1      -3.274   6.269  14.045  1.00  0.00    -0.013 C 
HETATM    3  C3  UNL     1      -4.008   7.442  14.716  1.00  0.00     0.012 C 
HETATM    4  C4  UNL     1      -5.360   7.013  15.316  1.00  0.00     0.007 C 
HETATM    5  C5  UNL     1      -6.275   6.297  14.292  1.00  0.00     0.002 C 
HETATM    6  C6  UNL     1      -5.518   5.121  13.576  1.00  0.00    -0.004 C 
HETATM    7  C7  UNL     1      -6.393   4.447  12.502  1.00  0.00     0.010 C 
HETATM    8  C8  UNL     1      -7.763   4.025  13.042  1.00  0.00     0.035 C 
HETATM    9  C9  UNL     1      -8.418   5.222  13.683  1.00  0.00    -0.068 C 
HETATM   10  C10 UNL     1      -9.506   5.773  13.117  1.00  0.00     0.053 C 
HETATM   11  C11 UNL     1      -9.984   7.119  13.518  1.00  0.00     0.149 C 
HETATM   12  O1  UNL     1     -10.996   7.581  12.998  1.00  0.00    -0.293 OA
HETATM   13  C12 UNL     1      -9.120   7.916  14.462  1.00  0.00     0.084 C 
HETATM   14  C13 UNL     1      -8.492   6.991  15.489  1.00  0.00     0.022 C 
HETATM   15  C14 UNL     1      -7.660   5.832  14.869  1.00  0.00    -0.016 C 
HETATM   16  C15 UNL     1      -7.490   4.793  16.005  1.00  0.00     0.020 C 
HETATM   17  C16 UNL     1      -4.218   5.675  12.978  1.00  0.00     0.001 C 
HETATM   18  C17 UNL     1      -3.319   4.733  12.187  1.00  0.00     0.008 C 
HETATM   19  C18 UNL     1      -1.948   5.434  12.177  1.00  0.00     0.034 C 
HETATM   20  C19 UNL     1      -2.044   6.616  13.171  1.00  0.00     0.140 C 
ENDROOT
BRANCH  20  21
HETATM   21  O2  UNL     1      -2.263   7.803  12.386  1.00  0.00    -0.315 OA
BRANCH  21  22
HETATM   22  C20 UNL     1      -1.267   8.730  12.409  1.00  0.00     0.259 C 
HETATM   23  O3  UNL     1      -1.167   9.632  13.232  1.00  0.00    -0.265 OA
BRANCH  22  24
HETATM   24  C21 UNL     1      -0.346   8.597  11.218  1.00  0.00     0.120 C 
BRANCH  24  25
HETATM   25  C22 UNL     1       0.163   7.183  10.958  1.00  0.00     0.112 C 
BRANCH  25  26
HETATM   26  C23 UNL     1       1.638   7.161  10.614  1.00  0.00     0.218 C 
HETATM   27  O4  UNL     1       2.271   8.160  10.294  1.00  0.00    -0.274 OA
HETATM   28  N1  UNL     1       2.191   5.901  10.690  1.00  0.00    -0.357 N 
HETATM   29  H32 UNL     1       1.575   5.106  10.786  1.00  0.00     0.162 HD
BRANCH  28  30
HETATM   30  C24 UNL     1       3.548   5.650  10.253  1.00  0.00     0.162 C 
BRANCH  30  31
HETATM   31  C25 UNL     1       3.564   5.021   8.891  1.00  0.00    -0.025 A 
HETATM   32  C26 UNL     1       2.958   5.632   7.789  1.00  0.00     0.011 A 
HETATM   33  C27 UNL     1       3.019   5.019   6.540  1.00  0.00     0.018 A 
HETATM   34  C28 UNL     1       3.693   3.814   6.433  1.00  0.00     0.087 A 
HETATM   35  N2  UNL     1       4.299   3.199   7.469  1.00  0.00    -0.375 N 
HETATM   36  C29 UNL     1       4.223   3.814   8.672  1.00  0.00     0.096 A 
ATOM     37  H2  UNL     1       4.791   2.313   7.352  1.00  0.00     0.164 HD
ENDBRANCH  30  31
ENDBRANCH  28  30
ENDBRANCH  25  26
ENDBRANCH  24  25
ENDBRANCH  22  24
ENDBRANCH  21  22
ENDBRANCH  20  21
TORSDOF 7
ENDMDL
MODEL 6
REMARK minimizedAffinity -9.04786301
REMARK  7 active torsions:
REMARK  status: ('A' for Active; 'I' for Inactive)
REMARK    1  A    between atoms: C19_20  and  O2_21 
REMARK    2  A    between atoms: O2_21  and  C20_22 
REMARK    3  A    between atoms: C20_22  and  C21_24 
REMARK    4  A    between atoms: C21_24  and  C22_25 
REMARK    5  A    between atoms: C22_25  and  C23_26 
REMARK       I    between atoms: C23_26  and  N1_28 
REMARK    6  A    between atoms: N1_28  and  C24_29 
REMARK    7  A    between atoms: C24_29  and  C25_30 
ROOT
HETATM    1  C1  UNL     1       1.695   9.912  13.935  1.00  0.00     0.018 C 
HETATM    2  C2  UNL     1       1.074   8.503  13.759  1.00  0.00    -0.013 C 
HETATM    3  C3  UNL     1       2.174   7.438  13.899  1.00  0.00     0.012 C 
HETATM    4  C4  UNL     1       3.173   7.477  12.727  1.00  0.00     0.007 C 
HETATM    5  C5  UNL     1       2.482   7.386  11.343  1.00  0.00     0.002 C 
HETATM    6  C6  UNL     1       1.332   8.447  11.209  1.00  0.00    -0.004 C 
HETATM    7  C7  UNL     1       0.589   8.318   9.865  1.00  0.00     0.010 C 
HETATM    8  C8  UNL     1       1.540   8.324   8.665  1.00  0.00     0.035 C 
HETATM    9  C9  UNL     1       2.587   7.260   8.874  1.00  0.00    -0.068 C 
HETATM   10  C10 UNL     1       2.602   6.170   8.087  1.00  0.00     0.053 C 
HETATM   11  C11 UNL     1       3.388   4.967   8.451  1.00  0.00     0.149 C 
HETATM   12  O1  UNL     1       3.398   4.000   7.696  1.00  0.00    -0.293 OA
HETATM   13  C12 UNL     1       4.040   4.942   9.811  1.00  0.00     0.084 C 
HETATM   14  C13 UNL     1       4.557   6.326  10.158  1.00  0.00     0.022 C 
HETATM   15  C14 UNL     1       3.466   7.435  10.120  1.00  0.00    -0.016 C 
HETATM   16  C15 UNL     1       4.242   8.775  10.059  1.00  0.00     0.020 C 
HETATM   17  C16 UNL     1       0.378   8.281  12.400  1.00  0.00     0.001 C 
HETATM   18  C17 UNL     1      -0.855   9.172  12.476  1.00  0.00     0.008 C 
HETATM   19  C18 UNL     1      -1.280   9.105  13.955  1.00  0.00     0.034 C 
HETATM   20  C19 UNL     1      -0.137   8.392  14.717  1.00  0.00     0.140 C 
ENDROOT
BRANCH  20  21
HETATM   21  O2  UNL     1      -0.551   7.026  14.903  1.00  0.00    -0.315 OA
BRANCH  21  22
HETATM   22  C20 UNL     1      -1.893   6.805  14.942  1.00  0.00     0.259 C 
HETATM   23  O3  UNL     1      -2.638   7.171  15.843  1.00  0.00    -0.265 OA
BRANCH  22  24
HETATM   24  C21 UNL     1      -2.355   5.941  13.791  1.00  0.00     0.120 C 
BRANCH  24  25
HETATM   25  C22 UNL     1      -1.235   5.387  12.917  1.00  0.00     0.112 C 
BRANCH  25  26
HETATM   26  C23 UNL     1      -1.746   4.398  11.892  1.00  0.00     0.218 C 
HETATM   27  O4  UNL     1      -1.108   4.061  10.901  1.00  0.00    -0.274 OA
HETATM   28  N1  UNL     1      -3.006   3.921  12.182  1.00  0.00    -0.357 N 
HETATM   29  H32 UNL     1      -3.539   4.372  12.913  1.00  0.00     0.162 HD
BRANCH  28  30
HETATM   30  C24 UNL     1      -3.725   3.083  11.246  1.00  0.00     0.162 C 
BRANCH  30  31
HETATM   31  C25 UNL     1      -5.096   2.760  11.762  1.00  0.00    -0.025 A 
HETATM   32  C26 UNL     1      -5.784   3.623  12.621  1.00  0.00     0.011 A 
HETATM   33  C27 UNL     1      -7.064   3.289  13.056  1.00  0.00     0.018 A 
HETATM   34  C28 UNL     1      -7.619   2.101  12.610  1.00  0.00     0.087 A 
HETATM   35  N2  UNL     1      -6.993   1.248  11.774  1.00  0.00    -0.375 N 
HETATM   36  C29 UNL     1      -5.749   1.595  11.368  1.00  0.00     0.096 A 
ATOM     37  H2  UNL     1      -7.435   0.383  11.462  1.00  0.00     0.164 HD
ENDBRANCH  30  31
ENDBRANCH  28  30
ENDBRANCH  25  26
ENDBRANCH  24  25
ENDBRANCH  22  24
ENDBRANCH  21  22
ENDBRANCH  20  21
TORSDOF 7
ENDMDL
MODEL 7
REMARK minimizedAffinity -9.00045872
REMARK  7 active torsions:
REMARK  status: ('A' for Active; 'I' for Inactive)
REMARK    1  A    between atoms: C19_20  and  O2_21 
REMARK    2  A    between atoms: O2_21  and  C20_22 
REMARK    3  A    between atoms: C20_22  and  C21_24 
REMARK    4  A    between atoms: C21_24  and  C22_25 
REMARK    5  A    between atoms: C22_25  and  C23_26 
REMARK       I    between atoms: C23_26  and  N1_28 
REMARK    6  A    between atoms: N1_28  and  C24_29 
REMARK    7  A    between atoms: C24_29  and  C25_30 
ROOT
HETATM    1  C1  UNL     1       1.043   9.234  13.580  1.00  0.00     0.018 C 
HETATM    2  C2  UNL     1       0.444   7.854  13.208  1.00  0.00    -0.013 C 
HETATM    3  C3  UNL     1       1.517   6.766  13.379  1.00  0.00     0.012 C 
HETATM    4  C4  UNL     1       2.645   6.895  12.339  1.00  0.00     0.007 C 
HETATM    5  C5  UNL     1       2.120   6.935  10.882  1.00  0.00     0.002 C 
HETATM    6  C6  UNL     1       0.996   8.019  10.711  1.00  0.00    -0.004 C 
HETATM    7  C7  UNL     1       0.414   8.018   9.284  1.00  0.00     0.010 C 
HETATM    8  C8  UNL     1       1.499   8.117   8.207  1.00  0.00     0.035 C 
HETATM    9  C9  UNL     1       2.511   7.025   8.441  1.00  0.00    -0.068 C 
HETATM   10  C10 UNL     1       2.615   6.009   7.566  1.00  0.00     0.053 C 
HETATM   11  C11 UNL     1       3.350   4.768   7.911  1.00  0.00     0.149 C 
HETATM   12  O1  UNL     1       3.445   3.871   7.079  1.00  0.00    -0.293 OA
HETATM   13  C12 UNL     1       3.839   4.615   9.329  1.00  0.00     0.084 C 
HETATM   14  C13 UNL     1       4.316   5.957   9.855  1.00  0.00     0.022 C 
HETATM   15  C14 UNL     1       3.240   7.078   9.790  1.00  0.00    -0.016 C 
HETATM   16  C15 UNL     1       4.021   8.408   9.939  1.00  0.00     0.020 C 
HETATM   17  C16 UNL     1      -0.090   7.761  11.763  1.00  0.00     0.001 C 
HETATM   18  C17 UNL     1      -1.321   8.658  11.776  1.00  0.00     0.008 C 
HETATM   19  C18 UNL     1      -1.916   8.468  13.184  1.00  0.00     0.034 C 
HETATM   20  C19 UNL     1      -0.872   7.676  14.006  1.00  0.00     0.140 C 
ENDROOT
BRANCH  20  21
HETATM   21  O2  UNL     1      -1.308   6.303  14.020  1.00  0.00    -0.315 OA
BRANCH  21  22
HETATM   22  C20 UNL     1      -2.057   5.901  12.958  1.00  0.00     0.259 C 
HETATM   23  O3  UNL     1      -1.615   5.651  11.843  1.00  0.00    -0.265 OA
BRANCH  22  24
HETATM   24  C21 UNL     1      -3.534   5.912  13.275  1.00  0.00     0.120 C 
BRANCH  24  25
HETATM   25  C22 UNL     1      -4.161   4.533  13.449  1.00  0.00     0.112 C 
BRANCH  25  26
HETATM   26  C23 UNL     1      -5.574   4.475  12.907  1.00  0.00     0.218 C 
HETATM   27  O4  UNL     1      -5.863   3.967  11.830  1.00  0.00    -0.274 OA
HETATM   28  N1  UNL     1      -6.499   5.059  13.745  1.00  0.00    -0.357 N 
HETATM   29  H32 UNL     1      -6.167   5.609  14.525  1.00  0.00     0.162 HD
BRANCH  28  30
HETATM   30  C24 UNL     1      -7.875   5.236  13.336  1.00  0.00     0.162 C 
BRANCH  30  31
HETATM   31  C25 UNL     1      -8.462   6.471  13.953  1.00  0.00    -0.025 A 
HETATM   32  C26 UNL     1      -9.830   6.755  13.878  1.00  0.00     0.011 A 
HETATM   33  C27 UNL     1     -10.330   7.904  14.486  1.00  0.00     0.018 A 
HETATM   34  C28 UNL     1      -9.444   8.731  15.157  1.00  0.00     0.087 A 
HETATM   35  N2  UNL     1      -8.121   8.486  15.260  1.00  0.00    -0.375 N 
HETATM   36  C29 UNL     1      -7.660   7.364  14.659  1.00  0.00     0.096 A 
ATOM     37  H2  UNL     1      -7.499   9.115  15.767  1.00  0.00     0.164 HD
ENDBRANCH  30  31
ENDBRANCH  28  30
ENDBRANCH  25  26
ENDBRANCH  24  25
ENDBRANCH  22  24
ENDBRANCH  21  22
ENDBRANCH  20  21
TORSDOF 7
ENDMDL
MODEL 8
REMARK minimizedAffinity -8.66804314
REMARK  7 active torsions:
REMARK  status: ('A' for Active; 'I' for Inactive)
REMARK    1  A    between atoms: C19_20  and  O2_21 
REMARK    2  A    between atoms: O2_21  and  C20_22 
REMARK    3  A    between atoms: C20_22  and  C21_24 
REMARK    4  A    between atoms: C21_24  and  C22_25 
REMARK    5  A    between atoms: C22_25  and  C23_26 
REMARK       I    between atoms: C23_26  and  N1_28 
REMARK    6  A    between atoms: N1_28  and  C24_29 
REMARK    7  A    between atoms: C24_29  and  C25_30 
ROOT
HETATM    1  C1  UNL     1      -2.667   5.079  15.125  1.00  0.00     0.018 C 
HETATM    2  C2  UNL     1      -3.113   6.150  14.096  1.00  0.00    -0.013 C 
HETATM    3  C3  UNL     1      -3.922   7.243  14.813  1.00  0.00     0.012 C 
HETATM    4  C4  UNL     1      -5.282   6.723  15.316  1.00  0.00     0.007 C 
HETATM    5  C5  UNL     1      -6.121   6.051  14.201  1.00  0.00     0.002 C 
HETATM    6  C6  UNL     1      -5.286   4.959  13.440  1.00  0.00    -0.004 C 
HETATM    7  C7  UNL     1      -6.085   4.334  12.280  1.00  0.00     0.010 C 
HETATM    8  C8  UNL     1      -7.460   3.824  12.722  1.00  0.00     0.035 C 
HETATM    9  C9  UNL     1      -8.190   4.946  13.415  1.00  0.00    -0.068 C 
HETATM   10  C10 UNL     1      -9.273   5.498  12.839  1.00  0.00     0.053 C 
HETATM   11  C11 UNL     1      -9.821   6.792  13.312  1.00  0.00     0.149 C 
HETATM   12  O1  UNL     1     -10.826   7.254  12.778  1.00  0.00    -0.293 OA
HETATM   13  C12 UNL     1      -9.033   7.549  14.350  1.00  0.00     0.084 C 
HETATM   14  C13 UNL     1      -8.416   6.575  15.337  1.00  0.00     0.022 C 
HETATM   15  C14 UNL     1      -7.511   5.496  14.676  1.00  0.00    -0.016 C 
HETATM   16  C15 UNL     1      -7.351   4.382  15.742  1.00  0.00     0.020 C 
HETATM   17  C16 UNL     1      -3.983   5.602  12.946  1.00  0.00     0.001 C 
HETATM   18  C17 UNL     1      -3.014   4.754  12.133  1.00  0.00     0.008 C 
HETATM   19  C18 UNL     1      -1.672   5.504  12.239  1.00  0.00     0.034 C 
HETATM   20  C19 UNL     1      -1.859   6.605  13.309  1.00  0.00     0.140 C 
ENDROOT
BRANCH  20  21
HETATM   21  O2  UNL     1      -2.090   7.838  12.602  1.00  0.00    -0.315 OA
BRANCH  21  22
HETATM   22  C20 UNL     1      -1.307   8.891  12.960  1.00  0.00     0.259 C 
HETATM   23  O3  UNL     1      -1.603  10.069  12.808  1.00  0.00    -0.265 OA
BRANCH  22  24
HETATM   24  C21 UNL     1       0.044   8.441  13.467  1.00  0.00     0.120 C 
BRANCH  24  25
HETATM   25  C22 UNL     1       0.974   9.569  13.899  1.00  0.00     0.112 C 
BRANCH  25  26
HETATM   26  C23 UNL     1       2.354   9.438  13.290  1.00  0.00     0.218 C 
HETATM   27  O4  UNL     1       3.351   9.978  13.754  1.00  0.00    -0.274 OA
HETATM   28  N1  UNL     1       2.371   8.657  12.154  1.00  0.00    -0.357 N 
HETATM   29  H32 UNL     1       1.491   8.393  11.734  1.00  0.00     0.162 HD
BRANCH  28  30
HETATM   30  C24 UNL     1       3.565   8.535  11.346  1.00  0.00     0.162 C 
BRANCH  30  31
HETATM   31  C25 UNL     1       3.468   7.357  10.422  1.00  0.00    -0.025 A 
HETATM   32  C26 UNL     1       2.657   7.377   9.283  1.00  0.00     0.011 A 
HETATM   33  C27 UNL     1       2.618   6.266   8.444  1.00  0.00     0.018 A 
HETATM   34  C28 UNL     1       3.398   5.170   8.770  1.00  0.00     0.087 A 
HETATM   35  N2  UNL     1       4.200   5.115   9.854  1.00  0.00    -0.375 N 
HETATM   36  C29 UNL     1       4.219   6.207  10.654  1.00  0.00     0.096 A 
ATOM     37  H2  UNL     1       4.765   4.292  10.060  1.00  0.00     0.164 HD
ENDBRANCH  30  31
ENDBRANCH  28  30
ENDBRANCH  25  26
ENDBRANCH  24  25
ENDBRANCH  22  24
ENDBRANCH  21  22
ENDBRANCH  20  21
TORSDOF 7
ENDMDL
MODEL 9
REMARK minimizedAffinity -8.35318089
REMARK  7 active torsions:
REMARK  status: ('A' for Active; 'I' for Inactive)
REMARK    1  A    between atoms: C19_20  and  O2_21 
REMARK    2  A    between atoms: O2_21  and  C20_22 
REMARK    3  A    between atoms: C20_22  and  C21_24 
REMARK    4  A    between atoms: C21_24  and  C22_25 
REMARK    5  A    between atoms: C22_25  and  C23_26 
REMARK       I    between atoms: C23_26  and  N1_28 
REMARK    6  A    between atoms: N1_28  and  C24_29 
REMARK    7  A    between atoms: C24_29  and  C25_30 
ROOT
HETATM    1  C1  UNL     1       1.496   8.301   9.791  1.00  0.00     0.018 C 
HETATM    2  C2  UNL     1       1.599   7.703  11.217  1.00  0.00    -0.013 C 
HETATM    3  C3  UNL     1       1.852   8.834  12.229  1.00  0.00     0.012 C 
HETATM    4  C4  UNL     1       3.250   9.460  12.062  1.00  0.00     0.007 C 
HETATM    5  C5  UNL     1       4.389   8.411  12.101  1.00  0.00     0.002 C 
HETATM    6  C6  UNL     1       4.116   7.234  11.097  1.00  0.00    -0.004 C 
HETATM    7  C7  UNL     1       5.206   6.148  11.180  1.00  0.00     0.010 C 
HETATM    8  C8  UNL     1       6.619   6.722  11.047  1.00  0.00     0.035 C 
HETATM    9  C9  UNL     1       6.792   7.820  12.064  1.00  0.00    -0.068 C 
HETATM   10  C10 UNL     1       7.633   7.649  13.099  1.00  0.00     0.053 C 
HETATM   11  C11 UNL     1       7.594   8.546  14.280  1.00  0.00     0.149 C 
HETATM   12  O1  UNL     1       8.394   8.375  15.195  1.00  0.00    -0.293 OA
HETATM   13  C12 UNL     1       6.476   9.555  14.356  1.00  0.00     0.084 C 
HETATM   14  C13 UNL     1       6.183  10.102  12.971  1.00  0.00     0.022 C 
HETATM   15  C14 UNL     1       5.831   9.008  11.922  1.00  0.00    -0.016 C 
HETATM   16  C15 UNL     1       6.003   9.690  10.542  1.00  0.00     0.020 C 
HETATM   17  C16 UNL     1       2.723   6.661  11.389  1.00  0.00     0.001 C 
HETATM   18  C17 UNL     1       2.239   5.470  10.572  1.00  0.00     0.008 C 
HETATM   19  C18 UNL     1       0.709   5.481  10.755  1.00  0.00     0.034 C 
HETATM   20  C19 UNL     1       0.352   6.815  11.453  1.00  0.00     0.140 C 
ENDROOT
BRANCH  20  21
HETATM   21  O2  UNL     1       0.164   6.517  12.849  1.00  0.00    -0.315 OA
BRANCH  21  22
HETATM   22  C20 UNL     1      -0.833   7.196  13.478  1.00  0.00     0.259 C 
HETATM   23  O3  UNL     1      -0.691   8.254  14.079  1.00  0.00    -0.265 OA
BRANCH  22  24
HETATM   24  C21 UNL     1      -2.135   6.429  13.458  1.00  0.00     0.120 C 
BRANCH  24  25
HETATM   25  C22 UNL     1      -3.369   7.255  13.807  1.00  0.00     0.112 C 
BRANCH  25  26
HETATM   26  C23 UNL     1      -4.503   6.396  14.328  1.00  0.00     0.218 C 
HETATM   27  O4  UNL     1      -4.656   6.127  15.513  1.00  0.00    -0.274 OA
HETATM   28  N1  UNL     1      -5.338   5.942  13.331  1.00  0.00    -0.357 N 
HETATM   29  H32 UNL     1      -5.052   6.056  12.368  1.00  0.00     0.162 HD
BRANCH  28  30
HETATM   30  C24 UNL     1      -6.389   4.988  13.609  1.00  0.00     0.162 C 
BRANCH  30  31
HETATM   31  C25 UNL     1      -6.214   3.744  12.789  1.00  0.00    -0.025 A 
HETATM   32  C26 UNL     1      -5.058   3.513  12.036  1.00  0.00     0.011 A 
HETATM   33  C27 UNL     1      -4.933   2.333  11.308  1.00  0.00     0.018 A 
HETATM   34  C28 UNL     1      -5.969   1.416  11.361  1.00  0.00     0.087 A 
HETATM   35  N2  UNL     1      -7.095   1.597  12.083  1.00  0.00    -0.375 N 
HETATM   36  C29 UNL     1      -7.193   2.753  12.780  1.00  0.00     0.096 A 
ATOM     37  H2  UNL     1      -7.836   0.897  12.102  1.00  0.00     0.164 HD
ENDBRANCH  30  31
ENDBRANCH  28  30
ENDBRANCH  25  26
ENDBRANCH  24  25
ENDBRANCH  22  24
ENDBRANCH  21  22
ENDBRANCH  20  21
TORSDOF 7
ENDMDL
