MODEL 1
REMARK minimizedAffinity -10.2692442
REMARK CNNscore 0.461591661
REMARK CNNaffinity 7.439219
REMARK  12 active torsions:
REMARK  status: ('A' for Active; 'I' for Inactive)
REMARK    1  A    between atoms: O1_2  and  C2_3 
REMARK    2  A    between atoms: C2_3  and  C5_6 
REMARK    3  A    between atoms: C6_7  and  C7_8 
REMARK    4  A    between atoms: C7_8  and  C8_9 
REMARK    5  A    between atoms: C8_9  and  C10_11 
REMARK    6  A    between atoms: C28_30  and  O3_31 
REMARK    7  A    between atoms: O3_31  and  C29_32 
REMARK    8  A    between atoms: C30_34  and  C31_35 
REMARK    9  A    between atoms: C31_35  and  O5_36 
REMARK   10  A    between atoms: C32_37  and  O6_38 
REMARK   11  A    between atoms: C33_39  and  O7_40 
REMARK   12  A    between atoms: C34_41  and  O8_42 
ROOT
HETATM    1  C10 UNL     1      -0.911  50.601 -21.202  1.00  0.00    -0.002 C 
HETATM    2  C11 UNL     1      -0.101  49.278 -21.054  1.00  0.00     0.006 C 
HETATM    3  C12 UNL     1      -1.117  48.145 -20.801  1.00  0.00     0.011 C 
HETATM    4  C13 UNL     1      -2.480  48.740 -21.202  1.00  0.00    -0.029 C 
HETATM    5  C14 UNL     1      -2.545  48.628 -22.754  1.00  0.00     0.016 C 
HETATM    6  C15 UNL     1      -3.720  48.062 -20.547  1.00  0.00     0.028 C 
HETATM    7  C16 UNL     1      -3.937  46.607 -20.908  1.00  0.00    -0.021 C 
HETATM    8  C17 UNL     1      -5.170  46.110 -21.106  1.00  0.00     0.008 C 
HETATM    9  C18 UNL     1      -6.410  46.998 -21.050  1.00  0.00     0.092 C 
HETATM   10  O2  UNL     1      -6.591  47.302 -19.653  1.00  0.00    -0.374 OA
HETATM   11  C19 UNL     1      -5.928  48.559 -19.396  1.00  0.00     0.179 C 
HETATM   12  C20 UNL     1      -5.053  48.911 -20.654  1.00  0.00    -0.004 C 
HETATM   13  C21 UNL     1      -4.871  50.454 -20.723  1.00  0.00     0.014 C 
HETATM   14  C22 UNL     1      -3.521  51.019 -21.199  1.00  0.00     0.011 C 
HETATM   15  C23 UNL     1      -2.327  50.218 -20.662  1.00  0.00    -0.032 C 
HETATM   16  C24 UNL     1      -2.330  50.328 -19.112  1.00  0.00     0.016 C 
HETATM   17  C25 UNL     1      -6.080  48.367 -21.675  1.00  0.00     0.036 C 
HETATM   18  C26 UNL     1      -5.805  48.246 -23.168  1.00  0.00     0.011 C 
HETATM   19  C27 UNL     1      -7.011  47.614 -23.874  1.00  0.00     0.033 C 
HETATM   20  C28 UNL     1      -7.470  46.283 -23.239  1.00  0.00     0.136 C 
HETATM   21  C35 UNL     1      -7.695  46.387 -21.696  1.00  0.00     0.014 C 
HETATM   22  C36 UNL     1      -8.950  47.245 -21.376  1.00  0.00     0.021 C 
HETATM   23  C37 UNL     1      -8.013  44.982 -21.122  1.00  0.00     0.021 C 
ENDROOT
BRANCH  20  24
HETATM   24  O3  UNL     1      -8.695  45.882 -23.864  1.00  0.00    -0.352 OA
BRANCH  24  25
HETATM   25  C29 UNL     1      -8.920  46.460 -25.152  1.00  0.00     0.292 C 
HETATM   26  O4  UNL     1      -7.655  46.606 -25.794  1.00  0.00    -0.348 OA
HETATM   27  C30 UNL     1      -7.773  47.054 -27.159  1.00  0.00     0.179 C 
HETATM   28  C32 UNL     1      -8.833  48.167 -27.330  1.00  0.00     0.180 C 
HETATM   29  C33 UNL     1      -9.081  48.865 -25.991  1.00  0.00     0.183 C 
HETATM   30  C34 UNL     1      -9.581  47.846 -24.946  1.00  0.00     0.204 C 
BRANCH  27  31
HETATM   31  C31 UNL     1      -6.375  47.543 -27.561  1.00  0.00     0.198 C 
BRANCH  31  32
HETATM   32  O5  UNL     1      -6.436  48.494 -28.612  1.00  0.00    -0.398 OA
HETATM   33  H48 UNL     1      -5.517  48.709 -28.857  1.00  0.00     0.209 HD
ENDBRANCH  31  32
ENDBRANCH  27  31
BRANCH  28  34
HETATM   34  O6  UNL     1     -10.096  47.590 -27.740  1.00  0.00    -0.390 OA
HETATM   35  H50 UNL     1     -10.638  48.367 -27.999  1.00  0.00     0.210 HD
ENDBRANCH  28  34
BRANCH  29  36
HETATM   36  O7  UNL     1     -10.053  49.909 -26.183  1.00  0.00    -0.390 OA
HETATM   37  H52 UNL     1     -10.574  49.952 -25.359  1.00  0.00     0.210 HD
ENDBRANCH  29  36
BRANCH  30  38
HETATM   38  O8  UNL     1     -11.022  47.734 -25.017  1.00  0.00    -0.388 OA
HETATM   39  H54 UNL     1     -11.218  47.521 -25.953  1.00  0.00     0.210 HD
ENDBRANCH  30  38
ENDBRANCH  24  25
ENDBRANCH  20  24
BRANCH   1  40
HETATM   40  C8  UNL     1      -0.132  51.875 -20.735  1.00  0.00    -0.010 C 
HETATM   41  C9  UNL     1      -0.689  52.630 -19.514  1.00  0.00     0.010 C 
BRANCH  40  42
HETATM   42  C7  UNL     1       0.117  52.849 -21.909  1.00  0.00     0.031 C 
BRANCH  42  43
HETATM   43  C6  UNL     1       0.111  52.197 -23.268  1.00  0.00    -0.027 C 
HETATM   44  C5  UNL     1       0.666  52.762 -24.356  1.00  0.00     0.006 C 
BRANCH  44  45
HETATM   45  C2  UNL     1       0.670  52.246 -25.783  1.00  0.00     0.070 C 
HETATM   46  C3  UNL     1       2.026  51.567 -26.033  1.00  0.00     0.050 C 
HETATM   47  C4  UNL     1      -0.445  51.246 -26.130  1.00  0.00     0.050 C 
BRANCH  45  48
HETATM   48  O1  UNL     1       0.657  53.384 -26.664  1.00  0.00    -0.382 OA
HETATM   49  C1  UNL     1      -0.328  53.369 -27.688  1.00  0.00     0.202 C 
ENDBRANCH  45  48
ENDBRANCH  44  45
ENDBRANCH  42  43
ENDBRANCH  40  42
ENDBRANCH   1  40
TORSDOF 12
ENDMDL
MODEL 2
REMARK minimizedAffinity -7.74993467
REMARK CNNscore 0.445324957
REMARK CNNaffinity 6.98288345
REMARK  12 active torsions:
REMARK  status: ('A' for Active; 'I' for Inactive)
REMARK    1  A    between atoms: O1_2  and  C2_3 
REMARK    2  A    between atoms: C2_3  and  C5_6 
REMARK    3  A    between atoms: C6_7  and  C7_8 
REMARK    4  A    between atoms: C7_8  and  C8_9 
REMARK    5  A    between atoms: C8_9  and  C10_11 
REMARK    6  A    between atoms: C28_30  and  O3_31 
REMARK    7  A    between atoms: O3_31  and  C29_32 
REMARK    8  A    between atoms: C30_34  and  C31_35 
REMARK    9  A    between atoms: C31_35  and  O5_36 
REMARK   10  A    between atoms: C32_37  and  O6_38 
REMARK   11  A    between atoms: C33_39  and  O7_40 
REMARK   12  A    between atoms: C34_41  and  O8_42 
ROOT
HETATM    1  C10 UNL     1      -2.893  48.899 -24.037  1.00  0.00    -0.002 C 
HETATM    2  C11 UNL     1      -1.646  49.689 -23.538  1.00  0.00     0.006 C 
HETATM    3  C12 UNL     1      -1.702  49.706 -21.996  1.00  0.00     0.011 C 
HETATM    4  C13 UNL     1      -2.722  48.613 -21.626  1.00  0.00    -0.029 C 
HETATM    5  C14 UNL     1      -1.943  47.268 -21.711  1.00  0.00     0.016 C 
HETATM    6  C15 UNL     1      -3.392  48.776 -20.229  1.00  0.00     0.028 C 
HETATM    7  C16 UNL     1      -2.456  48.694 -19.041  1.00  0.00    -0.021 C 
HETATM    8  C17 UNL     1      -2.821  48.081 -17.901  1.00  0.00     0.008 C 
HETATM    9  C18 UNL     1      -4.165  47.374 -17.768  1.00  0.00     0.092 C 
HETATM   10  O2  UNL     1      -5.141  48.432 -17.691  1.00  0.00    -0.374 OA
HETATM   11  C19 UNL     1      -5.627  48.668 -19.030  1.00  0.00     0.179 C 
HETATM   12  C20 UNL     1      -4.692  47.893 -20.029  1.00  0.00    -0.004 C 
HETATM   13  C21 UNL     1      -5.496  47.568 -21.319  1.00  0.00     0.014 C 
HETATM   14  C22 UNL     1      -4.775  47.636 -22.677  1.00  0.00     0.011 C 
HETATM   15  C23 UNL     1      -3.798  48.817 -22.765  1.00  0.00    -0.032 C 
HETATM   16  C24 UNL     1      -4.618  50.130 -22.634  1.00  0.00     0.016 C 
HETATM   17  C25 UNL     1      -4.502  46.672 -19.098  1.00  0.00     0.036 C 
HETATM   18  C26 UNL     1      -3.535  45.532 -19.388  1.00  0.00     0.011 C 
HETATM   19  C27 UNL     1      -3.553  44.523 -18.233  1.00  0.00     0.033 C 
HETATM   20  C28 UNL     1      -3.326  45.166 -16.848  1.00  0.00     0.136 C 
HETATM   21  C35 UNL     1      -4.276  46.375 -16.570  1.00  0.00     0.014 C 
HETATM   22  C36 UNL     1      -5.740  45.895 -16.370  1.00  0.00     0.021 C 
HETATM   23  C37 UNL     1      -3.885  47.045 -15.228  1.00  0.00     0.021 C 
ENDROOT
BRANCH  20  24
HETATM   24  O3  UNL     1      -3.538  44.165 -15.844  1.00  0.00    -0.352 OA
BRANCH  24  25
HETATM   25  C29 UNL     1      -2.707  43.010 -15.973  1.00  0.00     0.292 C 
HETATM   26  O4  UNL     1      -3.500  41.863 -15.673  1.00  0.00    -0.348 OA
HETATM   27  C30 UNL     1      -2.798  40.625 -15.904  1.00  0.00     0.179 C 
HETATM   28  C32 UNL     1      -1.333  40.672 -15.413  1.00  0.00     0.180 C 
HETATM   29  C33 UNL     1      -1.168  41.769 -14.359  1.00  0.00     0.183 C 
HETATM   30  C34 UNL     1      -1.546  43.140 -14.955  1.00  0.00     0.204 C 
BRANCH  27  31
HETATM   31  C31 UNL     1      -3.603  39.544 -15.171  1.00  0.00     0.198 C 
BRANCH  31  32
HETATM   32  O5  UNL     1      -2.756  38.570 -14.585  1.00  0.00    -0.398 OA
HETATM   33  H48 UNL     1      -3.332  37.886 -14.195  1.00  0.00     0.209 HD
ENDBRANCH  31  32
ENDBRANCH  27  31
BRANCH  28  34
HETATM   34  O6  UNL     1      -0.452  41.014 -16.511  1.00  0.00    -0.390 OA
HETATM   35  H50 UNL     1       0.446  40.839 -16.156  1.00  0.00     0.210 HD
ENDBRANCH  28  34
BRANCH  29  36
HETATM   36  O7  UNL     1       0.197  41.776 -13.902  1.00  0.00    -0.390 OA
HETATM   37  H52 UNL     1       0.415  42.706 -13.707  1.00  0.00     0.210 HD
ENDBRANCH  29  36
BRANCH  30  38
HETATM   38  O8  UNL     1      -0.389  43.740 -15.584  1.00  0.00    -0.388 OA
HETATM   39  H54 UNL     1      -0.065  43.068 -16.220  1.00  0.00     0.210 HD
ENDBRANCH  30  38
ENDBRANCH  24  25
ENDBRANCH  20  24
BRANCH   1  40
HETATM   40  C8  UNL     1      -3.419  49.366 -25.434  1.00  0.00    -0.010 C 
HETATM   41  C9  UNL     1      -4.592  48.575 -26.043  1.00  0.00     0.010 C 
BRANCH  40  42
HETATM   42  C7  UNL     1      -2.268  49.501 -26.457  1.00  0.00     0.031 C 
BRANCH  42  43
HETATM   43  C6  UNL     1      -1.374  50.695 -26.231  1.00  0.00    -0.027 C 
HETATM   44  C5  UNL     1      -0.107  50.758 -26.680  1.00  0.00     0.006 C 
BRANCH  44  45
HETATM   45  C2  UNL     1       0.909  51.864 -26.464  1.00  0.00     0.070 C 
HETATM   46  C3  UNL     1       0.567  52.566 -25.140  1.00  0.00     0.050 C 
HETATM   47  C4  UNL     1       2.378  51.415 -26.410  1.00  0.00     0.050 C 
BRANCH  45  48
HETATM   48  O1  UNL     1       0.696  52.863 -27.479  1.00  0.00    -0.382 OA
HETATM   49  C1  UNL     1      -0.015  54.025 -27.072  1.00  0.00     0.202 C 
ENDBRANCH  45  48
ENDBRANCH  44  45
ENDBRANCH  42  43
ENDBRANCH  40  42
ENDBRANCH   1  40
TORSDOF 12
ENDMDL
MODEL 3
REMARK minimizedAffinity -8.39309406
REMARK CNNscore 0.34902212
REMARK CNNaffinity 6.95724344
REMARK  12 active torsions:
REMARK  status: ('A' for Active; 'I' for Inactive)
REMARK    1  A    between atoms: O1_2  and  C2_3 
REMARK    2  A    between atoms: C2_3  and  C5_6 
REMARK    3  A    between atoms: C6_7  and  C7_8 
REMARK    4  A    between atoms: C7_8  and  C8_9 
REMARK    5  A    between atoms: C8_9  and  C10_11 
REMARK    6  A    between atoms: C28_30  and  O3_31 
REMARK    7  A    between atoms: O3_31  and  C29_32 
REMARK    8  A    between atoms: C30_34  and  C31_35 
REMARK    9  A    between atoms: C31_35  and  O5_36 
REMARK   10  A    between atoms: C32_37  and  O6_38 
REMARK   11  A    between atoms: C33_39  and  O7_40 
REMARK   12  A    between atoms: C34_41  and  O8_42 
ROOT
HETATM    1  C10 UNL     1      -2.023  50.523 -22.001  1.00  0.00    -0.002 C 
HETATM    2  C11 UNL     1      -0.681  50.089 -21.340  1.00  0.00     0.006 C 
HETATM    3  C12 UNL     1      -1.025  49.078 -20.226  1.00  0.00     0.011 C 
HETATM    4  C13 UNL     1      -2.473  48.644 -20.521  1.00  0.00    -0.029 C 
HETATM    5  C14 UNL     1      -2.367  47.569 -21.642  1.00  0.00     0.016 C 
HETATM    6  C15 UNL     1      -3.262  48.090 -19.297  1.00  0.00     0.028 C 
HETATM    7  C16 UNL     1      -2.712  46.819 -18.685  1.00  0.00    -0.021 C 
HETATM    8  C17 UNL     1      -3.525  45.851 -18.228  1.00  0.00     0.008 C 
HETATM    9  C18 UNL     1      -5.041  45.947 -18.368  1.00  0.00     0.092 C 
HETATM   10  O2  UNL     1      -5.444  46.947 -17.412  1.00  0.00    -0.374 OA
HETATM   11  C19 UNL     1      -5.503  48.211 -18.110  1.00  0.00     0.179 C 
HETATM   12  C20 UNL     1      -4.829  48.019 -19.517  1.00  0.00    -0.004 C 
HETATM   13  C21 UNL     1      -5.424  49.064 -20.503  1.00  0.00     0.014 C 
HETATM   14  C22 UNL     1      -4.495  49.702 -21.552  1.00  0.00     0.011 C 
HETATM   15  C23 UNL     1      -3.102  50.016 -20.990  1.00  0.00    -0.032 C 
HETATM   16  C24 UNL     1      -3.266  51.059 -19.851  1.00  0.00     0.016 C 
HETATM   17  C25 UNL     1      -5.384  46.590 -19.726  1.00  0.00     0.036 C 
HETATM   18  C26 UNL     1      -4.983  45.690 -20.886  1.00  0.00     0.011 C 
HETATM   19  C27 UNL     1      -5.672  44.325 -20.753  1.00  0.00     0.033 C 
HETATM   20  C28 UNL     1      -5.461  43.659 -19.376  1.00  0.00     0.136 C 
HETATM   21  C35 UNL     1      -5.813  44.601 -18.180  1.00  0.00     0.014 C 
HETATM   22  C36 UNL     1      -7.347  44.838 -18.095  1.00  0.00     0.021 C 
HETATM   23  C37 UNL     1      -5.440  43.907 -16.845  1.00  0.00     0.021 C 
ENDROOT
BRANCH  20  24
HETATM   24  O3  UNL     1      -6.285  42.489 -19.309  1.00  0.00    -0.352 OA
BRANCH  24  25
HETATM   25  C29 UNL     1      -5.731  41.335 -19.944  1.00  0.00     0.292 C 
HETATM   26  O4  UNL     1      -6.764  40.358 -20.057  1.00  0.00    -0.348 OA
HETATM   27  C30 UNL     1      -6.353  39.198 -20.808  1.00  0.00     0.179 C 
HETATM   28  C32 UNL     1      -4.920  38.737 -20.453  1.00  0.00     0.180 C 
HETATM   29  C33 UNL     1      -4.528  39.261 -19.070  1.00  0.00     0.183 C 
HETATM   30  C34 UNL     1      -4.583  40.803 -19.050  1.00  0.00     0.204 C 
BRANCH  27  31
HETATM   31  C31 UNL     1      -7.387  38.109 -20.496  1.00  0.00     0.198 C 
BRANCH  31  32
HETATM   32  O5  UNL     1      -8.022  37.639 -21.674  1.00  0.00    -0.398 OA
HETATM   33  H48 UNL     1      -8.706  37.002 -21.396  1.00  0.00     0.209 HD
ENDBRANCH  31  32
ENDBRANCH  27  31
BRANCH  28  34
HETATM   34  O6  UNL     1      -3.972  39.296 -21.395  1.00  0.00    -0.390 OA
HETATM   35  H50 UNL     1      -3.139  38.810 -21.208  1.00  0.00     0.210 HD
ENDBRANCH  28  34
BRANCH  29  36
HETATM   36  O7  UNL     1      -3.201  38.799 -18.755  1.00  0.00    -0.390 OA
HETATM   37  H52 UNL     1      -2.783  39.506 -18.229  1.00  0.00     0.210 HD
ENDBRANCH  29  36
BRANCH  30  38
HETATM   38  O8  UNL     1      -3.314  41.347 -19.483  1.00  0.00    -0.388 OA
HETATM   39  H54 UNL     1      -3.139  40.933 -20.354  1.00  0.00     0.210 HD
ENDBRANCH  30  38
ENDBRANCH  24  25
ENDBRANCH  20  24
BRANCH   1  40
HETATM   40  C8  UNL     1      -2.003  51.978 -22.575  1.00  0.00    -0.010 C 
HETATM   41  C9  UNL     1      -2.935  52.276 -23.764  1.00  0.00     0.010 C 
BRANCH  40  42
HETATM   42  C7  UNL     1      -0.563  52.445 -22.884  1.00  0.00     0.031 C 
BRANCH  42  43
HETATM   43  C6  UNL     1      -0.273  52.632 -24.353  1.00  0.00    -0.027 C 
HETATM   44  C5  UNL     1       0.405  51.731 -25.087  1.00  0.00     0.006 C 
BRANCH  44  45
HETATM   45  C2  UNL     1       0.817  51.828 -26.544  1.00  0.00     0.070 C 
HETATM   46  C3  UNL     1       0.400  53.216 -27.059  1.00  0.00     0.050 C 
HETATM   47  C4  UNL     1       2.316  51.636 -26.825  1.00  0.00     0.050 C 
BRANCH  45  48
HETATM   48  O1  UNL     1       0.012  50.899 -27.293  1.00  0.00    -0.382 OA
HETATM   49  C1  UNL     1      -1.339  51.280 -27.516  1.00  0.00     0.202 C 
ENDBRANCH  45  48
ENDBRANCH  44  45
ENDBRANCH  42  43
ENDBRANCH  40  42
ENDBRANCH   1  40
TORSDOF 12
ENDMDL
MODEL 4
REMARK minimizedAffinity -9.17713833
REMARK CNNscore 0.343096852
REMARK CNNaffinity 6.99848223
REMARK  12 active torsions:
REMARK  status: ('A' for Active; 'I' for Inactive)
REMARK    1  A    between atoms: O1_2  and  C2_3 
REMARK    2  A    between atoms: C2_3  and  C5_6 
REMARK    3  A    between atoms: C6_7  and  C7_8 
REMARK    4  A    between atoms: C7_8  and  C8_9 
REMARK    5  A    between atoms: C8_9  and  C10_11 
REMARK    6  A    between atoms: C28_30  and  O3_31 
REMARK    7  A    between atoms: O3_31  and  C29_32 
REMARK    8  A    between atoms: C30_34  and  C31_35 
REMARK    9  A    between atoms: C31_35  and  O5_36 
REMARK   10  A    between atoms: C32_37  and  O6_38 
REMARK   11  A    between atoms: C33_39  and  O7_40 
REMARK   12  A    between atoms: C34_41  and  O8_42 
ROOT
HETATM    1  C10 UNL     1      -0.933  51.301 -21.318  1.00  0.00    -0.002 C 
HETATM    2  C11 UNL     1      -0.107  50.011 -21.032  1.00  0.00     0.006 C 
HETATM    3  C12 UNL     1      -1.109  48.844 -20.909  1.00  0.00     0.011 C 
HETATM    4  C13 UNL     1      -2.419  49.383 -21.513  1.00  0.00    -0.029 C 
HETATM    5  C14 UNL     1      -2.255  49.250 -23.055  1.00  0.00     0.016 C 
HETATM    6  C15 UNL     1      -3.716  48.667 -21.031  1.00  0.00     0.028 C 
HETATM    7  C16 UNL     1      -3.827  47.201 -21.394  1.00  0.00    -0.021 C 
HETATM    8  C17 UNL     1      -5.001  46.656 -21.759  1.00  0.00     0.008 C 
HETATM    9  C18 UNL     1      -6.265  47.497 -21.898  1.00  0.00     0.092 C 
HETATM   10  O2  UNL     1      -6.657  47.811 -20.547  1.00  0.00    -0.374 OA
HETATM   11  C19 UNL     1      -6.083  49.095 -20.220  1.00  0.00     0.179 C 
HETATM   12  C20 UNL     1      -5.049  49.464 -21.344  1.00  0.00    -0.004 C 
HETATM   13  C21 UNL     1      -4.913  51.012 -21.412  1.00  0.00     0.014 C 
HETATM   14  C22 UNL     1      -3.529  51.621 -21.698  1.00  0.00     0.011 C 
HETATM   15  C23 UNL     1      -2.398  50.872 -20.981  1.00  0.00    -0.032 C 
HETATM   16  C24 UNL     1      -2.629  51.000 -19.450  1.00  0.00     0.016 C 
HETATM   17  C25 UNL     1      -5.898  48.870 -22.493  1.00  0.00     0.036 C 
HETATM   18  C26 UNL     1      -5.405  48.742 -23.928  1.00  0.00     0.011 C 
HETATM   19  C27 UNL     1      -6.473  48.056 -24.789  1.00  0.00     0.033 C 
HETATM   20  C28 UNL     1      -6.972  46.717 -24.204  1.00  0.00     0.136 C 
HETATM   21  C35 UNL     1      -7.422  46.830 -22.712  1.00  0.00     0.014 C 
HETATM   22  C36 UNL     1      -8.739  47.646 -22.591  1.00  0.00     0.021 C 
HETATM   23  C37 UNL     1      -7.770  45.422 -22.166  1.00  0.00     0.021 C 
ENDROOT
BRANCH  20  24
HETATM   24  O3  UNL     1      -8.079  46.263 -24.993  1.00  0.00    -0.352 OA
BRANCH  24  25
HETATM   25  C29 UNL     1      -8.406  47.109 -26.098  1.00  0.00     0.292 C 
HETATM   26  O4  UNL     1      -9.827  47.201 -26.174  1.00  0.00    -0.348 OA
HETATM   27  C30 UNL     1     -10.271  48.141 -27.172  1.00  0.00     0.179 C 
HETATM   28  C32 UNL     1      -9.455  48.047 -28.482  1.00  0.00     0.180 C 
HETATM   29  C33 UNL     1      -8.784  46.676 -28.584  1.00  0.00     0.183 C 
HETATM   30  C34 UNL     1      -7.841  46.455 -27.384  1.00  0.00     0.204 C 
BRANCH  27  31
HETATM   31  C31 UNL     1     -11.755  47.829 -27.410  1.00  0.00     0.198 C 
BRANCH  31  32
HETATM   32  O5  UNL     1     -12.563  48.983 -27.246  1.00  0.00    -0.398 OA
HETATM   33  H48 UNL     1     -13.491  48.699 -27.348  1.00  0.00     0.209 HD
ENDBRANCH  31  32
ENDBRANCH  27  31
BRANCH  28  34
HETATM   34  O6  UNL     1      -8.393  49.031 -28.477  1.00  0.00    -0.390 OA
HETATM   35  H50 UNL     1      -8.058  49.023 -29.400  1.00  0.00     0.210 HD
ENDBRANCH  28  34
BRANCH  29  36
HETATM   36  O7  UNL     1      -8.050  46.606 -29.822  1.00  0.00    -0.390 OA
HETATM   37  H52 UNL     1      -7.264  46.057 -29.643  1.00  0.00     0.210 HD
ENDBRANCH  29  36
BRANCH  30  38
HETATM   38  O8  UNL     1      -6.528  46.985 -27.684  1.00  0.00    -0.388 OA
HETATM   39  H54 UNL     1      -6.681  47.917 -27.946  1.00  0.00     0.210 HD
ENDBRANCH  30  38
ENDBRANCH  24  25
ENDBRANCH  20  24
BRANCH   1  40
HETATM   40  C8  UNL     1      -0.275  52.609 -20.766  1.00  0.00    -0.010 C 
HETATM   41  C9  UNL     1       1.224  52.815 -21.053  1.00  0.00     0.010 C 
BRANCH  40  42
HETATM   42  C7  UNL     1      -0.570  52.799 -19.260  1.00  0.00     0.031 C 
BRANCH  42  43
HETATM   43  C6  UNL     1       0.485  52.229 -18.345  1.00  0.00    -0.027 C 
HETATM   44  C5  UNL     1       0.347  52.181 -17.007  1.00  0.00     0.006 C 
BRANCH  44  45
HETATM   45  C2  UNL     1       1.353  51.698 -15.978  1.00  0.00     0.070 C 
HETATM   46  C3  UNL     1       2.728  52.265 -16.363  1.00  0.00     0.050 C 
HETATM   47  C4  UNL     1       1.054  52.093 -14.523  1.00  0.00     0.050 C 
BRANCH  45  48
HETATM   48  O1  UNL     1       1.485  50.272 -16.126  1.00  0.00    -0.382 OA
HETATM   49  C1  UNL     1       0.730  49.478 -15.220  1.00  0.00     0.202 C 
ENDBRANCH  45  48
ENDBRANCH  44  45
ENDBRANCH  42  43
ENDBRANCH  40  42
ENDBRANCH   1  40
TORSDOF 12
ENDMDL
MODEL 5
REMARK minimizedAffinity -8.74467754
REMARK CNNscore 0.342605889
REMARK CNNaffinity 6.81139183
REMARK  12 active torsions:
REMARK  status: ('A' for Active; 'I' for Inactive)
REMARK    1  A    between atoms: O1_2  and  C2_3 
REMARK    2  A    between atoms: C2_3  and  C5_6 
REMARK    3  A    between atoms: C6_7  and  C7_8 
REMARK    4  A    between atoms: C7_8  and  C8_9 
REMARK    5  A    between atoms: C8_9  and  C10_11 
REMARK    6  A    between atoms: C28_30  and  O3_31 
REMARK    7  A    between atoms: O3_31  and  C29_32 
REMARK    8  A    between atoms: C30_34  and  C31_35 
REMARK    9  A    between atoms: C31_35  and  O5_36 
REMARK   10  A    between atoms: C32_37  and  O6_38 
REMARK   11  A    between atoms: C33_39  and  O7_40 
REMARK   12  A    between atoms: C34_41  and  O8_42 
ROOT
HETATM    1  C10 UNL     1      -7.672  46.548 -20.887  1.00  0.00    -0.002 C 
HETATM    2  C11 UNL     1      -8.532  47.820 -20.618  1.00  0.00     0.006 C 
HETATM    3  C12 UNL     1      -7.555  48.992 -20.384  1.00  0.00     0.011 C 
HETATM    4  C13 UNL     1      -6.199  48.486 -20.910  1.00  0.00    -0.029 C 
HETATM    5  C14 UNL     1      -6.254  48.671 -22.455  1.00  0.00     0.016 C 
HETATM    6  C15 UNL     1      -4.948  49.197 -20.313  1.00  0.00     0.028 C 
HETATM    7  C16 UNL     1      -4.829  50.676 -20.618  1.00  0.00    -0.021 C 
HETATM    8  C17 UNL     1      -3.638  51.244 -20.879  1.00  0.00     0.008 C 
HETATM    9  C18 UNL     1      -2.357  50.420 -20.955  1.00  0.00     0.092 C 
HETATM   10  O2  UNL     1      -2.059  50.063 -19.591  1.00  0.00    -0.374 OA
HETATM   11  C19 UNL     1      -2.640  48.763 -19.349  1.00  0.00     0.179 C 
HETATM   12  C20 UNL     1      -3.587  48.423 -20.556  1.00  0.00    -0.004 C 
HETATM   13  C21 UNL     1      -3.699  46.878 -20.686  1.00  0.00     0.014 C 
HETATM   14  C22 UNL     1      -5.052  46.266 -21.091  1.00  0.00     0.011 C 
HETATM   15  C23 UNL     1      -6.240  46.980 -20.432  1.00  0.00    -0.032 C 
HETATM   16  C24 UNL     1      -6.117  46.801 -18.894  1.00  0.00     0.016 C 
HETATM   17  C25 UNL     1      -2.665  49.065 -21.620  1.00  0.00     0.036 C 
HETATM   18  C26 UNL     1      -3.056  49.238 -23.082  1.00  0.00     0.011 C 
HETATM   19  C27 UNL     1      -1.937  49.963 -23.841  1.00  0.00     0.033 C 
HETATM   20  C28 UNL     1      -1.497  51.285 -23.177  1.00  0.00     0.136 C 
HETATM   21  C35 UNL     1      -1.154  51.125 -21.661  1.00  0.00     0.014 C 
HETATM   22  C36 UNL     1       0.162  50.318 -21.474  1.00  0.00     0.021 C 
HETATM   23  C37 UNL     1      -0.862  52.517 -21.044  1.00  0.00     0.021 C 
ENDROOT
BRANCH  20  24
HETATM   24  O3  UNL     1      -0.342  51.776 -23.868  1.00  0.00    -0.352 OA
BRANCH  24  25
HETATM   25  C29 UNL     1      -0.426  51.699 -25.293  1.00  0.00     0.292 C 
HETATM   26  O4  UNL     1       0.901  51.604 -25.806  1.00  0.00    -0.348 OA
HETATM   27  C30 UNL     1       0.933  51.383 -27.230  1.00  0.00     0.179 C 
HETATM   28  C32 UNL     1      -0.104  52.245 -27.989  1.00  0.00     0.180 C 
HETATM   29  C33 UNL     1      -0.498  53.457 -27.142  1.00  0.00     0.183 C 
HETATM   30  C34 UNL     1      -1.107  52.995 -25.803  1.00  0.00     0.204 C 
BRANCH  27  31
HETATM   31  C31 UNL     1       2.366  51.709 -27.673  1.00  0.00     0.198 C 
BRANCH  31  32
HETATM   32  O5  UNL     1       3.321  51.236 -26.737  1.00  0.00    -0.398 OA
HETATM   33  H48 UNL     1       4.197  51.533 -27.047  1.00  0.00     0.209 HD
ENDBRANCH  31  32
ENDBRANCH  27  31
BRANCH  28  34
HETATM   34  O6  UNL     1      -1.314  51.481 -28.212  1.00  0.00    -0.390 OA
HETATM   35  H50 UNL     1      -1.826  52.030 -28.846  1.00  0.00     0.210 HD
ENDBRANCH  28  34
BRANCH  29  36
HETATM   36  O7  UNL     1      -1.445  54.253 -27.879  1.00  0.00    -0.390 OA
HETATM   37  H52 UNL     1      -2.052  54.635 -27.219  1.00  0.00     0.210 HD
ENDBRANCH  29  36
BRANCH  30  38
HETATM   38  O8  UNL     1      -2.531  52.789 -25.953  1.00  0.00    -0.388 OA
HETATM   39  H54 UNL     1      -2.624  52.168 -26.706  1.00  0.00     0.210 HD
ENDBRANCH  30  38
ENDBRANCH  24  25
ENDBRANCH  20  24
BRANCH   1  40
HETATM   40  C8  UNL     1      -8.353  45.217 -20.428  1.00  0.00    -0.010 C 
HETATM   41  C9  UNL     1      -8.121  43.972 -21.304  1.00  0.00     0.010 C 
BRANCH  40  42
HETATM   42  C7  UNL     1      -9.861  45.416 -20.156  1.00  0.00     0.031 C 
BRANCH  42  43
HETATM   43  C6  UNL     1     -10.214  45.561 -18.697  1.00  0.00    -0.027 C 
HETATM   44  C5  UNL     1     -11.483  45.603 -18.250  1.00  0.00     0.006 C 
BRANCH  44  45
HETATM   45  C2  UNL     1     -11.969  45.811 -16.828  1.00  0.00     0.070 C 
HETATM   46  C3  UNL     1     -13.107  46.843 -16.866  1.00  0.00     0.050 C 
HETATM   47  C4  UNL     1     -12.481  44.551 -16.110  1.00  0.00     0.050 C 
BRANCH  45  48
HETATM   48  O1  UNL     1     -10.912  46.451 -16.089  1.00  0.00    -0.382 OA
HETATM   49  C1  UNL     1     -10.420  45.741 -14.961  1.00  0.00     0.202 C 
ENDBRANCH  45  48
ENDBRANCH  44  45
ENDBRANCH  42  43
ENDBRANCH  40  42
ENDBRANCH   1  40
TORSDOF 12
ENDMDL
MODEL 6
REMARK minimizedAffinity -10.6276875
REMARK CNNscore 0.34183991
REMARK CNNaffinity 7.29352713
REMARK  12 active torsions:
REMARK  status: ('A' for Active; 'I' for Inactive)
REMARK    1  A    between atoms: O1_2  and  C2_3 
REMARK    2  A    between atoms: C2_3  and  C5_6 
REMARK    3  A    between atoms: C6_7  and  C7_8 
REMARK    4  A    between atoms: C7_8  and  C8_9 
REMARK    5  A    between atoms: C8_9  and  C10_11 
REMARK    6  A    between atoms: C28_30  and  O3_31 
REMARK    7  A    between atoms: O3_31  and  C29_32 
REMARK    8  A    between atoms: C30_34  and  C31_35 
REMARK    9  A    between atoms: C31_35  and  O5_36 
REMARK   10  A    between atoms: C32_37  and  O6_38 
REMARK   11  A    between atoms: C33_39  and  O7_40 
REMARK   12  A    between atoms: C34_41  and  O8_42 
ROOT
HETATM    1  C10 UNL     1      -0.968  50.490 -21.590  1.00  0.00    -0.002 C 
HETATM    2  C11 UNL     1      -0.750  49.213 -20.724  1.00  0.00     0.006 C 
HETATM    3  C12 UNL     1      -2.082  48.434 -20.714  1.00  0.00     0.011 C 
HETATM    4  C13 UNL     1      -2.900  49.036 -21.872  1.00  0.00    -0.029 C 
HETATM    5  C14 UNL     1      -2.360  48.356 -23.164  1.00  0.00     0.016 C 
HETATM    6  C15 UNL     1      -4.443  48.859 -21.757  1.00  0.00     0.028 C 
HETATM    7  C16 UNL     1      -4.941  47.429 -21.782  1.00  0.00    -0.021 C 
HETATM    8  C17 UNL     1      -6.075  47.092 -22.421  1.00  0.00     0.008 C 
HETATM    9  C18 UNL     1      -6.881  48.116 -23.214  1.00  0.00     0.092 C 
HETATM   10  O2  UNL     1      -7.508  48.952 -22.222  1.00  0.00    -0.374 OA
HETATM   11  C19 UNL     1      -6.648  50.093 -22.013  1.00  0.00     0.179 C 
HETATM   12  C20 UNL     1      -5.276  49.800 -22.722  1.00  0.00    -0.004 C 
HETATM   13  C21 UNL     1      -4.605  51.153 -23.094  1.00  0.00     0.014 C 
HETATM   14  C22 UNL     1      -3.076  51.278 -22.976  1.00  0.00     0.011 C 
HETATM   15  C23 UNL     1      -2.523  50.565 -21.734  1.00  0.00    -0.032 C 
HETATM   16  C24 UNL     1      -3.120  51.254 -20.477  1.00  0.00     0.016 C 
HETATM   17  C25 UNL     1      -5.913  49.077 -23.932  1.00  0.00     0.036 C 
HETATM   18  C26 UNL     1      -5.109  48.358 -25.006  1.00  0.00     0.011 C 
HETATM   19  C27 UNL     1      -6.056  47.701 -26.019  1.00  0.00     0.033 C 
HETATM   20  C28 UNL     1      -7.126  46.799 -25.367  1.00  0.00     0.136 C 
HETATM   21  C35 UNL     1      -7.914  47.514 -24.222  1.00  0.00     0.014 C 
HETATM   22  C36 UNL     1      -8.849  48.614 -24.796  1.00  0.00     0.021 C 
HETATM   23  C37 UNL     1      -8.863  46.500 -23.533  1.00  0.00     0.021 C 
ENDROOT
BRANCH  20  24
HETATM   24  O3  UNL     1      -8.049  46.387 -26.382  1.00  0.00    -0.352 OA
BRANCH  24  25
HETATM   25  C29 UNL     1      -9.263  47.141 -26.422  1.00  0.00     0.292 C 
HETATM   26  O4  UNL     1     -10.332  46.271 -26.056  1.00  0.00    -0.348 OA
HETATM   27  C30 UNL     1     -11.592  46.960 -25.929  1.00  0.00     0.179 C 
HETATM   28  C32 UNL     1     -11.820  47.995 -27.055  1.00  0.00     0.180 C 
HETATM   29  C33 UNL     1     -10.951  47.650 -28.267  1.00  0.00     0.183 C 
HETATM   30  C34 UNL     1      -9.460  47.654 -27.871  1.00  0.00     0.204 C 
BRANCH  27  31
HETATM   31  C31 UNL     1     -12.670  45.868 -25.942  1.00  0.00     0.198 C 
BRANCH  31  32
HETATM   32  O5  UNL     1     -13.631  46.095 -26.960  1.00  0.00    -0.398 OA
HETATM   33  H48 UNL     1     -14.314  45.405 -26.868  1.00  0.00     0.209 HD
ENDBRANCH  31  32
ENDBRANCH  27  31
BRANCH  28  34
HETATM   34  O6  UNL     1     -11.411  49.311 -26.610  1.00  0.00    -0.390 OA
HETATM   35  H50 UNL     1     -11.759  49.913 -27.303  1.00  0.00     0.210 HD
ENDBRANCH  28  34
BRANCH  29  36
HETATM   36  O7  UNL     1     -11.199  48.614 -29.308  1.00  0.00    -0.390 OA
HETATM   37  H52 UNL     1     -10.352  48.734 -29.776  1.00  0.00     0.210 HD
ENDBRANCH  29  36
BRANCH  30  38
HETATM   38  O8  UNL     1      -8.916  48.988 -28.011  1.00  0.00    -0.388 OA
HETATM   39  H54 UNL     1      -9.505  49.563 -27.480  1.00  0.00     0.210 HD
ENDBRANCH  30  38
ENDBRANCH  24  25
ENDBRANCH  20  24
BRANCH   1  40
HETATM   40  C8  UNL     1      -0.088  51.707 -21.153  1.00  0.00    -0.010 C 
HETATM   41  C9  UNL     1      -0.389  52.334 -19.779  1.00  0.00     0.010 C 
BRANCH  40  42
HETATM   42  C7  UNL     1      -0.045  52.797 -22.249  1.00  0.00     0.031 C 
BRANCH  42  43
HETATM   43  C6  UNL     1       0.440  52.309 -23.591  1.00  0.00    -0.027 C 
HETATM   44  C5  UNL     1       0.101  52.898 -24.752  1.00  0.00     0.006 C 
BRANCH  44  45
HETATM   45  C2  UNL     1       0.464  52.469 -26.162  1.00  0.00     0.070 C 
HETATM   46  C3  UNL     1       0.108  50.981 -26.307  1.00  0.00     0.050 C 
HETATM   47  C4  UNL     1      -0.230  53.247 -27.292  1.00  0.00     0.050 C 
BRANCH  45  48
HETATM   48  O1  UNL     1       1.898  52.521 -26.283  1.00  0.00    -0.382 OA
HETATM   49  C1  UNL     1       2.520  51.366 -26.831  1.00  0.00     0.202 C 
ENDBRANCH  45  48
ENDBRANCH  44  45
ENDBRANCH  42  43
ENDBRANCH  40  42
ENDBRANCH   1  40
TORSDOF 12
ENDMDL
MODEL 7
REMARK minimizedAffinity -9.14334393
REMARK CNNscore 0.337791622
REMARK CNNaffinity 6.86042023
REMARK  12 active torsions:
REMARK  status: ('A' for Active; 'I' for Inactive)
REMARK    1  A    between atoms: O1_2  and  C2_3 
REMARK    2  A    between atoms: C2_3  and  C5_6 
REMARK    3  A    between atoms: C6_7  and  C7_8 
REMARK    4  A    between atoms: C7_8  and  C8_9 
REMARK    5  A    between atoms: C8_9  and  C10_11 
REMARK    6  A    between atoms: C28_30  and  O3_31 
REMARK    7  A    between atoms: O3_31  and  C29_32 
REMARK    8  A    between atoms: C30_34  and  C31_35 
REMARK    9  A    between atoms: C31_35  and  O5_36 
REMARK   10  A    between atoms: C32_37  and  O6_38 
REMARK   11  A    between atoms: C33_39  and  O7_40 
REMARK   12  A    between atoms: C34_41  and  O8_42 
ROOT
HETATM    1  C10 UNL     1      -0.147  51.441 -21.088  1.00  0.00    -0.002 C 
HETATM    2  C11 UNL     1      -0.541  51.990 -19.683  1.00  0.00     0.006 C 
HETATM    3  C12 UNL     1      -1.976  51.506 -19.389  1.00  0.00     0.011 C 
HETATM    4  C13 UNL     1      -2.231  50.381 -20.410  1.00  0.00    -0.029 C 
HETATM    5  C14 UNL     1      -1.544  49.116 -19.817  1.00  0.00     0.016 C 
HETATM    6  C15 UNL     1      -3.730  50.100 -20.727  1.00  0.00     0.028 C 
HETATM    7  C16 UNL     1      -4.564  49.609 -19.562  1.00  0.00    -0.021 C 
HETATM    8  C17 UNL     1      -5.512  48.669 -19.724  1.00  0.00     0.008 C 
HETATM    9  C18 UNL     1      -5.748  47.995 -21.071  1.00  0.00     0.092 C 
HETATM   10  O2  UNL     1      -6.387  48.997 -21.886  1.00  0.00    -0.374 OA
HETATM   11  C19 UNL     1      -5.350  49.670 -22.634  1.00  0.00     0.179 C 
HETATM   12  C20 UNL     1      -3.963  49.237 -22.035  1.00  0.00    -0.004 C 
HETATM   13  C21 UNL     1      -2.876  49.372 -23.139  1.00  0.00     0.014 C 
HETATM   14  C22 UNL     1      -1.471  49.857 -22.738  1.00  0.00     0.011 C 
HETATM   15  C23 UNL     1      -1.514  50.975 -21.687  1.00  0.00    -0.032 C 
HETATM   16  C24 UNL     1      -2.242  52.197 -22.311  1.00  0.00     0.016 C 
HETATM   17  C25 UNL     1      -4.393  47.774 -21.771  1.00  0.00     0.036 C 
HETATM   18  C26 UNL     1      -3.536  46.764 -21.021  1.00  0.00     0.011 C 
HETATM   19  C27 UNL     1      -4.289  45.434 -20.887  1.00  0.00     0.033 C 
HETATM   20  C28 UNL     1      -5.704  45.585 -20.286  1.00  0.00     0.136 C 
HETATM   21  C35 UNL     1      -6.567  46.664 -21.015  1.00  0.00     0.014 C 
HETATM   22  C36 UNL     1      -6.965  46.186 -22.439  1.00  0.00     0.021 C 
HETATM   23  C37 UNL     1      -7.910  46.849 -20.264  1.00  0.00     0.021 C 
ENDROOT
BRANCH  20  24
HETATM   24  O3  UNL     1      -6.369  44.318 -20.373  1.00  0.00    -0.352 OA
BRANCH  24  25
HETATM   25  C29 UNL     1      -6.237  43.499 -19.209  1.00  0.00     0.292 C 
HETATM   26  O4  UNL     1      -5.131  42.622 -19.413  1.00  0.00    -0.348 OA
HETATM   27  C30 UNL     1      -4.818  41.839 -18.244  1.00  0.00     0.179 C 
HETATM   28  C32 UNL     1      -6.082  41.298 -17.536  1.00  0.00     0.180 C 
HETATM   29  C33 UNL     1      -7.258  41.265 -18.515  1.00  0.00     0.183 C 
HETATM   30  C34 UNL     1      -7.545  42.683 -19.049  1.00  0.00     0.204 C 
BRANCH  27  31
HETATM   31  C31 UNL     1      -3.916  40.699 -18.733  1.00  0.00     0.198 C 
BRANCH  31  32
HETATM   32  O5  UNL     1      -2.702  41.191 -19.277  1.00  0.00    -0.398 OA
HETATM   33  H48 UNL     1      -2.211  40.422 -19.623  1.00  0.00     0.209 HD
ENDBRANCH  31  32
ENDBRANCH  27  31
BRANCH  28  34
HETATM   34  O6  UNL     1      -6.464  42.185 -16.456  1.00  0.00    -0.390 OA
HETATM   35  H50 UNL     1      -7.143  41.676 -15.962  1.00  0.00     0.210 HD
ENDBRANCH  28  34
BRANCH  29  36
HETATM   36  O7  UNL     1      -8.414  40.737 -17.838  1.00  0.00    -0.390 OA
HETATM   37  H52 UNL     1      -9.186  41.197 -18.216  1.00  0.00     0.210 HD
ENDBRANCH  29  36
BRANCH  30  38
HETATM   38  O8  UNL     1      -8.460  43.368 -18.162  1.00  0.00    -0.388 OA
HETATM   39  H54 UNL     1      -8.046  43.317 -17.275  1.00  0.00     0.210 HD
ENDBRANCH  30  38
ENDBRANCH  24  25
ENDBRANCH  20  24
BRANCH   1  40
HETATM   40  C8  UNL     1       0.862  52.352 -21.862  1.00  0.00    -0.010 C 
HETATM   41  C9  UNL     1       1.538  53.484 -21.066  1.00  0.00     0.010 C 
BRANCH  40  42
HETATM   42  C7  UNL     1       0.243  52.901 -23.167  1.00  0.00     0.031 C 
BRANCH  42  43
HETATM   43  C6  UNL     1       0.686  52.179 -24.415  1.00  0.00    -0.027 C 
HETATM   44  C5  UNL     1       0.465  52.654 -25.655  1.00  0.00     0.006 C 
BRANCH  44  45
HETATM   45  C2  UNL     1       0.797  51.999 -26.982  1.00  0.00     0.070 C 
HETATM   46  C3  UNL     1       0.300  52.927 -28.102  1.00  0.00     0.050 C 
HETATM   47  C4  UNL     1       2.287  51.703 -27.222  1.00  0.00     0.050 C 
BRANCH  45  48
HETATM   48  O1  UNL     1      -0.007  50.811 -27.102  1.00  0.00    -0.382 OA
HETATM   49  C1  UNL     1      -1.394  51.016 -27.331  1.00  0.00     0.202 C 
ENDBRANCH  45  48
ENDBRANCH  44  45
ENDBRANCH  42  43
ENDBRANCH  40  42
ENDBRANCH   1  40
TORSDOF 12
ENDMDL
MODEL 8
REMARK minimizedAffinity -8.7406311
REMARK CNNscore 0.31482324
REMARK CNNaffinity 6.83890963
REMARK  12 active torsions:
REMARK  status: ('A' for Active; 'I' for Inactive)
REMARK    1  A    between atoms: O1_2  and  C2_3 
REMARK    2  A    between atoms: C2_3  and  C5_6 
REMARK    3  A    between atoms: C6_7  and  C7_8 
REMARK    4  A    between atoms: C7_8  and  C8_9 
REMARK    5  A    between atoms: C8_9  and  C10_11 
REMARK    6  A    between atoms: C28_30  and  O3_31 
REMARK    7  A    between atoms: O3_31  and  C29_32 
REMARK    8  A    between atoms: C30_34  and  C31_35 
REMARK    9  A    between atoms: C31_35  and  O5_36 
REMARK   10  A    between atoms: C32_37  and  O6_38 
REMARK   11  A    between atoms: C33_39  and  O7_40 
REMARK   12  A    between atoms: C34_41  and  O8_42 
ROOT
HETATM    1  C10 UNL     1      -2.525  50.078 -21.945  1.00  0.00    -0.002 C 
HETATM    2  C11 UNL     1      -2.783  49.362 -23.305  1.00  0.00     0.006 C 
HETATM    3  C12 UNL     1      -3.784  48.218 -23.036  1.00  0.00     0.011 C 
HETATM    4  C13 UNL     1      -4.386  48.537 -21.654  1.00  0.00    -0.029 C 
HETATM    5  C14 UNL     1      -5.483  49.611 -21.914  1.00  0.00     0.016 C 
HETATM    6  C15 UNL     1      -4.978  47.315 -20.890  1.00  0.00     0.028 C 
HETATM    7  C16 UNL     1      -6.157  46.637 -21.555  1.00  0.00    -0.021 C 
HETATM    8  C17 UNL     1      -7.192  46.166 -20.837  1.00  0.00     0.008 C 
HETATM    9  C18 UNL     1      -7.268  46.353 -19.325  1.00  0.00     0.092 C 
HETATM   10  O2  UNL     1      -6.284  45.451 -18.784  1.00  0.00    -0.374 OA
HETATM   11  C19 UNL     1      -5.061  46.200 -18.611  1.00  0.00     0.179 C 
HETATM   12  C20 UNL     1      -5.229  47.578 -19.348  1.00  0.00    -0.004 C 
HETATM   13  C21 UNL     1      -4.294  48.623 -18.676  1.00  0.00     0.014 C 
HETATM   14  C22 UNL     1      -3.596  49.669 -19.564  1.00  0.00     0.011 C 
HETATM   15  C23 UNL     1      -3.110  49.079 -20.895  1.00  0.00    -0.032 C 
HETATM   16  C24 UNL     1      -2.050  47.988 -20.581  1.00  0.00     0.016 C 
HETATM   17  C25 UNL     1      -6.717  47.745 -18.959  1.00  0.00     0.036 C 
HETATM   18  C26 UNL     1      -7.610  48.857 -19.495  1.00  0.00     0.011 C 
HETATM   19  C27 UNL     1      -9.036  48.689 -18.955  1.00  0.00     0.033 C 
HETATM   20  C28 UNL     1      -9.624  47.281 -19.191  1.00  0.00     0.136 C 
HETATM   21  C35 UNL     1      -8.684  46.135 -18.698  1.00  0.00     0.014 C 
HETATM   22  C36 UNL     1      -8.615  46.104 -17.146  1.00  0.00     0.021 C 
HETATM   23  C37 UNL     1      -9.283  44.762 -19.100  1.00  0.00     0.021 C 
ENDROOT
BRANCH  20  24
HETATM   24  O3  UNL     1     -10.874  47.190 -18.497  1.00  0.00    -0.352 OA
BRANCH  24  25
HETATM   25  C29 UNL     1     -12.019  47.506 -19.293  1.00  0.00     0.292 C 
HETATM   26  O4  UNL     1     -13.055  47.946 -18.417  1.00  0.00    -0.348 OA
HETATM   27  C30 UNL     1     -14.217  48.422 -19.125  1.00  0.00     0.179 C 
HETATM   28  C32 UNL     1     -14.585  47.529 -20.332  1.00  0.00     0.180 C 
HETATM   29  C33 UNL     1     -13.991  46.131 -20.151  1.00  0.00     0.183 C 
HETATM   30  C34 UNL     1     -12.455  46.218 -20.036  1.00  0.00     0.204 C 
BRANCH  27  31
HETATM   31  C31 UNL     1     -15.349  48.464 -18.090  1.00  0.00     0.198 C 
BRANCH  31  32
HETATM   32  O5  UNL     1     -15.351  49.685 -17.368  1.00  0.00    -0.398 OA
HETATM   33  H48 UNL     1     -16.049  49.616 -16.690  1.00  0.00     0.209 HD
ENDBRANCH  31  32
ENDBRANCH  27  31
BRANCH  28  34
HETATM   34  O6  UNL     1     -14.010  48.073 -21.545  1.00  0.00    -0.390 OA
HETATM   35  H50 UNL     1     -14.443  47.560 -22.262  1.00  0.00     0.210 HD
ENDBRANCH  28  34
BRANCH  29  36
HETATM   36  O7  UNL     1     -14.367  45.315 -21.276  1.00  0.00    -0.390 OA
HETATM   37  H52 UNL     1     -13.620  44.709 -21.436  1.00  0.00     0.210 HD
ENDBRANCH  29  36
BRANCH  30  38
HETATM   38  O8  UNL     1     -11.858  46.169 -21.353  1.00  0.00    -0.388 OA
HETATM   39  H54 UNL     1     -12.294  46.886 -21.860  1.00  0.00     0.210 HD
ENDBRANCH  30  38
ENDBRANCH  24  25
ENDBRANCH  20  24
BRANCH   1  40
HETATM   40  C8  UNL     1      -1.098  50.710 -21.826  1.00  0.00    -0.010 C 
HETATM   41  C9  UNL     1      -0.568  50.982 -20.406  1.00  0.00     0.010 C 
BRANCH  40  42
HETATM   42  C7  UNL     1      -0.962  51.972 -22.707  1.00  0.00     0.031 C 
BRANCH  42  43
HETATM   43  C6  UNL     1      -0.347  51.720 -24.061  1.00  0.00    -0.027 C 
HETATM   44  C5  UNL     1      -0.128  52.697 -24.960  1.00  0.00     0.006 C 
BRANCH  44  45
HETATM   45  C2  UNL     1       0.417  52.567 -26.371  1.00  0.00     0.070 C 
HETATM   46  C3  UNL     1       0.107  51.145 -26.866  1.00  0.00     0.050 C 
HETATM   47  C4  UNL     1      -0.141  53.570 -27.393  1.00  0.00     0.050 C 
BRANCH  45  48
HETATM   48  O1  UNL     1       1.853  52.628 -26.296  1.00  0.00    -0.382 OA
HETATM   49  C1  UNL     1       2.549  51.443 -26.661  1.00  0.00     0.202 C 
ENDBRANCH  45  48
ENDBRANCH  44  45
ENDBRANCH  42  43
ENDBRANCH  40  42
ENDBRANCH   1  40
TORSDOF 12
ENDMDL
MODEL 9
REMARK minimizedAffinity -8.88215828
REMARK CNNscore 0.312211066
REMARK CNNaffinity 6.62876177
REMARK  12 active torsions:
REMARK  status: ('A' for Active; 'I' for Inactive)
REMARK    1  A    between atoms: O1_2  and  C2_3 
REMARK    2  A    between atoms: C2_3  and  C5_6 
REMARK    3  A    between atoms: C6_7  and  C7_8 
REMARK    4  A    between atoms: C7_8  and  C8_9 
REMARK    5  A    between atoms: C8_9  and  C10_11 
REMARK    6  A    between atoms: C28_30  and  O3_31 
REMARK    7  A    between atoms: O3_31  and  C29_32 
REMARK    8  A    between atoms: C30_34  and  C31_35 
REMARK    9  A    between atoms: C31_35  and  O5_36 
REMARK   10  A    between atoms: C32_37  and  O6_38 
REMARK   11  A    between atoms: C33_39  and  O7_40 
REMARK   12  A    between atoms: C34_41  and  O8_42 
ROOT
HETATM    1  C10 UNL     1      -1.036  50.961 -21.246  1.00  0.00    -0.002 C 
HETATM    2  C11 UNL     1      -1.472  51.582 -19.884  1.00  0.00     0.006 C 
HETATM    3  C12 UNL     1      -2.986  51.324 -19.728  1.00  0.00     0.011 C 
HETATM    4  C13 UNL     1      -3.311  50.236 -20.769  1.00  0.00    -0.029 C 
HETATM    5  C14 UNL     1      -2.881  48.890 -20.115  1.00  0.00     0.016 C 
HETATM    6  C15 UNL     1      -4.798  50.179 -21.227  1.00  0.00     0.028 C 
HETATM    7  C16 UNL     1      -5.802  49.835 -20.146  1.00  0.00    -0.021 C 
HETATM    8  C17 UNL     1      -6.862  49.047 -20.398  1.00  0.00     0.008 C 
HETATM    9  C18 UNL     1      -7.070  48.397 -21.763  1.00  0.00     0.092 C 
HETATM   10  O2  UNL     1      -7.471  49.473 -22.634  1.00  0.00    -0.374 OA
HETATM   11  C19 UNL     1      -6.279  49.972 -23.279  1.00  0.00     0.179 C 
HETATM   12  C20 UNL     1      -5.035  49.343 -22.552  1.00  0.00    -0.004 C 
HETATM   13  C21 UNL     1      -3.842  49.298 -23.548  1.00  0.00     0.014 C 
HETATM   14  C22 UNL     1      -2.424  49.572 -23.015  1.00  0.00     0.011 C 
HETATM   15  C23 UNL     1      -2.395  50.698 -21.972  1.00  0.00    -0.032 C 
HETATM   16  C24 UNL     1      -2.869  52.007 -22.662  1.00  0.00     0.016 C 
HETATM   17  C25 UNL     1      -5.704  47.966 -22.331  1.00  0.00     0.036 C 
HETATM   18  C26 UNL     1      -5.083  46.848 -21.504  1.00  0.00     0.011 C 
HETATM   19  C27 UNL     1      -6.038  45.649 -21.442  1.00  0.00     0.033 C 
HETATM   20  C28 UNL     1      -7.464  46.019 -20.978  1.00  0.00     0.136 C 
HETATM   21  C35 UNL     1      -8.082  47.206 -21.785  1.00  0.00     0.014 C 
HETATM   22  C36 UNL     1      -8.412  46.774 -23.241  1.00  0.00     0.021 C 
HETATM   23  C37 UNL     1      -9.446  47.601 -21.164  1.00  0.00     0.021 C 
ENDROOT
BRANCH  20  24
HETATM   24  O3  UNL     1      -8.301  44.866 -21.128  1.00  0.00    -0.352 OA
BRANCH  24  25
HETATM   25  C29 UNL     1      -7.593  43.639 -21.323  1.00  0.00     0.292 C 
HETATM   26  O4  UNL     1      -8.099  43.024 -22.506  1.00  0.00    -0.348 OA
HETATM   27  C30 UNL     1      -7.361  41.842 -22.877  1.00  0.00     0.179 C 
HETATM   28  C32 UNL     1      -7.011  40.954 -21.660  1.00  0.00     0.180 C 
HETATM   29  C33 UNL     1      -7.964  41.252 -20.501  1.00  0.00     0.183 C 
HETATM   30  C34 UNL     1      -7.856  42.735 -20.092  1.00  0.00     0.204 C 
BRANCH  27  31
HETATM   31  C31 UNL     1      -8.247  41.095 -23.882  1.00  0.00     0.198 C 
BRANCH  31  32
HETATM   32  O5  UNL     1      -7.569  39.986 -24.452  1.00  0.00    -0.398 OA
HETATM   33  H48 UNL     1      -8.163  39.601 -25.123  1.00  0.00     0.209 HD
ENDBRANCH  31  32
ENDBRANCH  27  31
BRANCH  28  34
HETATM   34  O6  UNL     1      -5.676  41.260 -21.191  1.00  0.00    -0.390 OA
HETATM   35  H50 UNL     1      -5.477  40.537 -20.556  1.00  0.00     0.210 HD
ENDBRANCH  28  34
BRANCH  29  36
HETATM   36  O7  UNL     1      -7.631  40.397 -19.391  1.00  0.00    -0.390 OA
HETATM   37  H52 UNL     1      -7.812  40.914 -18.585  1.00  0.00     0.210 HD
ENDBRANCH  29  36
BRANCH  30  38
HETATM   38  O8  UNL     1      -6.805  42.901 -19.111  1.00  0.00    -0.388 OA
HETATM   39  H54 UNL     1      -6.007  42.507 -19.521  1.00  0.00     0.210 HD
ENDBRANCH  30  38
ENDBRANCH  24  25
ENDBRANCH  20  24
BRANCH   1  40
HETATM   40  C8  UNL     1       0.167  51.699 -21.920  1.00  0.00    -0.010 C 
HETATM   41  C9  UNL     1       1.062  52.559 -21.009  1.00  0.00     0.010 C 
BRANCH  40  42
HETATM   42  C7  UNL     1      -0.286  52.509 -23.156  1.00  0.00     0.031 C 
BRANCH  42  43
HETATM   43  C6  UNL     1       0.294  52.025 -24.461  1.00  0.00    -0.027 C 
HETATM   44  C5  UNL     1      -0.051  52.543 -25.655  1.00  0.00     0.006 C 
BRANCH  44  45
HETATM   45  C2  UNL     1       0.405  52.105 -27.034  1.00  0.00     0.070 C 
HETATM   46  C3  UNL     1       0.017  53.208 -28.030  1.00  0.00     0.050 C 
HETATM   47  C4  UNL     1       1.910  51.828 -27.178  1.00  0.00     0.050 C 
BRANCH  45  48
HETATM   48  O1  UNL     1      -0.385  50.964 -27.418  1.00  0.00    -0.382 OA
HETATM   49  C1  UNL     1      -1.791  51.163 -27.461  1.00  0.00     0.202 C 
ENDBRANCH  45  48
ENDBRANCH  44  45
ENDBRANCH  42  43
ENDBRANCH  40  42
ENDBRANCH   1  40
TORSDOF 12
ENDMDL
