MODEL 1
REMARK minimizedAffinity -8.05260944
REMARK CNNscore 0.19840543
REMARK CNNaffinity 7.79614782
REMARK  12 active torsions:
REMARK  status: ('A' for Active; 'I' for Inactive)
REMARK    1  A    between atoms: C2_2  and  C3_3 
REMARK    2  A    between atoms: C5_5  and  S1_6 
REMARK    3  A    between atoms: C14_18  and  C15_19 
REMARK    4  A    between atoms: C15_19  and  O4_20 
REMARK    5  A    between atoms: C21_26  and  O5_27 
REMARK    6  A    between atoms: C33_40  and  C34_41 
REMARK    7  A    between atoms: C33_40  and  N1_52 
REMARK    8  A    between atoms: C34_41  and  C35_42 
REMARK    9  A    between atoms: C35_42  and  C36_43 
REMARK   10  A    between atoms: C35_42  and  C37_45 
REMARK   11  A    between atoms: C36_43  and  O7_44 
REMARK   12  A    between atoms: C37_45  and  C38_46 
REMARK       I    between atoms: C44_54  and  N2_55 
REMARK       I    between atoms: C44_54  and  N3_56 
ROOT
HETATM    1  C3  UNL     1      -7.165  47.935 -20.134  1.00  0.00     0.019 C 
HETATM    2  C4  UNL     1      -5.826  48.595 -19.675  1.00  0.00     0.033 C 
HETATM    3  C5  UNL     1      -4.533  47.961 -20.248  1.00  0.00     0.139 C 
HETATM    4  C6  UNL     1      -3.224  48.245 -19.440  1.00  0.00     0.038 C 
HETATM    5  C7  UNL     1      -2.802  49.705 -19.331  1.00  0.00    -0.014 C 
HETATM    6  C8  UNL     1      -1.683  49.979 -18.627  1.00  0.00    -0.050 C 
HETATM    7  C9  UNL     1      -0.948  48.796 -18.050  1.00  0.00     0.042 C 
HETATM    8  C10 UNL     1      -1.982  48.195 -17.096  1.00  0.00     0.001 C 
HETATM    9  C11 UNL     1      -2.497  49.269 -16.066  1.00  0.00     0.037 C 
HETATM   10  C12 UNL     1      -1.556  50.438 -15.661  1.00  0.00     0.123 C 
HETATM   11  C13 UNL     1      -0.518  49.957 -14.618  1.00  0.00     0.039 C 
HETATM   12  C14 UNL     1       0.460  50.986 -13.974  1.00  0.00     0.023 C 
HETATM   13  C16 UNL     1       1.790  51.230 -14.735  1.00  0.00     0.101 C 
HETATM   14  C17 UNL     1       1.676  51.849 -16.056  1.00  0.00    -0.101 C 
HETATM   15  C18 UNL     1       1.411  52.249 -17.160  1.00  0.00    -0.066 C 
HETATM   16  C19 UNL     1       0.869  52.586 -18.444  1.00  0.00     0.029 A 
HETATM   17  C20 UNL     1       1.668  53.345 -19.309  1.00  0.00     0.057 A 
HETATM   18  C21 UNL     1       1.200  53.687 -20.572  1.00  0.00     0.067 A 
HETATM   19  C22 UNL     1      -0.064  53.296 -20.991  1.00  0.00     0.037 A 
HETATM   20  C23 UNL     1      -0.867  52.543 -20.132  1.00  0.00     0.014 A 
HETATM   21  C24 UNL     1      -0.421  52.159 -18.847  1.00  0.00    -0.006 A 
HETATM   22  C25 UNL     1      -1.380  51.316 -17.994  1.00  0.00     0.185 C 
HETATM   23  O6  UNL     1      -0.829  51.055 -16.707  1.00  0.00    -0.371 OA
HETATM   24  C26 UNL     1      -3.214  47.665 -17.953  1.00  0.00     0.030 C 
HETATM   25  C27 UNL     1      -3.400  46.161 -17.809  1.00  0.00    -0.057 C 
HETATM   26  C28 UNL     1      -3.048  45.252 -18.805  1.00  0.00     0.092 A 
HETATM   27  C29 UNL     1      -3.566  43.955 -18.783  1.00  0.00     0.096 A 
HETATM   28  C30 UNL     1      -4.414  43.520 -17.746  1.00  0.00    -0.007 C 
HETATM   29  C31 UNL     1      -4.584  44.379 -16.646  1.00  0.00     0.010 C 
HETATM   30  C32 UNL     1      -4.086  45.683 -16.682  1.00  0.00     0.005 C 
HETATM   31  C33 UNL     1      -5.308  42.269 -17.942  1.00  0.00     0.169 C 
HETATM   32  O8  UNL     1      -6.737  42.666 -18.056  1.00  0.00    -0.316 OA
HETATM   33  C45 UNL     1      -7.004  43.875 -18.646  1.00  0.00     0.072 C 
HETATM   34  C46 UNL     1      -7.553  44.871 -17.840  1.00  0.00     0.037 C 
HETATM   35  C47 UNL     1      -7.645  46.183 -18.314  1.00  0.00     0.010 C 
HETATM   36  C48 UNL     1      -7.258  46.496 -19.624  1.00  0.00    -0.054 C 
HETATM   37  C49 UNL     1      -6.848  45.446 -20.464  1.00  0.00     0.010 C 
HETATM   38  C50 UNL     1      -6.711  44.144 -19.978  1.00  0.00     0.037 C 
HETATM   39 NA1  UNL     1      -3.296  46.300 -17.920  1.00  0.00    -0.355 Na
ATOM     40 1HA1 UNL     1      -3.567  47.232 -17.606  1.00  0.00     0.103 HD
ATOM     41 2HA1 UNL     1      -3.095  47.050 -17.258  1.00  0.00     0.103 HD
ENDROOT
BRANCH  31  42
HETATM   42  C34 UNL     1      -5.338  41.372 -16.653  1.00  0.00     0.074 C 
BRANCH  42  43
HETATM   43  C35 UNL     1      -4.150  40.471 -16.208  1.00  0.00     0.018 C 
BRANCH  43  44
HETATM   44  C36 UNL     1      -4.547  39.078 -15.699  1.00  0.00     0.169 C 
BRANCH  44  45
HETATM   45  O7  UNL     1      -5.903  38.977 -15.307  1.00  0.00    -0.400 OA
HETATM   46  H41 UNL     1      -6.441  38.816 -16.103  1.00  0.00     0.209 HD
ENDBRANCH  44  45
ENDBRANCH  43  44
BRANCH  43  47
HETATM   47  C37 UNL     1      -3.139  41.193 -15.295  1.00  0.00     0.045 C 
BRANCH  47  48
HETATM   48  C38 UNL     1      -1.832  41.501 -15.994  1.00  0.00    -0.058 A 
HETATM   49  C39 UNL     1      -0.963  42.473 -15.479  1.00  0.00     0.007 A 
HETATM   50  C40 UNL     1       0.237  42.767 -16.130  1.00  0.00     0.001 A 
HETATM   51  C41 UNL     1       0.577  42.095 -17.303  1.00  0.00     0.000 A 
HETATM   52  C42 UNL     1      -0.281  41.125 -17.822  1.00  0.00     0.001 A 
HETATM   53  C43 UNL     1      -1.481  40.831 -17.173  1.00  0.00     0.007 A 
ENDBRANCH  47  48
ENDBRANCH  43  47
ENDBRANCH  42  43
ENDBRANCH  31  42
BRANCH  31  54
HETATM   54  N1  UNL     1      -4.775  41.409 -19.011  1.00  0.00    -0.336 N 
HETATM   55  C44 UNL     1      -5.496  40.611 -19.690  1.00  0.00     0.124 C 
HETATM   56  N2  UNL     1      -4.919  39.848 -20.646  1.00  0.00    -0.279 NA
HETATM   57  N3  UNL     1      -6.820  40.372 -19.658  1.00  0.00    -0.279 NA
HETATM   58  H49 UNL     1      -5.432  39.898 -21.521  1.00  0.00     0.126 HD
HETATM   59  H50 UNL     1      -3.960  40.151 -20.792  1.00  0.00     0.126 HD
HETATM   60  H51 UNL     1      -7.078  39.405 -19.788  1.00  0.00     0.126 HD
HETATM   61  H52 UNL     1      -7.316  40.834 -18.897  1.00  0.00     0.126 HD
ATOM     62  H1  UNL     1      -3.776  41.456 -19.219  1.00  0.00     0.165 HD
ENDBRANCH  31  54
BRANCH   1  63
HETATM   63  C2  UNL     1      -8.352  48.830 -19.702  1.00  0.00     0.005 C 
HETATM   64  C1  UNL     1      -9.709  48.164 -19.901  1.00  0.00     0.006 C 
ENDBRANCH   1  63
BRANCH   3  65
HETATM   65  S1  UNL     1      -4.294  48.391 -22.005  1.00  0.00     0.106 S 
HETATM   66  O1  UNL     1      -4.697  49.797 -22.095  1.00  0.00    -0.595 OA
HETATM   67  O2  UNL     1      -2.870  48.160 -22.243  1.00  0.00    -0.595 OA
HETATM   68  O3  UNL     1      -5.192  47.488 -22.724  1.00  0.00    -0.595 OA
ENDBRANCH   3  65
BRANCH  12  69
HETATM   69  C15 UNL     1      -0.200  52.274 -13.459  1.00  0.00     0.169 C 
BRANCH  69  70
HETATM   70  O4  UNL     1       0.685  53.129 -12.767  1.00  0.00    -0.400 OA
HETATM   71  H23 UNL     1       0.162  53.752 -12.241  1.00  0.00     0.209 HD
ENDBRANCH  69  70
ENDBRANCH  12  69
BRANCH  18  72
HETATM   72  O5  UNL     1       2.024  54.400 -21.392  1.00  0.00    -0.361 OA
HETATM   73  H27 UNL     1       1.572  54.501 -22.247  1.00  0.00     0.217 HD
ENDBRANCH  18  72
TORSDOF 12
ENDMDL
MODEL 2
REMARK minimizedAffinity -9.89895439
REMARK CNNscore 0.137182787
REMARK CNNaffinity 6.75340128
REMARK  12 active torsions:
REMARK  status: ('A' for Active; 'I' for Inactive)
REMARK    1  A    between atoms: C2_2  and  C3_3 
REMARK    2  A    between atoms: C5_5  and  S1_6 
REMARK    3  A    between atoms: C14_18  and  C15_19 
REMARK    4  A    between atoms: C15_19  and  O4_20 
REMARK    5  A    between atoms: C21_26  and  O5_27 
REMARK    6  A    between atoms: C33_40  and  C34_41 
REMARK    7  A    between atoms: C33_40  and  N1_52 
REMARK    8  A    between atoms: C34_41  and  C35_42 
REMARK    9  A    between atoms: C35_42  and  C36_43 
REMARK   10  A    between atoms: C35_42  and  C37_45 
REMARK   11  A    between atoms: C36_43  and  O7_44 
REMARK   12  A    between atoms: C37_45  and  C38_46 
REMARK       I    between atoms: C44_54  and  N2_55 
REMARK       I    between atoms: C44_54  and  N3_56 
ROOT
HETATM    1  C3  UNL     1     -11.749  43.641 -24.094  1.00  0.00     0.019 C 
HETATM    2  C4  UNL     1     -11.094  44.090 -25.438  1.00  0.00     0.033 C 
HETATM    3  C5  UNL     1     -11.527  45.484 -25.963  1.00  0.00     0.139 C 
HETATM    4  C6  UNL     1     -11.306  45.729 -27.492  1.00  0.00     0.038 C 
HETATM    5  C7  UNL     1      -9.865  45.674 -27.983  1.00  0.00    -0.014 C 
HETATM    6  C8  UNL     1      -9.647  45.869 -29.301  1.00  0.00    -0.050 C 
HETATM    7  C9  UNL     1     -10.863  46.157 -30.145  1.00  0.00     0.042 C 
HETATM    8  C10 UNL     1     -11.693  44.884 -29.977  1.00  0.00     0.001 C 
HETATM    9  C11 UNL     1     -10.859  43.606 -30.365  1.00  0.00     0.037 C 
HETATM   10  C12 UNL     1      -9.722  43.737 -31.416  1.00  0.00     0.123 C 
HETATM   11  C13 UNL     1     -10.312  43.767 -32.847  1.00  0.00     0.039 C 
HETATM   12  C14 UNL     1      -9.353  43.777 -34.075  1.00  0.00     0.023 C 
HETATM   13  C16 UNL     1      -8.887  45.174 -34.566  1.00  0.00     0.101 C 
HETATM   14  C17 UNL     1      -8.049  45.938 -33.641  1.00  0.00    -0.101 C 
HETATM   15  C18 UNL     1      -7.476  46.485 -32.735  1.00  0.00    -0.066 C 
HETATM   16  C19 UNL     1      -6.951  46.986 -31.498  1.00  0.00     0.029 A 
HETATM   17  C20 UNL     1      -5.997  48.009 -31.563  1.00  0.00     0.057 A 
HETATM   18  C21 UNL     1      -5.465  48.545 -30.396  1.00  0.00     0.067 A 
HETATM   19  C22 UNL     1      -5.858  48.068 -29.153  1.00  0.00     0.037 A 
HETATM   20  C23 UNL     1      -6.805  47.044 -29.081  1.00  0.00     0.014 A 
HETATM   21  C24 UNL     1      -7.383  46.487 -30.244  1.00  0.00    -0.006 A 
HETATM   22  C25 UNL     1      -8.429  45.379 -30.046  1.00  0.00     0.185 C 
HETATM   23  O6  UNL     1      -8.879  44.868 -31.296  1.00  0.00    -0.371 OA
HETATM   24  C26 UNL     1     -12.142  44.768 -28.454  1.00  0.00     0.030 C 
HETATM   25  C27 UNL     1     -13.656  44.807 -28.304  1.00  0.00    -0.057 C 
HETATM   26  C28 UNL     1     -14.345  45.922 -27.831  1.00  0.00     0.092 A 
HETATM   27  C29 UNL     1     -15.657  45.790 -27.369  1.00  0.00     0.096 A 
HETATM   28  C30 UNL     1     -16.327  44.551 -27.406  1.00  0.00    -0.007 C 
HETATM   29  C31 UNL     1     -15.693  43.493 -28.080  1.00  0.00     0.010 C 
HETATM   30  C32 UNL     1     -14.374  43.620 -28.518  1.00  0.00     0.005 C 
HETATM   31  C33 UNL     1     -17.580  44.315 -26.524  1.00  0.00     0.169 C 
HETATM   32  O8  UNL     1     -17.265  43.368 -25.420  1.00  0.00    -0.316 OA
HETATM   33  C45 UNL     1     -15.990  43.399 -24.915  1.00  0.00     0.072 C 
HETATM   34  C46 UNL     1     -15.194  42.273 -25.122  1.00  0.00     0.037 C 
HETATM   35  C47 UNL     1     -13.827  42.320 -24.832  1.00  0.00     0.010 C 
HETATM   36  C48 UNL     1     -13.259  43.467 -24.262  1.00  0.00    -0.054 C 
HETATM   37  C49 UNL     1     -14.110  44.534 -23.926  1.00  0.00     0.010 C 
HETATM   38  C50 UNL     1     -15.467  44.507 -24.259  1.00  0.00     0.037 C 
HETATM   39 NA1  UNL     1     -13.493  44.932 -28.317  1.00  0.00    -0.355 Na
ATOM     40 1HA1 UNL     1     -12.653  44.359 -28.394  1.00  0.00     0.103 HD
ATOM     41 2HA1 UNL     1     -12.862  44.456 -28.963  1.00  0.00     0.103 HD
ENDROOT
BRANCH  31  42
HETATM   42  C34 UNL     1     -18.694  43.527 -27.300  1.00  0.00     0.074 C 
BRANCH  42  43
HETATM   43  C35 UNL     1     -18.396  42.563 -28.484  1.00  0.00     0.018 C 
BRANCH  43  44
HETATM   44  C36 UNL     1     -17.421  41.422 -28.163  1.00  0.00     0.169 C 
BRANCH  44  45
HETATM   45  O7  UNL     1     -17.740  40.200 -28.803  1.00  0.00    -0.400 OA
HETATM   46  H41 UNL     1     -17.380  40.224 -29.707  1.00  0.00     0.209 HD
ENDBRANCH  44  45
ENDBRANCH  43  44
BRANCH  43  47
HETATM   47  C37 UNL     1     -18.073  43.293 -29.805  1.00  0.00     0.045 C 
BRANCH  47  48
HETATM   48  C38 UNL     1     -19.241  43.304 -30.769  1.00  0.00    -0.058 A 
HETATM   49  C39 UNL     1     -19.024  43.485 -32.142  1.00  0.00     0.007 A 
HETATM   50  C40 UNL     1     -20.101  43.510 -33.031  1.00  0.00     0.001 A 
HETATM   51  C41 UNL     1     -21.401  43.357 -32.556  1.00  0.00     0.000 A 
HETATM   52  C42 UNL     1     -21.626  43.175 -31.191  1.00  0.00     0.001 A 
HETATM   53  C43 UNL     1     -20.552  43.152 -30.301  1.00  0.00     0.007 A 
ENDBRANCH  47  48
ENDBRANCH  43  47
ENDBRANCH  42  43
ENDBRANCH  31  42
BRANCH  31  54
HETATM   54  N1  UNL     1     -18.195  45.596 -26.138  1.00  0.00    -0.336 N 
HETATM   55  C44 UNL     1     -18.941  45.732 -25.117  1.00  0.00     0.124 C 
HETATM   56  N2  UNL     1     -19.476  46.945 -24.845  1.00  0.00    -0.279 NA
HETATM   57  N3  UNL     1     -19.315  44.850 -24.172  1.00  0.00    -0.279 NA
HETATM   58  H49 UNL     1     -19.336  47.203 -23.873  1.00  0.00     0.126 HD
HETATM   59  H50 UNL     1     -19.057  47.645 -25.451  1.00  0.00     0.126 HD
HETATM   60  H51 UNL     1     -20.269  44.948 -23.857  1.00  0.00     0.126 HD
HETATM   61  H52 UNL     1     -19.036  43.888 -24.356  1.00  0.00     0.126 HD
ATOM     62  H1  UNL     1     -18.014  46.415 -26.720  1.00  0.00     0.165 HD
ENDBRANCH  31  54
BRANCH   1  63
HETATM   63  C2  UNL     1     -11.028  42.375 -23.571  1.00  0.00     0.005 C 
HETATM   64  C1  UNL     1     -10.071  41.765 -24.589  1.00  0.00     0.006 C 
ENDBRANCH   1  63
BRANCH   3  65
HETATM   65  S1  UNL     1     -10.772  46.832 -24.993  1.00  0.00     0.106 S 
HETATM   66  O1  UNL     1     -11.642  46.973 -23.824  1.00  0.00    -0.595 OA
HETATM   67  O2  UNL     1      -9.427  46.346 -24.685  1.00  0.00    -0.595 OA
HETATM   68  O3  UNL     1     -10.816  47.989 -25.887  1.00  0.00    -0.595 OA
ENDBRANCH   3  65
BRANCH  12  69
HETATM   69  C15 UNL     1      -8.226  42.735 -34.026  1.00  0.00     0.169 C 
BRANCH  69  70
HETATM   70  O4  UNL     1      -7.483  42.644 -35.224  1.00  0.00    -0.400 OA
HETATM   71  H23 UNL     1      -7.002  41.802 -35.224  1.00  0.00     0.209 HD
ENDBRANCH  69  70
ENDBRANCH  12  69
BRANCH  18  72
HETATM   72  O5  UNL     1      -4.563  49.561 -30.507  1.00  0.00    -0.361 OA
HETATM   73  H27 UNL     1      -4.340  49.855 -29.607  1.00  0.00     0.217 HD
ENDBRANCH  18  72
TORSDOF 12
ENDMDL
MODEL 3
REMARK minimizedAffinity -7.92911673
REMARK CNNscore 0.120407
REMARK CNNaffinity 7.94437408
REMARK  12 active torsions:
REMARK  status: ('A' for Active; 'I' for Inactive)
REMARK    1  A    between atoms: C2_2  and  C3_3 
REMARK    2  A    between atoms: C5_5  and  S1_6 
REMARK    3  A    between atoms: C14_18  and  C15_19 
REMARK    4  A    between atoms: C15_19  and  O4_20 
REMARK    5  A    between atoms: C21_26  and  O5_27 
REMARK    6  A    between atoms: C33_40  and  C34_41 
REMARK    7  A    between atoms: C33_40  and  N1_52 
REMARK    8  A    between atoms: C34_41  and  C35_42 
REMARK    9  A    between atoms: C35_42  and  C36_43 
REMARK   10  A    between atoms: C35_42  and  C37_45 
REMARK   11  A    between atoms: C36_43  and  O7_44 
REMARK   12  A    between atoms: C37_45  and  C38_46 
REMARK       I    between atoms: C44_54  and  N2_55 
REMARK       I    between atoms: C44_54  and  N3_56 
ROOT
HETATM    1  C3  UNL     1       1.178  51.023 -15.641  1.00  0.00     0.019 C 
HETATM    2  C4  UNL     1       1.518  51.719 -14.285  1.00  0.00     0.033 C 
HETATM    3  C5  UNL     1       2.047  50.785 -13.165  1.00  0.00     0.139 C 
HETATM    4  C6  UNL     1       1.906  51.331 -11.707  1.00  0.00     0.038 C 
HETATM    5  C7  UNL     1       2.663  52.615 -11.390  1.00  0.00    -0.014 C 
HETATM    6  C8  UNL     1       2.548  53.115 -10.141  1.00  0.00    -0.050 C 
HETATM    7  C9  UNL     1       1.701  52.322  -9.177  1.00  0.00     0.042 C 
HETATM    8  C10 UNL     1       0.323  52.357  -9.840  1.00  0.00     0.001 C 
HETATM    9  C11 UNL     1      -0.136  53.837 -10.120  1.00  0.00     0.037 C 
HETATM   10  C12 UNL     1       0.386  54.976  -9.200  1.00  0.00     0.123 C 
HETATM   11  C13 UNL     1      -0.406  54.998  -7.870  1.00  0.00     0.039 C 
HETATM   12  C14 UNL     1      -0.139  56.131  -6.834  1.00  0.00     0.023 C 
HETATM   13  C16 UNL     1       0.991  55.862  -5.804  1.00  0.00     0.101 C 
HETATM   14  C17 UNL     1       2.346  55.749  -6.345  1.00  0.00    -0.101 C 
HETATM   15  C18 UNL     1       3.371  55.566  -6.948  1.00  0.00    -0.066 C 
HETATM   16  C19 UNL     1       4.432  55.261  -7.864  1.00  0.00     0.029 A 
HETATM   17  C20 UNL     1       5.748  55.426  -7.413  1.00  0.00     0.057 A 
HETATM   18  C21 UNL     1       6.816  55.130  -8.252  1.00  0.00     0.067 A 
HETATM   19  C22 UNL     1       6.598  54.682  -9.547  1.00  0.00     0.037 A 
HETATM   20  C23 UNL     1       5.289  54.520 -10.005  1.00  0.00     0.014 A 
HETATM   21  C24 UNL     1       4.176  54.792  -9.177  1.00  0.00    -0.006 A 
HETATM   22  C25 UNL     1       2.781  54.562  -9.777  1.00  0.00     0.185 C 
HETATM   23  O6  UNL     1       1.759  54.933  -8.859  1.00  0.00    -0.371 OA
HETATM   24  C26 UNL     1       0.404  51.568 -11.220  1.00  0.00     0.030 C 
HETATM   25  C27 UNL     1      -0.514  50.354 -11.235  1.00  0.00    -0.057 C 
HETATM   26  C28 UNL     1      -0.048  49.046 -11.113  1.00  0.00     0.092 A 
HETATM   27  C29 UNL     1      -0.860  47.976 -11.496  1.00  0.00     0.096 A 
HETATM   28  C30 UNL     1      -2.170  48.182 -11.971  1.00  0.00    -0.007 C 
HETATM   29  C31 UNL     1      -2.693  49.483 -11.884  1.00  0.00     0.010 C 
HETATM   30  C32 UNL     1      -1.872  50.554 -11.525  1.00  0.00     0.005 C 
HETATM   31  C33 UNL     1      -2.890  47.072 -12.780  1.00  0.00     0.169 C 
HETATM   32  O8  UNL     1      -3.014  47.469 -14.208  1.00  0.00    -0.316 OA
HETATM   33  C45 UNL     1      -2.008  48.241 -14.730  1.00  0.00     0.072 C 
HETATM   34  C46 UNL     1      -2.332  49.545 -15.102  1.00  0.00     0.037 C 
HETATM   35  C47 UNL     1      -1.320  50.451 -15.432  1.00  0.00     0.010 C 
HETATM   36  C48 UNL     1       0.020  50.040 -15.467  1.00  0.00    -0.054 C 
HETATM   37  C49 UNL     1       0.305  48.684 -15.234  1.00  0.00     0.010 C 
HETATM   38  C50 UNL     1      -0.700  47.789 -14.857  1.00  0.00     0.037 C 
HETATM   39 NA1  UNL     1      -0.324  50.411 -11.179  1.00  0.00    -0.355 Na
ATOM     40 1HA1 UNL     1      -0.197  51.394 -11.422  1.00  0.00     0.103 HD
ATOM     41 2HA1 UNL     1      -0.436  51.373 -10.857  1.00  0.00     0.103 HD
ENDROOT
BRANCH  31  42
HETATM   42  C34 UNL     1      -4.399  46.939 -12.363  1.00  0.00     0.074 C 
BRANCH  42  43
HETATM   43  C35 UNL     1      -4.988  47.561 -11.065  1.00  0.00     0.018 C 
BRANCH  43  44
HETATM   44  C36 UNL     1      -5.696  46.568 -10.133  1.00  0.00     0.169 C 
BRANCH  44  45
HETATM   45  O7  UNL     1      -5.155  46.525  -8.825  1.00  0.00    -0.400 OA
HETATM   46  H41 UNL     1      -5.542  47.253  -8.309  1.00  0.00     0.209 HD
ENDBRANCH  44  45
ENDBRANCH  43  44
BRANCH  43  47
HETATM   47  C37 UNL     1      -5.793  48.853 -11.312  1.00  0.00     0.045 C 
BRANCH  47  48
HETATM   48  C38 UNL     1      -7.177  48.807 -10.700  1.00  0.00    -0.058 A 
HETATM   49  C39 UNL     1      -7.419  49.392  -9.449  1.00  0.00     0.007 A 
HETATM   50  C40 UNL     1      -8.692  49.340  -8.877  1.00  0.00     0.001 A 
HETATM   51  C41 UNL     1      -9.732  48.700  -9.547  1.00  0.00     0.000 A 
HETATM   52  C42 UNL     1      -9.501  48.116 -10.793  1.00  0.00     0.001 A 
HETATM   53  C43 UNL     1      -8.229  48.166 -11.366  1.00  0.00     0.007 A 
ENDBRANCH  47  48
ENDBRANCH  43  47
ENDBRANCH  42  43
ENDBRANCH  31  42
BRANCH  31  54
HETATM   54  N1  UNL     1      -2.287  45.756 -12.510  1.00  0.00    -0.336 N 
HETATM   55  C44 UNL     1      -2.158  45.273 -11.340  1.00  0.00     0.124 C 
HETATM   56  N2  UNL     1      -1.580  44.061 -11.184  1.00  0.00    -0.279 NA
HETATM   57  N3  UNL     1      -2.530  45.756 -10.140  1.00  0.00    -0.279 NA
HETATM   58  H49 UNL     1      -2.134  43.460 -10.581  1.00  0.00     0.126 HD
HETATM   59  H50 UNL     1      -1.459  43.621 -12.092  1.00  0.00     0.126 HD
HETATM   60  H51 UNL     1      -1.877  45.575  -9.391  1.00  0.00     0.126 HD
HETATM   61  H52 UNL     1      -2.886  46.711 -10.159  1.00  0.00     0.126 HD
ATOM     62  H1  UNL     1      -1.955  45.203 -13.301  1.00  0.00     0.165 HD
ENDBRANCH  31  54
BRANCH   1  63
HETATM   63  C2  UNL     1       0.925  52.103 -16.721  1.00  0.00     0.005 C 
HETATM   64  C1  UNL     1       0.481  51.523 -18.059  1.00  0.00     0.006 C 
ENDBRANCH   1  63
BRANCH   3  65
HETATM   65  S1  UNL     1       3.768  50.266 -13.480  1.00  0.00     0.106 S 
HETATM   66  O1  UNL     1       4.267  51.231 -14.463  1.00  0.00    -0.595 OA
HETATM   67  O2  UNL     1       4.416  50.354 -12.172  1.00  0.00    -0.595 OA
HETATM   68  O3  UNL     1       3.644  48.910 -14.014  1.00  0.00    -0.595 OA
ENDBRANCH   3  65
BRANCH  12  69
HETATM   69  C15 UNL     1      -0.112  57.551  -7.418  1.00  0.00     0.169 C 
BRANCH  69  70
HETATM   70  O4  UNL     1      -1.366  57.995  -7.893  1.00  0.00    -0.400 OA
HETATM   71  H23 UNL     1      -1.221  58.747  -8.487  1.00  0.00     0.209 HD
ENDBRANCH  69  70
ENDBRANCH  12  69
BRANCH  18  72
HETATM   72  O5  UNL     1       8.080  55.275  -7.760  1.00  0.00    -0.361 OA
HETATM   73  H27 UNL     1       8.699  54.973  -8.447  1.00  0.00     0.217 HD
ENDBRANCH  18  72
TORSDOF 12
ENDMDL
MODEL 4
REMARK minimizedAffinity -9.77461624
REMARK CNNscore 0.10265296
REMARK CNNaffinity 7.3265481
REMARK  12 active torsions:
REMARK  status: ('A' for Active; 'I' for Inactive)
REMARK    1  A    between atoms: C2_2  and  C3_3 
REMARK    2  A    between atoms: C5_5  and  S1_6 
REMARK    3  A    between atoms: C14_18  and  C15_19 
REMARK    4  A    between atoms: C15_19  and  O4_20 
REMARK    5  A    between atoms: C21_26  and  O5_27 
REMARK    6  A    between atoms: C33_40  and  C34_41 
REMARK    7  A    between atoms: C33_40  and  N1_52 
REMARK    8  A    between atoms: C34_41  and  C35_42 
REMARK    9  A    between atoms: C35_42  and  C36_43 
REMARK   10  A    between atoms: C35_42  and  C37_45 
REMARK   11  A    between atoms: C36_43  and  O7_44 
REMARK   12  A    between atoms: C37_45  and  C38_46 
REMARK       I    between atoms: C44_54  and  N2_55 
REMARK       I    between atoms: C44_54  and  N3_56 
ROOT
HETATM    1  C3  UNL     1      -4.094  45.655 -19.653  1.00  0.00     0.019 C 
HETATM    2  C4  UNL     1      -3.638  46.245 -18.281  1.00  0.00     0.033 C 
HETATM    3  C5  UNL     1      -4.379  47.528 -17.822  1.00  0.00     0.139 C 
HETATM    4  C6  UNL     1      -3.627  48.399 -16.763  1.00  0.00     0.038 C 
HETATM    5  C7  UNL     1      -3.346  47.736 -15.420  1.00  0.00    -0.014 C 
HETATM    6  C8  UNL     1      -2.687  48.463 -14.492  1.00  0.00    -0.050 C 
HETATM    7  C9  UNL     1      -2.329  49.876 -14.878  1.00  0.00     0.042 C 
HETATM    8  C10 UNL     1      -1.401  49.668 -16.075  1.00  0.00     0.001 C 
HETATM    9  C11 UNL     1      -0.201  48.718 -15.707  1.00  0.00     0.037 C 
HETATM   10  C12 UNL     1       0.299  48.669 -14.236  1.00  0.00     0.123 C 
HETATM   11  C13 UNL     1       1.194  49.894 -13.930  1.00  0.00     0.039 C 
HETATM   12  C14 UNL     1       1.908  50.001 -12.549  1.00  0.00     0.023 C 
HETATM   13  C16 UNL     1       1.101  50.691 -11.416  1.00  0.00     0.101 C 
HETATM   14  C17 UNL     1      -0.112  50.002 -10.973  1.00  0.00    -0.101 C 
HETATM   15  C18 UNL     1      -1.129  49.383 -10.803  1.00  0.00    -0.066 C 
HETATM   16  C19 UNL     1      -2.316  48.580 -10.860  1.00  0.00     0.029 A 
HETATM   17  C20 UNL     1      -3.119  48.522  -9.714  1.00  0.00     0.057 A 
HETATM   18  C21 UNL     1      -4.289  47.772  -9.717  1.00  0.00     0.067 A 
HETATM   19  C22 UNL     1      -4.673  47.061 -10.845  1.00  0.00     0.037 A 
HETATM   20  C23 UNL     1      -3.875  47.109 -11.989  1.00  0.00     0.014 A 
HETATM   21  C24 UNL     1      -2.688  47.875 -12.033  1.00  0.00    -0.006 A 
HETATM   22  C25 UNL     1      -1.897  47.871 -13.350  1.00  0.00     0.185 C 
HETATM   23  O6  UNL     1      -0.698  48.630 -13.232  1.00  0.00    -0.371 OA
HETATM   24  C26 UNL     1      -2.239  49.011 -17.258  1.00  0.00     0.030 C 
HETATM   25  C27 UNL     1      -2.292  49.911 -18.485  1.00  0.00    -0.057 C 
HETATM   26  C28 UNL     1      -3.425  50.636 -18.847  1.00  0.00     0.092 A 
HETATM   27  C29 UNL     1      -3.548  51.139 -20.145  1.00  0.00     0.096 A 
HETATM   28  C30 UNL     1      -2.527  50.966 -21.099  1.00  0.00    -0.007 C 
HETATM   29  C31 UNL     1      -1.310  50.421 -20.653  1.00  0.00     0.010 C 
HETATM   30  C32 UNL     1      -1.198  49.897 -19.364  1.00  0.00     0.005 C 
HETATM   31  C33 UNL     1      -2.833  51.134 -22.610  1.00  0.00     0.169 C 
HETATM   32  O8  UNL     1      -2.796  49.815 -23.296  1.00  0.00    -0.316 OA
HETATM   33  C45 UNL     1      -3.195  48.722 -22.569  1.00  0.00     0.072 C 
HETATM   34  C46 UNL     1      -2.225  47.768 -22.268  1.00  0.00     0.037 C 
HETATM   35  C47 UNL     1      -2.506  46.749 -21.353  1.00  0.00     0.010 C 
HETATM   36  C48 UNL     1      -3.783  46.631 -20.789  1.00  0.00    -0.054 C 
HETATM   37  C49 UNL     1      -4.785  47.515 -21.223  1.00  0.00     0.010 C 
HETATM   38  C50 UNL     1      -4.493  48.563 -22.100  1.00  0.00     0.037 C 
HETATM   39 NA1  UNL     1      -2.389  49.876 -18.306  1.00  0.00    -0.355 Na
ATOM     40 1HA1 UNL     1      -1.932  49.096 -17.834  1.00  0.00     0.103 HD
ATOM     41 2HA1 UNL     1      -1.644  49.611 -17.661  1.00  0.00     0.103 HD
ENDROOT
BRANCH  31  42
HETATM   42  C34 UNL     1      -1.682  51.902 -23.352  1.00  0.00     0.074 C 
BRANCH  42  43
HETATM   43  C35 UNL     1      -1.573  51.995 -24.901  1.00  0.00     0.018 C 
BRANCH  43  44
HETATM   44  C36 UNL     1      -2.853  52.450 -25.616  1.00  0.00     0.169 C 
BRANCH  44  45
HETATM   45  O7  UNL     1      -2.617  53.134 -26.833  1.00  0.00    -0.400 OA
HETATM   46  H41 UNL     1      -2.484  52.473 -27.535  1.00  0.00     0.209 HD
ENDBRANCH  44  45
ENDBRANCH  43  44
BRANCH  43  47
HETATM   47  C37 UNL     1      -0.915  50.759 -25.547  1.00  0.00     0.045 C 
BRANCH  47  48
HETATM   48  C38 UNL     1       0.293  51.110 -26.389  1.00  0.00    -0.058 A 
HETATM   49  C39 UNL     1       1.582  51.057 -25.839  1.00  0.00     0.007 A 
HETATM   50  C40 UNL     1       2.696  51.393 -26.610  1.00  0.00     0.001 A 
HETATM   51  C41 UNL     1       2.532  51.788 -27.936  1.00  0.00     0.000 A 
HETATM   52  C42 UNL     1       1.254  51.843 -28.493  1.00  0.00     0.001 A 
HETATM   53  C43 UNL     1       0.139  51.509 -27.723  1.00  0.00     0.007 A 
ENDBRANCH  47  48
ENDBRANCH  43  47
ENDBRANCH  42  43
ENDBRANCH  31  42
BRANCH  31  54
HETATM   54  N1  UNL     1      -4.045  51.948 -22.808  1.00  0.00    -0.336 N 
HETATM   55  C44 UNL     1      -4.960  51.646 -23.639  1.00  0.00     0.124 C 
HETATM   56  N2  UNL     1      -6.033  52.458 -23.765  1.00  0.00    -0.279 NA
HETATM   57  N3  UNL     1      -5.091  50.590 -24.463  1.00  0.00    -0.279 NA
HETATM   58  H49 UNL     1      -6.902  51.934 -23.730  1.00  0.00     0.126 HD
HETATM   59  H50 UNL     1      -6.021  53.156 -23.026  1.00  0.00     0.126 HD
HETATM   60  H51 UNL     1      -5.486  50.806 -25.366  1.00  0.00     0.126 HD
HETATM   61  H52 UNL     1      -4.277  49.978 -24.502  1.00  0.00     0.126 HD
ATOM     62  H1  UNL     1      -4.156  52.796 -22.252  1.00  0.00     0.165 HD
ENDBRANCH  31  54
BRANCH   1  63
HETATM   63  C2  UNL     1      -3.465  44.253 -19.843  1.00  0.00     0.005 C 
HETATM   64  C1  UNL     1      -4.205  43.156 -19.086  1.00  0.00     0.006 C 
ENDBRANCH   1  63
BRANCH   3  65
HETATM   65  S1  UNL     1      -6.071  47.159 -17.249  1.00  0.00     0.106 S 
HETATM   66  O1  UNL     1      -6.798  48.418 -17.422  1.00  0.00    -0.595 OA
HETATM   67  O2  UNL     1      -6.522  46.080 -18.128  1.00  0.00    -0.595 OA
HETATM   68  O3  UNL     1      -5.903  46.779 -15.847  1.00  0.00    -0.595 OA
ENDBRANCH   3  65
BRANCH  12  69
HETATM   69  C15 UNL     1       2.638  48.728 -12.095  1.00  0.00     0.169 C 
BRANCH  69  70
HETATM   70  O4  UNL     1       3.968  48.639 -12.561  1.00  0.00    -0.400 OA
HETATM   71  H23 UNL     1       4.259  47.718 -12.486  1.00  0.00     0.209 HD
ENDBRANCH  69  70
ENDBRANCH  12  69
BRANCH  18  72
HETATM   72  O5  UNL     1      -5.056  47.771  -8.589  1.00  0.00    -0.361 OA
HETATM   73  H27 UNL     1      -5.857  47.253  -8.779  1.00  0.00     0.217 HD
ENDBRANCH  18  72
TORSDOF 12
ENDMDL
MODEL 5
REMARK minimizedAffinity -9.53380966
REMARK CNNscore 0.0936198235
REMARK CNNaffinity 5.96637344
REMARK  12 active torsions:
REMARK  status: ('A' for Active; 'I' for Inactive)
REMARK    1  A    between atoms: C2_2  and  C3_3 
REMARK    2  A    between atoms: C5_5  and  S1_6 
REMARK    3  A    between atoms: C14_18  and  C15_19 
REMARK    4  A    between atoms: C15_19  and  O4_20 
REMARK    5  A    between atoms: C21_26  and  O5_27 
REMARK    6  A    between atoms: C33_40  and  C34_41 
REMARK    7  A    between atoms: C33_40  and  N1_52 
REMARK    8  A    between atoms: C34_41  and  C35_42 
REMARK    9  A    between atoms: C35_42  and  C36_43 
REMARK   10  A    between atoms: C35_42  and  C37_45 
REMARK   11  A    between atoms: C36_43  and  O7_44 
REMARK   12  A    between atoms: C37_45  and  C38_46 
REMARK       I    between atoms: C44_54  and  N2_55 
REMARK       I    between atoms: C44_54  and  N3_56 
ROOT
HETATM    1  C3  UNL     1     -16.891  43.062 -27.970  1.00  0.00     0.019 C 
HETATM    2  C4  UNL     1     -15.406  43.430 -28.284  1.00  0.00     0.033 C 
HETATM    3  C5  UNL     1     -14.347  42.823 -27.328  1.00  0.00     0.139 C 
HETATM    4  C6  UNL     1     -12.966  43.557 -27.295  1.00  0.00     0.038 C 
HETATM    5  C7  UNL     1     -12.186  43.587 -28.604  1.00  0.00    -0.014 C 
HETATM    6  C8  UNL     1     -10.997  44.227 -28.606  1.00  0.00    -0.050 C 
HETATM    7  C9  UNL     1     -10.550  44.816 -27.292  1.00  0.00     0.042 C 
HETATM    8  C10 UNL     1     -11.647  45.841 -26.998  1.00  0.00     0.001 C 
HETATM    9  C11 UNL     1     -11.819  46.849 -28.195  1.00  0.00     0.037 C 
HETATM   10  C12 UNL     1     -10.595  47.162 -29.100  1.00  0.00     0.123 C 
HETATM   11  C13 UNL     1      -9.654  48.174 -28.402  1.00  0.00     0.039 C 
HETATM   12  C14 UNL     1      -8.416  48.729 -29.168  1.00  0.00     0.023 C 
HETATM   13  C16 UNL     1      -7.111  47.898 -29.048  1.00  0.00     0.101 C 
HETATM   14  C17 UNL     1      -7.139  46.559 -29.639  1.00  0.00    -0.101 C 
HETATM   15  C18 UNL     1      -7.356  45.454 -30.062  1.00  0.00    -0.066 C 
HETATM   16  C19 UNL     1      -7.867  44.184 -30.489  1.00  0.00     0.029 A 
HETATM   17  C20 UNL     1      -6.953  43.252 -30.998  1.00  0.00     0.057 A 
HETATM   18  C21 UNL     1      -7.390  41.999 -31.412  1.00  0.00     0.067 A 
HETATM   19  C22 UNL     1      -8.732  41.656 -31.341  1.00  0.00     0.037 A 
HETATM   20  C23 UNL     1      -9.650  42.581 -30.839  1.00  0.00     0.014 A 
HETATM   21  C24 UNL     1      -9.243  43.859 -30.391  1.00  0.00    -0.006 A 
HETATM   22  C25 UNL     1     -10.334  44.790 -29.840  1.00  0.00     0.185 C 
HETATM   23  O6  UNL     1      -9.795  46.058 -29.485  1.00  0.00    -0.371 OA
HETATM   24  C26 UNL     1     -13.019  45.065 -26.772  1.00  0.00     0.030 C 
HETATM   25  C27 UNL     1     -13.567  45.278 -25.369  1.00  0.00    -0.057 C 
HETATM   26  C28 UNL     1     -13.510  44.304 -24.373  1.00  0.00     0.092 A 
HETATM   27  C29 UNL     1     -14.334  44.403 -23.249  1.00  0.00     0.096 A 
HETATM   28  C30 UNL     1     -15.205  45.496 -23.072  1.00  0.00    -0.007 C 
HETATM   29  C31 UNL     1     -15.093  46.566 -23.976  1.00  0.00     0.010 C 
HETATM   30  C32 UNL     1     -14.288  46.454 -25.111  1.00  0.00     0.005 C 
HETATM   31  C33 UNL     1     -16.394  45.393 -22.081  1.00  0.00     0.169 C 
HETATM   32  O8  UNL     1     -17.682  45.329 -22.823  1.00  0.00    -0.316 OA
HETATM   33  C45 UNL     1     -17.669  44.703 -24.043  1.00  0.00     0.072 C 
HETATM   34  C46 UNL     1     -17.906  45.493 -25.168  1.00  0.00     0.037 C 
HETATM   35  C47 UNL     1     -17.692  44.971 -26.447  1.00  0.00     0.010 C 
HETATM   36  C48 UNL     1     -17.313  43.633 -26.616  1.00  0.00    -0.054 C 
HETATM   37  C49 UNL     1     -17.226  42.818 -25.474  1.00  0.00     0.010 C 
HETATM   38  C50 UNL     1     -17.392  43.350 -24.193  1.00  0.00     0.037 C 
HETATM   39 NA1  UNL     1     -13.438  45.157 -25.474  1.00  0.00    -0.355 Na
ATOM     40 1HA1 UNL     1     -13.449  45.445 -26.452  1.00  0.00     0.103 HD
ATOM     41 2HA1 UNL     1     -13.020  45.778 -26.167  1.00  0.00     0.103 HD
ENDROOT
BRANCH  31  42
HETATM   42  C34 UNL     1     -16.576  46.717 -21.257  1.00  0.00     0.074 C 
BRANCH  42  43
HETATM   43  C35 UNL     1     -17.328  46.783 -19.897  1.00  0.00     0.018 C 
BRANCH  43  44
HETATM   44  C36 UNL     1     -18.858  46.709 -19.997  1.00  0.00     0.169 C 
BRANCH  44  45
HETATM   45  O7  UNL     1     -19.343  45.451 -20.430  1.00  0.00    -0.400 OA
HETATM   46  H41 UNL     1     -19.386  44.858 -19.659  1.00  0.00     0.209 HD
ENDBRANCH  44  45
ENDBRANCH  43  44
BRANCH  43  47
HETATM   47  C37 UNL     1     -16.827  47.910 -18.971  1.00  0.00     0.045 C 
BRANCH  47  48
HETATM   48  C38 UNL     1     -15.329  47.872 -18.758  1.00  0.00    -0.058 A 
HETATM   49  C39 UNL     1     -14.466  48.488 -19.676  1.00  0.00     0.007 A 
HETATM   50  C40 UNL     1     -13.083  48.442 -19.488  1.00  0.00     0.001 A 
HETATM   51  C41 UNL     1     -12.551  47.779 -18.384  1.00  0.00     0.000 A 
HETATM   52  C42 UNL     1     -13.402  47.165 -17.465  1.00  0.00     0.001 A 
HETATM   53  C43 UNL     1     -14.784  47.208 -17.652  1.00  0.00     0.007 A 
ENDBRANCH  47  48
ENDBRANCH  43  47
ENDBRANCH  42  43
ENDBRANCH  31  42
BRANCH  31  54
HETATM   54  N1  UNL     1     -16.152  44.335 -21.086  1.00  0.00    -0.336 N 
HETATM   55  C44 UNL     1     -15.086  44.256 -20.396  1.00  0.00     0.124 C 
HETATM   56  N2  UNL     1     -14.944  43.242 -19.513  1.00  0.00    -0.279 NA
HETATM   57  N3  UNL     1     -14.001  45.050 -20.353  1.00  0.00    -0.279 NA
HETATM   58  H49 UNL     1     -14.639  43.581 -18.605  1.00  0.00     0.126 HD
HETATM   59  H50 UNL     1     -15.826  42.746 -19.417  1.00  0.00     0.126 HD
HETATM   60  H51 UNL     1     -13.124  44.563 -20.248  1.00  0.00     0.126 HD
HETATM   61  H52 UNL     1     -13.985  45.785 -21.060  1.00  0.00     0.126 HD
ATOM     62  H1  UNL     1     -16.876  43.630 -20.942  1.00  0.00     0.165 HD
ENDBRANCH  31  54
BRANCH   1  63
HETATM   63  C2  UNL     1     -17.790  43.511 -29.147  1.00  0.00     0.005 C 
HETATM   64  C1  UNL     1     -19.094  42.727 -29.240  1.00  0.00     0.006 C 
ENDBRANCH   1  63
BRANCH   3  65
HETATM   65  S1  UNL     1     -14.105  41.041 -27.636  1.00  0.00     0.106 S 
HETATM   66  O1  UNL     1     -13.603  40.972 -29.010  1.00  0.00    -0.595 OA
HETATM   67  O2  UNL     1     -13.136  40.628 -26.622  1.00  0.00    -0.595 OA
HETATM   68  O3  UNL     1     -15.440  40.464 -27.480  1.00  0.00    -0.595 OA
ENDBRANCH   3  65
BRANCH  12  69
HETATM   69  C15 UNL     1      -8.702  49.222 -30.594  1.00  0.00     0.169 C 
BRANCH  69  70
HETATM   70  O4  UNL     1      -8.797  50.626 -30.702  1.00  0.00    -0.400 OA
HETATM   71  H23 UNL     1      -9.249  50.841 -31.533  1.00  0.00     0.209 HD
ENDBRANCH  69  70
ENDBRANCH  12  69
BRANCH  18  72
HETATM   72  O5  UNL     1      -6.460  41.113 -31.871  1.00  0.00    -0.361 OA
HETATM   73  H27 UNL     1      -6.919  40.277 -32.059  1.00  0.00     0.217 HD
ENDBRANCH  18  72
TORSDOF 12
ENDMDL
MODEL 6
REMARK minimizedAffinity -8.66292953
REMARK CNNscore 0.0890563503
REMARK CNNaffinity 6.54559374
REMARK  12 active torsions:
REMARK  status: ('A' for Active; 'I' for Inactive)
REMARK    1  A    between atoms: C2_2  and  C3_3 
REMARK    2  A    between atoms: C5_5  and  S1_6 
REMARK    3  A    between atoms: C14_18  and  C15_19 
REMARK    4  A    between atoms: C15_19  and  O4_20 
REMARK    5  A    between atoms: C21_26  and  O5_27 
REMARK    6  A    between atoms: C33_40  and  C34_41 
REMARK    7  A    between atoms: C33_40  and  N1_52 
REMARK    8  A    between atoms: C34_41  and  C35_42 
REMARK    9  A    between atoms: C35_42  and  C36_43 
REMARK   10  A    between atoms: C35_42  and  C37_45 
REMARK   11  A    between atoms: C36_43  and  O7_44 
REMARK   12  A    between atoms: C37_45  and  C38_46 
REMARK       I    between atoms: C44_54  and  N2_55 
REMARK       I    between atoms: C44_54  and  N3_56 
ROOT
HETATM    1  C3  UNL     1      -8.289  46.135 -25.709  1.00  0.00     0.019 C 
HETATM    2  C4  UNL     1      -9.710  45.553 -25.422  1.00  0.00     0.033 C 
HETATM    3  C5  UNL     1     -10.006  44.166 -26.049  1.00  0.00     0.139 C 
HETATM    4  C6  UNL     1     -11.520  43.809 -26.215  1.00  0.00     0.038 C 
HETATM    5  C7  UNL     1     -12.338  43.724 -24.933  1.00  0.00    -0.014 C 
HETATM    6  C8  UNL     1     -13.651  43.430 -25.049  1.00  0.00    -0.050 C 
HETATM    7  C9  UNL     1     -14.161  43.182 -26.447  1.00  0.00     0.042 C 
HETATM    8  C10 UNL     1     -13.904  44.524 -27.136  1.00  0.00     0.001 C 
HETATM    9  C11 UNL     1     -14.576  45.707 -26.345  1.00  0.00     0.037 C 
HETATM   10  C12 UNL     1     -15.851  45.424 -25.502  1.00  0.00     0.123 C 
HETATM   11  C13 UNL     1     -17.096  45.349 -26.418  1.00  0.00     0.039 C 
HETATM   12  C14 UNL     1     -18.511  45.189 -25.784  1.00  0.00     0.023 C 
HETATM   13  C16 UNL     1     -18.985  43.733 -25.532  1.00  0.00     0.101 C 
HETATM   14  C17 UNL     1     -18.224  42.966 -24.544  1.00  0.00    -0.101 C 
HETATM   15  C18 UNL     1     -17.438  42.436 -23.804  1.00  0.00    -0.066 C 
HETATM   16  C19 UNL     1     -16.323  41.975 -23.028  1.00  0.00     0.029 A 
HETATM   17  C20 UNL     1     -16.528  40.880 -22.179  1.00  0.00     0.057 A 
HETATM   18  C21 UNL     1     -15.480  40.381 -21.416  1.00  0.00     0.067 A 
HETATM   19  C22 UNL     1     -14.222  40.963 -21.471  1.00  0.00     0.037 A 
HETATM   20  C23 UNL     1     -14.010  42.058 -22.311  1.00  0.00     0.014 A 
HETATM   21  C24 UNL     1     -15.046  42.584 -23.117  1.00  0.00    -0.006 A 
HETATM   22  C25 UNL     1     -14.697  43.779 -24.018  1.00  0.00     0.185 C 
HETATM   23  O6  UNL     1     -15.843  44.242 -24.724  1.00  0.00    -0.371 OA
HETATM   24  C26 UNL     1     -12.332  44.768 -27.200  1.00  0.00     0.030 C 
HETATM   25  C27 UNL     1     -11.829  44.854 -28.634  1.00  0.00    -0.057 C 
HETATM   26  C28 UNL     1     -11.120  43.827 -29.254  1.00  0.00     0.092 A 
HETATM   27  C29 UNL     1     -10.376  44.087 -30.407  1.00  0.00     0.096 A 
HETATM   28  C30 UNL     1     -10.353  45.368 -30.992  1.00  0.00    -0.007 C 
HETATM   29  C31 UNL     1     -11.238  46.331 -30.477  1.00  0.00     0.010 C 
HETATM   30  C32 UNL     1     -11.961  46.076 -29.310  1.00  0.00     0.005 C 
HETATM   31  C33 UNL     1      -9.222  45.755 -31.981  1.00  0.00     0.169 C 
HETATM   32  O8  UNL     1      -8.302  46.742 -31.356  1.00  0.00    -0.316 OA
HETATM   33  C45 UNL     1      -8.109  46.646 -30.001  1.00  0.00     0.072 C 
HETATM   34  C46 UNL     1      -8.586  47.693 -29.213  1.00  0.00     0.037 C 
HETATM   35  C47 UNL     1      -8.621  47.561 -27.822  1.00  0.00     0.010 C 
HETATM   36  C48 UNL     1      -8.112  46.412 -27.202  1.00  0.00    -0.054 C 
HETATM   37  C49 UNL     1      -7.502  45.437 -28.010  1.00  0.00     0.010 C 
HETATM   38  C50 UNL     1      -7.508  45.545 -29.403  1.00  0.00     0.037 C 
HETATM   39 NA1  UNL     1     -11.869  44.717 -28.485  1.00  0.00    -0.355 Na
ATOM     40 1HA1 UNL     1     -12.187  45.219 -27.656  1.00  0.00     0.103 HD
ATOM     41 2HA1 UNL     1     -12.681  45.101 -28.001  1.00  0.00     0.103 HD
ENDROOT
BRANCH  31  42
HETATM   42  C34 UNL     1      -9.776  46.575 -33.200  1.00  0.00     0.074 C 
BRANCH  42  43
HETATM   43  C35 UNL     1     -10.298  45.917 -34.510  1.00  0.00     0.018 C 
BRANCH  43  44
HETATM   44  C36 UNL     1     -11.106  44.627 -34.311  1.00  0.00     0.169 C 
BRANCH  44  45
HETATM   45  O7  UNL     1     -12.431  44.845 -33.864  1.00  0.00    -0.400 OA
HETATM   46  H41 UNL     1     -12.986  45.049 -34.637  1.00  0.00     0.209 HD
ENDBRANCH  44  45
ENDBRANCH  43  44
BRANCH  43  47
HETATM   47  C37 UNL     1      -9.225  45.806 -35.613  1.00  0.00     0.045 C 
BRANCH  47  48
HETATM   48  C38 UNL     1      -9.359  46.880 -36.671  1.00  0.00    -0.058 A 
HETATM   49  C39 UNL     1     -10.608  47.158 -37.245  1.00  0.00     0.007 A 
HETATM   50  C40 UNL     1     -10.731  48.139 -38.231  1.00  0.00     0.001 A 
HETATM   51  C41 UNL     1      -9.608  48.847 -38.654  1.00  0.00     0.000 A 
HETATM   52  C42 UNL     1      -8.362  48.578 -38.088  1.00  0.00     0.001 A 
HETATM   53  C43 UNL     1      -8.236  47.597 -37.104  1.00  0.00     0.007 A 
ENDBRANCH  47  48
ENDBRANCH  43  47
ENDBRANCH  42  43
ENDBRANCH  31  42
BRANCH  31  54
HETATM   54  N1  UNL     1      -8.603  44.551 -32.561  1.00  0.00    -0.336 N 
HETATM   55  C44 UNL     1      -7.405  44.518 -32.985  1.00  0.00     0.124 C 
HETATM   56  N2  UNL     1      -6.921  43.371 -33.515  1.00  0.00    -0.279 NA
HETATM   57  N3  UNL     1      -6.445  45.461 -32.993  1.00  0.00    -0.279 NA
HETATM   58  H49 UNL     1      -6.017  43.132 -33.119  1.00  0.00     0.126 HD
HETATM   59  H50 UNL     1      -7.581  42.615 -33.351  1.00  0.00     0.126 HD
HETATM   60  H51 UNL     1      -5.863  45.465 -33.819  1.00  0.00     0.126 HD
HETATM   61  H52 UNL     1      -6.756  46.386 -32.701  1.00  0.00     0.126 HD
ATOM     62  H1  UNL     1      -9.164  43.700 -32.625  1.00  0.00     0.165 HD
ENDBRANCH  31  54
BRANCH   1  63
HETATM   63  C2  UNL     1      -8.052  47.373 -24.810  1.00  0.00     0.005 C 
HETATM   64  C1  UNL     1      -6.587  47.789 -24.736  1.00  0.00     0.006 C 
ENDBRANCH   1  63
BRANCH   3  65
HETATM   65  S1  UNL     1      -9.137  42.828 -25.165  1.00  0.00     0.106 S 
HETATM   66  O1  UNL     1      -9.235  43.199 -23.752  1.00  0.00    -0.595 OA
HETATM   67  O2  UNL     1      -9.879  41.619 -25.520  1.00  0.00    -0.595 OA
HETATM   68  O3  UNL     1      -7.769  42.883 -25.681  1.00  0.00    -0.595 OA
ENDBRANCH   3  65
BRANCH  12  69
HETATM   69  C15 UNL     1     -18.810  46.144 -24.619  1.00  0.00     0.169 C 
BRANCH  69  70
HETATM   70  O4  UNL     1     -18.883  47.501 -24.999  1.00  0.00    -0.400 OA
HETATM   71  H23 UNL     1     -18.787  48.049 -24.206  1.00  0.00     0.209 HD
ENDBRANCH  69  70
ENDBRANCH  12  69
BRANCH  18  72
HETATM   72  O5  UNL     1     -15.718  39.294 -20.628  1.00  0.00    -0.361 OA
HETATM   73  H27 UNL     1     -14.876  39.040 -20.214  1.00  0.00     0.217 HD
ENDBRANCH  18  72
TORSDOF 12
ENDMDL
MODEL 7
REMARK minimizedAffinity -8.9477644
REMARK CNNscore 0.0873288214
REMARK CNNaffinity 7.34741783
REMARK  12 active torsions:
REMARK  status: ('A' for Active; 'I' for Inactive)
REMARK    1  A    between atoms: C2_2  and  C3_3 
REMARK    2  A    between atoms: C5_5  and  S1_6 
REMARK    3  A    between atoms: C14_18  and  C15_19 
REMARK    4  A    between atoms: C15_19  and  O4_20 
REMARK    5  A    between atoms: C21_26  and  O5_27 
REMARK    6  A    between atoms: C33_40  and  C34_41 
REMARK    7  A    between atoms: C33_40  and  N1_52 
REMARK    8  A    between atoms: C34_41  and  C35_42 
REMARK    9  A    between atoms: C35_42  and  C36_43 
REMARK   10  A    between atoms: C35_42  and  C37_45 
REMARK   11  A    between atoms: C36_43  and  O7_44 
REMARK   12  A    between atoms: C37_45  and  C38_46 
REMARK       I    between atoms: C44_54  and  N2_55 
REMARK       I    between atoms: C44_54  and  N3_56 
ROOT
HETATM    1  C3  UNL     1      -8.468  47.501 -19.990  1.00  0.00     0.019 C 
HETATM    2  C4  UNL     1      -7.194  48.234 -20.518  1.00  0.00     0.033 C 
HETATM    3  C5  UNL     1      -6.322  47.431 -21.517  1.00  0.00     0.139 C 
HETATM    4  C6  UNL     1      -4.838  47.906 -21.652  1.00  0.00     0.038 C 
HETATM    5  C7  UNL     1      -4.628  49.325 -22.166  1.00  0.00    -0.014 C 
HETATM    6  C8  UNL     1      -3.356  49.765 -22.280  1.00  0.00    -0.050 C 
HETATM    7  C9  UNL     1      -2.272  48.782 -21.916  1.00  0.00     0.042 C 
HETATM    8  C10 UNL     1      -2.556  48.507 -20.438  1.00  0.00     0.001 C 
HETATM    9  C11 UNL     1      -2.597  49.844 -19.608  1.00  0.00     0.037 C 
HETATM   10  C12 UNL     1      -1.756  51.058 -20.092  1.00  0.00     0.123 C 
HETATM   11  C13 UNL     1      -0.270  50.876 -19.698  1.00  0.00     0.039 C 
HETATM   12  C14 UNL     1       0.747  52.023 -19.975  1.00  0.00     0.023 C 
HETATM   13  C16 UNL     1       1.431  52.007 -21.369  1.00  0.00     0.101 C 
HETATM   14  C17 UNL     1       0.556  52.220 -22.522  1.00  0.00    -0.101 C 
HETATM   15  C18 UNL     1      -0.301  52.289 -23.363  1.00  0.00    -0.066 C 
HETATM   16  C19 UNL     1      -1.477  52.253 -24.183  1.00  0.00     0.029 A 
HETATM   17  C20 UNL     1      -1.367  52.711 -25.502  1.00  0.00     0.057 A 
HETATM   18  C21 UNL     1      -2.470  52.684 -26.347  1.00  0.00     0.067 A 
HETATM   19  C22 UNL     1      -3.697  52.218 -25.896  1.00  0.00     0.037 A 
HETATM   20  C23 UNL     1      -3.817  51.765 -24.581  1.00  0.00     0.014 A 
HETATM   21  C24 UNL     1      -2.714  51.759 -23.697  1.00  0.00    -0.006 A 
HETATM   22  C25 UNL     1      -2.954  51.221 -22.278  1.00  0.00     0.185 C 
HETATM   23  O6  UNL     1      -1.780  51.330 -21.481  1.00  0.00    -0.371 OA
HETATM   24  C26 UNL     1      -3.968  47.781 -20.320  1.00  0.00     0.030 C 
HETATM   25  C27 UNL     1      -3.841  46.387 -19.720  1.00  0.00    -0.057 C 
HETATM   26  C28 UNL     1      -3.943  45.221 -20.477  1.00  0.00     0.092 A 
HETATM   27  C29 UNL     1      -4.187  43.998 -19.848  1.00  0.00     0.096 A 
HETATM   28  C30 UNL     1      -4.294  43.902 -18.447  1.00  0.00    -0.007 C 
HETATM   29  C31 UNL     1      -3.978  45.046 -17.694  1.00  0.00     0.010 C 
HETATM   30  C32 UNL     1      -3.759  46.272 -18.324  1.00  0.00     0.005 C 
HETATM   31  C33 UNL     1      -4.975  42.668 -17.799  1.00  0.00     0.169 C 
HETATM   32  O8  UNL     1      -6.290  43.049 -17.217  1.00  0.00    -0.316 OA
HETATM   33  C45 UNL     1      -6.991  44.041 -17.853  1.00  0.00     0.072 C 
HETATM   34  C46 UNL     1      -7.166  45.241 -17.163  1.00  0.00     0.037 C 
HETATM   35  C47 UNL     1      -7.673  46.361 -17.827  1.00  0.00     0.010 C 
HETATM   36  C48 UNL     1      -8.080  46.273 -19.165  1.00  0.00    -0.054 C 
HETATM   37  C49 UNL     1      -8.032  45.016 -19.793  1.00  0.00     0.010 C 
HETATM   38  C50 UNL     1      -7.481  43.907 -19.146  1.00  0.00     0.037 C 
HETATM   39 NA1  UNL     1      -3.831  46.486 -19.901  1.00  0.00    -0.355 Na
ATOM     40 1HA1 UNL     1      -4.023  47.475 -19.740  1.00  0.00     0.103 HD
ATOM     41 2HA1 UNL     1      -3.418  47.390 -19.671  1.00  0.00     0.103 HD
ENDROOT
BRANCH  31  42
HETATM   42  C34 UNL     1      -4.199  42.183 -16.523  1.00  0.00     0.074 C 
BRANCH  42  43
HETATM   43  C35 UNL     1      -4.861  42.028 -15.124  1.00  0.00     0.018 C 
BRANCH  43  44
HETATM   44  C36 UNL     1      -4.432  43.072 -14.084  1.00  0.00     0.169 C 
BRANCH  44  45
HETATM   45  O7  UNL     1      -5.447  43.406 -13.156  1.00  0.00    -0.400 OA
HETATM   46  H41 UNL     1      -5.451  42.735 -12.450  1.00  0.00     0.209 HD
ENDBRANCH  44  45
ENDBRANCH  43  44
BRANCH  43  47
HETATM   47  C37 UNL     1      -4.838  40.582 -14.589  1.00  0.00     0.045 C 
BRANCH  47  48
HETATM   48  C38 UNL     1      -3.878  39.691 -15.349  1.00  0.00    -0.058 A 
HETATM   49  C39 UNL     1      -4.364  38.711 -16.227  1.00  0.00     0.007 A 
HETATM   50  C40 UNL     1      -3.481  37.880 -16.919  1.00  0.00     0.001 A 
HETATM   51  C41 UNL     1      -2.106  38.017 -16.736  1.00  0.00     0.000 A 
HETATM   52  C42 UNL     1      -1.614  38.989 -15.865  1.00  0.00     0.001 A 
HETATM   53  C43 UNL     1      -2.495  39.820 -15.172  1.00  0.00     0.007 A 
ENDBRANCH  47  48
ENDBRANCH  43  47
ENDBRANCH  42  43
ENDBRANCH  31  42
BRANCH  31  54
HETATM   54  N1  UNL     1      -4.970  41.524 -18.726  1.00  0.00    -0.336 N 
HETATM   55  C44 UNL     1      -3.909  40.917 -19.079  1.00  0.00     0.124 C 
HETATM   56  N2  UNL     1      -3.997  39.883 -19.946  1.00  0.00    -0.279 NA
HETATM   57  N3  UNL     1      -2.626  41.099 -18.720  1.00  0.00    -0.279 NA
HETATM   58  H49 UNL     1      -3.477  39.075 -19.615  1.00  0.00     0.126 HD
HETATM   59  H50 UNL     1      -4.972  39.633 -20.082  1.00  0.00     0.126 HD
HETATM   60  H51 UNL     1      -1.956  40.978 -19.465  1.00  0.00     0.126 HD
HETATM   61  H52 UNL     1      -2.460  41.923 -18.143  1.00  0.00     0.126 HD
ATOM     62  H1  UNL     1      -5.862  41.202 -19.104  1.00  0.00     0.165 HD
ENDBRANCH  31  54
BRANCH   1  63
HETATM   63  C2  UNL     1      -9.362  48.509 -19.229  1.00  0.00     0.005 C 
HETATM   64  C1  UNL     1      -8.565  49.533 -18.429  1.00  0.00     0.006 C 
ENDBRANCH   1  63
BRANCH   3  65
HETATM   65  S1  UNL     1      -7.104  47.330 -23.162  1.00  0.00     0.106 S 
HETATM   66  O1  UNL     1      -7.797  46.040 -23.159  1.00  0.00    -0.595 OA
HETATM   67  O2  UNL     1      -7.995  48.489 -23.210  1.00  0.00    -0.595 OA
HETATM   68  O3  UNL     1      -5.982  47.379 -24.099  1.00  0.00    -0.595 OA
ENDBRANCH   3  65
BRANCH  12  69
HETATM   69  C15 UNL     1       0.286  53.420 -19.533  1.00  0.00     0.169 C 
BRANCH  69  70
HETATM   70  O4  UNL     1       1.089  54.468 -20.033  1.00  0.00    -0.400 OA
HETATM   71  H23 UNL     1       0.924  55.262 -19.501  1.00  0.00     0.209 HD
ENDBRANCH  69  70
ENDBRANCH  12  69
BRANCH  18  72
HETATM   72  O5  UNL     1      -2.307  53.110 -27.632  1.00  0.00    -0.361 OA
HETATM   73  H27 UNL     1      -3.150  52.971 -28.097  1.00  0.00     0.217 HD
ENDBRANCH  18  72
TORSDOF 12
ENDMDL
MODEL 8
REMARK minimizedAffinity -10.0974741
REMARK CNNscore 0.0841346681
REMARK CNNaffinity 6.90228796
REMARK  12 active torsions:
REMARK  status: ('A' for Active; 'I' for Inactive)
REMARK    1  A    between atoms: C2_2  and  C3_3 
REMARK    2  A    between atoms: C5_5  and  S1_6 
REMARK    3  A    between atoms: C14_18  and  C15_19 
REMARK    4  A    between atoms: C15_19  and  O4_20 
REMARK    5  A    between atoms: C21_26  and  O5_27 
REMARK    6  A    between atoms: C33_40  and  C34_41 
REMARK    7  A    between atoms: C33_40  and  N1_52 
REMARK    8  A    between atoms: C34_41  and  C35_42 
REMARK    9  A    between atoms: C35_42  and  C36_43 
REMARK   10  A    between atoms: C35_42  and  C37_45 
REMARK   11  A    between atoms: C36_43  and  O7_44 
REMARK   12  A    between atoms: C37_45  and  C38_46 
REMARK       I    between atoms: C44_54  and  N2_55 
REMARK       I    between atoms: C44_54  and  N3_56 
ROOT
HETATM    1  C3  UNL     1      -4.555  44.851 -18.555  1.00  0.00     0.019 C 
HETATM    2  C4  UNL     1      -4.036  46.070 -19.383  1.00  0.00     0.033 C 
HETATM    3  C5  UNL     1      -4.556  47.459 -18.931  1.00  0.00     0.139 C 
HETATM    4  C6  UNL     1      -4.479  48.592 -20.006  1.00  0.00     0.038 C 
HETATM    5  C7  UNL     1      -3.086  48.956 -20.504  1.00  0.00    -0.014 C 
HETATM    6  C8  UNL     1      -2.992  49.922 -21.443  1.00  0.00    -0.050 C 
HETATM    7  C9  UNL     1      -4.286  50.565 -21.874  1.00  0.00     0.042 C 
HETATM    8  C10 UNL     1      -5.059  49.387 -22.471  1.00  0.00     0.001 C 
HETATM    9  C11 UNL     1      -4.224  48.671 -23.597  1.00  0.00     0.037 C 
HETATM   10  C12 UNL     1      -3.188  49.497 -24.410  1.00  0.00     0.123 C 
HETATM   11  C13 UNL     1      -3.903  50.337 -25.496  1.00  0.00     0.039 C 
HETATM   12  C14 UNL     1      -3.058  51.160 -26.514  1.00  0.00     0.023 C 
HETATM   13  C16 UNL     1      -2.680  52.601 -26.080  1.00  0.00     0.101 C 
HETATM   14  C17 UNL     1      -1.788  52.717 -24.926  1.00  0.00    -0.101 C 
HETATM   15  C18 UNL     1      -1.154  52.650 -23.905  1.00  0.00    -0.066 C 
HETATM   16  C19 UNL     1      -0.536  52.344 -22.648  1.00  0.00     0.029 A 
HETATM   17  C20 UNL     1       0.376  53.270 -22.128  1.00  0.00     0.057 A 
HETATM   18  C21 UNL     1       0.992  53.034 -20.905  1.00  0.00     0.067 A 
HETATM   19  C22 UNL     1       0.726  51.876 -20.188  1.00  0.00     0.037 A 
HETATM   20  C23 UNL     1      -0.179  50.945 -20.702  1.00  0.00     0.014 A 
HETATM   21  C24 UNL     1      -0.841  51.158 -21.933  1.00  0.00    -0.006 A 
HETATM   22  C25 UNL     1      -1.830  50.077 -22.394  1.00  0.00     0.185 C 
HETATM   23  O6  UNL     1      -2.374  50.390 -23.672  1.00  0.00    -0.371 OA
HETATM   24  C26 UNL     1      -5.367  48.343 -21.309  1.00  0.00     0.030 C 
HETATM   25  C27 UNL     1      -6.863  48.165 -21.088  1.00  0.00    -0.057 C 
HETATM   26  C28 UNL     1      -7.541  48.712 -20.000  1.00  0.00     0.092 A 
HETATM   27  C29 UNL     1      -8.802  48.226 -19.646  1.00  0.00     0.096 A 
HETATM   28  C30 UNL     1      -9.434  47.213 -20.392  1.00  0.00    -0.007 C 
HETATM   29  C31 UNL     1      -8.830  46.827 -21.602  1.00  0.00     0.010 C 
HETATM   30  C32 UNL     1      -7.560  47.296 -21.940  1.00  0.00     0.005 C 
HETATM   31  C33 UNL     1     -10.596  46.395 -19.771  1.00  0.00     0.169 C 
HETATM   32  O8  UNL     1     -10.156  45.003 -19.486  1.00  0.00    -0.316 OA
HETATM   33  C45 UNL     1      -8.843  44.823 -19.133  1.00  0.00     0.072 C 
HETATM   34  C46 UNL     1      -8.034  44.116 -20.021  1.00  0.00     0.037 C 
HETATM   35  C47 UNL     1      -6.649  44.085 -19.834  1.00  0.00     0.010 C 
HETATM   36  C48 UNL     1      -6.068  44.697 -18.715  1.00  0.00    -0.054 C 
HETATM   37  C49 UNL     1      -6.919  45.275 -17.757  1.00  0.00     0.010 C 
HETATM   38  C50 UNL     1      -8.298  45.349 -17.967  1.00  0.00     0.037 C 
HETATM   39 NA1  UNL     1      -6.705  48.285 -21.031  1.00  0.00    -0.355 Na
ATOM     40 1HA1 UNL     1      -5.858  47.942 -21.484  1.00  0.00     0.103 HD
ATOM     41 2HA1 UNL     1      -6.120  48.346 -21.865  1.00  0.00     0.103 HD
ENDROOT
BRANCH  31  42
HETATM   42  C34 UNL     1     -11.750  46.150 -20.807  1.00  0.00     0.074 C 
BRANCH  42  43
HETATM   43  C35 UNL     1     -13.251  46.046 -20.411  1.00  0.00     0.018 C 
BRANCH  43  44
HETATM   44  C36 UNL     1     -13.778  44.615 -20.235  1.00  0.00     0.169 C 
BRANCH  44  45
HETATM   45  O7  UNL     1     -14.122  44.292 -18.900  1.00  0.00    -0.400 OA
HETATM   46  H41 UNL     1     -15.021  44.622 -18.726  1.00  0.00     0.209 HD
ENDBRANCH  44  45
ENDBRANCH  43  44
BRANCH  43  47
HETATM   47  C37 UNL     1     -14.175  46.941 -21.261  1.00  0.00     0.045 C 
BRANCH  47  48
HETATM   48  C38 UNL     1     -15.605  46.950 -20.762  1.00  0.00    -0.058 A 
HETATM   49  C39 UNL     1     -15.907  47.446 -19.485  1.00  0.00     0.007 A 
HETATM   50  C40 UNL     1     -17.223  47.442 -19.018  1.00  0.00     0.001 A 
HETATM   51  C41 UNL     1     -18.246  46.940 -19.820  1.00  0.00     0.000 A 
HETATM   52  C42 UNL     1     -17.955  46.446 -21.091  1.00  0.00     0.001 A 
HETATM   53  C43 UNL     1     -16.640  46.447 -21.559  1.00  0.00     0.007 A 
ENDBRANCH  47  48
ENDBRANCH  43  47
ENDBRANCH  42  43
ENDBRANCH  31  42
BRANCH  31  54
HETATM   54  N1  UNL     1     -11.214  47.133 -18.656  1.00  0.00    -0.336 N 
HETATM   55  C44 UNL     1     -11.704  46.564 -17.629  1.00  0.00     0.124 C 
HETATM   56  N2  UNL     1     -12.265  47.319 -16.658  1.00  0.00    -0.279 NA
HETATM   57  N3  UNL     1     -11.762  45.265 -17.283  1.00  0.00    -0.279 NA
HETATM   58  H49 UNL     1     -11.921  47.057 -15.739  1.00  0.00     0.126 HD
HETATM   59  H50 UNL     1     -12.067  48.301 -16.833  1.00  0.00     0.126 HD
HETATM   60  H51 UNL     1     -12.619  44.987 -16.826  1.00  0.00     0.126 HD
HETATM   61  H52 UNL     1     -11.450  44.618 -18.006  1.00  0.00     0.126 HD
ATOM     62  H1  UNL     1     -11.250  48.151 -18.709  1.00  0.00     0.165 HD
ENDBRANCH  31  54
BRANCH   1  63
HETATM   63  C2  UNL     1      -3.752  43.587 -18.946  1.00  0.00     0.005 C 
HETATM   64  C1  UNL     1      -3.215  42.821 -17.742  1.00  0.00     0.006 C 
ENDBRANCH   1  63
BRANCH   3  65
HETATM   65  S1  UNL     1      -3.760  48.005 -17.383  1.00  0.00     0.106 S 
HETATM   66  O1  UNL     1      -3.943  49.458 -17.370  1.00  0.00    -0.595 OA
HETATM   67  O2  UNL     1      -4.493  47.299 -16.332  1.00  0.00    -0.595 OA
HETATM   68  O3  UNL     1      -2.362  47.601 -17.533  1.00  0.00    -0.595 OA
ENDBRANCH   3  65
BRANCH  12  69
HETATM   69  C15 UNL     1      -1.900  50.390 -27.166  1.00  0.00     0.169 C 
BRANCH  69  70
HETATM   70  O4  UNL     1      -1.122  51.173 -28.047  1.00  0.00    -0.400 OA
HETATM   71  H23 UNL     1      -0.614  50.578 -28.620  1.00  0.00     0.209 HD
ENDBRANCH  69  70
ENDBRANCH  12  69
BRANCH  18  72
HETATM   72  O5  UNL     1       1.850  53.978 -20.423  1.00  0.00    -0.361 OA
HETATM   73  H27 UNL     1       2.143  53.688 -19.542  1.00  0.00     0.217 HD
ENDBRANCH  18  72
TORSDOF 12
ENDMDL
MODEL 9
REMARK minimizedAffinity -9.82985115
REMARK CNNscore 0.0782792419
REMARK CNNaffinity 7.89924097
REMARK  12 active torsions:
REMARK  status: ('A' for Active; 'I' for Inactive)
REMARK    1  A    between atoms: C2_2  and  C3_3 
REMARK    2  A    between atoms: C5_5  and  S1_6 
REMARK    3  A    between atoms: C14_18  and  C15_19 
REMARK    4  A    between atoms: C15_19  and  O4_20 
REMARK    5  A    between atoms: C21_26  and  O5_27 
REMARK    6  A    between atoms: C33_40  and  C34_41 
REMARK    7  A    between atoms: C33_40  and  N1_52 
REMARK    8  A    between atoms: C34_41  and  C35_42 
REMARK    9  A    between atoms: C35_42  and  C36_43 
REMARK   10  A    between atoms: C35_42  and  C37_45 
REMARK   11  A    between atoms: C36_43  and  O7_44 
REMARK   12  A    between atoms: C37_45  and  C38_46 
REMARK       I    between atoms: C44_54  and  N2_55 
REMARK       I    between atoms: C44_54  and  N3_56 
ROOT
HETATM    1  C3  UNL     1      -2.348  52.275 -11.635  1.00  0.00     0.019 C 
HETATM    2  C4  UNL     1      -2.095  52.006 -13.152  1.00  0.00     0.033 C 
HETATM    3  C5  UNL     1      -1.535  50.602 -13.501  1.00  0.00     0.139 C 
HETATM    4  C6  UNL     1      -0.810  50.488 -14.883  1.00  0.00     0.038 C 
HETATM    5  C7  UNL     1      -1.659  50.772 -16.115  1.00  0.00    -0.014 C 
HETATM    6  C8  UNL     1      -1.055  50.693 -17.320  1.00  0.00    -0.050 C 
HETATM    7  C9  UNL     1       0.400  50.295 -17.315  1.00  0.00     0.042 C 
HETATM    8  C10 UNL     1       1.052  51.429 -16.523  1.00  0.00     0.001 C 
HETATM    9  C11 UNL     1       0.712  52.832 -17.152  1.00  0.00     0.037 C 
HETATM   10  C12 UNL     1       0.428  52.925 -18.678  1.00  0.00     0.123 C 
HETATM   11  C13 UNL     1       1.755  52.905 -19.475  1.00  0.00     0.039 C 
HETATM   12  C14 UNL     1       1.728  53.106 -21.020  1.00  0.00     0.023 C 
HETATM   13  C16 UNL     1       1.551  51.821 -21.871  1.00  0.00     0.101 C 
HETATM   14  C17 UNL     1       0.274  51.121 -21.729  1.00  0.00    -0.101 C 
HETATM   15  C18 UNL     1      -0.765  50.602 -21.418  1.00  0.00    -0.066 C 
HETATM   16  C19 UNL     1      -1.963  50.099 -20.809  1.00  0.00     0.029 A 
HETATM   17  C20 UNL     1      -2.757  49.223 -21.559  1.00  0.00     0.057 A 
HETATM   18  C21 UNL     1      -3.920  48.692 -21.013  1.00  0.00     0.067 A 
HETATM   19  C22 UNL     1      -4.319  49.030 -19.727  1.00  0.00     0.037 A 
HETATM   20  C23 UNL     1      -3.535  49.907 -18.976  1.00  0.00     0.014 A 
HETATM   21  C24 UNL     1      -2.336  50.453 -19.487  1.00  0.00    -0.006 A 
HETATM   22  C25 UNL     1      -1.543  51.393 -18.566  1.00  0.00     0.185 C 
HETATM   23  O6  UNL     1      -0.396  51.915 -19.230  1.00  0.00    -0.371 OA
HETATM   24  C26 UNL     1       0.502  51.384 -15.029  1.00  0.00     0.030 C 
HETATM   25  C27 UNL     1       1.615  51.129 -14.023  1.00  0.00    -0.057 C 
HETATM   26  C28 UNL     1       1.800  49.901 -13.388  1.00  0.00     0.092 A 
HETATM   27  C29 UNL     1       2.577  49.823 -12.230  1.00  0.00     0.096 A 
HETATM   28  C30 UNL     1       3.221  50.958 -11.700  1.00  0.00    -0.007 C 
HETATM   29  C31 UNL     1       3.197  52.134 -12.469  1.00  0.00     0.010 C 
HETATM   30  C32 UNL     1       2.400  52.217 -13.612  1.00  0.00     0.005 C 
HETATM   31  C33 UNL     1       3.706  50.963 -10.227  1.00  0.00     0.169 C 
HETATM   32  O8  UNL     1       2.860  51.872  -9.406  1.00  0.00    -0.316 OA
HETATM   33  C45 UNL     1       1.540  51.983  -9.759  1.00  0.00     0.072 C 
HETATM   34  C46 UNL     1       1.111  53.219 -10.243  1.00  0.00     0.037 C 
HETATM   35  C47 UNL     1      -0.155  53.342 -10.823  1.00  0.00     0.010 C 
HETATM   36  C48 UNL     1      -1.032  52.250 -10.856  1.00  0.00    -0.054 C 
HETATM   37  C49 UNL     1      -0.633  51.057 -10.229  1.00  0.00     0.010 C 
HETATM   38  C50 UNL     1       0.650  50.918  -9.692  1.00  0.00     0.037 C 
HETATM   39 NA1  UNL     1       1.484  51.029 -14.146  1.00  0.00    -0.355 Na
ATOM     40 1HA1 UNL     1       0.903  51.716 -14.626  1.00  0.00     0.103 HD
ATOM     41 2HA1 UNL     1       1.404  51.626 -14.969  1.00  0.00     0.103 HD
ENDROOT
BRANCH  31  42
HETATM   42  C34 UNL     1       5.116  51.639 -10.084  1.00  0.00     0.074 C 
BRANCH  42  43
HETATM   43  C35 UNL     1       5.383  52.887  -9.196  1.00  0.00     0.018 C 
BRANCH  43  44
HETATM   44  C36 UNL     1       4.895  52.768  -7.745  1.00  0.00     0.169 C 
BRANCH  44  45
HETATM   45  O7  UNL     1       5.656  51.871  -6.957  1.00  0.00    -0.400 OA
HETATM   46  H41 UNL     1       6.444  52.342  -6.631  1.00  0.00     0.209 HD
ENDBRANCH  44  45
ENDBRANCH  43  44
BRANCH  43  47
HETATM   47  C37 UNL     1       4.988  54.218  -9.869  1.00  0.00     0.045 C 
BRANCH  47  48
HETATM   48  C38 UNL     1       4.916  55.371  -8.891  1.00  0.00    -0.058 A 
HETATM   49  C39 UNL     1       6.005  55.664  -8.057  1.00  0.00     0.007 A 
HETATM   50  C40 UNL     1       5.936  56.719  -7.146  1.00  0.00     0.001 A 
HETATM   51  C41 UNL     1       4.778  57.488  -7.057  1.00  0.00     0.000 A 
HETATM   52  C42 UNL     1       3.690  57.206  -7.883  1.00  0.00     0.001 A 
HETATM   53  C43 UNL     1       3.756  56.150  -8.794  1.00  0.00     0.007 A 
ENDBRANCH  47  48
ENDBRANCH  43  47
ENDBRANCH  42  43
ENDBRANCH  31  42
BRANCH  31  54
HETATM   54  N1  UNL     1       3.873  49.588  -9.728  1.00  0.00    -0.336 N 
HETATM   55  C44 UNL     1       4.931  48.904  -9.907  1.00  0.00     0.124 C 
HETATM   56  N2  UNL     1       4.992  47.642  -9.425  1.00  0.00    -0.279 NA
HETATM   57  N3  UNL     1       6.094  49.217 -10.507  1.00  0.00    -0.279 NA
HETATM   58  H49 UNL     1       5.851  47.484  -8.907  1.00  0.00     0.126 HD
HETATM   59  H50 UNL     1       4.191  47.466  -8.825  1.00  0.00     0.126 HD
HETATM   60  H51 UNL     1       6.509  48.468 -11.041  1.00  0.00     0.126 HD
HETATM   61  H52 UNL     1       6.096  50.118 -10.985  1.00  0.00     0.126 HD
ATOM     62  H1  UNL     1       3.102  49.162  -9.213  1.00  0.00     0.165 HD
ENDBRANCH  31  54
BRANCH   1  63
HETATM   63  C2  UNL     1      -3.146  53.591 -11.474  1.00  0.00     0.005 C 
HETATM   64  C1  UNL     1      -3.860  53.701 -10.132  1.00  0.00     0.006 C 
ENDBRANCH   1  63
BRANCH   3  65
HETATM   65  S1  UNL     1      -2.815  49.311 -13.353  1.00  0.00     0.106 S 
HETATM   66  O1  UNL     1      -3.947  49.990 -12.718  1.00  0.00    -0.595 OA
HETATM   67  O2  UNL     1      -3.065  48.891 -14.731  1.00  0.00    -0.595 OA
HETATM   68  O3  UNL     1      -2.203  48.292 -12.501  1.00  0.00    -0.595 OA
ENDBRANCH   3  65
BRANCH  12  69
HETATM   69  C15 UNL     1       0.876  54.288 -21.506  1.00  0.00     0.169 C 
BRANCH  69  70
HETATM   70  O4  UNL     1       1.590  55.219 -22.292  1.00  0.00    -0.400 OA
HETATM   71  H23 UNL     1       1.089  56.048 -22.317  1.00  0.00     0.209 HD
ENDBRANCH  69  70
ENDBRANCH  12  69
BRANCH  18  72
HETATM   72  O5  UNL     1      -4.645  47.818 -21.768  1.00  0.00    -0.361 OA
HETATM   73  H27 UNL     1      -5.384  47.500 -21.222  1.00  0.00     0.217 HD
ENDBRANCH  18  72
TORSDOF 12
ENDMDL
