MODEL 1
REMARK minimizedAffinity -9.81414509
REMARK CNNscore 0.872061849
REMARK CNNaffinity 7.42778254
REMARK  10 active torsions:
REMARK  status: ('A' for Active; 'I' for Inactive)
REMARK    1  A    between atoms: N1_6  and  O1_8 
REMARK    2  A    between atoms: O1_8  and  C6_9 
REMARK    3  A    between atoms: C6_9  and  C7_10 
REMARK       I    between atoms: C7_10  and  N2_12 
REMARK    4  A    between atoms: N2_12  and  C8_13 
REMARK    5  A    between atoms: C8_13  and  C9_14 
REMARK    6  A    between atoms: C20_27  and  O3_28 
REMARK    7  A    between atoms: C27_35  and  O4_36 
REMARK    8  A    between atoms: C27_35  and  C28_37 
REMARK    9  A    between atoms: C28_37  and  C29_39 
REMARK   10  A    between atoms: C29_39  and  O6_40 
ROOT
HETATM    1  C1  UNL     1      -3.937   3.898   9.882  1.00  0.00     0.020 C 
HETATM    2  C2  UNL     1      -3.610   3.844  11.395  1.00  0.00    -0.014 C 
HETATM    3  C3  UNL     1      -3.539   2.367  11.851  1.00  0.00     0.020 C 
HETATM    4  C4  UNL     1      -4.861   1.607  11.699  1.00  0.00     0.060 C 
HETATM    5  C5  UNL     1      -6.075   2.371  12.189  1.00  0.00     0.032 C 
HETATM    6  N1  UNL     1      -7.180   1.701  12.320  1.00  0.00    -0.271 N 
ATOM      7  H1  UNL     1      -7.270   0.701  12.139  1.00  0.00     0.194 HD
HETATM    8  C14 UNL     1      -5.903   3.815  12.495  1.00  0.00     0.030 C 
HETATM    9  C15 UNL     1      -4.777   4.476  12.165  1.00  0.00    -0.069 C 
HETATM   10  C16 UNL     1      -4.542   5.844  12.745  1.00  0.00     0.035 C 
HETATM   11  C17 UNL     1      -3.396   5.694  13.738  1.00  0.00     0.010 C 
HETATM   12  C18 UNL     1      -2.086   5.215  13.067  1.00  0.00    -0.002 C 
HETATM   13  C19 UNL     1      -2.290   4.695  11.622  1.00  0.00     0.031 C 
HETATM   14  C20 UNL     1      -0.950   4.136  11.065  1.00  0.00     0.124 C 
HETATM   15  C21 UNL     1       0.303   4.803  11.667  1.00  0.00     0.045 C 
HETATM   16  C22 UNL     1       0.128   6.281  12.083  1.00  0.00     0.001 C 
HETATM   17  C23 UNL     1      -0.099   7.119  10.806  1.00  0.00     0.019 C 
HETATM   18  C24 UNL     1      -1.051   6.382  13.096  1.00  0.00     0.002 C 
HETATM   19  C25 UNL     1      -0.417   6.494  14.501  1.00  0.00     0.009 C 
HETATM   20  C26 UNL     1       1.086   6.362  14.320  1.00  0.00     0.047 C 
HETATM   21  C27 UNL     1       1.360   6.808  12.890  1.00  0.00     0.128 C 
ENDROOT
BRANCH   6  22
HETATM   22  O1  UNL     1      -8.235   2.526  12.740  1.00  0.00    -0.271 OA
BRANCH  22  23
HETATM   23  C6  UNL     1      -7.710   3.764  13.186  1.00  0.00     0.303 C 
BRANCH  23  24
HETATM   24  C7  UNL     1      -8.579   4.923  12.698  1.00  0.00     0.244 C 
HETATM   25  O2  UNL     1      -8.627   5.304  11.531  1.00  0.00    -0.271 OA
HETATM   26  N2  UNL     1      -9.313   5.519  13.709  1.00  0.00    -0.355 N 
HETATM   27  H10 UNL     1      -9.139   5.248  14.670  1.00  0.00     0.162 HD
BRANCH  26  28
HETATM   28  C8  UNL     1     -10.091   6.712  13.479  1.00  0.00     0.161 C 
BRANCH  28  29
HETATM   29  C9  UNL     1     -10.267   7.479  14.762  1.00  0.00    -0.038 A 
HETATM   30  C10 UNL     1     -11.371   8.320  14.941  1.00  0.00     0.025 A 
HETATM   31  C11 UNL     1     -11.474   9.040  16.117  1.00  0.00     0.088 A 
HETATM   32  N3  UNL     1     -10.565   8.982  17.114  1.00  0.00    -0.375 N 
HETATM   33  C12 UNL     1      -9.507   8.167  16.923  1.00  0.00     0.088 A 
ATOM     34  H3  UNL     1     -10.673   9.527  17.969  1.00  0.00     0.164 HD
HETATM   35  C13 UNL     1      -9.314   7.406  15.781  1.00  0.00     0.025 A 
ENDBRANCH  28  29
ENDBRANCH  26  28
ENDBRANCH  23  24
ENDBRANCH  22  23
ENDBRANCH   6  22
BRANCH  14  36
HETATM   36  O3  UNL     1      -0.804   2.743  11.300  1.00  0.00    -0.395 OA
HETATM   37  H25 UNL     1       0.070   2.471  10.971  1.00  0.00     0.210 HD
ENDBRANCH  14  36
BRANCH  21  38
HETATM   38  O4  UNL     1       2.559   6.142  12.450  1.00  0.00    -0.381 OA
HETATM   39  H36 UNL     1       2.908   6.672  11.704  1.00  0.00     0.211 HD
ENDBRANCH  21  38
BRANCH  21  40
HETATM   40  C28 UNL     1       1.688   8.318  12.745  1.00  0.00     0.184 C 
HETATM   41  O5  UNL     1       2.319   8.707  11.750  1.00  0.00    -0.292 OA
BRANCH  40  42
HETATM   42  C29 UNL     1       1.210   9.324  13.783  1.00  0.00     0.245 C 
BRANCH  42  43
HETATM   43  O6  UNL     1       0.075  10.054  13.378  1.00  0.00    -0.393 OA
HETATM   44  H39 UNL     1       0.385  10.740  12.757  1.00  0.00     0.209 HD
ENDBRANCH  42  43
ENDBRANCH  40  42
ENDBRANCH  21  40
TORSDOF 10
ENDMDL
MODEL 2
REMARK minimizedAffinity -8.56415176
REMARK CNNscore 0.809944987
REMARK CNNaffinity 7.53135681
REMARK  10 active torsions:
REMARK  status: ('A' for Active; 'I' for Inactive)
REMARK    1  A    between atoms: N1_6  and  O1_8 
REMARK    2  A    between atoms: O1_8  and  C6_9 
REMARK    3  A    between atoms: C6_9  and  C7_10 
REMARK       I    between atoms: C7_10  and  N2_12 
REMARK    4  A    between atoms: N2_12  and  C8_13 
REMARK    5  A    between atoms: C8_13  and  C9_14 
REMARK    6  A    between atoms: C20_27  and  O3_28 
REMARK    7  A    between atoms: C27_35  and  O4_36 
REMARK    8  A    between atoms: C27_35  and  C28_37 
REMARK    9  A    between atoms: C28_37  and  C29_39 
REMARK   10  A    between atoms: C29_39  and  O6_40 
ROOT
HETATM    1  C1  UNL     1      -3.216   4.180   9.939  1.00  0.00     0.020 C 
HETATM    2  C2  UNL     1      -2.865   4.045  11.441  1.00  0.00    -0.014 C 
HETATM    3  C3  UNL     1      -2.669   2.550  11.789  1.00  0.00     0.020 C 
HETATM    4  C4  UNL     1      -3.928   1.697  11.594  1.00  0.00     0.060 C 
HETATM    5  C5  UNL     1      -5.192   2.323  12.147  1.00  0.00     0.032 C 
HETATM    6  N1  UNL     1      -6.238   1.558  12.239  1.00  0.00    -0.271 N 
ATOM      7  H1  UNL     1      -6.249   0.569  11.987  1.00  0.00     0.194 HD
HETATM    8  C14 UNL     1      -5.132   3.751  12.556  1.00  0.00     0.030 C 
HETATM    9  C15 UNL     1      -4.068   4.522  12.265  1.00  0.00    -0.069 C 
HETATM   10  C16 UNL     1      -3.936   5.860  12.940  1.00  0.00     0.035 C 
HETATM   11  C17 UNL     1      -2.767   5.733  13.910  1.00  0.00     0.010 C 
HETATM   12  C18 UNL     1      -1.432   5.412  13.195  1.00  0.00    -0.002 C 
HETATM   13  C19 UNL     1      -1.615   4.982  11.719  1.00  0.00     0.031 C 
HETATM   14  C20 UNL     1      -0.242   4.575  11.112  1.00  0.00     0.124 C 
HETATM   15  C21 UNL     1       0.961   5.296  11.749  1.00  0.00     0.045 C 
HETATM   16  C22 UNL     1       0.675   6.721  12.273  1.00  0.00     0.001 C 
HETATM   17  C23 UNL     1       0.362   7.628  11.062  1.00  0.00     0.019 C 
HETATM   18  C24 UNL     1      -0.494   6.654  13.300  1.00  0.00     0.002 C 
HETATM   19  C25 UNL     1       0.148   6.716  14.705  1.00  0.00     0.009 C 
HETATM   20  C26 UNL     1       1.655   6.720  14.502  1.00  0.00     0.047 C 
HETATM   21  C27 UNL     1       1.872   7.288  13.105  1.00  0.00     0.128 C 
ENDROOT
BRANCH   6  22
HETATM   22  O1  UNL     1      -7.349   2.262  12.727  1.00  0.00    -0.271 OA
BRANCH  22  23
HETATM   23  C6  UNL     1      -7.350   3.570  12.181  1.00  0.00     0.303 C 
BRANCH  23  24
HETATM   24  C7  UNL     1      -8.085   4.538  13.106  1.00  0.00     0.244 C 
HETATM   25  O2  UNL     1      -8.856   5.412  12.716  1.00  0.00    -0.271 OA
HETATM   26  N2  UNL     1      -7.794   4.343  14.445  1.00  0.00    -0.355 N 
HETATM   27  H10 UNL     1      -7.058   3.695  14.699  1.00  0.00     0.162 HD
BRANCH  26  28
HETATM   28  C8  UNL     1      -8.282   5.239  15.466  1.00  0.00     0.161 C 
BRANCH  28  29
HETATM   29  C9  UNL     1      -7.620   6.584  15.343  1.00  0.00    -0.038 A 
HETATM   30  C10 UNL     1      -6.226   6.698  15.400  1.00  0.00     0.025 A 
HETATM   31  C11 UNL     1      -5.658   7.957  15.326  1.00  0.00     0.088 A 
HETATM   32  N3  UNL     1      -6.373   9.096  15.201  1.00  0.00    -0.375 N 
HETATM   33  C12 UNL     1      -7.715   8.967  15.149  1.00  0.00     0.088 A 
ATOM     34  H3  UNL     1      -5.921  10.009  15.148  1.00  0.00     0.164 HD
HETATM   35  C13 UNL     1      -8.378   7.751  15.215  1.00  0.00     0.025 A 
ENDBRANCH  28  29
ENDBRANCH  26  28
ENDBRANCH  23  24
ENDBRANCH  22  23
ENDBRANCH   6  22
BRANCH  14  36
HETATM   36  O3  UNL     1       0.019   3.184  11.243  1.00  0.00    -0.395 OA
HETATM   37  H25 UNL     1       0.907   3.008  10.889  1.00  0.00     0.210 HD
ENDBRANCH  14  36
BRANCH  21  38
HETATM   38  O4  UNL     1       3.113   6.755  12.609  1.00  0.00    -0.381 OA
HETATM   39  H36 UNL     1       3.408   7.363  11.900  1.00  0.00     0.211 HD
ENDBRANCH  21  38
BRANCH  21  40
HETATM   40  C28 UNL     1       2.074   8.826  13.067  1.00  0.00     0.184 C 
HETATM   41  O5  UNL     1       2.476   9.357  12.020  1.00  0.00    -0.292 OA
BRANCH  40  42
HETATM   42  C29 UNL     1       1.749   9.687  14.279  1.00  0.00     0.245 C 
BRANCH  42  43
HETATM   43  O6  UNL     1       2.889  10.115  14.989  1.00  0.00    -0.393 OA
HETATM   44  H39 UNL     1       3.190   9.357  15.524  1.00  0.00     0.209 HD
ENDBRANCH  42  43
ENDBRANCH  40  42
ENDBRANCH  21  40
TORSDOF 10
ENDMDL
MODEL 3
REMARK minimizedAffinity -10.4625845
REMARK CNNscore 0.710980713
REMARK CNNaffinity 7.42240763
REMARK  10 active torsions:
REMARK  status: ('A' for Active; 'I' for Inactive)
REMARK    1  A    between atoms: N1_6  and  O1_8 
REMARK    2  A    between atoms: O1_8  and  C6_9 
REMARK    3  A    between atoms: C6_9  and  C7_10 
REMARK       I    between atoms: C7_10  and  N2_12 
REMARK    4  A    between atoms: N2_12  and  C8_13 
REMARK    5  A    between atoms: C8_13  and  C9_14 
REMARK    6  A    between atoms: C20_27  and  O3_28 
REMARK    7  A    between atoms: C27_35  and  O4_36 
REMARK    8  A    between atoms: C27_35  and  C28_37 
REMARK    9  A    between atoms: C28_37  and  C29_39 
REMARK   10  A    between atoms: C29_39  and  O6_40 
ROOT
HETATM    1  C1  UNL     1      -1.695   8.291  16.023  1.00  0.00     0.020 C 
HETATM    2  C2  UNL     1      -2.200   7.834  14.632  1.00  0.00    -0.014 C 
HETATM    3  C3  UNL     1      -3.291   8.814  14.137  1.00  0.00     0.020 C 
HETATM    4  C4  UNL     1      -4.540   8.852  15.024  1.00  0.00     0.060 C 
HETATM    5  C5  UNL     1      -5.047   7.485  15.439  1.00  0.00     0.032 C 
HETATM    6  N1  UNL     1      -6.229   7.433  15.977  1.00  0.00    -0.271 N 
ATOM      7  H1  UNL     1      -6.835   8.242  16.110  1.00  0.00     0.194 HD
HETATM    8  C14 UNL     1      -4.165   6.317  15.185  1.00  0.00     0.030 C 
HETATM    9  C15 UNL     1      -2.887   6.471  14.789  1.00  0.00    -0.069 C 
HETATM   10  C16 UNL     1      -2.136   5.273  14.277  1.00  0.00     0.035 C 
HETATM   11  C17 UNL     1      -1.949   5.496  12.781  1.00  0.00     0.010 C 
HETATM   12  C18 UNL     1      -1.120   6.765  12.467  1.00  0.00    -0.002 C 
HETATM   13  C19 UNL     1      -0.930   7.693  13.692  1.00  0.00     0.031 C 
HETATM   14  C20 UNL     1      -0.183   8.989  13.265  1.00  0.00     0.124 C 
HETATM   15  C21 UNL     1       0.761   8.798  12.062  1.00  0.00     0.045 C 
HETATM   16  C22 UNL     1       1.395   7.394  11.937  1.00  0.00     0.001 C 
HETATM   17  C23 UNL     1       2.352   7.188  13.132  1.00  0.00     0.019 C 
HETATM   18  C24 UNL     1       0.258   6.332  11.879  1.00  0.00     0.002 C 
HETATM   19  C25 UNL     1       0.099   5.936  10.393  1.00  0.00     0.009 C 
HETATM   20  C26 UNL     1       1.050   6.816   9.597  1.00  0.00     0.047 C 
HETATM   21  C27 UNL     1       2.146   7.214  10.577  1.00  0.00     0.128 C 
ENDROOT
BRANCH   6  22
HETATM   22  O1  UNL     1      -6.565   6.122  16.352  1.00  0.00    -0.271 OA
BRANCH  22  23
HETATM   23  C6  UNL     1      -7.893   5.845  15.940  1.00  0.00     0.303 C 
BRANCH  23  24
HETATM   24  C7  UNL     1      -7.934   5.514  14.448  1.00  0.00     0.244 C 
HETATM   25  O2  UNL     1      -7.984   6.359  13.557  1.00  0.00    -0.271 OA
HETATM   26  N2  UNL     1      -7.918   4.155  14.189  1.00  0.00    -0.355 N 
HETATM   27  H10 UNL     1      -8.005   3.506  14.962  1.00  0.00     0.162 HD
BRANCH  26  28
HETATM   28  C8  UNL     1      -8.086   3.636  12.854  1.00  0.00     0.161 C 
BRANCH  28  29
HETATM   29  C9  UNL     1      -6.801   3.029  12.361  1.00  0.00    -0.038 A 
HETATM   30  C10 UNL     1      -5.617   3.776  12.360  1.00  0.00     0.025 A 
HETATM   31  C11 UNL     1      -4.465   3.196  11.860  1.00  0.00     0.088 A 
HETATM   32  N3  UNL     1      -4.412   1.940  11.366  1.00  0.00    -0.375 N 
HETATM   33  C12 UNL     1      -5.563   1.235  11.374  1.00  0.00     0.088 A 
ATOM     34  H3  UNL     1      -3.544   1.543  11.005  1.00  0.00     0.164 HD
HETATM   35  C13 UNL     1      -6.767   1.728  11.853  1.00  0.00     0.025 A 
ENDBRANCH  28  29
ENDBRANCH  26  28
ENDBRANCH  23  24
ENDBRANCH  22  23
ENDBRANCH   6  22
BRANCH  14  36
HETATM   36  O3  UNL     1      -1.075  10.034  12.903  1.00  0.00    -0.395 OA
HETATM   37  H25 UNL     1      -0.545  10.792  12.602  1.00  0.00     0.210 HD
ENDBRANCH  14  36
BRANCH  21  38
HETATM   38  O4  UNL     1       2.683   8.475  10.139  1.00  0.00    -0.381 OA
HETATM   39  H36 UNL     1       3.573   8.549  10.542  1.00  0.00     0.211 HD
ENDBRANCH  21  38
BRANCH  21  40
HETATM   40  C28 UNL     1       3.371   6.260  10.584  1.00  0.00     0.184 C 
HETATM   41  O5  UNL     1       4.301   6.477  11.376  1.00  0.00    -0.292 OA
BRANCH  40  42
HETATM   42  C29 UNL     1       3.423   5.048   9.665  1.00  0.00     0.245 C 
BRANCH  42  43
HETATM   43  O6  UNL     1       2.892   3.878  10.245  1.00  0.00    -0.393 OA
HETATM   44  H39 UNL     1       3.571   3.530  10.853  1.00  0.00     0.209 HD
ENDBRANCH  42  43
ENDBRANCH  40  42
ENDBRANCH  21  40
TORSDOF 10
ENDMDL
MODEL 4
REMARK minimizedAffinity -9.79974461
REMARK CNNscore 0.638332188
REMARK CNNaffinity 7.1708374
REMARK  10 active torsions:
REMARK  status: ('A' for Active; 'I' for Inactive)
REMARK    1  A    between atoms: N1_6  and  O1_8 
REMARK    2  A    between atoms: O1_8  and  C6_9 
REMARK    3  A    between atoms: C6_9  and  C7_10 
REMARK       I    between atoms: C7_10  and  N2_12 
REMARK    4  A    between atoms: N2_12  and  C8_13 
REMARK    5  A    between atoms: C8_13  and  C9_14 
REMARK    6  A    between atoms: C20_27  and  O3_28 
REMARK    7  A    between atoms: C27_35  and  O4_36 
REMARK    8  A    between atoms: C27_35  and  C28_37 
REMARK    9  A    between atoms: C28_37  and  C29_39 
REMARK   10  A    between atoms: C29_39  and  O6_40 
ROOT
HETATM    1  C1  UNL     1      -3.096   5.327  12.506  1.00  0.00     0.020 C 
HETATM    2  C2  UNL     1      -2.332   6.407  13.312  1.00  0.00    -0.014 C 
HETATM    3  C3  UNL     1      -2.304   6.008  14.806  1.00  0.00     0.020 C 
HETATM    4  C4  UNL     1      -3.691   5.931  15.454  1.00  0.00     0.060 C 
HETATM    5  C5  UNL     1      -4.595   7.100  15.121  1.00  0.00     0.032 C 
HETATM    6  N1  UNL     1      -5.680   7.226  15.824  1.00  0.00    -0.271 N 
ATOM      7  H1  UNL     1      -5.941   6.608  16.592  1.00  0.00     0.194 HD
HETATM    8  C14 UNL     1      -4.165   8.016  14.032  1.00  0.00     0.030 C 
HETATM    9  C15 UNL     1      -3.123   7.720  13.233  1.00  0.00    -0.069 C 
HETATM   10  C16 UNL     1      -2.559   8.796  12.346  1.00  0.00     0.035 C 
HETATM   11  C17 UNL     1      -1.190   9.146  12.920  1.00  0.00     0.010 C 
HETATM   12  C18 UNL     1      -0.216   7.943  12.911  1.00  0.00    -0.002 C 
HETATM   13  C19 UNL     1      -0.913   6.590  12.625  1.00  0.00     0.031 C 
HETATM   14  C20 UNL     1       0.115   5.429  12.741  1.00  0.00     0.124 C 
HETATM   15  C21 UNL     1       1.562   5.841  12.408  1.00  0.00     0.045 C 
HETATM   16  C22 UNL     1       1.703   6.974  11.368  1.00  0.00     0.001 C 
HETATM   17  C23 UNL     1       1.199   6.446  10.006  1.00  0.00     0.019 C 
HETATM   18  C24 UNL     1       0.911   8.218  11.868  1.00  0.00     0.002 C 
HETATM   19  C25 UNL     1       1.952   9.196  12.459  1.00  0.00     0.009 C 
HETATM   20  C26 UNL     1       3.301   8.498  12.393  1.00  0.00     0.047 C 
HETATM   21  C27 UNL     1       3.177   7.487  11.261  1.00  0.00     0.128 C 
ENDROOT
BRANCH   6  22
HETATM   22  O1  UNL     1      -6.449   8.319  15.394  1.00  0.00    -0.271 OA
BRANCH  22  23
HETATM   23  C6  UNL     1      -7.816   8.064  15.664  1.00  0.00     0.303 C 
BRANCH  23  24
HETATM   24  C7  UNL     1      -8.441   7.237  14.541  1.00  0.00     0.244 C 
HETATM   25  O2  UNL     1      -7.803   6.504  13.790  1.00  0.00    -0.271 OA
HETATM   26  N2  UNL     1      -9.812   7.398  14.442  1.00  0.00    -0.355 N 
HETATM   27  H10 UNL     1     -10.266   8.109  15.003  1.00  0.00     0.162 HD
BRANCH  26  28
HETATM   28  C8  UNL     1     -10.568   6.808  13.363  1.00  0.00     0.161 C 
BRANCH  28  29
HETATM   29  C9  UNL     1     -11.785   7.639  13.062  1.00  0.00    -0.038 A 
HETATM   30  C10 UNL     1     -13.065   7.075  13.130  1.00  0.00     0.025 A 
HETATM   31  C11 UNL     1     -14.156   7.860  12.803  1.00  0.00     0.088 A 
HETATM   32  N3  UNL     1     -14.062   9.151  12.418  1.00  0.00    -0.375 N 
HETATM   33  C12 UNL     1     -12.820   9.677  12.357  1.00  0.00     0.088 A 
ATOM     34  H3  UNL     1     -14.888   9.702  12.185  1.00  0.00     0.164 HD
HETATM   35  C13 UNL     1     -11.667   8.973  12.663  1.00  0.00     0.025 A 
ENDBRANCH  28  29
ENDBRANCH  26  28
ENDBRANCH  23  24
ENDBRANCH  22  23
ENDBRANCH   6  22
BRANCH  14  36
HETATM   36  O3  UNL     1       0.156   4.869  14.046  1.00  0.00    -0.395 OA
HETATM   37  H25 UNL     1       0.849   4.187  14.061  1.00  0.00     0.210 HD
ENDBRANCH  14  36
BRANCH  21  38
HETATM   38  O4  UNL     1       4.094   6.412  11.536  1.00  0.00    -0.381 OA
HETATM   39  H36 UNL     1       4.260   5.967  10.680  1.00  0.00     0.211 HD
ENDBRANCH  21  38
BRANCH  21  40
HETATM   40  C28 UNL     1       3.624   8.024   9.875  1.00  0.00     0.184 C 
HETATM   41  O5  UNL     1       4.673   8.682   9.791  1.00  0.00    -0.292 OA
BRANCH  40  42
HETATM   42  C29 UNL     1       2.817   7.719   8.621  1.00  0.00     0.245 C 
BRANCH  42  43
HETATM   43  O6  UNL     1       2.960   8.690   7.610  1.00  0.00    -0.393 OA
HETATM   44  H39 UNL     1       2.403   9.450   7.865  1.00  0.00     0.209 HD
ENDBRANCH  42  43
ENDBRANCH  40  42
ENDBRANCH  21  40
TORSDOF 10
ENDMDL
MODEL 5
REMARK minimizedAffinity -9.02563477
REMARK CNNscore 0.573197007
REMARK CNNaffinity 7.11536598
REMARK  10 active torsions:
REMARK  status: ('A' for Active; 'I' for Inactive)
REMARK    1  A    between atoms: N1_6  and  O1_8 
REMARK    2  A    between atoms: O1_8  and  C6_9 
REMARK    3  A    between atoms: C6_9  and  C7_10 
REMARK       I    between atoms: C7_10  and  N2_12 
REMARK    4  A    between atoms: N2_12  and  C8_13 
REMARK    5  A    between atoms: C8_13  and  C9_14 
REMARK    6  A    between atoms: C20_27  and  O3_28 
REMARK    7  A    between atoms: C27_35  and  O4_36 
REMARK    8  A    between atoms: C27_35  and  C28_37 
REMARK    9  A    between atoms: C28_37  and  C29_39 
REMARK   10  A    between atoms: C29_39  and  O6_40 
ROOT
HETATM    1  C1  UNL     1      -4.675   5.121  13.316  1.00  0.00     0.020 C 
HETATM    2  C2  UNL     1      -3.996   6.350  13.971  1.00  0.00    -0.014 C 
HETATM    3  C3  UNL     1      -4.067   6.215  15.511  1.00  0.00     0.020 C 
HETATM    4  C4  UNL     1      -5.495   6.203  16.067  1.00  0.00     0.060 C 
HETATM    5  C5  UNL     1      -6.399   7.265  15.475  1.00  0.00     0.032 C 
HETATM    6  N1  UNL     1      -7.534   7.473  16.071  1.00  0.00    -0.271 N 
ATOM      7  H1  UNL     1      -7.836   6.987  16.916  1.00  0.00     0.194 HD
HETATM    8  C14 UNL     1      -5.912   7.994  14.275  1.00  0.00     0.030 C 
HETATM    9  C15 UNL     1      -4.808   7.601  13.612  1.00  0.00    -0.069 C 
HETATM   10  C16 UNL     1      -4.206   8.528  12.592  1.00  0.00     0.035 C 
HETATM   11  C17 UNL     1      -2.891   9.018  13.186  1.00  0.00     0.010 C 
HETATM   12  C18 UNL     1      -1.891   7.866  13.452  1.00  0.00    -0.002 C 
HETATM   13  C19 UNL     1      -2.535   6.461  13.360  1.00  0.00     0.031 C 
HETATM   14  C20 UNL     1      -1.492   5.374  13.745  1.00  0.00     0.124 C 
HETATM   15  C21 UNL     1      -0.034   5.772  13.444  1.00  0.00     0.045 C 
HETATM   16  C22 UNL     1       0.156   6.714  12.234  1.00  0.00     0.001 C 
HETATM   17  C23 UNL     1      -0.236   5.942  10.955  1.00  0.00     0.019 C 
HETATM   18  C24 UNL     1      -0.698   7.997  12.456  1.00  0.00     0.002 C 
HETATM   19  C25 UNL     1       0.275   9.098  12.936  1.00  0.00     0.009 C 
HETATM   20  C26 UNL     1       1.641   8.446  13.084  1.00  0.00     0.047 C 
HETATM   21  C27 UNL     1       1.622   7.251  12.139  1.00  0.00     0.128 C 
ENDROOT
BRANCH   6  22
HETATM   22  O1  UNL     1      -8.294   8.448  15.407  1.00  0.00    -0.271 OA
BRANCH  22  23
HETATM   23  C6  UNL     1      -9.658   8.301  15.763  1.00  0.00     0.303 C 
BRANCH  23  24
HETATM   24  C7  UNL     1     -10.352   7.306  14.833  1.00  0.00     0.244 C 
HETATM   25  O2  UNL     1      -9.763   6.601  14.017  1.00  0.00    -0.271 OA
HETATM   26  N2  UNL     1     -11.726   7.277  14.992  1.00  0.00    -0.355 N 
HETATM   27  H10 UNL     1     -12.168   7.968  15.587  1.00  0.00     0.162 HD
BRANCH  26  28
HETATM   28  C8  UNL     1     -12.574   6.503  14.118  1.00  0.00     0.161 C 
BRANCH  28  29
HETATM   29  C9  UNL     1     -13.473   7.410  13.323  1.00  0.00    -0.038 A 
HETATM   30  C10 UNL     1     -13.124   8.748  13.111  1.00  0.00     0.025 A 
HETATM   31  C11 UNL     1     -13.999   9.561  12.411  1.00  0.00     0.088 A 
HETATM   32  N3  UNL     1     -15.181   9.137  11.915  1.00  0.00    -0.375 N 
HETATM   33  C12 UNL     1     -15.501   7.844  12.130  1.00  0.00     0.088 A 
ATOM     34  H3  UNL     1     -15.802   9.764  11.402  1.00  0.00     0.164 HD
HETATM   35  C13 UNL     1     -14.693   6.952  12.818  1.00  0.00     0.025 A 
ENDBRANCH  28  29
ENDBRANCH  26  28
ENDBRANCH  23  24
ENDBRANCH  22  23
ENDBRANCH   6  22
BRANCH  14  36
HETATM   36  O3  UNL     1      -1.533   5.049  15.128  1.00  0.00    -0.395 OA
HETATM   37  H25 UNL     1      -0.828   4.403  15.308  1.00  0.00     0.210 HD
ENDBRANCH  14  36
BRANCH  21  38
HETATM   38  O4  UNL     1       2.540   6.272  12.659  1.00  0.00    -0.381 OA
HETATM   39  H36 UNL     1       2.777   5.692  11.906  1.00  0.00     0.211 HD
ENDBRANCH  21  38
BRANCH  21  40
HETATM   40  C28 UNL     1       2.156   7.557  10.714  1.00  0.00     0.184 C 
HETATM   41  O5  UNL     1       1.538   8.359   9.997  1.00  0.00    -0.292 OA
BRANCH  40  42
HETATM   42  C29 UNL     1       3.441   6.918  10.208  1.00  0.00     0.245 C 
BRANCH  42  43
HETATM   43  O6  UNL     1       3.361   6.475   8.872  1.00  0.00    -0.393 OA
HETATM   44  H39 UNL     1       2.867   5.634   8.882  1.00  0.00     0.209 HD
ENDBRANCH  42  43
ENDBRANCH  40  42
ENDBRANCH  21  40
TORSDOF 10
ENDMDL
MODEL 6
REMARK minimizedAffinity -10.1666985
REMARK CNNscore 0.560003459
REMARK CNNaffinity 7.16783905
REMARK  10 active torsions:
REMARK  status: ('A' for Active; 'I' for Inactive)
REMARK    1  A    between atoms: N1_6  and  O1_8 
REMARK    2  A    between atoms: O1_8  and  C6_9 
REMARK    3  A    between atoms: C6_9  and  C7_10 
REMARK       I    between atoms: C7_10  and  N2_12 
REMARK    4  A    between atoms: N2_12  and  C8_13 
REMARK    5  A    between atoms: C8_13  and  C9_14 
REMARK    6  A    between atoms: C20_27  and  O3_28 
REMARK    7  A    between atoms: C27_35  and  O4_36 
REMARK    8  A    between atoms: C27_35  and  C28_37 
REMARK    9  A    between atoms: C28_37  and  C29_39 
REMARK   10  A    between atoms: C29_39  and  O6_40 
ROOT
HETATM    1  C1  UNL     1      -2.846   5.266  12.450  1.00  0.00     0.020 C 
HETATM    2  C2  UNL     1      -2.130   6.364  13.276  1.00  0.00    -0.014 C 
HETATM    3  C3  UNL     1      -2.107   5.950  14.766  1.00  0.00     0.020 C 
HETATM    4  C4  UNL     1      -3.498   5.818  15.396  1.00  0.00     0.060 C 
HETATM    5  C5  UNL     1      -4.439   6.958  15.062  1.00  0.00     0.032 C 
HETATM    6  N1  UNL     1      -5.536   7.038  15.754  1.00  0.00    -0.271 N 
ATOM      7  H1  UNL     1      -5.784   6.403  16.512  1.00  0.00     0.194 HD
HETATM    8  C14 UNL     1      -4.028   7.900  13.989  1.00  0.00     0.030 C 
HETATM    9  C15 UNL     1      -2.966   7.649  13.201  1.00  0.00    -0.069 C 
HETATM   10  C16 UNL     1      -2.430   8.753  12.332  1.00  0.00     0.035 C 
HETATM   11  C17 UNL     1      -1.082   9.145  12.926  1.00  0.00     0.010 C 
HETATM   12  C18 UNL     1      -0.065   7.978  12.917  1.00  0.00    -0.002 C 
HETATM   13  C19 UNL     1      -0.711   6.604  12.609  1.00  0.00     0.031 C 
HETATM   14  C20 UNL     1       0.357   5.479  12.726  1.00  0.00     0.124 C 
HETATM   15  C21 UNL     1       1.792   5.946  12.416  1.00  0.00     0.045 C 
HETATM   16  C22 UNL     1       1.906   7.094  11.389  1.00  0.00     0.001 C 
HETATM   17  C23 UNL     1       1.438   6.562  10.016  1.00  0.00     0.019 C 
HETATM   18  C24 UNL     1       1.064   8.304  11.892  1.00  0.00     0.002 C 
HETATM   19  C25 UNL     1       2.062   9.312  12.505  1.00  0.00     0.009 C 
HETATM   20  C26 UNL     1       3.436   8.663  12.450  1.00  0.00     0.047 C 
HETATM   21  C27 UNL     1       3.362   7.660  11.306  1.00  0.00     0.128 C 
ENDROOT
BRANCH   6  22
HETATM   22  O1  UNL     1      -6.338   8.107  15.325  1.00  0.00    -0.271 OA
BRANCH  22  23
HETATM   23  C6  UNL     1      -7.457   7.599  14.619  1.00  0.00     0.303 C 
BRANCH  23  24
HETATM   24  C7  UNL     1      -7.691   6.130  14.970  1.00  0.00     0.244 C 
HETATM   25  O2  UNL     1      -8.004   5.731  16.088  1.00  0.00    -0.271 OA
HETATM   26  N2  UNL     1      -7.507   5.276  13.896  1.00  0.00    -0.355 N 
HETATM   27  H10 UNL     1      -7.127   5.646  13.033  1.00  0.00     0.162 HD
BRANCH  26  28
HETATM   28  C8  UNL     1      -7.550   3.842  14.052  1.00  0.00     0.161 C 
BRANCH  28  29
HETATM   29  C9  UNL     1      -6.909   3.167  12.870  1.00  0.00    -0.038 A 
HETATM   30  C10 UNL     1      -7.160   1.817  12.601  1.00  0.00     0.025 A 
HETATM   31  C11 UNL     1      -6.519   1.222  11.529  1.00  0.00     0.088 A 
HETATM   32  N3  UNL     1      -5.656   1.870  10.718  1.00  0.00    -0.375 N 
HETATM   33  C12 UNL     1      -5.425   3.171  10.993  1.00  0.00     0.088 A 
ATOM     34  H3  UNL     1      -5.200   1.400   9.936  1.00  0.00     0.164 HD
HETATM   35  C13 UNL     1      -6.018   3.856  12.043  1.00  0.00     0.025 A 
ENDBRANCH  28  29
ENDBRANCH  26  28
ENDBRANCH  23  24
ENDBRANCH  22  23
ENDBRANCH   6  22
BRANCH  14  36
HETATM   36  O3  UNL     1       0.401   4.908  14.026  1.00  0.00    -0.395 OA
HETATM   37  H25 UNL     1       1.118   4.250  14.043  1.00  0.00     0.210 HD
ENDBRANCH  14  36
BRANCH  21  38
HETATM   38  O4  UNL     1       4.313   6.615  11.582  1.00  0.00    -0.381 OA
HETATM   39  H36 UNL     1       4.505   6.185  10.724  1.00  0.00     0.211 HD
ENDBRANCH  21  38
BRANCH  21  40
HETATM   40  C28 UNL     1       3.807   8.227   9.932  1.00  0.00     0.184 C 
HETATM   41  O5  UNL     1       4.788   8.984   9.879  1.00  0.00    -0.292 OA
BRANCH  40  42
HETATM   42  C29 UNL     1       3.081   7.834   8.652  1.00  0.00     0.245 C 
BRANCH  42  43
HETATM   43  O6  UNL     1       3.089   8.843   7.669  1.00  0.00    -0.393 OA
HETATM   44  H39 UNL     1       2.414   9.499   7.930  1.00  0.00     0.209 HD
ENDBRANCH  42  43
ENDBRANCH  40  42
ENDBRANCH  21  40
TORSDOF 10
ENDMDL
MODEL 7
REMARK minimizedAffinity -8.30512524
REMARK CNNscore 0.537486911
REMARK CNNaffinity 7.06844187
REMARK  10 active torsions:
REMARK  status: ('A' for Active; 'I' for Inactive)
REMARK    1  A    between atoms: N1_6  and  O1_8 
REMARK    2  A    between atoms: O1_8  and  C6_9 
REMARK    3  A    between atoms: C6_9  and  C7_10 
REMARK       I    between atoms: C7_10  and  N2_12 
REMARK    4  A    between atoms: N2_12  and  C8_13 
REMARK    5  A    between atoms: C8_13  and  C9_14 
REMARK    6  A    between atoms: C20_27  and  O3_28 
REMARK    7  A    between atoms: C27_35  and  O4_36 
REMARK    8  A    between atoms: C27_35  and  C28_37 
REMARK    9  A    between atoms: C28_37  and  C29_39 
REMARK   10  A    between atoms: C29_39  and  O6_40 
ROOT
HETATM    1  C1  UNL     1      -6.879   7.145  14.230  1.00  0.00     0.020 C 
HETATM    2  C2  UNL     1      -8.292   6.551  14.454  1.00  0.00    -0.014 C 
HETATM    3  C3  UNL     1      -8.218   5.447  15.536  1.00  0.00     0.020 C 
HETATM    4  C4  UNL     1      -7.338   4.254  15.146  1.00  0.00     0.060 C 
HETATM    5  C5  UNL     1      -7.566   3.753  13.734  1.00  0.00     0.032 C 
HETATM    6  N1  UNL     1      -7.042   2.605  13.424  1.00  0.00    -0.271 N 
ATOM      7  H1  UNL     1      -6.517   2.019  14.074  1.00  0.00     0.194 HD
HETATM    8  C14 UNL     1      -8.379   4.601  12.824  1.00  0.00     0.030 C 
HETATM    9  C15 UNL     1      -8.735   5.855  13.161  1.00  0.00    -0.069 C 
HETATM   10  C16 UNL     1      -9.782   6.557  12.341  1.00  0.00     0.035 C 
HETATM   11  C17 UNL     1     -11.019   6.657  13.226  1.00  0.00     0.010 C 
HETATM   12  C18 UNL     1     -10.766   7.484  14.510  1.00  0.00    -0.002 C 
HETATM   13  C19 UNL     1      -9.266   7.761  14.776  1.00  0.00     0.031 C 
HETATM   14  C20 UNL     1      -9.096   8.500  16.135  1.00  0.00     0.124 C 
HETATM   15  C21 UNL     1     -10.307   9.368  16.529  1.00  0.00     0.045 C 
HETATM   16  C22 UNL     1     -11.098   9.973  15.347  1.00  0.00     0.001 C 
HETATM   17  C23 UNL     1     -10.190  10.996  14.631  1.00  0.00     0.019 C 
HETATM   18  C24 UNL     1     -11.569   8.819  14.413  1.00  0.00     0.002 C 
HETATM   19  C25 UNL     1     -13.058   8.566  14.739  1.00  0.00     0.009 C 
HETATM   20  C26 UNL     1     -13.418   9.481  15.899  1.00  0.00     0.047 C 
HETATM   21  C27 UNL     1     -12.432  10.639  15.820  1.00  0.00     0.128 C 
ENDROOT
BRANCH   6  22
HETATM   22  O1  UNL     1      -7.289   2.271  12.083  1.00  0.00    -0.271 OA
BRANCH  22  23
HETATM   23  C6  UNL     1      -6.127   1.680  11.527  1.00  0.00     0.303 C 
BRANCH  23  24
HETATM   24  C7  UNL     1      -5.131   2.756  11.095  1.00  0.00     0.244 C 
HETATM   25  O2  UNL     1      -5.214   3.389  10.046  1.00  0.00    -0.271 OA
HETATM   26  N2  UNL     1      -4.106   2.948  12.005  1.00  0.00    -0.355 N 
HETATM   27  H10 UNL     1      -4.018   2.312  12.788  1.00  0.00     0.162 HD
BRANCH  26  28
HETATM   28  C8  UNL     1      -2.994   3.822  11.720  1.00  0.00     0.161 C 
BRANCH  28  29
HETATM   29  C9  UNL     1      -2.691   4.691  12.910  1.00  0.00    -0.038 A 
HETATM   30  C10 UNL     1      -1.372   5.046  13.213  1.00  0.00     0.025 A 
HETATM   31  C11 UNL     1      -1.131   5.811  14.341  1.00  0.00     0.088 A 
HETATM   32  N3  UNL     1      -2.102   6.240  15.176  1.00  0.00    -0.375 N 
HETATM   33  C12 UNL     1      -3.367   5.887  14.868  1.00  0.00     0.088 A 
ATOM     34  H3  UNL     1      -1.889   6.804  15.999  1.00  0.00     0.164 HD
HETATM   35  C13 UNL     1      -3.710   5.124  13.763  1.00  0.00     0.025 A 
ENDBRANCH  28  29
ENDBRANCH  26  28
ENDBRANCH  23  24
ENDBRANCH  22  23
ENDBRANCH   6  22
BRANCH  14  36
HETATM   36  O3  UNL     1      -8.886   7.604  17.217  1.00  0.00    -0.395 OA
HETATM   37  H25 UNL     1      -8.837   8.126  18.036  1.00  0.00     0.210 HD
ENDBRANCH  14  36
BRANCH  21  38
HETATM   38  O4  UNL     1     -12.275  11.167  17.149  1.00  0.00    -0.381 OA
HETATM   39  H36 UNL     1     -11.937  12.080  17.043  1.00  0.00     0.211 HD
ENDBRANCH  21  38
BRANCH  21  40
HETATM   40  C28 UNL     1     -12.935  11.847  14.986  1.00  0.00     0.184 C 
HETATM   41  O5  UNL     1     -12.624  12.996  15.337  1.00  0.00    -0.292 OA
BRANCH  40  42
HETATM   42  C29 UNL     1     -13.767  11.637  13.729  1.00  0.00     0.245 C 
BRANCH  42  43
HETATM   43  O6  UNL     1     -12.994  11.504  12.558  1.00  0.00    -0.393 OA
HETATM   44  H39 UNL     1     -12.711  12.402  12.302  1.00  0.00     0.209 HD
ENDBRANCH  42  43
ENDBRANCH  40  42
ENDBRANCH  21  40
TORSDOF 10
ENDMDL
MODEL 8
REMARK minimizedAffinity -7.69176626
REMARK CNNscore 0.513659775
REMARK CNNaffinity 6.36961174
REMARK  10 active torsions:
REMARK  status: ('A' for Active; 'I' for Inactive)
REMARK    1  A    between atoms: N1_6  and  O1_8 
REMARK    2  A    between atoms: O1_8  and  C6_9 
REMARK    3  A    between atoms: C6_9  and  C7_10 
REMARK       I    between atoms: C7_10  and  N2_12 
REMARK    4  A    between atoms: N2_12  and  C8_13 
REMARK    5  A    between atoms: C8_13  and  C9_14 
REMARK    6  A    between atoms: C20_27  and  O3_28 
REMARK    7  A    between atoms: C27_35  and  O4_36 
REMARK    8  A    between atoms: C27_35  and  C28_37 
REMARK    9  A    between atoms: C28_37  and  C29_39 
REMARK   10  A    between atoms: C29_39  and  O6_40 
ROOT
HETATM    1  C1  UNL     1      -2.136  10.211  13.882  1.00  0.00     0.020 C 
HETATM    2  C2  UNL     1      -0.824   9.581  14.412  1.00  0.00    -0.014 C 
HETATM    3  C3  UNL     1      -1.138   8.708  15.650  1.00  0.00     0.020 C 
HETATM    4  C4  UNL     1      -1.711   9.495  16.834  1.00  0.00     0.060 C 
HETATM    5  C5  UNL     1      -0.979  10.788  17.131  1.00  0.00     0.032 C 
HETATM    6  N1  UNL     1      -1.249  11.373  18.259  1.00  0.00    -0.271 N 
ATOM      7  H1  UNL     1      -1.896  11.005  18.956  1.00  0.00     0.194 HD
HETATM    8  C14 UNL     1      -0.002  11.274  16.122  1.00  0.00     0.030 C 
HETATM    9  C15 UNL     1       0.092  10.710  14.904  1.00  0.00    -0.069 C 
HETATM   10  C16 UNL     1       1.273  11.047  14.036  1.00  0.00     0.035 C 
HETATM   11  C17 UNL     1       2.130   9.788  13.976  1.00  0.00     0.010 C 
HETATM   12  C18 UNL     1       1.383   8.590  13.341  1.00  0.00    -0.002 C 
HETATM   13  C19 UNL     1      -0.141   8.824  13.195  1.00  0.00     0.031 C 
HETATM   14  C20 UNL     1      -0.826   7.537  12.653  1.00  0.00     0.124 C 
HETATM   15  C21 UNL     1       0.090   6.667  11.770  1.00  0.00     0.045 C 
HETATM   16  C22 UNL     1       1.161   7.440  10.968  1.00  0.00     0.001 C 
HETATM   17  C23 UNL     1       0.441   8.314   9.918  1.00  0.00     0.019 C 
HETATM   18  C24 UNL     1       2.030   8.270  11.958  1.00  0.00     0.002 C 
HETATM   19  C25 UNL     1       3.346   7.483  12.158  1.00  0.00     0.009 C 
HETATM   20  C26 UNL     1       3.205   6.183  11.382  1.00  0.00     0.047 C 
HETATM   21  C27 UNL     1       2.187   6.475  10.288  1.00  0.00     0.128 C 
ENDROOT
BRANCH   6  22
HETATM   22  O1  UNL     1      -0.539  12.576  18.398  1.00  0.00    -0.271 OA
BRANCH  22  23
HETATM   23  C6  UNL     1       0.018  12.642  19.699  1.00  0.00     0.303 C 
BRANCH  23  24
HETATM   24  C7  UNL     1       1.074  11.554  19.887  1.00  0.00     0.244 C 
HETATM   25  O2  UNL     1       0.846  10.350  19.795  1.00  0.00    -0.271 OA
HETATM   26  N2  UNL     1       2.330  12.056  20.183  1.00  0.00    -0.355 N 
HETATM   27  H10 UNL     1       2.432  13.046  20.372  1.00  0.00     0.162 HD
BRANCH  26  28
HETATM   28  C8  UNL     1       3.431  11.189  20.528  1.00  0.00     0.161 C 
BRANCH  28  29
HETATM   29  C9  UNL     1       3.147  10.469  21.818  1.00  0.00    -0.038 A 
HETATM   30  C10 UNL     1       3.137  11.165  23.033  1.00  0.00     0.025 A 
HETATM   31  C11 UNL     1       2.914  10.459  24.202  1.00  0.00     0.088 A 
HETATM   32  N3  UNL     1       2.704   9.126  24.244  1.00  0.00    -0.375 N 
HETATM   33  C12 UNL     1       2.718   8.472  23.063  1.00  0.00     0.088 A 
ATOM     34  H3  UNL     1       2.542   8.637  25.124  1.00  0.00     0.164 HD
HETATM   35  C13 UNL     1       2.933   9.089  21.841  1.00  0.00     0.025 A 
ENDBRANCH  28  29
ENDBRANCH  26  28
ENDBRANCH  23  24
ENDBRANCH  22  23
ENDBRANCH   6  22
BRANCH  14  36
HETATM   36  O3  UNL     1      -1.289   6.689  13.695  1.00  0.00    -0.395 OA
HETATM   37  H25 UNL     1      -1.660   5.887  13.289  1.00  0.00     0.210 HD
ENDBRANCH  14  36
BRANCH  21  38
HETATM   38  O4  UNL     1       1.546   5.232   9.949  1.00  0.00    -0.381 OA
HETATM   39  H36 UNL     1       1.170   5.353   9.052  1.00  0.00     0.211 HD
ENDBRANCH  21  38
BRANCH  21  40
HETATM   40  C28 UNL     1       2.811   6.959   8.951  1.00  0.00     0.184 C 
HETATM   41  O5  UNL     1       3.527   7.973   8.950  1.00  0.00    -0.292 OA
BRANCH  40  42
HETATM   42  C29 UNL     1       2.587   6.186   7.659  1.00  0.00     0.245 C 
BRANCH  42  43
HETATM   43  O6  UNL     1       3.219   4.927   7.640  1.00  0.00    -0.393 OA
HETATM   44  H39 UNL     1       4.165   5.087   7.460  1.00  0.00     0.209 HD
ENDBRANCH  42  43
ENDBRANCH  40  42
ENDBRANCH  21  40
TORSDOF 10
ENDMDL
MODEL 9
REMARK minimizedAffinity -9.58297539
REMARK CNNscore 0.38717097
REMARK CNNaffinity 6.60048103
REMARK  10 active torsions:
REMARK  status: ('A' for Active; 'I' for Inactive)
REMARK    1  A    between atoms: N1_6  and  O1_8 
REMARK    2  A    between atoms: O1_8  and  C6_9 
REMARK    3  A    between atoms: C6_9  and  C7_10 
REMARK       I    between atoms: C7_10  and  N2_12 
REMARK    4  A    between atoms: N2_12  and  C8_13 
REMARK    5  A    between atoms: C8_13  and  C9_14 
REMARK    6  A    between atoms: C20_27  and  O3_28 
REMARK    7  A    between atoms: C27_35  and  O4_36 
REMARK    8  A    between atoms: C27_35  and  C28_37 
REMARK    9  A    between atoms: C28_37  and  C29_39 
REMARK   10  A    between atoms: C29_39  and  O6_40 
ROOT
HETATM    1  C1  UNL     1      -0.734   6.425  14.727  1.00  0.00     0.020 C 
HETATM    2  C2  UNL     1      -0.694   6.501  13.181  1.00  0.00    -0.014 C 
HETATM    3  C3  UNL     1      -1.863   7.384  12.681  1.00  0.00     0.020 C 
HETATM    4  C4  UNL     1      -3.250   6.826  13.019  1.00  0.00     0.060 C 
HETATM    5  C5  UNL     1      -3.404   5.344  12.746  1.00  0.00     0.032 C 
HETATM    6  N1  UNL     1      -4.611   4.862  12.773  1.00  0.00    -0.271 N 
ATOM      7  H1  UNL     1      -5.448   5.420  12.940  1.00  0.00     0.194 HD
HETATM    8  C14 UNL     1      -2.173   4.565  12.454  1.00  0.00     0.030 C 
HETATM    9  C15 UNL     1      -0.947   5.096  12.619  1.00  0.00    -0.069 C 
HETATM   10  C16 UNL     1       0.241   4.374  12.046  1.00  0.00     0.035 C 
HETATM   11  C17 UNL     1       0.734   5.225  10.881  1.00  0.00     0.010 C 
HETATM   12  C18 UNL     1       1.187   6.637  11.326  1.00  0.00    -0.002 C 
HETATM   13  C19 UNL     1       0.758   6.992  12.771  1.00  0.00     0.031 C 
HETATM   14  C20 UNL     1       1.158   8.460  13.096  1.00  0.00     0.124 C 
HETATM   15  C21 UNL     1       2.394   8.957  12.323  1.00  0.00     0.045 C 
HETATM   16  C22 UNL     1       3.437   7.870  11.976  1.00  0.00     0.001 C 
HETATM   17  C23 UNL     1       4.064   7.365  13.295  1.00  0.00     0.019 C 
HETATM   18  C24 UNL     1       2.736   6.741  11.165  1.00  0.00     0.002 C 
HETATM   19  C25 UNL     1       3.099   6.974   9.680  1.00  0.00     0.009 C 
HETATM   20  C26 UNL     1       3.909   8.259   9.620  1.00  0.00     0.047 C 
HETATM   21  C27 UNL     1       4.535   8.406  11.001  1.00  0.00     0.128 C 
ENDROOT
BRANCH   6  22
HETATM   22  O1  UNL     1      -4.616   3.477  12.544  1.00  0.00    -0.271 OA
BRANCH  22  23
HETATM   23  C6  UNL     1      -5.782   3.128  11.818  1.00  0.00     0.303 C 
BRANCH  23  24
HETATM   24  C7  UNL     1      -7.038   3.496  12.609  1.00  0.00     0.244 C 
HETATM   25  O2  UNL     1      -7.741   2.681  13.201  1.00  0.00    -0.271 OA
HETATM   26  N2  UNL     1      -7.318   4.851  12.590  1.00  0.00    -0.355 N 
HETATM   27  H10 UNL     1      -6.779   5.457  11.983  1.00  0.00     0.162 HD
BRANCH  26  28
HETATM   28  C8  UNL     1      -8.531   5.382  13.163  1.00  0.00     0.161 C 
BRANCH  28  29
HETATM   29  C9  UNL     1      -8.255   5.979  14.516  1.00  0.00    -0.038 A 
HETATM   30  C10 UNL     1      -9.135   6.913  15.074  1.00  0.00     0.025 A 
HETATM   31  C11 UNL     1      -8.823   7.471  16.301  1.00  0.00     0.088 A 
HETATM   32  N3  UNL     1      -7.709   7.167  17.001  1.00  0.00    -0.375 N 
HETATM   33  C12 UNL     1      -6.871   6.265  16.447  1.00  0.00     0.088 A 
ATOM     34  H3  UNL     1      -7.510   7.597  17.904  1.00  0.00     0.164 HD
HETATM   35  C13 UNL     1      -7.095   5.652  15.224  1.00  0.00     0.025 A 
ENDBRANCH  28  29
ENDBRANCH  26  28
ENDBRANCH  23  24
ENDBRANCH  22  23
ENDBRANCH   6  22
BRANCH  14  36
HETATM   36  O3  UNL     1       0.116   9.382  12.806  1.00  0.00    -0.395 OA
HETATM   37  H25 UNL     1       0.448  10.279  12.986  1.00  0.00     0.210 HD
ENDBRANCH  14  36
BRANCH  21  38
HETATM   38  O4  UNL     1       4.755   9.810  11.230  1.00  0.00    -0.381 OA
HETATM   39  H36 UNL     1       5.442   9.870  11.925  1.00  0.00     0.211 HD
ENDBRANCH  21  38
BRANCH  21  40
HETATM   40  C28 UNL     1       5.945   7.772  11.131  1.00  0.00     0.184 C 
HETATM   41  O5  UNL     1       6.188   6.709  10.538  1.00  0.00    -0.292 OA
BRANCH  40  42
HETATM   42  C29 UNL     1       7.038   8.457  11.939  1.00  0.00     0.245 C 
BRANCH  42  43
HETATM   43  O6  UNL     1       7.930   7.557  12.557  1.00  0.00    -0.393 OA
HETATM   44  H39 UNL     1       7.475   7.204  13.344  1.00  0.00     0.209 HD
ENDBRANCH  42  43
ENDBRANCH  40  42
ENDBRANCH  21  40
TORSDOF 10
ENDMDL
