MODEL 1
REMARK minimizedAffinity -7.84118652
REMARK CNNscore 0.81280148
REMARK CNNaffinity 7.06522322
REMARK  7 active torsions:
REMARK  status: ('A' for Active; 'I' for Inactive)
REMARK    1  A    between atoms: C2_2  and  C30_32 
REMARK    2  A    between atoms: C3_3  and  C4_4 
REMARK    3  A    between atoms: C4_4  and  C5_5 
REMARK    4  A    between atoms: C5_5  and  C6_6 
REMARK    5  A    between atoms: C6_6  and  C8_8 
REMARK    6  A    between atoms: C10_10  and  O1_11 
REMARK    7  A    between atoms: C30_32  and  O4_34 
ROOT
HETATM    1  C8  UNL     1      -2.476   9.827  14.345  1.00  0.00     0.001 C 
HETATM    2  C9  UNL     1      -3.619   9.619  15.370  1.00  0.00     0.038 C 
HETATM    3  C10 UNL     1      -3.024   9.887  16.770  1.00  0.00     0.128 C 
HETATM    4  C11 UNL     1      -1.677  10.606  16.505  1.00  0.00    -0.006 C 
HETATM    5  C12 UNL     1      -2.027  12.117  16.288  1.00  0.00     0.019 C 
HETATM    6  C13 UNL     1      -0.594  10.483  17.613  1.00  0.00     0.006 C 
HETATM    7  C14 UNL     1      -0.923  11.273  18.889  1.00  0.00     0.007 C 
HETATM    8  C15 UNL     1       0.149  11.045  19.949  1.00  0.00     0.007 C 
HETATM    9  C16 UNL     1       1.473  11.696  19.519  1.00  0.00     0.010 C 
HETATM   10  C17 UNL     1       2.666  11.537  20.523  1.00  0.00     0.018 C 
HETATM   11  C18 UNL     1       2.809  12.825  21.357  1.00  0.00     0.023 C 
HETATM   12  C19 UNL     1       2.482  10.354  21.496  1.00  0.00     0.023 C 
HETATM   13  C20 UNL     1       4.008  11.337  19.791  1.00  0.00     0.135 C 
HETATM   14  O2  UNL     1       4.931  10.688  20.291  1.00  0.00    -0.297 OA
HETATM   15  C21 UNL     1       4.254  12.047  18.475  1.00  0.00     0.080 C 
HETATM   16  C22 UNL     1       3.006  12.255  17.636  1.00  0.00     0.018 C 
HETATM   17  C23 UNL     1       1.887  11.344  18.091  1.00  0.00    -0.026 A 
HETATM   18  C24 UNL     1       1.941   9.910  17.642  1.00  0.00     0.021 A 
HETATM   19  C25 UNL     1       0.835  10.805  17.088  1.00  0.00    -0.027 A 
HETATM   20  C26 UNL     1       0.973  11.237  15.621  1.00  0.00     0.011 C 
HETATM   21  C27 UNL     1      -0.040  10.699  14.598  1.00  0.00     0.011 C 
HETATM   22  C28 UNL     1      -1.175   9.867  15.206  1.00  0.00    -0.030 C 
HETATM   23  C29 UNL     1      -0.626   8.438  15.443  1.00  0.00     0.016 C 
ENDROOT
BRANCH   1  24
HETATM   24  C6  UNL     1      -2.554   9.035  13.006  1.00  0.00    -0.013 C 
HETATM   25  C7  UNL     1      -3.863   8.220  12.973  1.00  0.00     0.010 C 
BRANCH  24  26
HETATM   26  C5  UNL     1      -1.390   8.138  12.517  1.00  0.00     0.008 C 
BRANCH  26  27
HETATM   27  C4  UNL     1      -0.606   8.594  11.286  1.00  0.00     0.028 C 
BRANCH  27  28
HETATM   28  C3  UNL     1       0.349   7.525  10.825  1.00  0.00    -0.013 C 
HETATM   29  C2  UNL     1       0.963   7.420   9.629  1.00  0.00     0.008 C 
HETATM   30  C1  UNL     1       0.801   8.359   8.468  1.00  0.00     0.055 C 
BRANCH  29  31
HETATM   31  C30 UNL     1       1.895   6.294   9.351  1.00  0.00     0.171 C 
HETATM   32  O3  UNL     1       2.656   6.225   8.401  1.00  0.00    -0.646 OA
BRANCH  31  33
HETATM   33  O4  UNL     1       1.851   5.307  10.262  1.00  0.00    -0.773 OA
HETATM   34  H46 UNL     1       2.508   4.658   9.930  1.00  0.00     0.167 HD
ENDBRANCH  31  33
ENDBRANCH  29  31
ENDBRANCH  27  28
ENDBRANCH  26  27
ENDBRANCH  24  26
ENDBRANCH   1  24
BRANCH   3  35
HETATM   35  O1  UNL     1      -2.846   8.656  17.460  1.00  0.00    -0.395 OA
HETATM   36  H17 UNL     1      -3.718   8.233  17.542  1.00  0.00     0.210 HD
ENDBRANCH   3  35
TORSDOF 7
ENDMDL
MODEL 2
REMARK minimizedAffinity -8.92239285
REMARK CNNscore 0.582333803
REMARK CNNaffinity 6.96793509
REMARK  7 active torsions:
REMARK  status: ('A' for Active; 'I' for Inactive)
REMARK    1  A    between atoms: C2_2  and  C30_32 
REMARK    2  A    between atoms: C3_3  and  C4_4 
REMARK    3  A    between atoms: C4_4  and  C5_5 
REMARK    4  A    between atoms: C5_5  and  C6_6 
REMARK    5  A    between atoms: C6_6  and  C8_8 
REMARK    6  A    between atoms: C10_10  and  O1_11 
REMARK    7  A    between atoms: C30_32  and  O4_34 
ROOT
HETATM    1  C8  UNL     1       0.430   8.262  12.849  1.00  0.00     0.001 C 
HETATM    2  C9  UNL     1       0.585   9.562  13.680  1.00  0.00     0.038 C 
HETATM    3  C10 UNL     1      -0.763   9.804  14.394  1.00  0.00     0.128 C 
HETATM    4  C11 UNL     1      -1.530   8.463  14.274  1.00  0.00    -0.006 C 
HETATM    5  C12 UNL     1      -0.999   7.554  15.434  1.00  0.00     0.019 C 
HETATM    6  C13 UNL     1      -3.080   8.541  14.351  1.00  0.00     0.006 C 
HETATM    7  C14 UNL     1      -3.614   8.880  15.751  1.00  0.00     0.007 C 
HETATM    8  C15 UNL     1      -5.134   9.007  15.726  1.00  0.00     0.007 C 
HETATM    9  C16 UNL     1      -5.780   7.635  15.478  1.00  0.00     0.010 C 
HETATM   10  C17 UNL     1      -7.347   7.622  15.428  1.00  0.00     0.018 C 
HETATM   11  C18 UNL     1      -7.897   7.146  16.787  1.00  0.00     0.023 C 
HETATM   12  C19 UNL     1      -7.953   9.007  15.124  1.00  0.00     0.023 C 
HETATM   13  C20 UNL     1      -7.878   6.635  14.370  1.00  0.00     0.135 C 
HETATM   14  O2  UNL     1      -8.951   6.821  13.788  1.00  0.00    -0.297 OA
HETATM   15  C21 UNL     1      -7.131   5.342  14.111  1.00  0.00     0.080 C 
HETATM   16  C22 UNL     1      -5.629   5.441  14.306  1.00  0.00     0.018 C 
HETATM   17  C23 UNL     1      -5.172   6.884  14.293  1.00  0.00    -0.026 A 
HETATM   18  C24 UNL     1      -5.036   7.551  12.953  1.00  0.00     0.021 A 
HETATM   19  C25 UNL     1      -3.770   7.276  13.762  1.00  0.00    -0.027 A 
HETATM   20  C26 UNL     1      -2.866   6.144  13.255  1.00  0.00     0.011 C 
HETATM   21  C27 UNL     1      -1.479   6.503  12.698  1.00  0.00     0.011 C 
HETATM   22  C28 UNL     1      -1.105   7.984  12.834  1.00  0.00    -0.030 C 
HETATM   23  C29 UNL     1      -1.791   8.742  11.670  1.00  0.00     0.016 C 
ENDROOT
BRANCH   1  24
HETATM   24  C6  UNL     1       1.308   8.112  11.572  1.00  0.00    -0.013 C 
HETATM   25  C7  UNL     1       0.442   8.388  10.326  1.00  0.00     0.010 C 
BRANCH  24  26
HETATM   26  C5  UNL     1       2.173   6.853  11.316  1.00  0.00     0.008 C 
BRANCH  26  27
HETATM   27  C4  UNL     1       2.991   6.799  10.026  1.00  0.00     0.028 C 
BRANCH  27  28
HETATM   28  C3  UNL     1       4.468   6.804  10.320  1.00  0.00    -0.013 C 
HETATM   29  C2  UNL     1       5.208   7.808  10.834  1.00  0.00     0.008 C 
HETATM   30  C1  UNL     1       4.707   9.173  11.206  1.00  0.00     0.055 C 
BRANCH  29  31
HETATM   31  C30 UNL     1       6.666   7.628  11.074  1.00  0.00     0.171 C 
HETATM   32  O3  UNL     1       7.356   8.337  11.786  1.00  0.00    -0.646 OA
BRANCH  31  33
HETATM   33  O4  UNL     1       7.203   6.576  10.433  1.00  0.00    -0.773 OA
HETATM   34  H46 UNL     1       8.149   6.608  10.691  1.00  0.00     0.167 HD
ENDBRANCH  31  33
ENDBRANCH  29  31
ENDBRANCH  27  28
ENDBRANCH  26  27
ENDBRANCH  24  26
ENDBRANCH   1  24
BRANCH   3  35
HETATM   35  O1  UNL     1      -1.455  10.875  13.764  1.00  0.00    -0.395 OA
HETATM   36  H17 UNL     1      -0.895  11.667  13.825  1.00  0.00     0.210 HD
ENDBRANCH   3  35
TORSDOF 7
ENDMDL
MODEL 3
REMARK minimizedAffinity -8.45919418
REMARK CNNscore 0.539625287
REMARK CNNaffinity 7.17641973
REMARK  7 active torsions:
REMARK  status: ('A' for Active; 'I' for Inactive)
REMARK    1  A    between atoms: C2_2  and  C30_32 
REMARK    2  A    between atoms: C3_3  and  C4_4 
REMARK    3  A    between atoms: C4_4  and  C5_5 
REMARK    4  A    between atoms: C5_5  and  C6_6 
REMARK    5  A    between atoms: C6_6  and  C8_8 
REMARK    6  A    between atoms: C10_10  and  O1_11 
REMARK    7  A    between atoms: C30_32  and  O4_34 
ROOT
HETATM    1  C8  UNL     1      -5.245   5.784  14.170  1.00  0.00     0.001 C 
HETATM    2  C9  UNL     1      -5.886   4.526  13.531  1.00  0.00     0.038 C 
HETATM    3  C10 UNL     1      -7.415   4.748  13.534  1.00  0.00     0.128 C 
HETATM    4  C11 UNL     1      -7.602   6.261  13.814  1.00  0.00    -0.006 C 
HETATM    5  C12 UNL     1      -7.430   6.982  12.434  1.00  0.00     0.019 C 
HETATM    6  C13 UNL     1      -8.954   6.686  14.451  1.00  0.00     0.006 C 
HETATM    7  C14 UNL     1     -10.151   6.574  13.495  1.00  0.00     0.007 C 
HETATM    8  C15 UNL     1     -11.445   6.941  14.214  1.00  0.00     0.007 C 
HETATM    9  C16 UNL     1     -11.463   8.440  14.550  1.00  0.00     0.010 C 
HETATM   10  C17 UNL     1     -12.743   8.954  15.294  1.00  0.00     0.018 C 
HETATM   11  C18 UNL     1     -13.694   9.617  14.278  1.00  0.00     0.023 C 
HETATM   12  C19 UNL     1     -13.517   7.828  16.011  1.00  0.00     0.023 C 
HETATM   13  C20 UNL     1     -12.402  10.030  16.344  1.00  0.00     0.135 C 
HETATM   14  O2  UNL     1     -13.082  10.183  17.363  1.00  0.00    -0.297 OA
HETATM   15  C21 UNL     1     -11.276  11.008  16.073  1.00  0.00     0.080 C 
HETATM   16  C22 UNL     1     -10.143  10.438  15.240  1.00  0.00     0.018 C 
HETATM   17  C23 UNL     1     -10.183   8.925  15.230  1.00  0.00    -0.026 A 
HETATM   18  C24 UNL     1      -9.643   8.213  16.439  1.00  0.00     0.021 A 
HETATM   19  C25 UNL     1      -8.881   8.089  15.121  1.00  0.00    -0.027 A 
HETATM   20  C26 UNL     1      -7.557   8.857  15.020  1.00  0.00     0.011 C 
HETATM   21  C27 UNL     1      -6.247   8.057  14.937  1.00  0.00     0.011 C 
HETATM   22  C28 UNL     1      -6.436   6.539  14.837  1.00  0.00    -0.030 C 
HETATM   23  C29 UNL     1      -6.691   6.011  16.271  1.00  0.00     0.016 C 
ENDROOT
BRANCH   1  24
HETATM   24  C6  UNL     1      -3.874   5.610  14.888  1.00  0.00    -0.013 C 
HETATM   25  C7  UNL     1      -3.466   6.950  15.534  1.00  0.00     0.010 C 
BRANCH  24  26
HETATM   26  C5  UNL     1      -2.645   5.001  14.170  1.00  0.00     0.008 C 
BRANCH  26  27
HETATM   27  C4  UNL     1      -2.495   5.255  12.670  1.00  0.00     0.028 C 
BRANCH  27  28
HETATM   28  C3  UNL     1      -1.675   4.174  12.017  1.00  0.00    -0.013 C 
HETATM   29  C2  UNL     1      -2.087   2.964  11.588  1.00  0.00     0.008 C 
HETATM   30  C1  UNL     1      -3.481   2.416  11.696  1.00  0.00     0.055 C 
BRANCH  29  31
HETATM   31  C30 UNL     1      -1.131   2.021  10.946  1.00  0.00     0.171 C 
HETATM   32  O3  UNL     1      -0.075   1.649  11.428  1.00  0.00    -0.646 OA
BRANCH  31  33
HETATM   33  O4  UNL     1      -1.526   1.573   9.742  1.00  0.00    -0.773 OA
HETATM   34  H46 UNL     1      -0.794   0.980   9.465  1.00  0.00     0.167 HD
ENDBRANCH  31  33
ENDBRANCH  29  31
ENDBRANCH  27  28
ENDBRANCH  26  27
ENDBRANCH  24  26
ENDBRANCH   1  24
BRANCH   3  35
HETATM   35  O1  UNL     1      -8.016   3.940  14.539  1.00  0.00    -0.395 OA
HETATM   36  H17 UNL     1      -7.812   3.011  14.334  1.00  0.00     0.210 HD
ENDBRANCH   3  35
TORSDOF 7
ENDMDL
MODEL 4
REMARK minimizedAffinity -7.74226904
REMARK CNNscore 0.506619394
REMARK CNNaffinity 6.96784067
REMARK  7 active torsions:
REMARK  status: ('A' for Active; 'I' for Inactive)
REMARK    1  A    between atoms: C2_2  and  C30_32 
REMARK    2  A    between atoms: C3_3  and  C4_4 
REMARK    3  A    between atoms: C4_4  and  C5_5 
REMARK    4  A    between atoms: C5_5  and  C6_6 
REMARK    5  A    between atoms: C6_6  and  C8_8 
REMARK    6  A    between atoms: C10_10  and  O1_11 
REMARK    7  A    between atoms: C30_32  and  O4_34 
ROOT
HETATM    1  C8  UNL     1      -8.115   6.912  14.409  1.00  0.00     0.001 C 
HETATM    2  C9  UNL     1      -8.156   6.715  15.946  1.00  0.00     0.038 C 
HETATM    3  C10 UNL     1      -6.720   6.939  16.468  1.00  0.00     0.128 C 
HETATM    4  C11 UNL     1      -5.968   7.626  15.300  1.00  0.00    -0.006 C 
HETATM    5  C12 UNL     1      -6.315   9.150  15.398  1.00  0.00     0.019 C 
HETATM    6  C13 UNL     1      -4.424   7.452  15.270  1.00  0.00     0.006 C 
HETATM    7  C14 UNL     1      -3.693   8.224  16.378  1.00  0.00     0.007 C 
HETATM    8  C15 UNL     1      -2.194   7.946  16.323  1.00  0.00     0.007 C 
HETATM    9  C16 UNL     1      -1.581   8.570  15.060  1.00  0.00     0.010 C 
HETATM   10  C17 UNL     1      -0.038   8.358  14.878  1.00  0.00     0.018 C 
HETATM   11  C18 UNL     1       0.710   9.624  15.337  1.00  0.00     0.023 C 
HETATM   12  C19 UNL     1       0.505   7.161  15.686  1.00  0.00     0.023 C 
HETATM   13  C20 UNL     1       0.339   8.135  13.400  1.00  0.00     0.135 C 
HETATM   14  O2  UNL     1       1.313   7.451  13.073  1.00  0.00    -0.297 OA
HETATM   15  C21 UNL     1      -0.428   8.865  12.315  1.00  0.00     0.080 C 
HETATM   16  C22 UNL     1      -1.886   9.123  12.649  1.00  0.00     0.018 C 
HETATM   17  C23 UNL     1      -2.350   8.234  13.782  1.00  0.00    -0.026 A 
HETATM   18  C24 UNL     1      -2.688   6.809  13.445  1.00  0.00     0.021 A 
HETATM   19  C25 UNL     1      -3.819   7.745  13.866  1.00  0.00    -0.027 A 
HETATM   20  C26 UNL     1      -4.779   8.201  12.759  1.00  0.00     0.011 C 
HETATM   21  C27 UNL     1      -6.236   7.712  12.801  1.00  0.00     0.011 C 
HETATM   22  C28 UNL     1      -6.596   6.900  14.050  1.00  0.00    -0.030 C 
HETATM   23  C29 UNL     1      -6.095   5.452  13.821  1.00  0.00     0.016 C 
ENDROOT
BRANCH   1  24
HETATM   24  C6  UNL     1      -9.170   6.149  13.554  1.00  0.00    -0.013 C 
HETATM   25  C7  UNL     1      -8.457   5.431  12.391  1.00  0.00     0.010 C 
BRANCH  24  26
HETATM   26  C5  UNL     1     -10.444   6.844  13.014  1.00  0.00     0.008 C 
BRANCH  26  27
HETATM   27  C4  UNL     1     -11.678   6.874  13.914  1.00  0.00     0.028 C 
BRANCH  27  28
HETATM   28  C3  UNL     1     -12.902   7.289  13.141  1.00  0.00    -0.013 C 
HETATM   29  C2  UNL     1     -14.170   6.857  13.300  1.00  0.00     0.008 C 
HETATM   30  C1  UNL     1     -14.635   5.827  14.289  1.00  0.00     0.055 C 
BRANCH  29  31
HETATM   31  C30 UNL     1     -15.266   7.393  12.448  1.00  0.00     0.171 C 
HETATM   32  O3  UNL     1     -15.554   6.993  11.333  1.00  0.00    -0.646 OA
BRANCH  31  33
HETATM   33  O4  UNL     1     -15.964   8.392  13.016  1.00  0.00    -0.773 OA
HETATM   34  H46 UNL     1     -16.628   8.626  12.332  1.00  0.00     0.167 HD
ENDBRANCH  31  33
ENDBRANCH  29  31
ENDBRANCH  27  28
ENDBRANCH  26  27
ENDBRANCH  24  26
ENDBRANCH   1  24
BRANCH   3  35
HETATM   35  O1  UNL     1      -6.136   5.690  16.819  1.00  0.00    -0.395 OA
HETATM   36  H17 UNL     1      -6.687   5.289  17.512  1.00  0.00     0.210 HD
ENDBRANCH   3  35
TORSDOF 7
ENDMDL
MODEL 5
REMARK minimizedAffinity -7.39602947
REMARK CNNscore 0.479947954
REMARK CNNaffinity 6.44068766
REMARK  7 active torsions:
REMARK  status: ('A' for Active; 'I' for Inactive)
REMARK    1  A    between atoms: C2_2  and  C30_32 
REMARK    2  A    between atoms: C3_3  and  C4_4 
REMARK    3  A    between atoms: C4_4  and  C5_5 
REMARK    4  A    between atoms: C5_5  and  C6_6 
REMARK    5  A    between atoms: C6_6  and  C8_8 
REMARK    6  A    between atoms: C10_10  and  O1_11 
REMARK    7  A    between atoms: C30_32  and  O4_34 
ROOT
HETATM    1  C8  UNL     1      -1.314  11.396  17.859  1.00  0.00     0.001 C 
HETATM    2  C9  UNL     1      -2.764  11.537  17.331  1.00  0.00     0.038 C 
HETATM    3  C10 UNL     1      -2.817  10.823  15.962  1.00  0.00     0.128 C 
HETATM    4  C11 UNL     1      -1.525   9.968  15.902  1.00  0.00    -0.006 C 
HETATM    5  C12 UNL     1      -1.844   8.647  16.681  1.00  0.00     0.019 C 
HETATM    6  C13 UNL     1      -0.992   9.615  14.486  1.00  0.00     0.006 C 
HETATM    7  C14 UNL     1      -1.865   8.600  13.732  1.00  0.00     0.007 C 
HETATM    8  C15 UNL     1      -1.314   8.360  12.330  1.00  0.00     0.007 C 
HETATM    9  C16 UNL     1       0.027   7.615  12.403  1.00  0.00     0.010 C 
HETATM   10  C17 UNL     1       0.707   7.303  11.025  1.00  0.00     0.018 C 
HETATM   11  C18 UNL     1       0.416   5.842  10.630  1.00  0.00     0.023 C 
HETATM   12  C19 UNL     1       0.207   8.216   9.886  1.00  0.00     0.023 C 
HETATM   13  C20 UNL     1       2.240   7.441  11.098  1.00  0.00     0.135 C 
HETATM   14  O2  UNL     1       2.911   7.770  10.115  1.00  0.00    -0.297 OA
HETATM   15  C21 UNL     1       2.966   7.054  12.371  1.00  0.00     0.080 C 
HETATM   16  C22 UNL     1       2.166   7.288  13.640  1.00  0.00     0.018 C 
HETATM   17  C23 UNL     1       1.015   8.238  13.390  1.00  0.00    -0.026 A 
HETATM   18  C24 UNL     1       1.334   9.705  13.329  1.00  0.00     0.021 A 
HETATM   19  C25 UNL     1       0.504   9.189  14.503  1.00  0.00    -0.027 A 
HETATM   20  C26 UNL     1       1.210   9.124  15.864  1.00  0.00     0.011 C 
HETATM   21  C27 UNL     1       0.744  10.073  16.980  1.00  0.00     0.011 C 
HETATM   22  C28 UNL     1      -0.490  10.911  16.626  1.00  0.00    -0.030 C 
HETATM   23  C29 UNL     1      -0.004  12.114  15.779  1.00  0.00     0.016 C 
ENDROOT
BRANCH   1  24
HETATM   24  C6  UNL     1      -0.785  12.501  18.821  1.00  0.00    -0.013 C 
HETATM   25  C7  UNL     1      -0.081  13.597  17.995  1.00  0.00     0.010 C 
BRANCH  24  26
HETATM   26  C5  UNL     1       0.085  12.163  20.056  1.00  0.00     0.008 C 
BRANCH  26  27
HETATM   27  C4  UNL     1       0.604  10.732  20.195  1.00  0.00     0.028 C 
BRANCH  27  28
HETATM   28  C3  UNL     1       2.041  10.718  20.644  1.00  0.00    -0.013 C 
HETATM   29  C2  UNL     1       2.638   9.854  21.491  1.00  0.00     0.008 C 
HETATM   30  C1  UNL     1       1.972   8.711  22.200  1.00  0.00     0.055 C 
BRANCH  29  31
HETATM   31  C30 UNL     1       4.085   9.984  21.812  1.00  0.00     0.171 C 
HETATM   32  O3  UNL     1       4.574   9.881  22.924  1.00  0.00    -0.646 OA
BRANCH  31  33
HETATM   33  O4  UNL     1       4.865  10.226  20.744  1.00  0.00    -0.773 OA
HETATM   34  H46 UNL     1       5.767  10.287  21.127  1.00  0.00     0.167 HD
ENDBRANCH  31  33
ENDBRANCH  29  31
ENDBRANCH  27  28
ENDBRANCH  26  27
ENDBRANCH  24  26
ENDBRANCH   1  24
BRANCH   3  35
HETATM   35  O1  UNL     1      -2.868  11.789  14.919  1.00  0.00    -0.395 OA
HETATM   36  H17 UNL     1      -3.668  12.325  15.049  1.00  0.00     0.210 HD
ENDBRANCH   3  35
TORSDOF 7
ENDMDL
MODEL 6
REMARK minimizedAffinity -7.48005915
REMARK CNNscore 0.393208444
REMARK CNNaffinity 6.67594957
REMARK  7 active torsions:
REMARK  status: ('A' for Active; 'I' for Inactive)
REMARK    1  A    between atoms: C2_2  and  C30_32 
REMARK    2  A    between atoms: C3_3  and  C4_4 
REMARK    3  A    between atoms: C4_4  and  C5_5 
REMARK    4  A    between atoms: C5_5  and  C6_6 
REMARK    5  A    between atoms: C6_6  and  C8_8 
REMARK    6  A    between atoms: C10_10  and  O1_11 
REMARK    7  A    between atoms: C30_32  and  O4_34 
ROOT
HETATM    1  C8  UNL     1      -1.236  10.137  15.309  1.00  0.00     0.001 C 
HETATM    2  C9  UNL     1       0.119   9.561  14.826  1.00  0.00     0.038 C 
HETATM    3  C10 UNL     1      -0.189   8.230  14.103  1.00  0.00     0.128 C 
HETATM    4  C11 UNL     1      -1.717   8.253  13.849  1.00  0.00    -0.006 C 
HETATM    5  C12 UNL     1      -1.927   9.091  12.543  1.00  0.00     0.019 C 
HETATM    6  C13 UNL     1      -2.415   6.873  13.692  1.00  0.00     0.006 C 
HETATM    7  C14 UNL     1      -2.068   6.150  12.382  1.00  0.00     0.007 C 
HETATM    8  C15 UNL     1      -2.734   4.779  12.337  1.00  0.00     0.007 C 
HETATM    9  C16 UNL     1      -4.258   4.929  12.208  1.00  0.00     0.010 C 
HETATM   10  C17 UNL     1      -5.070   3.590  12.151  1.00  0.00     0.018 C 
HETATM   11  C18 UNL     1      -5.418   3.265  10.685  1.00  0.00     0.023 C 
HETATM   12  C19 UNL     1      -4.298   2.390  12.737  1.00  0.00     0.023 C 
HETATM   13  C20 UNL     1      -6.410   3.699  12.906  1.00  0.00     0.135 C 
HETATM   14  O2  UNL     1      -6.935   2.720  13.444  1.00  0.00    -0.297 OA
HETATM   15  C21 UNL     1      -7.168   5.011  12.896  1.00  0.00     0.080 C 
HETATM   16  C22 UNL     1      -6.283   6.242  12.829  1.00  0.00     0.018 C 
HETATM   17  C23 UNL     1      -4.858   5.909  13.216  1.00  0.00    -0.026 A 
HETATM   18  C24 UNL     1      -4.555   5.780  14.682  1.00  0.00     0.021 A 
HETATM   19  C25 UNL     1      -3.953   6.955  13.916  1.00  0.00    -0.027 A 
HETATM   20  C26 UNL     1      -4.558   8.337  14.195  1.00  0.00     0.011 C 
HETATM   21  C27 UNL     1      -3.694   9.388  14.911  1.00  0.00     0.011 C 
HETATM   22  C28 UNL     1      -2.245   8.955  15.158  1.00  0.00    -0.030 C 
HETATM   23  C29 UNL     1      -2.239   8.059  16.422  1.00  0.00     0.016 C 
ENDROOT
BRANCH   1  24
HETATM   24  C6  UNL     1      -1.224  11.053  16.569  1.00  0.00    -0.013 C 
HETATM   25  C7  UNL     1      -0.020  10.678  17.457  1.00  0.00     0.010 C 
BRANCH  24  26
HETATM   26  C5  UNL     1      -2.475  11.231  17.464  1.00  0.00     0.008 C 
BRANCH  26  27
HETATM   27  C4  UNL     1      -3.410  12.401  17.159  1.00  0.00     0.028 C 
BRANCH  27  28
HETATM   28  C3  UNL     1      -3.196  12.916  15.761  1.00  0.00    -0.013 C 
HETATM   29  C2  UNL     1      -2.660  14.095  15.383  1.00  0.00     0.008 C 
HETATM   30  C1  UNL     1      -2.175  15.179  16.302  1.00  0.00     0.055 C 
BRANCH  29  31
HETATM   31  C30 UNL     1      -2.511  14.433  13.941  1.00  0.00     0.171 C 
HETATM   32  O3  UNL     1      -3.220  15.206  13.320  1.00  0.00    -0.646 OA
BRANCH  31  33
HETATM   33  O4  UNL     1      -1.487  13.809  13.334  1.00  0.00    -0.773 OA
HETATM   34  H46 UNL     1      -1.535  14.134  12.410  1.00  0.00     0.167 HD
ENDBRANCH  31  33
ENDBRANCH  29  31
ENDBRANCH  27  28
ENDBRANCH  26  27
ENDBRANCH  24  26
ENDBRANCH   1  24
BRANCH   3  35
HETATM   35  O1  UNL     1       0.201   7.136  14.925  1.00  0.00    -0.395 OA
HETATM   36  H17 UNL     1       1.156   7.215  15.091  1.00  0.00     0.210 HD
ENDBRANCH   3  35
TORSDOF 7
ENDMDL
MODEL 7
REMARK minimizedAffinity -7.96678543
REMARK CNNscore 0.391585648
REMARK CNNaffinity 6.60820913
REMARK  7 active torsions:
REMARK  status: ('A' for Active; 'I' for Inactive)
REMARK    1  A    between atoms: C2_2  and  C30_32 
REMARK    2  A    between atoms: C3_3  and  C4_4 
REMARK    3  A    between atoms: C4_4  and  C5_5 
REMARK    4  A    between atoms: C5_5  and  C6_6 
REMARK    5  A    between atoms: C6_6  and  C8_8 
REMARK    6  A    between atoms: C10_10  and  O1_11 
REMARK    7  A    between atoms: C30_32  and  O4_34 
ROOT
HETATM    1  C8  UNL     1      -2.885   8.018  15.237  1.00  0.00     0.001 C 
HETATM    2  C9  UNL     1      -1.876   7.695  16.368  1.00  0.00     0.038 C 
HETATM    3  C10 UNL     1      -0.503   7.467  15.696  1.00  0.00     0.128 C 
HETATM    4  C11 UNL     1      -0.658   8.031  14.261  1.00  0.00    -0.006 C 
HETATM    5  C12 UNL     1      -0.424   9.575  14.373  1.00  0.00     0.019 C 
HETATM    6  C13 UNL     1       0.292   7.444  13.179  1.00  0.00     0.006 C 
HETATM    7  C14 UNL     1       1.756   7.879  13.341  1.00  0.00     0.007 C 
HETATM    8  C15 UNL     1       2.632   7.208  12.288  1.00  0.00     0.007 C 
HETATM    9  C16 UNL     1       2.303   7.758  10.891  1.00  0.00     0.010 C 
HETATM   10  C17 UNL     1       3.134   7.150   9.709  1.00  0.00     0.018 C 
HETATM   11  C18 UNL     1       4.278   8.115   9.339  1.00  0.00     0.023 C 
HETATM   12  C19 UNL     1       3.755   5.779  10.050  1.00  0.00     0.023 C 
HETATM   13  C20 UNL     1       2.280   6.975   8.438  1.00  0.00     0.135 C 
HETATM   14  O2  UNL     1       2.513   6.085   7.615  1.00  0.00    -0.297 OA
HETATM   15  C21 UNL     1       1.196   7.985   8.121  1.00  0.00     0.080 C 
HETATM   16  C22 UNL     1       0.540   8.600   9.344  1.00  0.00     0.018 C 
HETATM   17  C23 UNL     1       0.807   7.768  10.580  1.00  0.00    -0.026 A 
HETATM   18  C24 UNL     1      -0.022   6.528  10.767  1.00  0.00     0.021 A 
HETATM   19  C25 UNL     1      -0.227   7.693  11.734  1.00  0.00    -0.027 A 
HETATM   20  C26 UNL     1      -1.524   8.497  11.572  1.00  0.00     0.011 C 
HETATM   21  C27 UNL     1      -2.580   8.423  12.687  1.00  0.00     0.011 C 
HETATM   22  C28 UNL     1      -2.143   7.626  13.921  1.00  0.00    -0.030 C 
HETATM   23  C29 UNL     1      -2.349   6.124  13.598  1.00  0.00     0.016 C 
ENDROOT
BRANCH   1  24
HETATM   24  C6  UNL     1      -4.381   7.657  15.478  1.00  0.00    -0.013 C 
HETATM   25  C7  UNL     1      -4.797   6.540  14.500  1.00  0.00     0.010 C 
BRANCH  24  26
HETATM   26  C5  UNL     1      -5.489   8.738  15.511  1.00  0.00     0.008 C 
BRANCH  26  27
HETATM   27  C4  UNL     1      -5.057  10.204  15.506  1.00  0.00     0.028 C 
BRANCH  27  28
HETATM   28  C3  UNL     1      -4.214  10.525  16.713  1.00  0.00    -0.013 C 
HETATM   29  C2  UNL     1      -3.795  11.735  17.135  1.00  0.00     0.008 C 
HETATM   30  C1  UNL     1      -4.067  13.048  16.459  1.00  0.00     0.055 C 
BRANCH  29  31
HETATM   31  C30 UNL     1      -2.974  11.866  18.369  1.00  0.00     0.171 C 
HETATM   32  O3  UNL     1      -2.075  11.113  18.702  1.00  0.00    -0.646 OA
BRANCH  31  33
HETATM   33  O4  UNL     1      -3.294  12.925  19.132  1.00  0.00    -0.773 OA
HETATM   34  H46 UNL     1      -2.674  12.858  19.890  1.00  0.00     0.167 HD
ENDBRANCH  31  33
ENDBRANCH  29  31
ENDBRANCH  27  28
ENDBRANCH  26  27
ENDBRANCH  24  26
ENDBRANCH   1  24
BRANCH   3  35
HETATM   35  O1  UNL     1      -0.194   6.079  15.696  1.00  0.00    -0.395 OA
HETATM   36  H17 UNL     1      -0.168   5.780  16.621  1.00  0.00     0.210 HD
ENDBRANCH   3  35
TORSDOF 7
ENDMDL
MODEL 8
REMARK minimizedAffinity -8.30535698
REMARK CNNscore 0.38606593
REMARK CNNaffinity 6.90113068
REMARK  7 active torsions:
REMARK  status: ('A' for Active; 'I' for Inactive)
REMARK    1  A    between atoms: C2_2  and  C30_32 
REMARK    2  A    between atoms: C3_3  and  C4_4 
REMARK    3  A    between atoms: C4_4  and  C5_5 
REMARK    4  A    between atoms: C5_5  and  C6_6 
REMARK    5  A    between atoms: C6_6  and  C8_8 
REMARK    6  A    between atoms: C10_10  and  O1_11 
REMARK    7  A    between atoms: C30_32  and  O4_34 
ROOT
HETATM    1  C8  UNL     1      -0.115   7.832  14.047  1.00  0.00     0.001 C 
HETATM    2  C9  UNL     1      -0.397   9.200  13.375  1.00  0.00     0.038 C 
HETATM    3  C10 UNL     1      -1.910   9.245  13.062  1.00  0.00     0.128 C 
HETATM    4  C11 UNL     1      -2.528   8.091  13.891  1.00  0.00    -0.006 C 
HETATM    5  C12 UNL     1      -2.739   8.659  15.335  1.00  0.00     0.019 C 
HETATM    6  C13 UNL     1      -3.868   7.502  13.369  1.00  0.00     0.006 C 
HETATM    7  C14 UNL     1      -5.066   8.449  13.537  1.00  0.00     0.007 C 
HETATM    8  C15 UNL     1      -6.325   7.828  12.939  1.00  0.00     0.007 C 
HETATM    9  C16 UNL     1      -6.772   6.619  13.775  1.00  0.00     0.010 C 
HETATM   10  C17 UNL     1      -8.061   5.883  13.269  1.00  0.00     0.018 C 
HETATM   11  C18 UNL     1      -9.275   6.350  14.096  1.00  0.00     0.023 C 
HETATM   12  C19 UNL     1      -8.364   6.152  11.780  1.00  0.00     0.023 C 
HETATM   13  C20 UNL     1      -7.961   4.357  13.459  1.00  0.00     0.135 C 
HETATM   14  O2  UNL     1      -8.540   3.569  12.706  1.00  0.00    -0.297 OA
HETATM   15  C21 UNL     1      -7.232   3.800  14.665  1.00  0.00     0.080 C 
HETATM   16  C22 UNL     1      -6.074   4.657  15.143  1.00  0.00     0.018 C 
HETATM   17  C23 UNL     1      -5.642   5.634  14.072  1.00  0.00    -0.026 A 
HETATM   18  C24 UNL     1      -4.780   5.102  12.961  1.00  0.00     0.021 A 
HETATM   19  C25 UNL     1      -4.164   6.089  13.951  1.00  0.00    -0.027 A 
HETATM   20  C26 UNL     1      -3.164   5.512  14.961  1.00  0.00     0.011 C 
HETATM   21  C27 UNL     1      -1.687   5.924  14.852  1.00  0.00     0.011 C 
HETATM   22  C28 UNL     1      -1.404   6.991  13.788  1.00  0.00    -0.030 C 
HETATM   23  C29 UNL     1      -1.325   6.269  12.419  1.00  0.00     0.016 C 
ENDROOT
BRANCH   1  24
HETATM   24  C6  UNL     1       1.311   7.228  13.884  1.00  0.00    -0.013 C 
HETATM   25  C7  UNL     1       2.096   7.417  15.198  1.00  0.00     0.010 C 
BRANCH  24  26
HETATM   26  C5  UNL     1       2.226   7.599  12.691  1.00  0.00     0.008 C 
BRANCH  26  27
HETATM   27  C4  UNL     1       1.563   8.124  11.418  1.00  0.00     0.028 C 
BRANCH  27  28
HETATM   28  C3  UNL     1       2.032   7.360  10.209  1.00  0.00    -0.013 C 
HETATM   29  C2  UNL     1       1.559   7.431   8.947  1.00  0.00     0.008 C 
HETATM   30  C1  UNL     1       0.421   8.290   8.478  1.00  0.00     0.055 C 
BRANCH  29  31
HETATM   31  C30 UNL     1       2.160   6.606   7.865  1.00  0.00     0.171 C 
HETATM   32  O3  UNL     1       2.782   5.570   8.029  1.00  0.00    -0.646 OA
BRANCH  31  33
HETATM   33  O4  UNL     1       1.959   7.091   6.628  1.00  0.00    -0.773 OA
HETATM   34  H46 UNL     1       2.415   6.443   6.049  1.00  0.00     0.167 HD
ENDBRANCH  31  33
ENDBRANCH  29  31
ENDBRANCH  27  28
ENDBRANCH  26  27
ENDBRANCH  24  26
ENDBRANCH   1  24
BRANCH   3  35
HETATM   35  O1  UNL     1      -2.117   9.071  11.666  1.00  0.00    -0.395 OA
HETATM   36  H17 UNL     1      -1.657   9.794  11.205  1.00  0.00     0.210 HD
ENDBRANCH   3  35
TORSDOF 7
ENDMDL
MODEL 9
REMARK minimizedAffinity -8.17818546
REMARK CNNscore 0.357840896
REMARK CNNaffinity 6.79601479
REMARK  7 active torsions:
REMARK  status: ('A' for Active; 'I' for Inactive)
REMARK    1  A    between atoms: C2_2  and  C30_32 
REMARK    2  A    between atoms: C3_3  and  C4_4 
REMARK    3  A    between atoms: C4_4  and  C5_5 
REMARK    4  A    between atoms: C5_5  and  C6_6 
REMARK    5  A    between atoms: C6_6  and  C8_8 
REMARK    6  A    between atoms: C10_10  and  O1_11 
REMARK    7  A    between atoms: C30_32  and  O4_34 
ROOT
HETATM    1  C8  UNL     1       0.761   8.577  13.481  1.00  0.00     0.001 C 
HETATM    2  C9  UNL     1       0.712   9.466  14.749  1.00  0.00     0.038 C 
HETATM    3  C10 UNL     1      -0.692   9.289  15.371  1.00  0.00     0.128 C 
HETATM    4  C11 UNL     1      -1.281   8.031  14.684  1.00  0.00    -0.006 C 
HETATM    5  C12 UNL     1      -0.704   6.801  15.462  1.00  0.00     0.019 C 
HETATM    6  C13 UNL     1      -2.831   7.929  14.636  1.00  0.00     0.006 C 
HETATM    7  C14 UNL     1      -3.475   7.653  16.004  1.00  0.00     0.007 C 
HETATM    8  C15 UNL     1      -4.995   7.637  15.884  1.00  0.00     0.007 C 
HETATM    9  C16 UNL     1      -5.454   6.412  15.078  1.00  0.00     0.010 C 
HETATM   10  C17 UNL     1      -7.003   6.272  14.878  1.00  0.00     0.018 C 
HETATM   11  C18 UNL     1      -7.562   5.262  15.900  1.00  0.00     0.023 C 
HETATM   12  C19 UNL     1      -7.758   7.606  15.061  1.00  0.00     0.023 C 
HETATM   13  C20 UNL     1      -7.354   5.723  13.481  1.00  0.00     0.135 C 
HETATM   14  O2  UNL     1      -8.409   6.017  12.913  1.00  0.00    -0.297 OA
HETATM   15  C21 UNL     1      -6.441   4.705  12.828  1.00  0.00     0.080 C 
HETATM   16  C22 UNL     1      -4.975   4.861  13.187  1.00  0.00     0.018 C 
HETATM   17  C23 UNL     1      -4.699   6.234  13.762  1.00  0.00    -0.026 A 
HETATM   18  C24 UNL     1      -4.575   7.374  12.790  1.00  0.00     0.021 A 
HETATM   19  C25 UNL     1      -3.329   6.929  13.552  1.00  0.00    -0.027 A 
HETATM   20  C26 UNL     1      -2.268   6.168  12.746  1.00  0.00     0.011 C 
HETATM   21  C27 UNL     1      -0.908   6.842  12.499  1.00  0.00     0.011 C 
HETATM   22  C28 UNL     1      -0.727   8.185  13.216  1.00  0.00    -0.030 C 
HETATM   23  C29 UNL     1      -1.439   9.264  12.363  1.00  0.00     0.016 C 
ENDROOT
BRANCH   1  24
HETATM   24  C6  UNL     1       1.715   9.012  12.330  1.00  0.00    -0.013 C 
HETATM   25  C7  UNL     1       1.734   7.917  11.245  1.00  0.00     0.010 C 
BRANCH  24  26
HETATM   26  C5  UNL     1       3.167   9.477  12.602  1.00  0.00     0.008 C 
BRANCH  26  27
HETATM   27  C4  UNL     1       4.092   8.525  13.359  1.00  0.00     0.028 C 
BRANCH  27  28
HETATM   28  C3  UNL     1       4.703   7.510  12.429  1.00  0.00    -0.013 C 
HETATM   29  C2  UNL     1       5.951   7.500  11.915  1.00  0.00     0.008 C 
HETATM   30  C1  UNL     1       7.010   8.537  12.150  1.00  0.00     0.055 C 
BRANCH  29  31
HETATM   31  C30 UNL     1       6.391   6.399  11.016  1.00  0.00     0.171 C 
HETATM   32  O3  UNL     1       7.533   6.219  10.629  1.00  0.00    -0.646 OA
BRANCH  31  33
HETATM   33  O4  UNL     1       5.405   5.565  10.645  1.00  0.00    -0.773 OA
HETATM   34  H46 UNL     1       5.858   4.917  10.064  1.00  0.00     0.167 HD
ENDBRANCH  31  33
ENDBRANCH  29  31
ENDBRANCH  27  28
ENDBRANCH  26  27
ENDBRANCH  24  26
ENDBRANCH   1  24
BRANCH   3  35
HETATM   35  O1  UNL     1      -1.476  10.450  15.126  1.00  0.00    -0.395 OA
HETATM   36  H17 UNL     1      -1.021  11.206  15.534  1.00  0.00     0.210 HD
ENDBRANCH   3  35
TORSDOF 7
ENDMDL
