MODEL 1
REMARK minimizedAffinity -7.1031599
REMARK CNNscore 0.807516038
REMARK CNNaffinity 7.00660563
REMARK  6 active torsions:
REMARK  status: ('A' for Active; 'I' for Inactive)
REMARK    1  A    between atoms: C4_4  and  C5_5 
REMARK    2  A    between atoms: C5_5  and  C6_6 
REMARK    3  A    between atoms: C6_6  and  C7_7 
REMARK    4  A    between atoms: C7_7  and  C9_9 
REMARK    5  A    between atoms: C24_24  and  O1_25 
REMARK    6  A    between atoms: C27_28  and  O2_29 
ROOT
HETATM    1  C9  UNL     1       5.309  56.179  -8.352  1.00  0.00    -0.002 C 
HETATM    2  C10 UNL     1       6.121  55.247  -9.290  1.00  0.00     0.007 C 
HETATM    3  C11 UNL     1       5.093  54.410 -10.087  1.00  0.00     0.015 C 
HETATM    4  C12 UNL     1       3.743  55.120  -9.862  1.00  0.00    -0.013 C 
HETATM    5  C13 UNL     1       3.675  56.298 -10.884  1.00  0.00     0.021 C 
HETATM    6  C14 UNL     1       2.436  54.361 -10.069  1.00  0.00    -0.065 C 
HETATM    7  C15 UNL     1       1.321  54.733  -9.385  1.00  0.00    -0.068 C 
HETATM    8  C16 UNL     1       1.373  55.811  -8.287  1.00  0.00     0.036 C 
HETATM    9  C17 UNL     1       2.739  56.469  -7.994  1.00  0.00     0.015 C 
HETATM   10  C18 UNL     1       3.895  55.528  -8.348  1.00  0.00    -0.029 C 
HETATM   11  C19 UNL     1       3.835  54.299  -7.394  1.00  0.00     0.016 C 
HETATM   12  C20 UNL     1      -0.046  54.030  -9.604  1.00  0.00    -0.014 C 
HETATM   13  C21 UNL     1      -0.215  53.059  -8.405  1.00  0.00     0.020 C 
HETATM   14  C22 UNL     1      -1.222  55.057  -9.635  1.00  0.00     0.016 C 
HETATM   15  C23 UNL     1      -2.349  54.753 -10.636  1.00  0.00     0.033 C 
HETATM   16  C24 UNL     1      -2.629  53.270 -10.812  1.00  0.00     0.118 C 
HETATM   17  C25 UNL     1      -1.371  52.484 -11.203  1.00  0.00     0.039 C 
HETATM   18  C26 UNL     1      -0.060  53.267 -10.962  1.00  0.00     0.029 C 
HETATM   19  C27 UNL     1       1.180  52.385 -11.130  1.00  0.00     0.127 C 
HETATM   20  C28 UNL     1       2.454  53.235 -11.076  1.00  0.00     0.067 C 
ENDROOT
BRANCH   1  21
HETATM   21  C7  UNL     1       6.017  56.599  -7.032  1.00  0.00    -0.014 C 
HETATM   22  C8  UNL     1       5.166  56.550  -5.756  1.00  0.00     0.010 C 
BRANCH  21  23
HETATM   23  C6  UNL     1       7.284  55.739  -6.758  1.00  0.00     0.008 C 
BRANCH  23  24
HETATM   24  C5  UNL     1       8.208  56.280  -5.661  1.00  0.00     0.028 C 
BRANCH  24  25
HETATM   25  C4  UNL     1       8.775  55.150  -4.841  1.00  0.00    -0.025 C 
HETATM   26  C2  UNL     1      10.062  54.927  -4.506  1.00  0.00    -0.091 C 
HETATM   27  C1  UNL     1      10.434  53.751  -3.642  1.00  0.00     0.042 C 
HETATM   28  C3  UNL     1      11.227  55.779  -4.925  1.00  0.00     0.042 C 
ENDBRANCH  24  25
ENDBRANCH  23  24
ENDBRANCH  21  23
ENDBRANCH   1  21
BRANCH  19  29
HETATM   29  O2  UNL     1       1.136  51.688 -12.379  1.00  0.00    -0.395 OA
HETATM   30  H44 UNL     1       1.108  52.351 -13.088  1.00  0.00     0.210 HD
ENDBRANCH  19  29
BRANCH  16  31
HETATM   31  O1  UNL     1      -3.172  52.745  -9.606  1.00  0.00    -0.396 OA
HETATM   32  H39 UNL     1      -4.000  53.220  -9.423  1.00  0.00     0.210 HD
ENDBRANCH  16  31
TORSDOF 6
ENDMDL
MODEL 2
REMARK minimizedAffinity -6.91457796
REMARK CNNscore 0.755785584
REMARK CNNaffinity 7.09325266
REMARK  6 active torsions:
REMARK  status: ('A' for Active; 'I' for Inactive)
REMARK    1  A    between atoms: C4_4  and  C5_5 
REMARK    2  A    between atoms: C5_5  and  C6_6 
REMARK    3  A    between atoms: C6_6  and  C7_7 
REMARK    4  A    between atoms: C7_7  and  C9_9 
REMARK    5  A    between atoms: C24_24  and  O1_25 
REMARK    6  A    between atoms: C27_28  and  O2_29 
ROOT
HETATM    1  C9  UNL     1       2.607  53.477 -11.029  1.00  0.00    -0.002 C 
HETATM    2  C10 UNL     1       1.252  54.222 -10.908  1.00  0.00     0.007 C 
HETATM    3  C11 UNL     1       1.408  55.249  -9.762  1.00  0.00     0.015 C 
HETATM    4  C12 UNL     1       2.925  55.325  -9.500  1.00  0.00    -0.013 C 
HETATM    5  C13 UNL     1       3.518  56.313 -10.553  1.00  0.00     0.021 C 
HETATM    6  C14 UNL     1       3.445  55.839  -8.161  1.00  0.00    -0.065 C 
HETATM    7  C15 UNL     1       4.654  55.420  -7.698  1.00  0.00    -0.068 C 
HETATM    8  C16 UNL     1       5.453  54.319  -8.418  1.00  0.00     0.036 C 
HETATM    9  C17 UNL     1       4.840  53.710  -9.697  1.00  0.00     0.015 C 
HETATM   10  C18 UNL     1       3.312  53.808  -9.682  1.00  0.00    -0.029 C 
HETATM   11  C19 UNL     1       2.775  52.917  -8.523  1.00  0.00     0.016 C 
HETATM   12  C20 UNL     1       5.252  55.959  -6.370  1.00  0.00    -0.014 C 
HETATM   13  C21 UNL     1       4.999  54.849  -5.316  1.00  0.00     0.020 C 
HETATM   14  C22 UNL     1       6.783  56.238  -6.502  1.00  0.00     0.016 C 
HETATM   15  C23 UNL     1       7.304  57.475  -5.751  1.00  0.00     0.033 C 
HETATM   16  C24 UNL     1       6.592  57.739  -4.436  1.00  0.00     0.118 C 
HETATM   17  C25 UNL     1       5.072  57.848  -4.608  1.00  0.00     0.039 C 
HETATM   18  C26 UNL     1       4.569  57.299  -5.963  1.00  0.00     0.029 C 
HETATM   19  C27 UNL     1       3.042  57.195  -6.015  1.00  0.00     0.127 C 
HETATM   20  C28 UNL     1       2.576  56.836  -7.430  1.00  0.00     0.067 C 
ENDROOT
BRANCH   1  21
HETATM   21  C7  UNL     1       2.536  52.022 -11.577  1.00  0.00    -0.014 C 
HETATM   22  C8  UNL     1       1.156  51.352 -11.554  1.00  0.00     0.010 C 
BRANCH  21  23
HETATM   23  C6  UNL     1       3.053  51.931 -13.041  1.00  0.00     0.008 C 
BRANCH  23  24
HETATM   24  C5  UNL     1       2.371  50.862 -13.903  1.00  0.00     0.028 C 
BRANCH  24  25
HETATM   25  C4  UNL     1       1.829  51.470 -15.170  1.00  0.00    -0.025 C 
HETATM   26  C2  UNL     1       2.508  52.106 -16.146  1.00  0.00    -0.091 C 
HETATM   27  C1  UNL     1       1.789  52.620 -17.366  1.00  0.00     0.042 C 
HETATM   28  C3  UNL     1       3.988  52.365 -16.145  1.00  0.00     0.042 C 
ENDBRANCH  24  25
ENDBRANCH  23  24
ENDBRANCH  21  23
ENDBRANCH   1  21
BRANCH  19  29
HETATM   29  O2  UNL     1       2.441  58.434  -5.627  1.00  0.00    -0.395 OA
HETATM   30  H44 UNL     1       2.745  59.119  -6.246  1.00  0.00     0.210 HD
ENDBRANCH  19  29
BRANCH  16  31
HETATM   31  O1  UNL     1       6.901  56.698  -3.515  1.00  0.00    -0.396 OA
HETATM   32  H39 UNL     1       7.864  56.701  -3.379  1.00  0.00     0.210 HD
ENDBRANCH  16  31
TORSDOF 6
ENDMDL
MODEL 3
REMARK minimizedAffinity -7.08444834
REMARK CNNscore 0.663434923
REMARK CNNaffinity 6.81286287
REMARK  6 active torsions:
REMARK  status: ('A' for Active; 'I' for Inactive)
REMARK    1  A    between atoms: C4_4  and  C5_5 
REMARK    2  A    between atoms: C5_5  and  C6_6 
REMARK    3  A    between atoms: C6_6  and  C7_7 
REMARK    4  A    between atoms: C7_7  and  C9_9 
REMARK    5  A    between atoms: C24_24  and  O1_25 
REMARK    6  A    between atoms: C27_28  and  O2_29 
ROOT
HETATM    1  C9  UNL     1       5.358  55.953  -8.108  1.00  0.00    -0.002 C 
HETATM    2  C10 UNL     1       6.168  55.201  -9.197  1.00  0.00     0.007 C 
HETATM    3  C11 UNL     1       5.139  54.497 -10.113  1.00  0.00     0.015 C 
HETATM    4  C12 UNL     1       3.785  55.142  -9.759  1.00  0.00    -0.013 C 
HETATM    5  C13 UNL     1       3.692  56.474 -10.568  1.00  0.00     0.021 C 
HETATM    6  C14 UNL     1       2.483  54.412 -10.076  1.00  0.00    -0.065 C 
HETATM    7  C15 UNL     1       1.373  54.651  -9.327  1.00  0.00    -0.068 C 
HETATM    8  C16 UNL     1       1.428  55.530  -8.066  1.00  0.00     0.036 C 
HETATM    9  C17 UNL     1       2.790  56.147  -7.681  1.00  0.00     0.015 C 
HETATM   10  C18 UNL     1       3.952  55.293  -8.199  1.00  0.00    -0.029 C 
HETATM   11  C19 UNL     1       3.917  53.921  -7.464  1.00  0.00     0.016 C 
HETATM   12  C20 UNL     1       0.011  53.977  -9.647  1.00  0.00    -0.014 C 
HETATM   13  C21 UNL     1      -0.133  52.818  -8.626  1.00  0.00     0.020 C 
HETATM   14  C22 UNL     1      -1.176  54.981  -9.494  1.00  0.00     0.016 C 
HETATM   15  C23 UNL     1      -2.312  54.834 -10.519  1.00  0.00     0.033 C 
HETATM   16  C24 UNL     1      -2.578  53.399 -10.939  1.00  0.00     0.118 C 
HETATM   17  C25 UNL     1      -1.317  52.704 -11.469  1.00  0.00     0.039 C 
HETATM   18  C26 UNL     1      -0.011  53.453 -11.114  1.00  0.00     0.029 C 
HETATM   19  C27 UNL     1       1.236  52.626 -11.440  1.00  0.00     0.127 C 
HETATM   20  C28 UNL     1       2.502  53.471 -11.258  1.00  0.00     0.067 C 
ENDROOT
BRANCH   1  21
HETATM   21  C7  UNL     1       6.078  56.155  -6.744  1.00  0.00    -0.014 C 
HETATM   22  C8  UNL     1       7.578  55.830  -6.710  1.00  0.00     0.010 C 
BRANCH  21  23
HETATM   23  C6  UNL     1       5.924  57.611  -6.220  1.00  0.00     0.008 C 
BRANCH  23  24
HETATM   24  C5  UNL     1       5.531  57.729  -4.743  1.00  0.00     0.028 C 
BRANCH  24  25
HETATM   25  C4  UNL     1       5.258  59.165  -4.380  1.00  0.00    -0.025 C 
HETATM   26  C2  UNL     1       4.121  59.700  -3.893  1.00  0.00    -0.091 C 
HETATM   27  C1  UNL     1       4.049  61.166  -3.555  1.00  0.00     0.042 C 
HETATM   28  C3  UNL     1       2.848  58.943  -3.632  1.00  0.00     0.042 C 
ENDBRANCH  24  25
ENDBRANCH  23  24
ENDBRANCH  21  23
ENDBRANCH   1  21
BRANCH  19  29
HETATM   29  O2  UNL     1       1.184  52.148 -12.787  1.00  0.00    -0.395 OA
HETATM   30  H44 UNL     1       1.140  52.920 -13.375  1.00  0.00     0.210 HD
ENDBRANCH  19  29
BRANCH  16  31
HETATM   31  O1  UNL     1      -3.101  52.672  -9.832  1.00  0.00    -0.396 OA
HETATM   32  H39 UNL     1      -3.931  53.100  -9.564  1.00  0.00     0.210 HD
ENDBRANCH  16  31
TORSDOF 6
ENDMDL
MODEL 4
REMARK minimizedAffinity -7.43593216
REMARK CNNscore 0.627095163
REMARK CNNaffinity 6.61872864
REMARK  6 active torsions:
REMARK  status: ('A' for Active; 'I' for Inactive)
REMARK    1  A    between atoms: C4_4  and  C5_5 
REMARK    2  A    between atoms: C5_5  and  C6_6 
REMARK    3  A    between atoms: C6_6  and  C7_7 
REMARK    4  A    between atoms: C7_7  and  C9_9 
REMARK    5  A    between atoms: C24_24  and  O1_25 
REMARK    6  A    between atoms: C27_28  and  O2_29 
ROOT
HETATM    1  C9  UNL     1       5.323  56.000  -8.047  1.00  0.00    -0.002 C 
HETATM    2  C10 UNL     1       6.148  55.219  -9.105  1.00  0.00     0.007 C 
HETATM    3  C11 UNL     1       5.131  54.488 -10.013  1.00  0.00     0.015 C 
HETATM    4  C12 UNL     1       3.772  55.141  -9.694  1.00  0.00    -0.013 C 
HETATM    5  C13 UNL     1       3.687  56.449 -10.541  1.00  0.00     0.021 C 
HETATM    6  C14 UNL     1       2.475  54.400 -10.006  1.00  0.00    -0.065 C 
HETATM    7  C15 UNL     1       1.355  54.658  -9.278  1.00  0.00    -0.068 C 
HETATM    8  C16 UNL     1       1.393  55.572  -8.041  1.00  0.00     0.036 C 
HETATM    9  C17 UNL     1       2.750  56.201  -7.657  1.00  0.00     0.015 C 
HETATM   10  C18 UNL     1       3.919  55.335  -8.137  1.00  0.00    -0.029 C 
HETATM   11  C19 UNL     1       3.876  53.984  -7.364  1.00  0.00     0.016 C 
HETATM   12  C20 UNL     1      -0.002  53.973  -9.596  1.00  0.00    -0.014 C 
HETATM   13  C21 UNL     1      -0.157  52.842  -8.545  1.00  0.00     0.020 C 
HETATM   14  C22 UNL     1      -1.192  54.979  -9.486  1.00  0.00     0.016 C 
HETATM   15  C23 UNL     1      -2.315  54.801 -10.521  1.00  0.00     0.033 C 
HETATM   16  C24 UNL     1      -2.574  53.354 -10.903  1.00  0.00     0.118 C 
HETATM   17  C25 UNL     1      -1.306  52.648 -11.398  1.00  0.00     0.039 C 
HETATM   18  C26 UNL     1      -0.006  53.408 -11.048  1.00  0.00     0.029 C 
HETATM   19  C27 UNL     1       1.247  52.574 -11.335  1.00  0.00     0.127 C 
HETATM   20  C28 UNL     1       2.509  53.426 -11.161  1.00  0.00     0.067 C 
ENDROOT
BRANCH   1  21
HETATM   21  C7  UNL     1       6.026  56.241  -6.681  1.00  0.00    -0.014 C 
HETATM   22  C8  UNL     1       7.456  55.701  -6.545  1.00  0.00     0.010 C 
BRANCH  21  23
HETATM   23  C6  UNL     1       6.082  57.753  -6.320  1.00  0.00     0.008 C 
BRANCH  23  24
HETATM   24  C5  UNL     1       6.569  58.062  -4.899  1.00  0.00     0.028 C 
BRANCH  24  25
HETATM   25  C4  UNL     1       7.462  59.274  -4.896  1.00  0.00    -0.025 C 
HETATM   26  C2  UNL     1       8.810  59.317  -4.907  1.00  0.00    -0.091 C 
HETATM   27  C1  UNL     1       9.533  60.638  -4.937  1.00  0.00     0.042 C 
HETATM   28  C3  UNL     1       9.716  58.117  -4.896  1.00  0.00     0.042 C 
ENDBRANCH  24  25
ENDBRANCH  23  24
ENDBRANCH  21  23
ENDBRANCH   1  21
BRANCH  19  29
HETATM   29  O2  UNL     1       1.212  52.058 -12.669  1.00  0.00    -0.395 OA
HETATM   30  H44 UNL     1       1.174  52.814 -13.278  1.00  0.00     0.210 HD
ENDBRANCH  19  29
BRANCH  16  31
HETATM   31  O1  UNL     1      -3.109  52.658  -9.783  1.00  0.00    -0.396 OA
HETATM   32  H39 UNL     1      -3.944  53.092  -9.537  1.00  0.00     0.210 HD
ENDBRANCH  16  31
TORSDOF 6
ENDMDL
MODEL 5
REMARK minimizedAffinity -6.8368907
REMARK CNNscore 0.610972047
REMARK CNNaffinity 6.90730333
REMARK  6 active torsions:
REMARK  status: ('A' for Active; 'I' for Inactive)
REMARK    1  A    between atoms: C4_4  and  C5_5 
REMARK    2  A    between atoms: C5_5  and  C6_6 
REMARK    3  A    between atoms: C6_6  and  C7_7 
REMARK    4  A    between atoms: C7_7  and  C9_9 
REMARK    5  A    between atoms: C24_24  and  O1_25 
REMARK    6  A    between atoms: C27_28  and  O2_29 
ROOT
HETATM    1  C9  UNL     1       2.567  55.521  -8.191  1.00  0.00    -0.002 C 
HETATM    2  C10 UNL     1       1.398  56.439  -7.747  1.00  0.00     0.007 C 
HETATM    3  C11 UNL     1       0.099  55.807  -8.300  1.00  0.00     0.015 C 
HETATM    4  C12 UNL     1       0.501  54.381  -8.725  1.00  0.00    -0.013 C 
HETATM    5  C13 UNL     1       0.462  53.496  -7.440  1.00  0.00     0.021 C 
HETATM    6  C14 UNL     1      -0.347  53.618  -9.739  1.00  0.00    -0.065 C 
HETATM    7  C15 UNL     1       0.227  52.665 -10.521  1.00  0.00    -0.068 C 
HETATM    8  C16 UNL     1       1.748  52.434 -10.521  1.00  0.00     0.036 C 
HETATM    9  C17 UNL     1       2.607  53.316  -9.590  1.00  0.00     0.015 C 
HETATM   10  C18 UNL     1       1.930  54.665  -9.325  1.00  0.00    -0.029 C 
HETATM   11  C19 UNL     1       1.865  55.452 -10.666  1.00  0.00     0.016 C 
HETATM   12  C20 UNL     1      -0.605  51.821 -11.525  1.00  0.00    -0.014 C 
HETATM   13  C21 UNL     1      -0.339  52.447 -12.919  1.00  0.00     0.020 C 
HETATM   14  C22 UNL     1      -0.169  50.321 -11.515  1.00  0.00     0.016 C 
HETATM   15  C23 UNL     1      -1.301  49.294 -11.680  1.00  0.00     0.033 C 
HETATM   16  C24 UNL     1      -2.418  49.756 -12.600  1.00  0.00     0.118 C 
HETATM   17  C25 UNL     1      -3.009  51.104 -12.167  1.00  0.00     0.039 C 
HETATM   18  C26 UNL     1      -2.119  51.866 -11.158  1.00  0.00     0.029 C 
HETATM   19  C27 UNL     1      -2.604  53.300 -10.927  1.00  0.00     0.127 C 
HETATM   20  C28 UNL     1      -1.820  53.954  -9.785  1.00  0.00     0.067 C 
ENDROOT
BRANCH   1  21
HETATM   21  C7  UNL     1       3.947  56.216  -8.372  1.00  0.00    -0.014 C 
HETATM   22  C8  UNL     1       4.077  57.632  -7.795  1.00  0.00     0.010 C 
BRANCH  21  23
HETATM   23  C6  UNL     1       5.102  55.375  -7.759  1.00  0.00     0.008 C 
BRANCH  23  24
HETATM   24  C5  UNL     1       6.363  55.276  -8.627  1.00  0.00     0.028 C 
BRANCH  24  25
HETATM   25  C4  UNL     1       6.419  53.944  -9.329  1.00  0.00    -0.025 C 
HETATM   26  C2  UNL     1       6.602  52.723  -8.787  1.00  0.00    -0.091 C 
HETATM   27  C1  UNL     1       6.594  51.493  -9.656  1.00  0.00     0.042 C 
HETATM   28  C3  UNL     1       6.821  52.447  -7.326  1.00  0.00     0.042 C 
ENDBRANCH  24  25
ENDBRANCH  23  24
ENDBRANCH  21  23
ENDBRANCH   1  21
BRANCH  19  29
HETATM   29  O2  UNL     1      -3.998  53.314 -10.604  1.00  0.00    -0.395 OA
HETATM   30  H44 UNL     1      -4.120  52.792  -9.794  1.00  0.00     0.210 HD
ENDBRANCH  19  29
BRANCH  16  31
HETATM   31  O1  UNL     1      -1.925  49.850 -13.932  1.00  0.00    -0.396 OA
HETATM   32  H39 UNL     1      -1.619  48.966 -14.196  1.00  0.00     0.210 HD
ENDBRANCH  16  31
TORSDOF 6
ENDMDL
MODEL 6
REMARK minimizedAffinity -6.97538757
REMARK CNNscore 0.501833558
REMARK CNNaffinity 5.43933105
REMARK  6 active torsions:
REMARK  status: ('A' for Active; 'I' for Inactive)
REMARK    1  A    between atoms: C4_4  and  C5_5 
REMARK    2  A    between atoms: C5_5  and  C6_6 
REMARK    3  A    between atoms: C6_6  and  C7_7 
REMARK    4  A    between atoms: C7_7  and  C9_9 
REMARK    5  A    between atoms: C24_24  and  O1_25 
REMARK    6  A    between atoms: C27_28  and  O2_29 
ROOT
HETATM    1  C9  UNL     1       3.418  66.309 -37.193  1.00  0.00    -0.002 C 
HETATM    2  C10 UNL     1       2.229  66.190 -36.203  1.00  0.00     0.007 C 
HETATM    3  C11 UNL     1       1.071  67.030 -36.792  1.00  0.00     0.015 C 
HETATM    4  C12 UNL     1       1.483  67.307 -38.251  1.00  0.00    -0.013 C 
HETATM    5  C13 UNL     1       1.081  66.049 -39.083  1.00  0.00     0.021 C 
HETATM    6  C14 UNL     1       0.868  68.479 -39.010  1.00  0.00    -0.065 C 
HETATM    7  C15 UNL     1       1.561  69.071 -40.019  1.00  0.00    -0.068 C 
HETATM    8  C16 UNL     1       3.020  68.690 -40.324  1.00  0.00     0.036 C 
HETATM    9  C17 UNL     1       3.673  67.599 -39.449  1.00  0.00     0.015 C 
HETATM   10  C18 UNL     1       3.030  67.543 -38.060  1.00  0.00    -0.029 C 
HETATM   11  C19 UNL     1       3.340  68.878 -37.323  1.00  0.00     0.016 C 
HETATM   12  C20 UNL     1       0.954  70.228 -40.859  1.00  0.00    -0.014 C 
HETATM   13  C21 UNL     1       1.588  71.529 -40.301  1.00  0.00     0.020 C 
HETATM   14  C22 UNL     1       1.289  70.073 -42.377  1.00  0.00     0.016 C 
HETATM   15  C23 UNL     1       0.176  70.486 -43.353  1.00  0.00     0.033 C 
HETATM   16  C24 UNL     1      -0.654  71.664 -42.874  1.00  0.00     0.118 C 
HETATM   17  C25 UNL     1      -1.256  71.425 -41.483  1.00  0.00     0.039 C 
HETATM   18  C26 UNL     1      -0.598  70.247 -40.727  1.00  0.00     0.029 C 
HETATM   19  C27 UNL     1      -1.043  70.179 -39.263  1.00  0.00     0.127 C 
HETATM   20  C28 UNL     1      -0.527  68.895 -38.605  1.00  0.00     0.067 C 
ENDROOT
BRANCH   1  21
HETATM   21  C7  UNL     1       4.836  66.162 -36.573  1.00  0.00    -0.014 C 
HETATM   22  C8  UNL     1       5.993  66.795 -37.358  1.00  0.00     0.010 C 
BRANCH  21  23
HETATM   23  C6  UNL     1       4.900  66.746 -35.133  1.00  0.00     0.008 C 
BRANCH  23  24
HETATM   24  C5  UNL     1       5.723  65.922 -34.135  1.00  0.00     0.028 C 
BRANCH  24  25
HETATM   25  C4  UNL     1       5.210  64.507 -34.067  1.00  0.00    -0.025 C 
HETATM   26  C2  UNL     1       4.490  63.928 -33.086  1.00  0.00    -0.091 C 
HETATM   27  C1  UNL     1       4.036  62.497 -33.214  1.00  0.00     0.042 C 
HETATM   28  C3  UNL     1       4.067  64.599 -31.809  1.00  0.00     0.042 C 
ENDBRANCH  24  25
ENDBRANCH  23  24
ENDBRANCH  21  23
ENDBRANCH   1  21
BRANCH  19  29
HETATM   29  O2  UNL     1      -2.471  70.210 -39.170  1.00  0.00    -0.395 OA
HETATM   30  H44 UNL     1      -2.817  69.442 -39.654  1.00  0.00     0.210 HD
ENDBRANCH  19  29
BRANCH  16  31
HETATM   31  O1  UNL     1       0.155  72.835 -42.855  1.00  0.00    -0.396 OA
HETATM   32  H39 UNL     1       0.465  72.994 -43.762  1.00  0.00     0.210 HD
ENDBRANCH  16  31
TORSDOF 6
ENDMDL
MODEL 7
REMARK minimizedAffinity -7.77100658
REMARK CNNscore 0.48282066
REMARK CNNaffinity 6.79491043
REMARK  6 active torsions:
REMARK  status: ('A' for Active; 'I' for Inactive)
REMARK    1  A    between atoms: C4_4  and  C5_5 
REMARK    2  A    between atoms: C5_5  and  C6_6 
REMARK    3  A    between atoms: C6_6  and  C7_7 
REMARK    4  A    between atoms: C7_7  and  C9_9 
REMARK    5  A    between atoms: C24_24  and  O1_25 
REMARK    6  A    between atoms: C27_28  and  O2_29 
ROOT
HETATM    1  C9  UNL     1      -3.306  51.289 -23.625  1.00  0.00    -0.002 C 
HETATM    2  C10 UNL     1      -4.808  51.546 -23.916  1.00  0.00     0.007 C 
HETATM    3  C11 UNL     1      -5.611  50.583 -23.010  1.00  0.00     0.015 C 
HETATM    4  C12 UNL     1      -4.590  50.065 -21.978  1.00  0.00    -0.013 C 
HETATM    5  C13 UNL     1      -4.493  51.145 -20.855  1.00  0.00     0.021 C 
HETATM    6  C14 UNL     1      -4.852  48.761 -21.230  1.00  0.00    -0.065 C 
HETATM    7  C15 UNL     1      -3.806  48.021 -20.773  1.00  0.00    -0.068 C 
HETATM    8  C16 UNL     1      -2.351  48.384 -21.119  1.00  0.00     0.036 C 
HETATM    9  C17 UNL     1      -2.114  49.631 -21.998  1.00  0.00     0.015 C 
HETATM   10  C18 UNL     1      -3.320  49.912 -22.899  1.00  0.00    -0.029 C 
HETATM   11  C19 UNL     1      -3.460  48.736 -23.910  1.00  0.00     0.016 C 
HETATM   12  C20 UNL     1      -4.023  46.718 -19.956  1.00  0.00    -0.014 C 
HETATM   13  C21 UNL     1      -3.790  45.554 -20.955  1.00  0.00     0.020 C 
HETATM   14  C22 UNL     1      -3.018  46.614 -18.764  1.00  0.00     0.016 C 
HETATM   15  C23 UNL     1      -3.579  46.003 -17.469  1.00  0.00     0.033 C 
HETATM   16  C24 UNL     1      -4.601  44.904 -17.702  1.00  0.00     0.118 C 
HETATM   17  C25 UNL     1      -5.761  45.367 -18.593  1.00  0.00     0.039 C 
HETATM   18  C26 UNL     1      -5.460  46.677 -19.357  1.00  0.00     0.029 C 
HETATM   19  C27 UNL     1      -6.524  46.989 -20.413  1.00  0.00     0.127 C 
HETATM   20  C28 UNL     1      -6.297  48.383 -21.008  1.00  0.00     0.067 C 
ENDROOT
BRANCH   1  21
HETATM   21  C7  UNL     1      -2.326  51.584 -24.796  1.00  0.00    -0.014 C 
HETATM   22  C8  UNL     1      -2.964  51.880 -26.160  1.00  0.00     0.010 C 
BRANCH  21  23
HETATM   23  C6  UNL     1      -1.385  52.780 -24.474  1.00  0.00     0.008 C 
BRANCH  23  24
HETATM   24  C5  UNL     1      -0.586  53.315 -25.668  1.00  0.00     0.028 C 
BRANCH  24  25
HETATM   25  C4  UNL     1       0.755  52.635 -25.755  1.00  0.00    -0.025 C 
HETATM   26  C2  UNL     1       1.262  51.919 -26.779  1.00  0.00    -0.091 C 
HETATM   27  C1  UNL     1       2.649  51.339 -26.694  1.00  0.00     0.042 C 
HETATM   28  C3  UNL     1       0.549  51.627 -28.070  1.00  0.00     0.042 C 
ENDBRANCH  24  25
ENDBRANCH  23  24
ENDBRANCH  21  23
ENDBRANCH   1  21
BRANCH  19  29
HETATM   29  O2  UNL     1      -7.833  46.933 -19.840  1.00  0.00    -0.395 OA
HETATM   30  H44 UNL     1      -7.874  47.594 -19.128  1.00  0.00     0.210 HD
ENDBRANCH  19  29
BRANCH  16  31
HETATM   31  O1  UNL     1      -3.959  43.778 -18.291  1.00  0.00    -0.396 OA
HETATM   32  H39 UNL     1      -3.275  43.471 -17.671  1.00  0.00     0.210 HD
ENDBRANCH  16  31
TORSDOF 6
ENDMDL
MODEL 8
REMARK minimizedAffinity -7.009902
REMARK CNNscore 0.425256729
REMARK CNNaffinity 5.97446299
REMARK  6 active torsions:
REMARK  status: ('A' for Active; 'I' for Inactive)
REMARK    1  A    between atoms: C4_4  and  C5_5 
REMARK    2  A    between atoms: C5_5  and  C6_6 
REMARK    3  A    between atoms: C6_6  and  C7_7 
REMARK    4  A    between atoms: C7_7  and  C9_9 
REMARK    5  A    between atoms: C24_24  and  O1_25 
REMARK    6  A    between atoms: C27_28  and  O2_29 
ROOT
HETATM    1  C9  UNL     1     -13.061  45.258 -27.928  1.00  0.00    -0.002 C 
HETATM    2  C10 UNL     1     -13.042  44.010 -28.849  1.00  0.00     0.007 C 
HETATM    3  C11 UNL     1     -11.642  43.960 -29.504  1.00  0.00     0.015 C 
HETATM    4  C12 UNL     1     -10.785  44.946 -28.686  1.00  0.00    -0.013 C 
HETATM    5  C13 UNL     1     -10.292  44.177 -27.421  1.00  0.00     0.021 C 
HETATM    6  C14 UNL     1      -9.515  45.539 -29.290  1.00  0.00    -0.065 C 
HETATM    7  C15 UNL     1      -9.070  46.754 -28.871  1.00  0.00    -0.068 C 
HETATM    8  C16 UNL     1      -9.894  47.624 -27.906  1.00  0.00     0.036 C 
HETATM    9  C17 UNL     1     -11.247  47.065 -27.416  1.00  0.00     0.015 C 
HETATM   10  C18 UNL     1     -11.843  46.086 -28.432  1.00  0.00    -0.029 C 
HETATM   11  C19 UNL     1     -12.188  46.875 -29.729  1.00  0.00     0.016 C 
HETATM   12  C20 UNL     1      -7.752  47.373 -29.412  1.00  0.00    -0.014 C 
HETATM   13  C21 UNL     1      -8.186  48.428 -30.464  1.00  0.00     0.020 C 
HETATM   14  C22 UNL     1      -6.927  48.054 -28.274  1.00  0.00     0.016 C 
HETATM   15  C23 UNL     1      -5.400  47.906 -28.375  1.00  0.00     0.033 C 
HETATM   16  C24 UNL     1      -4.876  47.908 -29.800  1.00  0.00     0.118 C 
HETATM   17  C25 UNL     1      -5.552  46.840 -30.670  1.00  0.00     0.039 C 
HETATM   18  C26 UNL     1      -6.848  46.273 -30.046  1.00  0.00     0.029 C 
HETATM   19  C27 UNL     1      -7.628  45.396 -31.029  1.00  0.00     0.127 C 
HETATM   20  C28 UNL     1      -8.794  44.699 -30.318  1.00  0.00     0.067 C 
ENDROOT
BRANCH   1  21
HETATM   21  C7  UNL     1     -14.454  45.913 -27.700  1.00  0.00    -0.014 C 
HETATM   22  C8  UNL     1     -15.672  45.102 -28.161  1.00  0.00     0.010 C 
BRANCH  21  23
HETATM   23  C6  UNL     1     -14.690  46.261 -26.202  1.00  0.00     0.008 C 
BRANCH  23  24
HETATM   24  C5  UNL     1     -15.699  45.360 -25.480  1.00  0.00     0.028 C 
BRANCH  24  25
HETATM   25  C4  UNL     1     -16.795  46.185 -24.858  1.00  0.00    -0.025 C 
HETATM   26  C2  UNL     1     -18.122  46.120 -25.092  1.00  0.00    -0.091 C 
HETATM   27  C1  UNL     1     -19.074  47.013 -24.340  1.00  0.00     0.042 C 
HETATM   28  C3  UNL     1     -18.785  45.196 -26.074  1.00  0.00     0.042 C 
ENDBRANCH  24  25
ENDBRANCH  23  24
ENDBRANCH  21  23
ENDBRANCH   1  21
BRANCH  19  29
HETATM   29  O2  UNL     1      -6.773  44.403 -31.604  1.00  0.00    -0.395 OA
HETATM   30  H44 UNL     1      -6.425  43.856 -30.880  1.00  0.00     0.210 HD
ENDBRANCH  19  29
BRANCH  16  31
HETATM   31  O1  UNL     1      -5.074  49.195 -30.374  1.00  0.00    -0.396 OA
HETATM   32  H39 UNL     1      -4.579  49.837 -29.837  1.00  0.00     0.210 HD
ENDBRANCH  16  31
TORSDOF 6
ENDMDL
MODEL 9
REMARK minimizedAffinity -8.70514584
REMARK CNNscore 0.420065999
REMARK CNNaffinity 6.65503693
REMARK  6 active torsions:
REMARK  status: ('A' for Active; 'I' for Inactive)
REMARK    1  A    between atoms: C4_4  and  C5_5 
REMARK    2  A    between atoms: C5_5  and  C6_6 
REMARK    3  A    between atoms: C6_6  and  C7_7 
REMARK    4  A    between atoms: C7_7  and  C9_9 
REMARK    5  A    between atoms: C24_24  and  O1_25 
REMARK    6  A    between atoms: C27_28  and  O2_29 
ROOT
HETATM    1  C9  UNL     1      -1.190  50.661 -21.846  1.00  0.00    -0.002 C 
HETATM    2  C10 UNL     1      -1.107  50.007 -20.441  1.00  0.00     0.007 C 
HETATM    3  C11 UNL     1      -2.335  49.076 -20.308  1.00  0.00     0.015 C 
HETATM    4  C12 UNL     1      -2.884  48.936 -21.741  1.00  0.00    -0.013 C 
HETATM    5  C13 UNL     1      -2.039  47.829 -22.446  1.00  0.00     0.021 C 
HETATM    6  C14 UNL     1      -4.333  48.511 -21.967  1.00  0.00    -0.065 C 
HETATM    7  C15 UNL     1      -4.984  48.899 -23.097  1.00  0.00    -0.068 C 
HETATM    8  C16 UNL     1      -4.349  49.886 -24.092  1.00  0.00     0.036 C 
HETATM    9  C17 UNL     1      -2.935  50.416 -23.772  1.00  0.00     0.015 C 
HETATM   10  C18 UNL     1      -2.668  50.407 -22.264  1.00  0.00    -0.029 C 
HETATM   11  C19 UNL     1      -3.634  51.424 -21.589  1.00  0.00     0.016 C 
HETATM   12  C20 UNL     1      -6.437  48.444 -23.399  1.00  0.00    -0.014 C 
HETATM   13  C21 UNL     1      -7.339  49.653 -23.037  1.00  0.00     0.020 C 
HETATM   14  C22 UNL     1      -6.620  48.067 -24.904  1.00  0.00     0.016 C 
HETATM   15  C23 UNL     1      -7.545  46.872 -25.187  1.00  0.00     0.033 C 
HETATM   16  C24 UNL     1      -8.717  46.764 -24.228  1.00  0.00     0.118 C 
HETATM   17  C25 UNL     1      -8.268  46.728 -22.761  1.00  0.00     0.039 C 
HETATM   18  C26 UNL     1      -6.805  47.185 -22.558  1.00  0.00     0.029 C 
HETATM   19  C27 UNL     1      -6.457  47.370 -21.079  1.00  0.00     0.127 C 
HETATM   20  C28 UNL     1      -4.957  47.632 -20.909  1.00  0.00     0.067 C 
ENDROOT
BRANCH   1  21
HETATM   21  C7  UNL     1      -0.532  52.064 -21.982  1.00  0.00    -0.014 C 
HETATM   22  C8  UNL     1       0.914  52.190 -21.486  1.00  0.00     0.010 C 
BRANCH  21  23
HETATM   23  C6  UNL     1      -0.546  52.566 -23.454  1.00  0.00     0.008 C 
BRANCH  23  24
HETATM   24  C5  UNL     1       0.679  52.165 -24.286  1.00  0.00     0.028 C 
BRANCH  24  25
HETATM   25  C4  UNL     1       0.324  52.088 -25.748  1.00  0.00    -0.025 C 
HETATM   26  C2  UNL     1       1.126  51.770 -26.784  1.00  0.00    -0.091 C 
HETATM   27  C1  UNL     1       0.576  51.711 -28.186  1.00  0.00     0.042 C 
HETATM   28  C3  UNL     1       2.590  51.445 -26.681  1.00  0.00     0.042 C 
ENDBRANCH  24  25
ENDBRANCH  23  24
ENDBRANCH  21  23
ENDBRANCH   1  21
BRANCH  19  29
HETATM   29  O2  UNL     1      -6.815  46.206 -20.328  1.00  0.00    -0.395 OA
HETATM   30  H44 UNL     1      -6.317  45.454 -20.691  1.00  0.00     0.210 HD
ENDBRANCH  19  29
BRANCH  16  31
HETATM   31  O1  UNL     1      -9.601  47.861 -24.436  1.00  0.00    -0.396 OA
HETATM   32  H39 UNL     1      -9.916  47.815 -25.354  1.00  0.00     0.210 HD
ENDBRANCH  16  31
TORSDOF 6
ENDMDL
