MODEL 1
REMARK minimizedAffinity -7.03985786
REMARK CNNscore 0.567595303
REMARK CNNaffinity 5.42121172
REMARK  12 active torsions:
REMARK  status: ('A' for Active; 'I' for Inactive)
REMARK    1  A    between atoms: C2_2  and  C3_3 
REMARK    2  A    between atoms: C2_2  and  C26_31 
REMARK    3  A    between atoms: C3_3  and  C4_4 
REMARK    4  A    between atoms: C4_4  and  C5_5 
REMARK    5  A    between atoms: C5_5  and  C7_7 
REMARK    6  A    between atoms: C8_8  and  O1_9 
REMARK    7  A    between atoms: C9_10  and  O2_11 
REMARK    8  A    between atoms: C20_22  and  O3_23 
REMARK    9  A    between atoms: C23_26  and  O4_27 
REMARK   10  A    between atoms: C25_29  and  O5_30 
REMARK   11  A    between atoms: C26_31  and  C28_33 
REMARK   12  A    between atoms: C28_33  and  O6_34 
ROOT
HETATM    1  C7  UNL     1     -13.258   8.513  22.895  1.00  0.00     0.029 C 
HETATM    2  C8  UNL     1     -13.832   8.820  24.316  1.00  0.00     0.152 C 
HETATM    3  C9  UNL     1     -13.245  10.189  24.746  1.00  0.00     0.155 C 
HETATM    4  C10 UNL     1     -12.396  10.647  23.558  1.00  0.00     0.060 C 
HETATM    5  C11 UNL     1     -11.923   9.339  22.864  1.00  0.00    -0.029 C 
HETATM    6  C12 UNL     1     -10.787   8.596  23.605  1.00  0.00     0.016 C 
HETATM    7  C13 UNL     1     -11.435   9.720  21.443  1.00  0.00     0.011 C 
HETATM    8  C14 UNL     1     -11.033  11.199  21.280  1.00  0.00     0.009 C 
HETATM    9  C15 UNL     1     -10.362  11.813  22.531  1.00  0.00     0.029 C 
HETATM   10  C16 UNL     1      -9.748  13.255  22.271  1.00  0.00    -0.031 C 
HETATM   11  C17 UNL     1      -8.345  13.011  21.628  1.00  0.00     0.016 C 
HETATM   12  C18 UNL     1     -10.581  14.118  21.281  1.00  0.00     0.012 C 
HETATM   13  C19 UNL     1     -10.003  15.515  21.045  1.00  0.00     0.032 C 
HETATM   14  C20 UNL     1      -9.754  16.282  22.336  1.00  0.00     0.118 C 
HETATM   15  C21 UNL     1      -8.987  15.460  23.375  1.00  0.00     0.039 C 
HETATM   16  C22 UNL     1      -9.565  14.047  23.608  1.00  0.00     0.025 C 
HETATM   17  C23 UNL     1     -10.820  14.071  24.522  1.00  0.00     0.126 C 
HETATM   18  C24 UNL     1     -11.879  13.025  24.194  1.00  0.00     0.071 C 
HETATM   19  C25 UNL     1     -11.273  11.686  23.794  1.00  0.00     0.071 C 
ENDROOT
BRANCH   1  20
HETATM   20  C5  UNL     1     -13.231   6.997  22.529  1.00  0.00    -0.011 C 
HETATM   21  C6  UNL     1     -13.956   6.691  21.213  1.00  0.00     0.010 C 
BRANCH  20  22
HETATM   22  C4  UNL     1     -13.870   6.160  23.675  1.00  0.00     0.009 C 
BRANCH  22  23
HETATM   23  C3  UNL     1     -14.622   4.913  23.178  1.00  0.00     0.034 C 
BRANCH  23  24
HETATM   24  C2  UNL     1     -13.816   3.625  23.027  1.00  0.00    -0.083 C 
HETATM   25  C1  UNL     1     -13.483   3.102  21.831  1.00  0.00     0.015 C 
BRANCH  24  26
HETATM   26  C26 UNL     1     -13.390   2.996  24.365  1.00  0.00     0.033 C 
HETATM   27  C27 UNL     1     -11.936   2.498  24.416  1.00  0.00     0.017 C 
BRANCH  26  28
HETATM   28  C28 UNL     1     -14.349   1.875  24.825  1.00  0.00     0.172 C 
BRANCH  28  29
HETATM   29  O6  UNL     1     -13.822   0.570  24.613  1.00  0.00    -0.400 OA
HETATM   30  H48 UNL     1     -12.916   0.551  24.963  1.00  0.00     0.209 HD
ENDBRANCH  28  29
ENDBRANCH  26  28
ENDBRANCH  24  26
ENDBRANCH  23  24
ENDBRANCH  22  23
ENDBRANCH  20  22
ENDBRANCH   1  20
BRANCH   2  31
HETATM   31  O1  UNL     1     -13.466   7.854  25.305  1.00  0.00    -0.393 OA
HETATM   32  H13 UNL     1     -13.961   7.034  25.128  1.00  0.00     0.210 HD
ENDBRANCH   2  31
BRANCH   3  33
HETATM   33  O2  UNL     1     -12.474  10.074  25.942  1.00  0.00    -0.392 OA
HETATM   34  H15 UNL     1     -12.614   9.142  26.233  1.00  0.00     0.210 HD
ENDBRANCH   3  33
BRANCH  19  35
HETATM   35  O5  UNL     1     -10.426  11.284  24.880  1.00  0.00    -0.389 OA
HETATM   36  H41 UNL     1     -11.009  10.876  25.561  1.00  0.00     0.210 HD
ENDBRANCH  19  35
BRANCH  17  37
HETATM   37  O4  UNL     1     -11.470  15.342  24.536  1.00  0.00    -0.395 OA
HETATM   38  H38 UNL     1     -12.119  15.325  25.260  1.00  0.00     0.210 HD
ENDBRANCH  17  37
BRANCH  14  39
HETATM   39  O3  UNL     1      -9.003  17.457  22.023  1.00  0.00    -0.396 OA
HETATM   40  H33 UNL     1      -8.910  17.956  22.853  1.00  0.00     0.210 HD
ENDBRANCH  14  39
TORSDOF 12
ENDMDL
MODEL 2
REMARK minimizedAffinity -6.85238028
REMARK CNNscore 0.547991395
REMARK CNNaffinity 5.63868475
REMARK  12 active torsions:
REMARK  status: ('A' for Active; 'I' for Inactive)
REMARK    1  A    between atoms: C2_2  and  C3_3 
REMARK    2  A    between atoms: C2_2  and  C26_31 
REMARK    3  A    between atoms: C3_3  and  C4_4 
REMARK    4  A    between atoms: C4_4  and  C5_5 
REMARK    5  A    between atoms: C5_5  and  C7_7 
REMARK    6  A    between atoms: C8_8  and  O1_9 
REMARK    7  A    between atoms: C9_10  and  O2_11 
REMARK    8  A    between atoms: C20_22  and  O3_23 
REMARK    9  A    between atoms: C23_26  and  O4_27 
REMARK   10  A    between atoms: C25_29  and  O5_30 
REMARK   11  A    between atoms: C26_31  and  C28_33 
REMARK   12  A    between atoms: C28_33  and  O6_34 
ROOT
HETATM    1  C7  UNL     1      -1.025  10.122  16.688  1.00  0.00     0.029 C 
HETATM    2  C8  UNL     1      -0.033  10.014  15.485  1.00  0.00     0.152 C 
HETATM    3  C9  UNL     1       1.358  10.445  16.017  1.00  0.00     0.155 C 
HETATM    4  C10 UNL     1       1.140  10.742  17.502  1.00  0.00     0.060 C 
HETATM    5  C11 UNL     1      -0.344  11.190  17.617  1.00  0.00    -0.029 C 
HETATM    6  C12 UNL     1      -0.621  12.626  17.115  1.00  0.00     0.016 C 
HETATM    7  C13 UNL     1      -0.743  11.090  19.111  1.00  0.00     0.011 C 
HETATM    8  C14 UNL     1       0.443  11.129  20.094  1.00  0.00     0.009 C 
HETATM    9  C15 UNL     1       1.600  12.056  19.650  1.00  0.00     0.029 C 
HETATM   10  C16 UNL     1       2.703  12.266  20.775  1.00  0.00    -0.031 C 
HETATM   11  C17 UNL     1       2.151  13.389  21.708  1.00  0.00     0.016 C 
HETATM   12  C18 UNL     1       2.953  11.002  21.646  1.00  0.00     0.012 C 
HETATM   13  C19 UNL     1       4.030  11.195  22.716  1.00  0.00     0.032 C 
HETATM   14  C20 UNL     1       5.343  11.717  22.151  1.00  0.00     0.118 C 
HETATM   15  C21 UNL     1       5.154  12.929  21.234  1.00  0.00     0.039 C 
HETATM   16  C22 UNL     1       4.062  12.737  20.159  1.00  0.00     0.025 C 
HETATM   17  C23 UNL     1       4.561  11.882  18.962  1.00  0.00     0.126 C 
HETATM   18  C24 UNL     1       3.505  10.990  18.321  1.00  0.00     0.071 C 
HETATM   19  C25 UNL     1       2.142  11.665  18.239  1.00  0.00     0.071 C 
ENDROOT
BRANCH   1  20
HETATM   20  C5  UNL     1      -2.517  10.307  16.272  1.00  0.00    -0.011 C 
HETATM   21  C6  UNL     1      -3.309  11.163  17.268  1.00  0.00     0.010 C 
BRANCH  20  22
HETATM   22  C4  UNL     1      -3.206   8.919  16.126  1.00  0.00     0.009 C 
BRANCH  22  23
HETATM   23  C3  UNL     1      -2.852   8.193  14.816  1.00  0.00     0.034 C 
BRANCH  23  24
HETATM   24  C2  UNL     1      -4.011   7.673  13.971  1.00  0.00    -0.083 C 
HETATM   25  C1  UNL     1      -4.684   8.441  13.092  1.00  0.00     0.015 C 
BRANCH  24  26
HETATM   26  C26 UNL     1      -4.322   6.181  14.190  1.00  0.00     0.033 C 
HETATM   27  C27 UNL     1      -4.160   5.293  12.945  1.00  0.00     0.017 C 
BRANCH  26  28
HETATM   28  C28 UNL     1      -5.714   5.953  14.823  1.00  0.00     0.172 C 
BRANCH  28  29
HETATM   29  O6  UNL     1      -5.754   6.269  16.210  1.00  0.00    -0.400 OA
HETATM   30  H48 UNL     1      -5.348   7.144  16.331  1.00  0.00     0.209 HD
ENDBRANCH  28  29
ENDBRANCH  26  28
ENDBRANCH  24  26
ENDBRANCH  23  24
ENDBRANCH  22  23
ENDBRANCH  20  22
ENDBRANCH   1  20
BRANCH   2  31
HETATM   31  O1  UNL     1      -0.367  10.865  14.386  1.00  0.00    -0.393 OA
HETATM   32  H13 UNL     1      -1.157  10.501  13.949  1.00  0.00     0.210 HD
ENDBRANCH   2  31
BRANCH   3  33
HETATM   33  O2  UNL     1       1.858  11.581  15.311  1.00  0.00    -0.392 OA
HETATM   34  H15 UNL     1       1.204  11.723  14.587  1.00  0.00     0.210 HD
ENDBRANCH   3  33
BRANCH  19  35
HETATM   35  O5  UNL     1       2.338  12.887  17.514  1.00  0.00    -0.389 OA
HETATM   36  H41 UNL     1       2.339  12.654  16.557  1.00  0.00     0.210 HD
ENDBRANCH  19  35
BRANCH  17  37
HETATM   37  O4  UNL     1       5.670  11.050  19.302  1.00  0.00    -0.395 OA
HETATM   38  H38 UNL     1       6.031  10.698  18.469  1.00  0.00     0.210 HD
ENDBRANCH  17  37
BRANCH  14  39
HETATM   39  O3  UNL     1       6.188  12.085  23.243  1.00  0.00    -0.396 OA
HETATM   40  H33 UNL     1       7.039  12.358  22.857  1.00  0.00     0.210 HD
ENDBRANCH  14  39
TORSDOF 12
ENDMDL
MODEL 3
REMARK minimizedAffinity -7.44664192
REMARK CNNscore 0.543997586
REMARK CNNaffinity 6.29795647
REMARK  12 active torsions:
REMARK  status: ('A' for Active; 'I' for Inactive)
REMARK    1  A    between atoms: C2_2  and  C3_3 
REMARK    2  A    between atoms: C2_2  and  C26_31 
REMARK    3  A    between atoms: C3_3  and  C4_4 
REMARK    4  A    between atoms: C4_4  and  C5_5 
REMARK    5  A    between atoms: C5_5  and  C7_7 
REMARK    6  A    between atoms: C8_8  and  O1_9 
REMARK    7  A    between atoms: C9_10  and  O2_11 
REMARK    8  A    between atoms: C20_22  and  O3_23 
REMARK    9  A    between atoms: C23_26  and  O4_27 
REMARK   10  A    between atoms: C25_29  and  O5_30 
REMARK   11  A    between atoms: C26_31  and  C28_33 
REMARK   12  A    between atoms: C28_33  and  O6_34 
ROOT
HETATM    1  C7  UNL     1     -10.425  -4.591  -6.238  1.00  0.00     0.029 C 
HETATM    2  C8  UNL     1      -9.869  -3.985  -4.909  1.00  0.00     0.152 C 
HETATM    3  C9  UNL     1      -9.159  -5.140  -4.158  1.00  0.00     0.155 C 
HETATM    4  C10 UNL     1      -9.285  -6.352  -5.084  1.00  0.00     0.060 C 
HETATM    5  C11 UNL     1     -10.590  -6.114  -5.895  1.00  0.00    -0.029 C 
HETATM    6  C12 UNL     1     -11.893  -6.372  -5.102  1.00  0.00     0.016 C 
HETATM    7  C13 UNL     1     -10.550  -7.058  -7.123  1.00  0.00     0.011 C 
HETATM    8  C14 UNL     1      -9.624  -8.279  -6.961  1.00  0.00     0.009 C 
HETATM    9  C15 UNL     1      -9.584  -8.856  -5.526  1.00  0.00     0.029 C 
HETATM   10  C16 UNL     1      -8.814 -10.243  -5.427  1.00  0.00    -0.031 C 
HETATM   11  C17 UNL     1      -9.849 -11.334  -5.846  1.00  0.00     0.016 C 
HETATM   12  C18 UNL     1      -7.596 -10.349  -6.388  1.00  0.00     0.012 C 
HETATM   13  C19 UNL     1      -6.840 -11.675  -6.280  1.00  0.00     0.032 C 
HETATM   14  C20 UNL     1      -6.422 -12.007  -4.854  1.00  0.00     0.118 C 
HETATM   15  C21 UNL     1      -7.569 -11.862  -3.851  1.00  0.00     0.039 C 
HETATM   16  C22 UNL     1      -8.337 -10.527  -3.965  1.00  0.00     0.025 C 
HETATM   17  C23 UNL     1      -7.572  -9.353  -3.294  1.00  0.00     0.126 C 
HETATM   18  C24 UNL     1      -7.741  -7.999  -3.975  1.00  0.00     0.071 C 
HETATM   19  C25 UNL     1      -9.160  -7.774  -4.483  1.00  0.00     0.071 C 
ENDROOT
BRANCH   1  20
HETATM   20  C5  UNL     1     -11.629  -3.806  -6.844  1.00  0.00    -0.011 C 
HETATM   21  C6  UNL     1     -11.767  -4.007  -8.358  1.00  0.00     0.010 C 
BRANCH  20  22
HETATM   22  C4  UNL     1     -11.484  -2.287  -6.539  1.00  0.00     0.009 C 
BRANCH  22  23
HETATM   23  C3  UNL     1     -10.151  -1.688  -7.020  1.00  0.00     0.034 C 
BRANCH  23  24
HETATM   24  C2  UNL     1      -9.448  -0.707  -6.085  1.00  0.00    -0.083 C 
HETATM   25  C1  UNL     1     -10.078  -0.069  -5.080  1.00  0.00     0.015 C 
BRANCH  24  26
HETATM   26  C26 UNL     1      -7.946  -0.537  -6.375  1.00  0.00     0.033 C 
HETATM   27  C27 UNL     1      -7.609   0.454  -7.501  1.00  0.00     0.017 C 
BRANCH  26  28
HETATM   28  C28 UNL     1      -7.236  -1.886  -6.630  1.00  0.00     0.172 C 
BRANCH  28  29
HETATM   29  O6  UNL     1      -6.032  -2.031  -5.885  1.00  0.00    -0.400 OA
HETATM   30  H48 UNL     1      -6.218  -1.794  -4.962  1.00  0.00     0.209 HD
ENDBRANCH  28  29
ENDBRANCH  26  28
ENDBRANCH  24  26
ENDBRANCH  23  24
ENDBRANCH  22  23
ENDBRANCH  20  22
ENDBRANCH   1  20
BRANCH   2  31
HETATM   31  O1  UNL     1     -10.882  -3.458  -4.049  1.00  0.00    -0.393 OA
HETATM   32  H13 UNL     1     -11.221  -2.636  -4.446  1.00  0.00     0.210 HD
ENDBRANCH   2  31
BRANCH   3  33
HETATM   33  O2  UNL     1      -9.754  -5.377  -2.882  1.00  0.00    -0.392 OA
HETATM   34  H15 UNL     1     -10.411  -4.650  -2.782  1.00  0.00     0.210 HD
ENDBRANCH   3  33
BRANCH  19  35
HETATM   35  O5  UNL     1     -10.025  -7.926  -3.349  1.00  0.00    -0.389 OA
HETATM   36  H41 UNL     1     -10.008  -7.071  -2.860  1.00  0.00     0.210 HD
ENDBRANCH  19  35
BRANCH  17  37
HETATM   37  O4  UNL     1      -6.171  -9.598  -3.181  1.00  0.00    -0.395 OA
HETATM   38  H38 UNL     1      -5.806  -8.913  -2.594  1.00  0.00     0.210 HD
ENDBRANCH  17  37
BRANCH  14  39
HETATM   39  O3  UNL     1      -5.946 -13.354  -4.828  1.00  0.00    -0.396 OA
HETATM   40  H33 UNL     1      -5.631 -13.520  -3.922  1.00  0.00     0.210 HD
ENDBRANCH  14  39
TORSDOF 12
ENDMDL
MODEL 4
REMARK minimizedAffinity -7.22891808
REMARK CNNscore 0.540785551
REMARK CNNaffinity 6.14574814
REMARK  12 active torsions:
REMARK  status: ('A' for Active; 'I' for Inactive)
REMARK    1  A    between atoms: C2_2  and  C3_3 
REMARK    2  A    between atoms: C2_2  and  C26_31 
REMARK    3  A    between atoms: C3_3  and  C4_4 
REMARK    4  A    between atoms: C4_4  and  C5_5 
REMARK    5  A    between atoms: C5_5  and  C7_7 
REMARK    6  A    between atoms: C8_8  and  O1_9 
REMARK    7  A    between atoms: C9_10  and  O2_11 
REMARK    8  A    between atoms: C20_22  and  O3_23 
REMARK    9  A    between atoms: C23_26  and  O4_27 
REMARK   10  A    between atoms: C25_29  and  O5_30 
REMARK   11  A    between atoms: C26_31  and  C28_33 
REMARK   12  A    between atoms: C28_33  and  O6_34 
ROOT
HETATM    1  C7  UNL     1      -1.481  10.400  15.788  1.00  0.00     0.029 C 
HETATM    2  C8  UNL     1      -0.145  10.532  16.587  1.00  0.00     0.152 C 
HETATM    3  C9  UNL     1       0.916   9.705  15.818  1.00  0.00     0.155 C 
HETATM    4  C10 UNL     1       0.182   9.162  14.589  1.00  0.00     0.060 C 
HETATM    5  C11 UNL     1      -1.306   9.040  15.022  1.00  0.00    -0.029 C 
HETATM    6  C12 UNL     1      -1.607   7.835  15.944  1.00  0.00     0.016 C 
HETATM    7  C13 UNL     1      -2.154   8.914  13.732  1.00  0.00     0.011 C 
HETATM    8  C14 UNL     1      -1.375   8.411  12.501  1.00  0.00     0.009 C 
HETATM    9  C15 UNL     1      -0.284   7.364  12.828  1.00  0.00     0.029 C 
HETATM   10  C16 UNL     1       0.346   6.688  11.536  1.00  0.00    -0.031 C 
HETATM   11  C17 UNL     1      -0.639   5.546  11.129  1.00  0.00     0.016 C 
HETATM   12  C18 UNL     1       0.475   7.657  10.326  1.00  0.00     0.012 C 
HETATM   13  C19 UNL     1       1.102   7.014   9.086  1.00  0.00     0.032 C 
HETATM   14  C20 UNL     1       2.438   6.344   9.374  1.00  0.00     0.118 C 
HETATM   15  C21 UNL     1       2.386   5.420  10.594  1.00  0.00     0.039 C 
HETATM   16  C22 UNL     1       1.748   6.066  11.843  1.00  0.00     0.025 C 
HETATM   17  C23 UNL     1       2.731   7.018  12.578  1.00  0.00     0.126 C 
HETATM   18  C24 UNL     1       2.085   8.235  13.231  1.00  0.00     0.071 C 
HETATM   19  C25 UNL     1       0.742   7.910  13.872  1.00  0.00     0.071 C 
ENDROOT
BRANCH   1  20
HETATM   20  C5  UNL     1      -2.764  10.639  16.642  1.00  0.00    -0.011 C 
HETATM   21  C6  UNL     1      -4.045  10.655  15.799  1.00  0.00     0.010 C 
BRANCH  20  22
HETATM   22  C4  UNL     1      -2.644  11.981  17.421  1.00  0.00     0.009 C 
BRANCH  22  23
HETATM   23  C3  UNL     1      -3.509  12.032  18.693  1.00  0.00     0.034 C 
BRANCH  23  24
HETATM   24  C2  UNL     1      -4.372  13.274  18.901  1.00  0.00    -0.083 C 
HETATM   25  C1  UNL     1      -4.840  13.652  20.106  1.00  0.00     0.015 C 
BRANCH  24  26
HETATM   26  C26 UNL     1      -4.633  14.074  17.612  1.00  0.00     0.033 C 
HETATM   27  C27 UNL     1      -4.714  15.598  17.798  1.00  0.00     0.017 C 
BRANCH  26  28
HETATM   28  C28 UNL     1      -5.874  13.569  16.843  1.00  0.00     0.172 C 
BRANCH  28  29
HETATM   29  O6  UNL     1      -5.786  13.786  15.439  1.00  0.00    -0.400 OA
HETATM   30  H48 UNL     1      -4.917  13.469  15.139  1.00  0.00     0.209 HD
ENDBRANCH  28  29
ENDBRANCH  26  28
ENDBRANCH  24  26
ENDBRANCH  23  24
ENDBRANCH  22  23
ENDBRANCH  20  22
ENDBRANCH   1  20
BRANCH   2  31
HETATM   31  O1  UNL     1      -0.219  10.022  17.921  1.00  0.00    -0.393 OA
HETATM   32  H13 UNL     1      -0.760  10.634  18.451  1.00  0.00     0.210 HD
ENDBRANCH   2  31
BRANCH   3  33
HETATM   33  O2  UNL     1       1.450   8.657  16.628  1.00  0.00    -0.392 OA
HETATM   34  H15 UNL     1       1.058   8.816  17.518  1.00  0.00     0.210 HD
ENDBRANCH   3  33
BRANCH  19  35
HETATM   35  O5  UNL     1       0.985   6.851  14.809  1.00  0.00    -0.389 OA
HETATM   36  H41 UNL     1       1.334   7.271  15.629  1.00  0.00     0.210 HD
ENDBRANCH  19  35
BRANCH  17  37
HETATM   37  O4  UNL     1       3.775   7.496  11.730  1.00  0.00    -0.395 OA
HETATM   38  H38 UNL     1       4.436   7.924  12.302  1.00  0.00     0.210 HD
ENDBRANCH  17  37
BRANCH  14  39
HETATM   39  O3  UNL     1       2.814   5.581   8.226  1.00  0.00    -0.396 OA
HETATM   40  H33 UNL     1       3.695   5.213   8.414  1.00  0.00     0.210 HD
ENDBRANCH  14  39
TORSDOF 12
ENDMDL
MODEL 5
REMARK minimizedAffinity -7.41120958
REMARK CNNscore 0.518638194
REMARK CNNaffinity 6.10564566
REMARK  12 active torsions:
REMARK  status: ('A' for Active; 'I' for Inactive)
REMARK    1  A    between atoms: C2_2  and  C3_3 
REMARK    2  A    between atoms: C2_2  and  C26_31 
REMARK    3  A    between atoms: C3_3  and  C4_4 
REMARK    4  A    between atoms: C4_4  and  C5_5 
REMARK    5  A    between atoms: C5_5  and  C7_7 
REMARK    6  A    between atoms: C8_8  and  O1_9 
REMARK    7  A    between atoms: C9_10  and  O2_11 
REMARK    8  A    between atoms: C20_22  and  O3_23 
REMARK    9  A    between atoms: C23_26  and  O4_27 
REMARK   10  A    between atoms: C25_29  and  O5_30 
REMARK   11  A    between atoms: C26_31  and  C28_33 
REMARK   12  A    between atoms: C28_33  and  O6_34 
ROOT
HETATM    1  C7  UNL     1      -2.330  10.473  14.611  1.00  0.00     0.029 C 
HETATM    2  C8  UNL     1      -1.182   9.729  13.854  1.00  0.00     0.152 C 
HETATM    3  C9  UNL     1      -1.729   8.326  13.486  1.00  0.00     0.155 C 
HETATM    4  C10 UNL     1      -3.172   8.317  13.996  1.00  0.00     0.060 C 
HETATM    5  C11 UNL     1      -3.187   9.298  15.202  1.00  0.00    -0.029 C 
HETATM    6  C12 UNL     1      -2.549   8.734  16.493  1.00  0.00     0.016 C 
HETATM    7  C13 UNL     1      -4.666   9.660  15.485  1.00  0.00     0.011 C 
HETATM    8  C14 UNL     1      -5.689   8.638  14.952  1.00  0.00     0.009 C 
HETATM    9  C15 UNL     1      -5.212   7.168  15.030  1.00  0.00     0.029 C 
HETATM   10  C16 UNL     1      -6.356   6.117  14.698  1.00  0.00    -0.031 C 
HETATM   11  C17 UNL     1      -7.164   5.934  16.021  1.00  0.00     0.016 C 
HETATM   12  C18 UNL     1      -7.346   6.601  13.599  1.00  0.00     0.012 C 
HETATM   13  C19 UNL     1      -8.437   5.581  13.262  1.00  0.00     0.032 C 
HETATM   14  C20 UNL     1      -7.881   4.209  12.908  1.00  0.00     0.118 C 
HETATM   15  C21 UNL     1      -6.853   3.706  13.925  1.00  0.00     0.039 C 
HETATM   16  C22 UNL     1      -5.757   4.737  14.271  1.00  0.00     0.025 C 
HETATM   17  C23 UNL     1      -4.661   4.818  13.173  1.00  0.00     0.126 C 
HETATM   18  C24 UNL     1      -4.060   6.203  12.963  1.00  0.00     0.071 C 
HETATM   19  C25 UNL     1      -3.863   6.959  14.270  1.00  0.00     0.071 C 
ENDROOT
BRANCH   1  20
HETATM   20  C5  UNL     1      -1.840  11.615  15.553  1.00  0.00    -0.011 C 
HETATM   21  C6  UNL     1      -2.957  12.166  16.448  1.00  0.00     0.010 C 
BRANCH  20  22
HETATM   22  C4  UNL     1      -1.233  12.776  14.714  1.00  0.00     0.009 C 
BRANCH  22  23
HETATM   23  C3  UNL     1      -2.293  13.697  14.083  1.00  0.00     0.034 C 
BRANCH  23  24
HETATM   24  C2  UNL     1      -1.838  15.085  13.641  1.00  0.00    -0.083 C 
HETATM   25  C1  UNL     1      -0.764  15.292  12.853  1.00  0.00     0.015 C 
BRANCH  24  26
HETATM   26  C26 UNL     1      -2.735  16.227  14.151  1.00  0.00     0.033 C 
HETATM   27  C27 UNL     1      -4.212  15.849  14.358  1.00  0.00     0.017 C 
BRANCH  26  28
HETATM   28  C28 UNL     1      -2.633  17.496  13.276  1.00  0.00     0.172 C 
BRANCH  28  29
HETATM   29  O6  UNL     1      -3.533  17.487  12.173  1.00  0.00    -0.400 OA
HETATM   30  H48 UNL     1      -4.414  17.246  12.505  1.00  0.00     0.209 HD
ENDBRANCH  28  29
ENDBRANCH  26  28
ENDBRANCH  24  26
ENDBRANCH  23  24
ENDBRANCH  22  23
ENDBRANCH  20  22
ENDBRANCH   1  20
BRANCH   2  31
HETATM   31  O1  UNL     1       0.001   9.550  14.637  1.00  0.00    -0.393 OA
HETATM   32  H13 UNL     1       0.436  10.416  14.734  1.00  0.00     0.210 HD
ENDBRANCH   2  31
BRANCH   3  33
HETATM   33  O2  UNL     1      -0.946   7.289  14.078  1.00  0.00    -0.392 OA
HETATM   34  H15 UNL     1      -0.186   7.764  14.490  1.00  0.00     0.210 HD
ENDBRANCH   3  33
BRANCH  19  35
HETATM   35  O5  UNL     1      -3.042   6.127  15.100  1.00  0.00    -0.389 OA
HETATM   36  H41 UNL     1      -2.110   6.271  14.816  1.00  0.00     0.210 HD
ENDBRANCH  19  35
BRANCH  17  37
HETATM   37  O4  UNL     1      -5.118   4.356  11.902  1.00  0.00    -0.395 OA
HETATM   38  H38 UNL     1      -4.335   4.267  11.331  1.00  0.00     0.210 HD
ENDBRANCH  17  37
BRANCH  14  39
HETATM   39  O3  UNL     1      -8.969   3.285  12.846  1.00  0.00    -0.396 OA
HETATM   40  H33 UNL     1      -8.595   2.434  12.561  1.00  0.00     0.210 HD
ENDBRANCH  14  39
TORSDOF 12
ENDMDL
MODEL 6
REMARK minimizedAffinity -8.03905296
REMARK CNNscore 0.491020292
REMARK CNNaffinity 5.67836237
REMARK  12 active torsions:
REMARK  status: ('A' for Active; 'I' for Inactive)
REMARK    1  A    between atoms: C2_2  and  C3_3 
REMARK    2  A    between atoms: C2_2  and  C26_31 
REMARK    3  A    between atoms: C3_3  and  C4_4 
REMARK    4  A    between atoms: C4_4  and  C5_5 
REMARK    5  A    between atoms: C5_5  and  C7_7 
REMARK    6  A    between atoms: C8_8  and  O1_9 
REMARK    7  A    between atoms: C9_10  and  O2_11 
REMARK    8  A    between atoms: C20_22  and  O3_23 
REMARK    9  A    between atoms: C23_26  and  O4_27 
REMARK   10  A    between atoms: C25_29  and  O5_30 
REMARK   11  A    between atoms: C26_31  and  C28_33 
REMARK   12  A    between atoms: C28_33  and  O6_34 
ROOT
HETATM    1  C7  UNL     1       6.849   9.024  13.578  1.00  0.00     0.029 C 
HETATM    2  C8  UNL     1       6.068   8.444  14.801  1.00  0.00     0.152 C 
HETATM    3  C9  UNL     1       6.810   8.929  16.072  1.00  0.00     0.155 C 
HETATM    4  C10 UNL     1       7.957   9.800  15.554  1.00  0.00     0.060 C 
HETATM    5  C11 UNL     1       8.298   9.234  14.147  1.00  0.00    -0.029 C 
HETATM    6  C12 UNL     1       9.090   7.905  14.166  1.00  0.00     0.016 C 
HETATM    7  C13 UNL     1       9.131  10.309  13.405  1.00  0.00     0.011 C 
HETATM    8  C14 UNL     1       9.839  11.319  14.329  1.00  0.00     0.009 C 
HETATM    9  C15 UNL     1      10.347  10.711  15.658  1.00  0.00     0.029 C 
HETATM   10  C16 UNL     1      11.272  11.701  16.489  1.00  0.00    -0.031 C 
HETATM   11  C17 UNL     1      12.700  11.567  15.873  1.00  0.00     0.016 C 
HETATM   12  C18 UNL     1      10.844  13.192  16.380  1.00  0.00     0.012 C 
HETATM   13  C19 UNL     1      11.720  14.146  17.196  1.00  0.00     0.032 C 
HETATM   14  C20 UNL     1      11.845  13.735  18.657  1.00  0.00     0.118 C 
HETATM   15  C21 UNL     1      12.207  12.258  18.829  1.00  0.00     0.039 C 
HETATM   16  C22 UNL     1      11.328  11.296  17.999  1.00  0.00     0.025 C 
HETATM   17  C23 UNL     1       9.941  11.055  18.657  1.00  0.00     0.126 C 
HETATM   18  C24 UNL     1       8.788  10.858  17.679  1.00  0.00     0.071 C 
HETATM   19  C25 UNL     1       9.190  10.036  16.461  1.00  0.00     0.071 C 
ENDROOT
BRANCH   1  20
HETATM   20  C5  UNL     1       6.654   8.222  12.255  1.00  0.00    -0.011 C 
HETATM   21  C6  UNL     1       6.891   9.075  11.003  1.00  0.00     0.010 C 
BRANCH  20  22
HETATM   22  C4  UNL     1       5.219   7.621  12.202  1.00  0.00     0.009 C 
BRANCH  22  23
HETATM   23  C3  UNL     1       5.010   6.630  11.042  1.00  0.00     0.034 C 
BRANCH  23  24
HETATM   24  C2  UNL     1       3.900   6.949  10.044  1.00  0.00    -0.083 C 
HETATM   25  C1  UNL     1       3.782   8.142   9.430  1.00  0.00     0.015 C 
BRANCH  24  26
HETATM   26  C26 UNL     1       2.945   5.771   9.779  1.00  0.00     0.033 C 
HETATM   27  C27 UNL     1       1.979   5.445  10.930  1.00  0.00     0.017 C 
BRANCH  26  28
HETATM   28  C28 UNL     1       3.691   4.491   9.338  1.00  0.00     0.172 C 
BRANCH  28  29
HETATM   29  O6  UNL     1       3.171   3.309   9.936  1.00  0.00    -0.400 OA
HETATM   30  H48 UNL     1       2.205   3.319   9.832  1.00  0.00     0.209 HD
ENDBRANCH  28  29
ENDBRANCH  26  28
ENDBRANCH  24  26
ENDBRANCH  23  24
ENDBRANCH  22  23
ENDBRANCH  20  22
ENDBRANCH   1  20
BRANCH   2  31
HETATM   31  O1  UNL     1       6.027   7.015  14.832  1.00  0.00    -0.393 OA
HETATM   32  H13 UNL     1       5.428   6.712  14.127  1.00  0.00     0.210 HD
ENDBRANCH   2  31
BRANCH   3  33
HETATM   33  O2  UNL     1       7.282   7.830  16.852  1.00  0.00    -0.392 OA
HETATM   34  H15 UNL     1       6.906   7.036  16.405  1.00  0.00     0.210 HD
ENDBRANCH   3  33
BRANCH  19  35
HETATM   35  O5  UNL     1       9.700   8.793  16.962  1.00  0.00    -0.389 OA
HETATM   36  H41 UNL     1       8.922   8.221  17.156  1.00  0.00     0.210 HD
ENDBRANCH  19  35
BRANCH  17  37
HETATM   37  O4  UNL     1       9.564  12.102  19.551  1.00  0.00    -0.395 OA
HETATM   38  H38 UNL     1       8.790  11.788  20.050  1.00  0.00     0.210 HD
ENDBRANCH  17  37
BRANCH  14  39
HETATM   39  O3  UNL     1      12.859  14.538  19.264  1.00  0.00    -0.396 OA
HETATM   40  H33 UNL     1      12.876  14.298  20.207  1.00  0.00     0.210 HD
ENDBRANCH  14  39
TORSDOF 12
ENDMDL
MODEL 7
REMARK minimizedAffinity -7.94397593
REMARK CNNscore 0.489379883
REMARK CNNaffinity 5.95804644
REMARK  12 active torsions:
REMARK  status: ('A' for Active; 'I' for Inactive)
REMARK    1  A    between atoms: C2_2  and  C3_3 
REMARK    2  A    between atoms: C2_2  and  C26_31 
REMARK    3  A    between atoms: C3_3  and  C4_4 
REMARK    4  A    between atoms: C4_4  and  C5_5 
REMARK    5  A    between atoms: C5_5  and  C7_7 
REMARK    6  A    between atoms: C8_8  and  O1_9 
REMARK    7  A    between atoms: C9_10  and  O2_11 
REMARK    8  A    between atoms: C20_22  and  O3_23 
REMARK    9  A    between atoms: C23_26  and  O4_27 
REMARK   10  A    between atoms: C25_29  and  O5_30 
REMARK   11  A    between atoms: C26_31  and  C28_33 
REMARK   12  A    between atoms: C28_33  and  O6_34 
ROOT
HETATM    1  C7  UNL     1      -2.023  10.172  15.057  1.00  0.00     0.029 C 
HETATM    2  C8  UNL     1      -0.899   9.401  14.292  1.00  0.00     0.152 C 
HETATM    3  C9  UNL     1      -1.514   8.053  13.839  1.00  0.00     0.155 C 
HETATM    4  C10 UNL     1      -2.969   8.102  14.311  1.00  0.00     0.060 C 
HETATM    5  C11 UNL     1      -2.962   9.020  15.565  1.00  0.00    -0.029 C 
HETATM    6  C12 UNL     1      -2.393   8.356  16.841  1.00  0.00     0.016 C 
HETATM    7  C13 UNL     1      -4.426   9.453  15.830  1.00  0.00     0.011 C 
HETATM    8  C14 UNL     1      -5.490   8.520  15.219  1.00  0.00     0.009 C 
HETATM    9  C15 UNL     1      -5.099   7.023  15.233  1.00  0.00     0.029 C 
HETATM   10  C16 UNL     1      -6.291   6.058  14.819  1.00  0.00    -0.031 C 
HETATM   11  C17 UNL     1      -7.145   5.856  16.111  1.00  0.00     0.016 C 
HETATM   12  C18 UNL     1      -7.221   6.652  13.722  1.00  0.00     0.012 C 
HETATM   13  C19 UNL     1      -8.358   5.717  13.306  1.00  0.00     0.032 C 
HETATM   14  C20 UNL     1      -7.871   4.334  12.895  1.00  0.00     0.118 C 
HETATM   15  C21 UNL     1      -6.902   3.721  13.910  1.00  0.00     0.039 C 
HETATM   16  C22 UNL     1      -5.759   4.668  14.337  1.00  0.00     0.025 C 
HETATM   17  C23 UNL     1      -4.631   4.741  13.272  1.00  0.00     0.126 C 
HETATM   18  C24 UNL     1      -3.946   6.097  13.148  1.00  0.00     0.071 C 
HETATM   19  C25 UNL     1      -3.743   6.774  14.497  1.00  0.00     0.071 C 
ENDROOT
BRANCH   1  20
HETATM   20  C5  UNL     1      -1.496  11.235  16.069  1.00  0.00    -0.011 C 
HETATM   21  C6  UNL     1      -0.657  12.329  15.398  1.00  0.00     0.010 C 
BRANCH  20  22
HETATM   22  C4  UNL     1      -0.648  10.543  17.176  1.00  0.00     0.009 C 
BRANCH  22  23
HETATM   23  C3  UNL     1      -1.082  10.915  18.605  1.00  0.00     0.034 C 
BRANCH  23  24
HETATM   24  C2  UNL     1      -0.553  12.229  19.175  1.00  0.00    -0.083 C 
HETATM   25  C1  UNL     1      -1.233  13.389  19.103  1.00  0.00     0.015 C 
BRANCH  24  26
HETATM   26  C26 UNL     1       0.815  12.100  19.869  1.00  0.00     0.033 C 
HETATM   27  C27 UNL     1       2.023  12.502  19.005  1.00  0.00     0.017 C 
BRANCH  26  28
HETATM   28  C28 UNL     1       1.043  10.696  20.473  1.00  0.00     0.172 C 
BRANCH  28  29
HETATM   29  O6  UNL     1       2.077   9.969  19.819  1.00  0.00    -0.400 OA
HETATM   30  H48 UNL     1       2.851  10.550  19.740  1.00  0.00     0.209 HD
ENDBRANCH  28  29
ENDBRANCH  26  28
ENDBRANCH  24  26
ENDBRANCH  23  24
ENDBRANCH  22  23
ENDBRANCH  20  22
ENDBRANCH   1  20
BRANCH   2  31
HETATM   31  O1  UNL     1       0.250   9.115  15.094  1.00  0.00    -0.393 OA
HETATM   32  H13 UNL     1       0.730   9.948  15.246  1.00  0.00     0.210 HD
ENDBRANCH   2  31
BRANCH   3  33
HETATM   33  O2  UNL     1      -0.808   6.944  14.396  1.00  0.00    -0.392 OA
HETATM   34  H15 UNL     1      -0.034   7.352  14.850  1.00  0.00     0.210 HD
ENDBRANCH   3  33
BRANCH  19  35
HETATM   35  O5  UNL     1      -2.994   5.855  15.304  1.00  0.00    -0.389 OA
HETATM   36  H41 UNL     1      -2.048   5.960  15.051  1.00  0.00     0.210 HD
ENDBRANCH  19  35
BRANCH  17  37
HETATM   37  O4  UNL     1      -5.077   4.371  11.967  1.00  0.00    -0.395 OA
HETATM   38  H38 UNL     1      -4.285   4.265  11.412  1.00  0.00     0.210 HD
ENDBRANCH  17  37
BRANCH  14  39
HETATM   39  O3  UNL     1      -9.008   3.479  12.759  1.00  0.00    -0.396 OA
HETATM   40  H33 UNL     1      -8.674   2.623  12.439  1.00  0.00     0.210 HD
ENDBRANCH  14  39
TORSDOF 12
ENDMDL
MODEL 8
REMARK minimizedAffinity -8.3852911
REMARK CNNscore 0.455940545
REMARK CNNaffinity 6.11662626
REMARK  12 active torsions:
REMARK  status: ('A' for Active; 'I' for Inactive)
REMARK    1  A    between atoms: C2_2  and  C3_3 
REMARK    2  A    between atoms: C2_2  and  C26_31 
REMARK    3  A    between atoms: C3_3  and  C4_4 
REMARK    4  A    between atoms: C4_4  and  C5_5 
REMARK    5  A    between atoms: C5_5  and  C7_7 
REMARK    6  A    between atoms: C8_8  and  O1_9 
REMARK    7  A    between atoms: C9_10  and  O2_11 
REMARK    8  A    between atoms: C20_22  and  O3_23 
REMARK    9  A    between atoms: C23_26  and  O4_27 
REMARK   10  A    between atoms: C25_29  and  O5_30 
REMARK   11  A    between atoms: C26_31  and  C28_33 
REMARK   12  A    between atoms: C28_33  and  O6_34 
ROOT
HETATM    1  C7  UNL     1      -3.533   6.851  14.489  1.00  0.00     0.029 C 
HETATM    2  C8  UNL     1      -2.320   6.006  13.984  1.00  0.00     0.152 C 
HETATM    3  C9  UNL     1      -1.041   6.714  14.499  1.00  0.00     0.155 C 
HETATM    4  C10 UNL     1      -1.548   7.907  15.313  1.00  0.00     0.060 C 
HETATM    5  C11 UNL     1      -2.916   8.283  14.679  1.00  0.00    -0.029 C 
HETATM    6  C12 UNL     1      -2.813   9.032  13.329  1.00  0.00     0.016 C 
HETATM    7  C13 UNL     1      -3.667   9.178  15.697  1.00  0.00     0.011 C 
HETATM    8  C14 UNL     1      -2.758   9.881  16.723  1.00  0.00     0.009 C 
HETATM    9  C15 UNL     1      -1.386  10.318  16.156  1.00  0.00     0.029 C 
HETATM   10  C16 UNL     1      -0.560  11.241  17.151  1.00  0.00    -0.031 C 
HETATM   11  C17 UNL     1      -1.114  12.687  16.949  1.00  0.00     0.016 C 
HETATM   12  C18 UNL     1      -0.746  10.865  18.649  1.00  0.00     0.012 C 
HETATM   13  C19 UNL     1       0.065  11.739  19.609  1.00  0.00     0.032 C 
HETATM   14  C20 UNL     1       1.545  11.795  19.256  1.00  0.00     0.118 C 
HETATM   15  C21 UNL     1       1.790  12.103  17.776  1.00  0.00     0.039 C 
HETATM   16  C22 UNL     1       0.966  11.227  16.808  1.00  0.00     0.025 C 
HETATM   17  C23 UNL     1       1.577   9.809  16.636  1.00  0.00     0.126 C 
HETATM   18  C24 UNL     1       0.564   8.689  16.433  1.00  0.00     0.071 C 
HETATM   19  C25 UNL     1      -0.603   9.111  15.549  1.00  0.00     0.071 C 
ENDROOT
BRANCH   1  20
HETATM   20  C5  UNL     1      -4.830   6.682  13.639  1.00  0.00    -0.011 C 
HETATM   21  C6  UNL     1      -5.939   7.660  14.045  1.00  0.00     0.010 C 
BRANCH  20  22
HETATM   22  C4  UNL     1      -5.361   5.224  13.762  1.00  0.00     0.009 C 
BRANCH  22  23
HETATM   23  C3  UNL     1      -6.211   4.777  12.558  1.00  0.00     0.034 C 
BRANCH  23  24
HETATM   24  C2  UNL     1      -6.528   3.288  12.443  1.00  0.00    -0.083 C 
HETATM   25  C1  UNL     1      -7.499   2.685  13.156  1.00  0.00     0.015 C 
BRANCH  24  26
HETATM   26  C26 UNL     1      -5.659   2.544  11.414  1.00  0.00     0.033 C 
HETATM   27  C27 UNL     1      -6.094   1.098  11.119  1.00  0.00     0.017 C 
BRANCH  26  28
HETATM   28  C28 UNL     1      -4.156   2.579  11.772  1.00  0.00     0.172 C 
BRANCH  28  29
HETATM   29  O6  UNL     1      -3.467   1.390  11.401  1.00  0.00    -0.400 OA
HETATM   30  H48 UNL     1      -3.700   1.181  10.482  1.00  0.00     0.209 HD
ENDBRANCH  28  29
ENDBRANCH  26  28
ENDBRANCH  24  26
ENDBRANCH  23  24
ENDBRANCH  22  23
ENDBRANCH  20  22
ENDBRANCH   1  20
BRANCH   2  31
HETATM   31  O1  UNL     1      -2.233   5.919  12.559  1.00  0.00    -0.393 OA
HETATM   32  H13 UNL     1      -2.948   5.338  12.246  1.00  0.00     0.210 HD
ENDBRANCH   2  31
BRANCH   3  33
HETATM   33  O2  UNL     1      -0.199   7.121  13.419  1.00  0.00    -0.392 OA
HETATM   34  H15 UNL     1      -0.628   6.737  12.619  1.00  0.00     0.210 HD
ENDBRANCH   3  33
BRANCH  19  35
HETATM   35  O5  UNL     1      -0.033   9.562  14.313  1.00  0.00    -0.389 OA
HETATM   36  H41 UNL     1       0.153   8.759  13.774  1.00  0.00     0.210 HD
ENDBRANCH  19  35
BRANCH  17  37
HETATM   37  O4  UNL     1       2.413   9.431  17.730  1.00  0.00    -0.395 OA
HETATM   38  H38 UNL     1       2.893   8.629  17.460  1.00  0.00     0.210 HD
ENDBRANCH  17  37
BRANCH  14  39
HETATM   39  O3  UNL     1       2.159  12.810  20.053  1.00  0.00    -0.396 OA
HETATM   40  H33 UNL     1       3.110  12.783  19.851  1.00  0.00     0.210 HD
ENDBRANCH  14  39
TORSDOF 12
ENDMDL
MODEL 9
REMARK minimizedAffinity -6.81132221
REMARK CNNscore 0.443152696
REMARK CNNaffinity 6.2845149
REMARK  12 active torsions:
REMARK  status: ('A' for Active; 'I' for Inactive)
REMARK    1  A    between atoms: C2_2  and  C3_3 
REMARK    2  A    between atoms: C2_2  and  C26_31 
REMARK    3  A    between atoms: C3_3  and  C4_4 
REMARK    4  A    between atoms: C4_4  and  C5_5 
REMARK    5  A    between atoms: C5_5  and  C7_7 
REMARK    6  A    between atoms: C8_8  and  O1_9 
REMARK    7  A    between atoms: C9_10  and  O2_11 
REMARK    8  A    between atoms: C20_22  and  O3_23 
REMARK    9  A    between atoms: C23_26  and  O4_27 
REMARK   10  A    between atoms: C25_29  and  O5_30 
REMARK   11  A    between atoms: C26_31  and  C28_33 
REMARK   12  A    between atoms: C28_33  and  O6_34 
ROOT
HETATM    1  C7  UNL     1      -2.148  10.167  14.730  1.00  0.00     0.029 C 
HETATM    2  C8  UNL     1      -1.025   9.393  13.967  1.00  0.00     0.152 C 
HETATM    3  C9  UNL     1      -1.628   8.023  13.563  1.00  0.00     0.155 C 
HETATM    4  C10 UNL     1      -3.075   8.064  14.059  1.00  0.00     0.060 C 
HETATM    5  C11 UNL     1      -3.060   9.017  15.287  1.00  0.00    -0.029 C 
HETATM    6  C12 UNL     1      -2.459   8.398  16.571  1.00  0.00     0.016 C 
HETATM    7  C13 UNL     1      -4.525   9.435  15.566  1.00  0.00     0.011 C 
HETATM    8  C14 UNL     1      -5.585   8.469  15.001  1.00  0.00     0.009 C 
HETATM    9  C15 UNL     1      -5.171   6.979  15.050  1.00  0.00     0.029 C 
HETATM   10  C16 UNL     1      -6.356   5.986  14.684  1.00  0.00    -0.031 C 
HETATM   11  C17 UNL     1      -7.183   5.808  15.996  1.00  0.00     0.016 C 
HETATM   12  C18 UNL     1      -7.313   6.535  13.588  1.00  0.00     0.012 C 
HETATM   13  C19 UNL     1      -8.443   5.571  13.218  1.00  0.00     0.032 C 
HETATM   14  C20 UNL     1      -7.942   4.185  12.838  1.00  0.00     0.118 C 
HETATM   15  C21 UNL     1      -6.947   3.615  13.852  1.00  0.00     0.039 C 
HETATM   16  C22 UNL     1      -5.811   4.591  14.231  1.00  0.00     0.025 C 
HETATM   17  C23 UNL     1      -4.703   4.650  13.145  1.00  0.00     0.126 C 
HETATM   18  C24 UNL     1      -4.041   6.013  12.971  1.00  0.00     0.071 C 
HETATM   19  C25 UNL     1      -3.825   6.730  14.297  1.00  0.00     0.071 C 
ENDROOT
BRANCH   1  20
HETATM   20  C5  UNL     1      -1.619  11.266  15.703  1.00  0.00    -0.011 C 
HETATM   21  C6  UNL     1      -2.748  12.057  16.374  1.00  0.00     0.010 C 
BRANCH  20  22
HETATM   22  C4  UNL     1      -0.686  12.250  14.940  1.00  0.00     0.009 C 
BRANCH  22  23
HETATM   23  C3  UNL     1       0.605  12.592  15.706  1.00  0.00     0.034 C 
BRANCH  23  24
HETATM   24  C2  UNL     1       1.615  13.495  15.004  1.00  0.00    -0.083 C 
HETATM   25  C1  UNL     1       1.527  14.839  15.006  1.00  0.00     0.015 C 
BRANCH  24  26
HETATM   26  C26 UNL     1       2.764  12.731  14.320  1.00  0.00     0.033 C 
HETATM   27  C27 UNL     1       2.998  11.304  14.844  1.00  0.00     0.017 C 
BRANCH  26  28
HETATM   28  C28 UNL     1       4.091  13.522  14.333  1.00  0.00     0.172 C 
BRANCH  28  29
HETATM   29  O6  UNL     1       4.816  13.375  15.548  1.00  0.00    -0.400 OA
HETATM   30  H48 UNL     1       4.861  12.428  15.759  1.00  0.00     0.209 HD
ENDBRANCH  28  29
ENDBRANCH  26  28
ENDBRANCH  24  26
ENDBRANCH  23  24
ENDBRANCH  22  23
ENDBRANCH  20  22
ENDBRANCH   1  20
BRANCH   2  31
HETATM   31  O1  UNL     1       0.142   9.146  14.756  1.00  0.00    -0.393 OA
HETATM   32  H13 UNL     1       0.611   9.990  14.876  1.00  0.00     0.210 HD
ENDBRANCH   2  31
BRANCH   3  33
HETATM   33  O2  UNL     1      -0.895   6.940  14.138  1.00  0.00    -0.392 OA
HETATM   34  H15 UNL     1      -0.120   7.373  14.566  1.00  0.00     0.210 HD
ENDBRANCH   3  33
BRANCH  19  35
HETATM   35  O5  UNL     1      -3.048   5.846  15.115  1.00  0.00    -0.389 OA
HETATM   36  H41 UNL     1      -2.107   5.957  14.842  1.00  0.00     0.210 HD
ENDBRANCH  19  35
BRANCH  17  37
HETATM   37  O4  UNL     1      -5.166   4.237  11.859  1.00  0.00    -0.395 OA
HETATM   38  H38 UNL     1      -4.382   4.127  11.294  1.00  0.00     0.210 HD
ENDBRANCH  17  37
BRANCH  14  39
HETATM   39  O3  UNL     1      -9.068   3.309  12.746  1.00  0.00    -0.396 OA
HETATM   40  H33 UNL     1      -8.727   2.449  12.445  1.00  0.00     0.210 HD
ENDBRANCH  14  39
TORSDOF 12
ENDMDL
