MODEL 1
REMARK minimizedAffinity -9.46235466
REMARK  4 active torsions:
REMARK  status: ('A' for Active; 'I' for Inactive)
REMARK    1  A    between atoms: C4_4  and  C5_5 
REMARK    2  A    between atoms: C5_5  and  C6_6 
REMARK    3  A    between atoms: C6_6  and  C7_7 
REMARK    4  A    between atoms: C7_7  and  C9_9 
ROOT
HETATM    1  C9  UNL     1       0.213   7.078  10.247  1.00  0.00    -0.002 C 
HETATM    2  C10 UNL     1      -0.227   8.525  10.500  1.00  0.00     0.006 C 
HETATM    3  C11 UNL     1      -1.117   8.435  11.724  1.00  0.00     0.011 C 
HETATM    4  C12 UNL     1      -0.350   7.499  12.686  1.00  0.00    -0.032 C 
HETATM    5  C13 UNL     1       0.697   8.389  13.426  1.00  0.00     0.016 C 
HETATM    6  C14 UNL     1      -1.295   6.851  13.779  1.00  0.00     0.004 C 
HETATM    7  C15 UNL     1      -2.090   7.927  14.552  1.00  0.00     0.007 C 
HETATM    8  C16 UNL     1      -3.097   7.356  15.538  1.00  0.00     0.007 C 
HETATM    9  C17 UNL     1      -4.209   6.516  14.886  1.00  0.00     0.010 C 
HETATM   10  C18 UNL     1      -5.473   7.310  14.403  1.00  0.00     0.018 C 
HETATM   11  C19 UNL     1      -6.140   8.045  15.586  1.00  0.00     0.023 C 
HETATM   12  C20 UNL     1      -5.183   8.330  13.293  1.00  0.00     0.023 C 
HETATM   13  C21 UNL     1      -6.519   6.320  13.858  1.00  0.00     0.135 C 
HETATM   14  O1  UNL     1      -7.698   6.641  13.688  1.00  0.00    -0.297 OA
HETATM   15  C22 UNL     1      -6.072   4.915  13.549  1.00  0.00     0.080 C 
HETATM   16  C23 UNL     1      -4.710   4.969  12.888  1.00  0.00     0.018 C 
HETATM   17  C24 UNL     1      -3.654   5.566  13.809  1.00  0.00    -0.026 A 
HETATM   18  C25 UNL     1      -2.552   4.635  14.257  1.00  0.00     0.021 A 
HETATM   19  C26 UNL     1      -2.218   5.732  13.259  1.00  0.00    -0.027 A 
HETATM   20  C27 UNL     1      -1.885   5.225  11.872  1.00  0.00     0.011 C 
HETATM   21  C28 UNL     1      -0.380   5.079  11.728  1.00  0.00     0.011 C 
HETATM   22  C29 UNL     1       0.355   6.445  11.704  1.00  0.00    -0.032 C 
HETATM   23  C30 UNL     1       1.817   6.155  12.112  1.00  0.00     0.016 C 
ENDROOT
BRANCH   1  24
HETATM   24  C7  UNL     1       1.410   6.956   9.248  1.00  0.00    -0.014 C 
HETATM   25  C8  UNL     1       1.457   8.158   8.290  1.00  0.00     0.010 C 
BRANCH  24  26
HETATM   26  C6  UNL     1       2.770   6.833   9.992  1.00  0.00     0.008 C 
BRANCH  26  27
HETATM   27  C5  UNL     1       3.501   5.501   9.758  1.00  0.00     0.028 C 
BRANCH  27  28
HETATM   28  C4  UNL     1       3.324   5.037   8.336  1.00  0.00    -0.025 C 
HETATM   29  C2  UNL     1       3.945   4.022   7.704  1.00  0.00    -0.091 C 
HETATM   30  C1  UNL     1       3.620   3.711   6.264  1.00  0.00     0.042 C 
HETATM   31  C3  UNL     1       4.980   3.111   8.305  1.00  0.00     0.042 C 
ENDBRANCH  27  28
ENDBRANCH  26  27
ENDBRANCH  24  26
ENDBRANCH   1  24
TORSDOF 4
ENDMDL
MODEL 2
REMARK minimizedAffinity -9.09186935
REMARK  4 active torsions:
REMARK  status: ('A' for Active; 'I' for Inactive)
REMARK    1  A    between atoms: C4_4  and  C5_5 
REMARK    2  A    between atoms: C5_5  and  C6_6 
REMARK    3  A    between atoms: C6_6  and  C7_7 
REMARK    4  A    between atoms: C7_7  and  C9_9 
ROOT
HETATM    1  C9  UNL     1       0.004   7.416  11.521  1.00  0.00    -0.002 C 
HETATM    2  C10 UNL     1      -0.622   8.749  11.947  1.00  0.00     0.006 C 
HETATM    3  C11 UNL     1      -1.774   8.350  12.848  1.00  0.00     0.011 C 
HETATM    4  C12 UNL     1      -1.183   7.249  13.758  1.00  0.00    -0.032 C 
HETATM    5  C13 UNL     1      -0.441   7.986  14.917  1.00  0.00     0.016 C 
HETATM    6  C14 UNL     1      -2.301   6.334  14.403  1.00  0.00     0.004 C 
HETATM    7  C15 UNL     1      -3.362   7.174  15.150  1.00  0.00     0.007 C 
HETATM    8  C16 UNL     1      -4.523   6.356  15.694  1.00  0.00     0.007 C 
HETATM    9  C17 UNL     1      -5.353   5.644  14.611  1.00  0.00     0.010 C 
HETATM   10  C18 UNL     1      -6.528   6.478  13.992  1.00  0.00     0.018 C 
HETATM   11  C19 UNL     1      -7.534   6.899  15.086  1.00  0.00     0.023 C 
HETATM   12  C20 UNL     1      -6.072   7.735  13.236  1.00  0.00     0.023 C 
HETATM   13  C21 UNL     1      -7.308   5.599  12.996  1.00  0.00     0.135 C 
HETATM   14  O1  UNL     1      -8.433   5.905  12.594  1.00  0.00    -0.297 OA
HETATM   15  C22 UNL     1      -6.665   4.320  12.527  1.00  0.00     0.080 C 
HETATM   16  C23 UNL     1      -5.194   4.575  12.273  1.00  0.00     0.018 C 
HETATM   17  C24 UNL     1      -4.461   4.986  13.543  1.00  0.00    -0.026 A 
HETATM   18  C25 UNL     1      -3.420   4.020  14.059  1.00  0.00     0.021 A 
HETATM   19  C26 UNL     1      -2.956   5.328  13.437  1.00  0.00    -0.027 A 
HETATM   20  C27 UNL     1      -2.243   5.163  12.111  1.00  0.00     0.011 C 
HETATM   21  C28 UNL     1      -0.742   5.112  12.340  1.00  0.00     0.011 C 
HETATM   22  C29 UNL     1      -0.159   6.474  12.797  1.00  0.00    -0.032 C 
HETATM   23  C30 UNL     1       1.177   6.155  13.504  1.00  0.00     0.016 C 
ENDROOT
BRANCH   1  24
HETATM   24  C7  UNL     1       1.417   7.571  10.868  1.00  0.00    -0.014 C 
HETATM   25  C8  UNL     1       2.259   8.620  11.611  1.00  0.00     0.010 C 
BRANCH  24  26
HETATM   26  C6  UNL     1       2.185   6.219  10.834  1.00  0.00     0.008 C 
BRANCH  26  27
HETATM   27  C5  UNL     1       3.206   6.100   9.691  1.00  0.00     0.028 C 
BRANCH  27  28
HETATM   28  C4  UNL     1       2.526   6.222   8.353  1.00  0.00    -0.025 C 
HETATM   29  C2  UNL     1       2.427   7.307   7.560  1.00  0.00    -0.091 C 
HETATM   30  C1  UNL     1       1.702   7.221   6.241  1.00  0.00     0.042 C 
HETATM   31  C3  UNL     1       2.992   8.669   7.857  1.00  0.00     0.042 C 
ENDBRANCH  27  28
ENDBRANCH  26  27
ENDBRANCH  24  26
ENDBRANCH   1  24
TORSDOF 4
ENDMDL
MODEL 3
REMARK minimizedAffinity -8.82241726
REMARK  4 active torsions:
REMARK  status: ('A' for Active; 'I' for Inactive)
REMARK    1  A    between atoms: C4_4  and  C5_5 
REMARK    2  A    between atoms: C5_5  and  C6_6 
REMARK    3  A    between atoms: C6_6  and  C7_7 
REMARK    4  A    between atoms: C7_7  and  C9_9 
ROOT
HETATM    1  C9  UNL     1       0.877   6.929   9.907  1.00  0.00    -0.002 C 
HETATM    2  C10 UNL     1       0.411   8.389   9.954  1.00  0.00     0.006 C 
HETATM    3  C11 UNL     1      -0.460   8.463  11.192  1.00  0.00     0.011 C 
HETATM    4  C12 UNL     1       0.338   7.690  12.267  1.00  0.00    -0.032 C 
HETATM    5  C13 UNL     1       1.377   8.697  12.853  1.00  0.00     0.016 C 
HETATM    6  C14 UNL     1      -0.578   7.191  13.458  1.00  0.00     0.004 C 
HETATM    7  C15 UNL     1      -1.385   8.354  14.079  1.00  0.00     0.007 C 
HETATM    8  C16 UNL     1      -2.367   7.915  15.154  1.00  0.00     0.007 C 
HETATM    9  C17 UNL     1      -3.470   6.969  14.649  1.00  0.00     0.010 C 
HETATM   10  C18 UNL     1      -4.756   7.661  14.077  1.00  0.00     0.018 C 
HETATM   11  C19 UNL     1      -5.422   8.549  15.151  1.00  0.00     0.023 C 
HETATM   12  C20 UNL     1      -4.502   8.514  12.825  1.00  0.00     0.023 C 
HETATM   13  C21 UNL     1      -5.790   6.584  13.699  1.00  0.00     0.135 C 
HETATM   14  O1  UNL     1      -6.977   6.856  13.502  1.00  0.00    -0.297 OA
HETATM   15  C22 UNL     1      -5.318   5.158  13.589  1.00  0.00     0.080 C 
HETATM   16  C23 UNL     1      -3.967   5.139  12.905  1.00  0.00     0.018 C 
HETATM   17  C24 UNL     1      -2.911   5.882  13.712  1.00  0.00    -0.026 A 
HETATM   18  C25 UNL     1      -1.784   5.046  14.273  1.00  0.00     0.021 A 
HETATM   19  C26 UNL     1      -1.486   5.993  13.121  1.00  0.00    -0.027 A 
HETATM   20  C27 UNL     1      -1.161   5.295  11.817  1.00  0.00     0.011 C 
HETATM   21  C28 UNL     1       0.344   5.156  11.671  1.00  0.00     0.011 C 
HETATM   22  C29 UNL     1       1.051   6.517  11.438  1.00  0.00    -0.032 C 
HETATM   23  C30 UNL     1       2.524   6.316  11.860  1.00  0.00     0.016 C 
ENDROOT
BRANCH   1  24
HETATM   24  C7  UNL     1       2.063   6.684   8.916  1.00  0.00    -0.014 C 
HETATM   25  C8  UNL     1       1.932   7.570   7.666  1.00  0.00     0.010 C 
BRANCH  24  26
HETATM   26  C6  UNL     1       3.439   6.942   9.592  1.00  0.00     0.008 C 
BRANCH  26  27
HETATM   27  C5  UNL     1       4.058   8.311   9.266  1.00  0.00     0.028 C 
BRANCH  27  28
HETATM   28  C4  UNL     1       4.691   8.916  10.491  1.00  0.00    -0.025 C 
HETATM   29  C2  UNL     1       5.805   8.521  11.139  1.00  0.00    -0.091 C 
HETATM   30  C1  UNL     1       6.283   9.272  12.357  1.00  0.00     0.042 C 
HETATM   31  C3  UNL     1       6.676   7.354  10.763  1.00  0.00     0.042 C 
ENDBRANCH  27  28
ENDBRANCH  26  27
ENDBRANCH  24  26
ENDBRANCH   1  24
TORSDOF 4
ENDMDL
MODEL 4
REMARK minimizedAffinity -8.80325508
REMARK  4 active torsions:
REMARK  status: ('A' for Active; 'I' for Inactive)
REMARK    1  A    between atoms: C4_4  and  C5_5 
REMARK    2  A    between atoms: C5_5  and  C6_6 
REMARK    3  A    between atoms: C6_6  and  C7_7 
REMARK    4  A    between atoms: C7_7  and  C9_9 
ROOT
HETATM    1  C9  UNL     1      -6.467   6.635  13.601  1.00  0.00    -0.002 C 
HETATM    2  C10 UNL     1      -6.082   7.924  14.336  1.00  0.00     0.006 C 
HETATM    3  C11 UNL     1      -7.394   8.443  14.890  1.00  0.00     0.011 C 
HETATM    4  C12 UNL     1      -8.084   7.191  15.477  1.00  0.00    -0.032 C 
HETATM    5  C13 UNL     1      -7.484   6.985  16.902  1.00  0.00     0.016 C 
HETATM    6  C14 UNL     1      -9.648   7.380  15.631  1.00  0.00     0.004 C 
HETATM    7  C15 UNL     1      -9.989   8.647  16.448  1.00  0.00     0.007 C 
HETATM    8  C16 UNL     1     -11.479   8.940  16.533  1.00  0.00     0.007 C 
HETATM    9  C17 UNL     1     -12.143   9.222  15.173  1.00  0.00     0.010 C 
HETATM   10  C18 UNL     1     -12.108  10.715  14.692  1.00  0.00     0.018 C 
HETATM   11  C19 UNL     1     -12.822  11.633  15.708  1.00  0.00     0.023 C 
HETATM   12  C20 UNL     1     -10.693  11.259  14.448  1.00  0.00     0.023 C 
HETATM   13  C21 UNL     1     -12.885  10.842  13.368  1.00  0.00     0.135 C 
HETATM   14  O1  UNL     1     -13.257  11.933  12.929  1.00  0.00    -0.297 OA
HETATM   15  C22 UNL     1     -13.207   9.579  12.612  1.00  0.00     0.080 C 
HETATM   16  C23 UNL     1     -12.008   8.657  12.664  1.00  0.00     0.018 C 
HETATM   17  C24 UNL     1     -11.676   8.234  14.089  1.00  0.00    -0.026 A 
HETATM   18  C25 UNL     1     -11.854   6.769  14.413  1.00  0.00     0.021 A 
HETATM   19  C26 UNL     1     -10.443   7.327  14.312  1.00  0.00    -0.027 A 
HETATM   20  C27 UNL     1      -9.662   6.820  13.118  1.00  0.00     0.011 C 
HETATM   21  C28 UNL     1      -8.816   5.627  13.529  1.00  0.00     0.011 C 
HETATM   22  C29 UNL     1      -7.650   6.017  14.474  1.00  0.00    -0.032 C 
HETATM   23  C30 UNL     1      -7.254   4.725  15.225  1.00  0.00     0.016 C 
ENDROOT
BRANCH   1  24
HETATM   24  C7  UNL     1      -5.242   5.733  13.238  1.00  0.00    -0.014 C 
HETATM   25  C8  UNL     1      -4.224   5.693  14.390  1.00  0.00     0.010 C 
BRANCH  24  26
HETATM   26  C6  UNL     1      -5.679   4.284  12.882  1.00  0.00     0.008 C 
BRANCH  26  27
HETATM   27  C5  UNL     1      -4.713   3.545  11.942  1.00  0.00     0.028 C 
BRANCH  27  28
HETATM   28  C4  UNL     1      -3.431   4.318  11.778  1.00  0.00    -0.025 C 
HETATM   29  C2  UNL     1      -2.234   3.871  11.348  1.00  0.00    -0.091 C 
HETATM   30  C1  UNL     1      -1.062   4.814  11.248  1.00  0.00     0.042 C 
HETATM   31  C3  UNL     1      -1.918   2.461  10.931  1.00  0.00     0.042 C 
ENDBRANCH  27  28
ENDBRANCH  26  27
ENDBRANCH  24  26
ENDBRANCH   1  24
TORSDOF 4
ENDMDL
MODEL 5
REMARK minimizedAffinity -8.60480976
REMARK  4 active torsions:
REMARK  status: ('A' for Active; 'I' for Inactive)
REMARK    1  A    between atoms: C4_4  and  C5_5 
REMARK    2  A    between atoms: C5_5  and  C6_6 
REMARK    3  A    between atoms: C6_6  and  C7_7 
REMARK    4  A    between atoms: C7_7  and  C9_9 
ROOT
HETATM    1  C9  UNL     1       0.417   5.272  11.911  1.00  0.00    -0.002 C 
HETATM    2  C10 UNL     1       0.232   5.765  13.351  1.00  0.00     0.006 C 
HETATM    3  C11 UNL     1       1.299   6.828  13.522  1.00  0.00     0.011 C 
HETATM    4  C12 UNL     1       1.223   7.659  12.221  1.00  0.00    -0.032 C 
HETATM    5  C13 UNL     1       0.068   8.689  12.423  1.00  0.00     0.016 C 
HETATM    6  C14 UNL     1       2.554   8.471  11.945  1.00  0.00     0.004 C 
HETATM    7  C15 UNL     1       2.944   9.350  13.154  1.00  0.00     0.007 C 
HETATM    8  C16 UNL     1       4.275  10.067  12.988  1.00  0.00     0.007 C 
HETATM    9  C17 UNL     1       5.484   9.125  12.848  1.00  0.00     0.010 C 
HETATM   10  C18 UNL     1       6.155   8.669  14.191  1.00  0.00     0.018 C 
HETATM   11  C19 UNL     1       6.663   9.890  14.989  1.00  0.00     0.023 C 
HETATM   12  C20 UNL     1       5.237   7.838  15.098  1.00  0.00     0.023 C 
HETATM   13  C21 UNL     1       7.393   7.808  13.875  1.00  0.00     0.135 C 
HETATM   14  O1  UNL     1       8.256   7.568  14.723  1.00  0.00    -0.297 OA
HETATM   15  C22 UNL     1       7.543   7.269  12.477  1.00  0.00     0.080 C 
HETATM   16  C23 UNL     1       6.189   6.803  11.983  1.00  0.00     0.018 C 
HETATM   17  C24 UNL     1       5.189   7.949  11.900  1.00  0.00    -0.026 A 
HETATM   18  C25 UNL     1       4.712   8.323  10.516  1.00  0.00     0.021 A 
HETATM   19  C26 UNL     1       3.743   7.623  11.456  1.00  0.00    -0.027 A 
HETATM   20  C27 UNL     1       3.389   6.211  11.039  1.00  0.00     0.011 C 
HETATM   21  C28 UNL     1       2.100   6.222  10.236  1.00  0.00     0.011 C 
HETATM   22  C29 UNL     1       0.860   6.572  11.100  1.00  0.00    -0.032 C 
HETATM   23  C30 UNL     1      -0.218   7.084  10.118  1.00  0.00     0.016 C 
ENDROOT
BRANCH   1  24
HETATM   24  C7  UNL     1      -0.784   4.421  11.383  1.00  0.00    -0.014 C 
HETATM   25  C8  UNL     1      -0.505   2.917  11.535  1.00  0.00     0.010 C 
BRANCH  24  26
HETATM   26  C6  UNL     1      -2.108   4.779  12.116  1.00  0.00     0.008 C 
BRANCH  26  27
HETATM   27  C5  UNL     1      -3.060   3.589  12.318  1.00  0.00     0.028 C 
BRANCH  27  28
HETATM   28  C4  UNL     1      -4.459   4.068  12.607  1.00  0.00    -0.025 C 
HETATM   29  C2  UNL     1      -5.628   3.505  12.243  1.00  0.00    -0.091 C 
HETATM   30  C1  UNL     1      -6.935   4.143  12.640  1.00  0.00     0.042 C 
HETATM   31  C3  UNL     1      -5.785   2.240  11.444  1.00  0.00     0.042 C 
ENDBRANCH  27  28
ENDBRANCH  26  27
ENDBRANCH  24  26
ENDBRANCH   1  24
TORSDOF 4
ENDMDL
MODEL 6
REMARK minimizedAffinity -8.36352062
REMARK  4 active torsions:
REMARK  status: ('A' for Active; 'I' for Inactive)
REMARK    1  A    between atoms: C4_4  and  C5_5 
REMARK    2  A    between atoms: C5_5  and  C6_6 
REMARK    3  A    between atoms: C6_6  and  C7_7 
REMARK    4  A    between atoms: C7_7  and  C9_9 
ROOT
HETATM    1  C9  UNL     1      -1.692   7.917  12.494  1.00  0.00    -0.002 C 
HETATM    2  C10 UNL     1      -2.208   9.094  13.331  1.00  0.00     0.006 C 
HETATM    3  C11 UNL     1      -3.388   8.522  14.091  1.00  0.00     0.011 C 
HETATM    4  C12 UNL     1      -2.889   7.149  14.597  1.00  0.00    -0.032 C 
HETATM    5  C13 UNL     1      -2.090   7.428  15.909  1.00  0.00     0.016 C 
HETATM    6  C14 UNL     1      -4.078   6.167  14.952  1.00  0.00     0.004 C 
HETATM    7  C15 UNL     1      -5.068   6.811  15.950  1.00  0.00     0.007 C 
HETATM    8  C16 UNL     1      -6.291   5.955  16.241  1.00  0.00     0.007 C 
HETATM    9  C17 UNL     1      -7.176   5.684  15.011  1.00  0.00     0.010 C 
HETATM   10  C18 UNL     1      -8.279   6.759  14.713  1.00  0.00     0.018 C 
HETATM   11  C19 UNL     1      -9.248   6.891  15.908  1.00  0.00     0.023 C 
HETATM   12  C20 UNL     1      -7.723   8.149  14.376  1.00  0.00     0.023 C 
HETATM   13  C21 UNL     1      -9.128   6.298  13.513  1.00  0.00     0.135 C 
HETATM   14  O1  UNL     1     -10.224   6.801  13.254  1.00  0.00    -0.297 OA
HETATM   15  C22 UNL     1      -8.591   5.185  12.652  1.00  0.00     0.080 C 
HETATM   16  C23 UNL     1      -7.104   5.392  12.453  1.00  0.00     0.018 C 
HETATM   17  C24 UNL     1      -6.339   5.328  13.769  1.00  0.00    -0.026 A 
HETATM   18  C25 UNL     1      -5.381   4.171  13.931  1.00  0.00     0.021 A 
HETATM   19  C26 UNL     1      -4.812   5.569  13.737  1.00  0.00    -0.027 A 
HETATM   20  C27 UNL     1      -4.115   5.772  12.409  1.00  0.00     0.011 C 
HETATM   21  C28 UNL     1      -2.623   5.537  12.572  1.00  0.00     0.011 C 
HETATM   22  C29 UNL     1      -1.931   6.638  13.417  1.00  0.00    -0.032 C 
HETATM   23  C30 UNL     1      -0.625   6.011  13.955  1.00  0.00     0.016 C 
ENDROOT
BRANCH   1  24
HETATM   24  C7  UNL     1      -0.271   8.159  11.887  1.00  0.00    -0.014 C 
HETATM   25  C8  UNL     1       0.752   8.488  12.986  1.00  0.00     0.010 C 
BRANCH  24  26
HETATM   26  C6  UNL     1       0.222   6.930  11.071  1.00  0.00     0.008 C 
BRANCH  26  27
HETATM   27  C5  UNL     1       1.587   7.128  10.393  1.00  0.00     0.028 C 
BRANCH  27  28
HETATM   28  C4  UNL     1       1.496   6.843   8.917  1.00  0.00    -0.025 C 
HETATM   29  C2  UNL     1       2.109   7.483   7.902  1.00  0.00    -0.091 C 
HETATM   30  C1  UNL     1       1.890   7.036   6.478  1.00  0.00     0.042 C 
HETATM   31  C3  UNL     1       3.042   8.656   8.035  1.00  0.00     0.042 C 
ENDBRANCH  27  28
ENDBRANCH  26  27
ENDBRANCH  24  26
ENDBRANCH   1  24
TORSDOF 4
ENDMDL
MODEL 7
REMARK minimizedAffinity -8.3427248
REMARK  4 active torsions:
REMARK  status: ('A' for Active; 'I' for Inactive)
REMARK    1  A    between atoms: C4_4  and  C5_5 
REMARK    2  A    between atoms: C5_5  and  C6_6 
REMARK    3  A    between atoms: C6_6  and  C7_7 
REMARK    4  A    between atoms: C7_7  and  C9_9 
ROOT
HETATM    1  C9  UNL     1      -0.509   6.101  13.996  1.00  0.00    -0.002 C 
HETATM    2  C10 UNL     1       0.046   6.765  15.261  1.00  0.00     0.006 C 
HETATM    3  C11 UNL     1       1.182   7.634  14.759  1.00  0.00     0.011 C 
HETATM    4  C12 UNL     1       0.606   8.327  13.503  1.00  0.00    -0.032 C 
HETATM    5  C13 UNL     1      -0.205   9.560  14.012  1.00  0.00     0.016 C 
HETATM    6  C14 UNL     1       1.739   8.858  12.533  1.00  0.00     0.004 C 
HETATM    7  C15 UNL     1       2.738   9.775  13.276  1.00  0.00     0.007 C 
HETATM    8  C16 UNL     1       3.912  10.225  12.420  1.00  0.00     0.007 C 
HETATM    9  C17 UNL     1       4.808   9.074  11.927  1.00  0.00     0.010 C 
HETATM   10  C18 UNL     1       5.968   8.649  12.893  1.00  0.00     0.018 C 
HETATM   11  C19 UNL     1       6.918   9.837  13.162  1.00  0.00     0.023 C 
HETATM   12  C20 UNL     1       5.486   8.091  14.240  1.00  0.00     0.023 C 
HETATM   13  C21 UNL     1       6.817   7.555  12.219  1.00  0.00     0.135 C 
HETATM   14  O1  UNL     1       7.942   7.254  12.627  1.00  0.00    -0.297 OA
HETATM   15  C22 UNL     1       6.245   6.857  11.013  1.00  0.00     0.080 C 
HETATM   16  C23 UNL     1       4.774   6.588  11.254  1.00  0.00     0.018 C 
HETATM   17  C24 UNL     1       3.981   7.877  11.424  1.00  0.00    -0.026 A 
HETATM   18  C25 UNL     1       2.964   8.185  10.349  1.00  0.00     0.021 A 
HETATM   19  C26 UNL     1       2.468   7.767  11.725  1.00  0.00    -0.027 A 
HETATM   20  C27 UNL     1       1.808   6.405  11.757  1.00  0.00     0.011 C 
HETATM   21  C28 UNL     1       0.304   6.560  11.615  1.00  0.00     0.011 C 
HETATM   22  C29 UNL     1      -0.351   7.211  12.862  1.00  0.00    -0.032 C 
HETATM   23  C30 UNL     1      -1.696   7.801  12.383  1.00  0.00     0.016 C 
ENDROOT
BRANCH   1  24
HETATM   24  C7  UNL     1      -1.904   5.425  14.206  1.00  0.00    -0.014 C 
HETATM   25  C8  UNL     1      -2.847   6.339  15.006  1.00  0.00     0.010 C 
BRANCH  24  26
HETATM   26  C6  UNL     1      -2.570   5.050  12.853  1.00  0.00     0.008 C 
BRANCH  26  27
HETATM   27  C5  UNL     1      -4.093   4.851  12.931  1.00  0.00     0.028 C 
BRANCH  27  28
HETATM   28  C4  UNL     1      -4.500   3.571  12.250  1.00  0.00    -0.025 C 
HETATM   29  C2  UNL     1      -5.736   3.050  12.119  1.00  0.00    -0.091 C 
HETATM   30  C1  UNL     1      -5.938   1.745  11.390  1.00  0.00     0.042 C 
HETATM   31  C3  UNL     1      -7.008   3.657  12.644  1.00  0.00     0.042 C 
ENDBRANCH  27  28
ENDBRANCH  26  27
ENDBRANCH  24  26
ENDBRANCH   1  24
TORSDOF 4
ENDMDL
MODEL 8
REMARK minimizedAffinity -8.28058529
REMARK  4 active torsions:
REMARK  status: ('A' for Active; 'I' for Inactive)
REMARK    1  A    between atoms: C4_4  and  C5_5 
REMARK    2  A    between atoms: C5_5  and  C6_6 
REMARK    3  A    between atoms: C6_6  and  C7_7 
REMARK    4  A    between atoms: C7_7  and  C9_9 
ROOT
HETATM    1  C9  UNL     1      -3.457   8.576  14.542  1.00  0.00    -0.002 C 
HETATM    2  C10 UNL     1      -3.938   8.440  13.093  1.00  0.00     0.006 C 
HETATM    3  C11 UNL     1      -2.826   7.678  12.400  1.00  0.00     0.011 C 
HETATM    4  C12 UNL     1      -2.468   6.543  13.387  1.00  0.00    -0.032 C 
HETATM    5  C13 UNL     1      -3.500   5.400  13.138  1.00  0.00     0.016 C 
HETATM    6  C14 UNL     1      -1.021   5.954  13.131  1.00  0.00     0.004 C 
HETATM    7  C15 UNL     1      -0.843   5.503  11.663  1.00  0.00     0.007 C 
HETATM    8  C16 UNL     1       0.564   5.032  11.331  1.00  0.00     0.007 C 
HETATM    9  C17 UNL     1       1.643   6.119  11.486  1.00  0.00     0.010 C 
HETATM   10  C18 UNL     1       1.892   7.020  10.227  1.00  0.00     0.018 C 
HETATM   11  C19 UNL     1       2.329   6.161   9.019  1.00  0.00     0.023 C 
HETATM   12  C20 UNL     1       0.679   7.866   9.814  1.00  0.00     0.023 C 
HETATM   13  C21 UNL     1       3.054   7.989  10.515  1.00  0.00     0.135 C 
HETATM   14  O1  UNL     1       3.638   8.597   9.615  1.00  0.00    -0.297 OA
HETATM   15  C22 UNL     1       3.484   8.172  11.947  1.00  0.00     0.080 C 
HETATM   16  C23 UNL     1       2.253   8.233  12.826  1.00  0.00     0.018 C 
HETATM   17  C24 UNL     1       1.455   6.936  12.777  1.00  0.00    -0.026 A 
HETATM   18  C25 UNL     1       1.393   6.138  14.058  1.00  0.00     0.021 A 
HETATM   19  C26 UNL     1       0.140   6.859  13.587  1.00  0.00    -0.027 A 
HETATM   20  C27 UNL     1      -0.268   8.024  14.464  1.00  0.00     0.011 C 
HETATM   21  C28 UNL     1      -1.302   7.566  15.478  1.00  0.00     0.011 C 
HETATM   22  C29 UNL     1      -2.667   7.220  14.828  1.00  0.00    -0.032 C 
HETATM   23  C30 UNL     1      -3.390   6.281  15.819  1.00  0.00     0.016 C 
ENDROOT
BRANCH   1  24
HETATM   24  C7  UNL     1      -4.581   9.021  15.534  1.00  0.00    -0.014 C 
HETATM   25  C8  UNL     1      -4.426  10.502  15.917  1.00  0.00     0.010 C 
BRANCH  24  26
HETATM   26  C6  UNL     1      -5.998   8.785  14.940  1.00  0.00     0.008 C 
BRANCH  26  27
HETATM   27  C5  UNL     1      -6.699   7.520  15.460  1.00  0.00     0.028 C 
BRANCH  27  28
HETATM   28  C4  UNL     1      -6.828   6.493  14.366  1.00  0.00    -0.025 C 
HETATM   29  C2  UNL     1      -7.936   6.117  13.697  1.00  0.00    -0.091 C 
HETATM   30  C1  UNL     1      -7.854   5.064  12.621  1.00  0.00     0.042 C 
HETATM   31  C3  UNL     1      -9.321   6.663  13.911  1.00  0.00     0.042 C 
ENDBRANCH  27  28
ENDBRANCH  26  27
ENDBRANCH  24  26
ENDBRANCH   1  24
TORSDOF 4
ENDMDL
MODEL 9
REMARK minimizedAffinity -8.2524538
REMARK  4 active torsions:
REMARK  status: ('A' for Active; 'I' for Inactive)
REMARK    1  A    between atoms: C4_4  and  C5_5 
REMARK    2  A    between atoms: C5_5  and  C6_6 
REMARK    3  A    between atoms: C6_6  and  C7_7 
REMARK    4  A    between atoms: C7_7  and  C9_9 
ROOT
HETATM    1  C9  UNL     1      -3.391   6.422  13.531  1.00  0.00    -0.002 C 
HETATM    2  C10 UNL     1      -2.673   5.124  13.920  1.00  0.00     0.006 C 
HETATM    3  C11 UNL     1      -1.226   5.370  13.538  1.00  0.00     0.011 C 
HETATM    4  C12 UNL     1      -0.934   6.800  14.045  1.00  0.00    -0.032 C 
HETATM    5  C13 UNL     1      -0.583   6.667  15.560  1.00  0.00     0.016 C 
HETATM    6  C14 UNL     1       0.307   7.458  13.316  1.00  0.00     0.004 C 
HETATM    7  C15 UNL     1       1.561   6.559  13.407  1.00  0.00     0.007 C 
HETATM    8  C16 UNL     1       2.755   7.089  12.627  1.00  0.00     0.007 C 
HETATM    9  C17 UNL     1       2.520   7.191  11.110  1.00  0.00     0.010 C 
HETATM   10  C18 UNL     1       2.839   5.898  10.280  1.00  0.00     0.018 C 
HETATM   11  C19 UNL     1       4.319   5.492  10.451  1.00  0.00     0.023 C 
HETATM   12  C20 UNL     1       1.956   4.693  10.635  1.00  0.00     0.023 C 
HETATM   13  C21 UNL     1       2.637   6.192   8.782  1.00  0.00     0.135 C 
HETATM   14  O1  UNL     1       3.090   5.455   7.903  1.00  0.00    -0.297 OA
HETATM   15  C22 UNL     1       1.874   7.434   8.400  1.00  0.00     0.080 C 
HETATM   16  C23 UNL     1       0.695   7.593   9.336  1.00  0.00     0.018 C 
HETATM   17  C24 UNL     1       1.138   7.784  10.781  1.00  0.00    -0.026 A 
HETATM   18  C25 UNL     1       0.834   9.128  11.403  1.00  0.00     0.021 A 
HETATM   19  C26 UNL     1       0.044   7.913  11.868  1.00  0.00    -0.027 A 
HETATM   20  C27 UNL     1      -1.414   7.934  11.462  1.00  0.00     0.011 C 
HETATM   21  C28 UNL     1      -2.252   8.509  12.590  1.00  0.00     0.011 C 
HETATM   22  C29 UNL     1      -2.323   7.570  13.823  1.00  0.00    -0.032 C 
HETATM   23  C30 UNL     1      -2.693   8.467  15.026  1.00  0.00     0.016 C 
ENDROOT
BRANCH   1  24
HETATM   24  C7  UNL     1      -4.825   6.548  14.142  1.00  0.00    -0.014 C 
HETATM   25  C8  UNL     1      -5.663   7.586  13.378  1.00  0.00     0.010 C 
BRANCH  24  26
HETATM   26  C6  UNL     1      -5.570   5.183  14.146  1.00  0.00     0.008 C 
BRANCH  26  27
HETATM   27  C5  UNL     1      -6.495   4.963  12.938  1.00  0.00     0.028 C 
BRANCH  27  28
HETATM   28  C4  UNL     1      -6.474   3.521  12.505  1.00  0.00    -0.025 C 
HETATM   29  C2  UNL     1      -5.596   2.906  11.687  1.00  0.00    -0.091 C 
HETATM   30  C1  UNL     1      -5.746   1.438  11.377  1.00  0.00     0.042 C 
HETATM   31  C3  UNL     1      -4.417   3.553  11.014  1.00  0.00     0.042 C 
ENDBRANCH  27  28
ENDBRANCH  26  27
ENDBRANCH  24  26
ENDBRANCH   1  24
TORSDOF 4
ENDMDL
