MODEL 1
REMARK minimizedAffinity -10.5474443
REMARK  6 active torsions:
REMARK  status: ('A' for Active; 'I' for Inactive)
REMARK    1  A    between atoms: N1_2  and  C2_3 
REMARK    2  A    between atoms: C4_5  and  N4_35 
REMARK    3  A    between atoms: C5_7  and  N2_12 
REMARK    4  A    between atoms: C7_9  and  O2_10 
REMARK    5  A    between atoms: C18_25  and  O4_26 
REMARK    6  A    between atoms: C27_36  and  C28_37 
ROOT
HETATM    1  C2  UNL     1      11.413  -4.434  32.349  1.00  0.00     0.257 C 
HETATM    2  C3  UNL     1      10.170  -5.411  32.290  1.00  0.00     0.092 C 
HETATM    3  C4  UNL     1       9.417  -4.957  31.081  1.00  0.00     0.234 C 
HETATM    4  O1  UNL     1       9.069  -3.601  31.395  1.00  0.00    -0.333 OA
HETATM    5  C5  UNL     1      10.024  -2.715  30.801  1.00  0.00     0.168 C 
HETATM    6  C6  UNL     1       9.671  -1.336  31.382  1.00  0.00     0.074 C 
HETATM    7  C7  UNL     1      11.456  -3.255  31.227  1.00  0.00     0.209 C 
ENDROOT
BRANCH   1   8
HETATM    8  N1  UNL     1      11.756  -4.082  33.741  1.00  0.00     0.086 N 
HETATM    9  C1  UNL     1      10.631  -3.624  34.544  1.00  0.00     0.307 C 
HETATM   10  H4  UNL     1      12.441  -3.324  33.727  1.00  0.00     0.316 HD
ENDBRANCH   1   8
BRANCH   7  11
HETATM   11  O2  UNL     1      12.342  -2.192  31.622  1.00  0.00    -0.384 OA
HETATM   12  C8  UNL     1      11.663  -0.984  31.947  1.00  0.00     0.202 C 
ENDBRANCH   7  11
BRANCH   3  13
HETATM   13  N4  UNL     1       8.290  -5.443  30.366  1.00  0.00    -0.316 N 
HETATM   14  C26 UNL     1       6.968  -5.125  30.309  1.00  0.00     0.048 A 
HETATM   15  C21 UNL     1       6.341  -6.154  29.561  1.00  0.00     0.004 A 
HETATM   16  C25 UNL     1       6.254  -4.045  30.845  1.00  0.00     0.030 A 
HETATM   17  C20 UNL     1       7.343  -7.111  29.186  1.00  0.00     0.021 A 
HETATM   18  C22 UNL     1       4.946  -6.068  29.365  1.00  0.00     0.014 A 
HETATM   19  C19 UNL     1       7.515  -8.339  28.545  1.00  0.00     0.045 A 
HETATM   20  C27 UNL     1       8.521  -6.597  29.671  1.00  0.00     0.077 A 
HETATM   21  C16 UNL     1       8.752  -9.031  28.438  1.00  0.00     0.061 A 
HETATM   22  C18 UNL     1       6.588  -9.233  27.914  1.00  0.00     0.155 A 
HETATM   23  C15 UNL     1       9.983  -8.565  28.935  1.00  0.00     0.022 C 
HETATM   24  C17 UNL     1       8.437 -10.290  27.749  1.00  0.00     0.259 A 
HETATM   25  C14 UNL     1      11.339  -8.986  29.083  1.00  0.00     0.004 A 
HETATM   26  C28 UNL     1       9.920  -7.315  29.519  1.00  0.00     0.078 C 
HETATM   27  C9  UNL     1      12.052  -7.952  29.730  1.00  0.00     0.049 A 
HETATM   28  C13 UNL     1      12.035 -10.169  28.751  1.00  0.00     0.014 A 
HETATM   29  N2  UNL     1      11.181  -6.883  29.902  1.00  0.00    -0.308 N 
HETATM   30  C10 UNL     1      13.412  -8.093  30.059  1.00  0.00     0.030 A 
HETATM   31  C11 UNL     1      14.065  -9.281  29.720  1.00  0.00     0.002 A 
HETATM   32  C12 UNL     1      13.389 -10.304  29.071  1.00  0.00     0.001 A 
HETATM   33  O3  UNL     1       9.248 -11.155  27.479  1.00  0.00    -0.267 OA
HETATM   34  N3  UNL     1       7.079 -10.334  27.459  1.00  0.00    -0.303 N 
ATOM     35  H3  UNL     1       6.575 -11.082  26.983  1.00  0.00     0.171 HD
HETATM   36  C23 UNL     1       4.230  -4.987  29.894  1.00  0.00     0.001 A 
HETATM   37  C24 UNL     1       4.876  -3.994  30.623  1.00  0.00     0.002 A 
BRANCH  22  38
HETATM   38  O4  UNL     1       5.298  -8.940  27.810  1.00  0.00    -0.345 OA
HETATM   39  H20 UNL     1       4.858  -9.675  27.350  1.00  0.00     0.219 HD
ENDBRANCH  22  38
ENDBRANCH   3  13
TORSDOF 6
ENDMDL
MODEL 2
REMARK minimizedAffinity -10.460866
REMARK  6 active torsions:
REMARK  status: ('A' for Active; 'I' for Inactive)
REMARK    1  A    between atoms: N1_2  and  C2_3 
REMARK    2  A    between atoms: C4_5  and  N4_35 
REMARK    3  A    between atoms: C5_7  and  N2_12 
REMARK    4  A    between atoms: C7_9  and  O2_10 
REMARK    5  A    between atoms: C18_25  and  O4_26 
REMARK    6  A    between atoms: C27_36  and  C28_37 
ROOT
HETATM    1  C2  UNL     1      12.173  -7.616  28.910  1.00  0.00     0.257 C 
HETATM    2  C3  UNL     1      10.863  -7.077  28.205  1.00  0.00     0.092 C 
HETATM    3  C4  UNL     1       9.784  -7.975  28.722  1.00  0.00     0.234 C 
HETATM    4  O1  UNL     1      10.187  -9.274  28.270  1.00  0.00    -0.333 OA
HETATM    5  C5  UNL     1      10.882  -9.950  29.323  1.00  0.00     0.168 C 
HETATM    6  C6  UNL     1      11.440 -11.217  28.655  1.00  0.00     0.074 C 
HETATM    7  C7  UNL     1      11.996  -8.941  29.840  1.00  0.00     0.209 C 
ENDROOT
BRANCH   1   8
HETATM    8  N1  UNL     1      13.337  -7.552  28.005  1.00  0.00     0.086 N 
HETATM    9  C1  UNL     1      13.135  -8.194  26.713  1.00  0.00     0.307 C 
HETATM   10  H4  UNL     1      14.125  -8.025  28.453  1.00  0.00     0.316 HD
ENDBRANCH   1   8
BRANCH   7  11
HETATM   11  O2  UNL     1      13.259  -9.594  30.063  1.00  0.00    -0.384 OA
HETATM   12  C8  UNL     1      13.438 -10.034  31.405  1.00  0.00     0.202 C 
ENDBRANCH   7  11
BRANCH   3  13
HETATM   13  N4  UNL     1       8.369  -7.998  28.613  1.00  0.00    -0.316 N 
HETATM   14  C26 UNL     1       7.463  -8.723  27.902  1.00  0.00     0.048 A 
HETATM   15  C21 UNL     1       6.209  -8.086  28.084  1.00  0.00     0.004 A 
HETATM   16  C25 UNL     1       7.616  -9.867  27.108  1.00  0.00     0.030 A 
HETATM   17  C20 UNL     1       6.406  -6.939  28.924  1.00  0.00     0.021 A 
HETATM   18  C22 UNL     1       5.088  -8.642  27.430  1.00  0.00     0.014 A 
HETATM   19  C19 UNL     1       5.737  -5.846  29.477  1.00  0.00     0.045 A 
HETATM   20  C27 UNL     1       7.739  -6.964  29.249  1.00  0.00     0.077 A 
HETATM   21  C16 UNL     1       6.353  -4.826  30.251  1.00  0.00     0.061 A 
HETATM   22  C18 UNL     1       4.372  -5.411  29.396  1.00  0.00     0.155 A 
HETATM   23  C15 UNL     1       7.717  -4.788  30.596  1.00  0.00     0.022 C 
HETATM   24  C17 UNL     1       5.283  -3.866  30.557  1.00  0.00     0.259 A 
HETATM   25  C14 UNL     1       8.663  -3.940  31.248  1.00  0.00     0.004 A 
HETATM   26  C28 UNL     1       8.443  -5.876  30.154  1.00  0.00     0.078 C 
HETATM   27  C9  UNL     1       9.926  -4.571  31.198  1.00  0.00     0.049 A 
HETATM   28  C13 UNL     1       8.574  -2.671  31.862  1.00  0.00     0.014 A 
HETATM   29  N2  UNL     1       9.752  -5.816  30.606  1.00  0.00    -0.308 N 
HETATM   30  C10 UNL     1      11.075  -3.953  31.722  1.00  0.00     0.030 A 
HETATM   31  C11 UNL     1      10.950  -2.694  32.315  1.00  0.00     0.002 A 
HETATM   32  C12 UNL     1       9.717  -2.063  32.389  1.00  0.00     0.001 A 
HETATM   33  O3  UNL     1       5.429  -2.847  31.204  1.00  0.00    -0.267 OA
HETATM   34  N3  UNL     1       4.091  -4.305  29.994  1.00  0.00    -0.303 N 
ATOM     35  H3  UNL     1       3.182  -3.846  30.044  1.00  0.00     0.171 HD
HETATM   36  C23 UNL     1       5.236  -9.789  26.640  1.00  0.00     0.001 A 
HETATM   37  C24 UNL     1       6.481 -10.389  26.482  1.00  0.00     0.002 A 
BRANCH  22  38
HETATM   38  O4  UNL     1       3.456  -6.111  28.741  1.00  0.00    -0.345 OA
HETATM   39  H20 UNL     1       2.607  -5.641  28.816  1.00  0.00     0.219 HD
ENDBRANCH  22  38
ENDBRANCH   3  13
TORSDOF 6
ENDMDL
MODEL 3
REMARK minimizedAffinity -10.4410295
REMARK  6 active torsions:
REMARK  status: ('A' for Active; 'I' for Inactive)
REMARK    1  A    between atoms: N1_2  and  C2_3 
REMARK    2  A    between atoms: C4_5  and  N4_35 
REMARK    3  A    between atoms: C5_7  and  N2_12 
REMARK    4  A    between atoms: C7_9  and  O2_10 
REMARK    5  A    between atoms: C18_25  and  O4_26 
REMARK    6  A    between atoms: C27_36  and  C28_37 
ROOT
HETATM    1  C2  UNL     1       9.491 -10.117  27.486  1.00  0.00     0.257 C 
HETATM    2  C3  UNL     1       8.610  -9.557  28.674  1.00  0.00     0.092 C 
HETATM    3  C4  UNL     1       7.626  -8.658  27.996  1.00  0.00     0.234 C 
HETATM    4  O1  UNL     1       8.454  -7.665  27.376  1.00  0.00    -0.333 OA
HETATM    5  C5  UNL     1       8.672  -8.015  26.006  1.00  0.00     0.168 C 
HETATM    6  C6  UNL     1       9.729  -7.010  25.523  1.00  0.00     0.074 C 
HETATM    7  C7  UNL     1       9.160  -9.527  26.004  1.00  0.00     0.209 C 
ENDROOT
BRANCH   1   8
HETATM    8  N1  UNL     1      10.907 -10.251  27.881  1.00  0.00     0.086 N 
HETATM    9  C1  UNL     1      11.127 -10.346  29.318  1.00  0.00     0.307 C 
HETATM   10  H4  UNL     1      11.416  -9.427  27.556  1.00  0.00     0.316 HD
ENDBRANCH   1   8
BRANCH   7  11
HETATM   11  O2  UNL     1      10.260  -9.742  25.101  1.00  0.00    -0.384 OA
HETATM   12  C8  UNL     1      10.801  -8.535  24.575  1.00  0.00     0.202 C 
ENDBRANCH   7  11
BRANCH   3  13
HETATM   13  N4  UNL     1       6.480  -7.934  28.419  1.00  0.00    -0.316 N 
HETATM   14  C26 UNL     1       5.162  -7.922  28.079  1.00  0.00     0.048 A 
HETATM   15  C21 UNL     1       4.593  -6.794  28.725  1.00  0.00     0.004 A 
HETATM   16  C25 UNL     1       4.411  -8.777  27.262  1.00  0.00     0.030 A 
HETATM   17  C20 UNL     1       5.631  -6.124  29.455  1.00  0.00     0.021 A 
HETATM   18  C22 UNL     1       3.219  -6.544  28.521  1.00  0.00     0.014 A 
HETATM   19  C19 UNL     1       5.881  -4.996  30.239  1.00  0.00     0.045 A 
HETATM   20  C27 UNL     1       6.752  -6.894  29.263  1.00  0.00     0.077 A 
HETATM   21  C16 UNL     1       7.155  -4.631  30.750  1.00  0.00     0.061 A 
HETATM   22  C18 UNL     1       5.036  -3.923  30.677  1.00  0.00     0.155 A 
HETATM   23  C15 UNL     1       8.340  -5.367  30.566  1.00  0.00     0.022 C 
HETATM   24  C17 UNL     1       6.945  -3.355  31.449  1.00  0.00     0.259 A 
HETATM   25  C14 UNL     1       9.739  -5.286  30.839  1.00  0.00     0.004 A 
HETATM   26  C28 UNL     1       8.171  -6.545  29.865  1.00  0.00     0.078 C 
HETATM   27  C9  UNL     1      10.358  -6.441  30.312  1.00  0.00     0.049 A 
HETATM   28  C13 UNL     1      10.555  -4.319  31.466  1.00  0.00     0.014 A 
HETATM   29  N2  UNL     1       9.357  -7.260  29.801  1.00  0.00    -0.308 N 
HETATM   30  C10 UNL     1      11.750  -6.626  30.385  1.00  0.00     0.030 A 
HETATM   31  C11 UNL     1      12.526  -5.645  31.008  1.00  0.00     0.002 A 
HETATM   32  C12 UNL     1      11.938  -4.509  31.546  1.00  0.00     0.001 A 
HETATM   33  O3  UNL     1       7.816  -2.723  32.016  1.00  0.00    -0.267 OA
HETATM   34  N3  UNL     1       5.608  -2.991  31.358  1.00  0.00    -0.303 N 
ATOM     35  H3  UNL     1       5.169  -2.157  31.750  1.00  0.00     0.171 HD
HETATM   36  C23 UNL     1       2.464  -7.400  27.710  1.00  0.00     0.001 A 
HETATM   37  C24 UNL     1       3.053  -8.497  27.091  1.00  0.00     0.002 A 
BRANCH  22  38
HETATM   38  O4  UNL     1       3.740  -3.896  30.393  1.00  0.00    -0.345 OA
HETATM   39  H20 UNL     1       3.363  -3.090  30.786  1.00  0.00     0.219 HD
ENDBRANCH  22  38
ENDBRANCH   3  13
TORSDOF 6
ENDMDL
MODEL 4
REMARK minimizedAffinity -10.4317551
REMARK  6 active torsions:
REMARK  status: ('A' for Active; 'I' for Inactive)
REMARK    1  A    between atoms: N1_2  and  C2_3 
REMARK    2  A    between atoms: C4_5  and  N4_35 
REMARK    3  A    between atoms: C5_7  and  N2_12 
REMARK    4  A    between atoms: C7_9  and  O2_10 
REMARK    5  A    between atoms: C18_25  and  O4_26 
REMARK    6  A    between atoms: C27_36  and  C28_37 
ROOT
HETATM    1  C2  UNL     1      12.015  -7.885  28.539  1.00  0.00     0.257 C 
HETATM    2  C3  UNL     1      10.674  -8.096  29.351  1.00  0.00     0.092 C 
HETATM    3  C4  UNL     1       9.603  -7.766  28.362  1.00  0.00     0.234 C 
HETATM    4  O1  UNL     1       9.865  -6.396  28.031  1.00  0.00    -0.333 OA
HETATM    5  C5  UNL     1      10.627  -6.337  26.820  1.00  0.00     0.168 C 
HETATM    6  C6  UNL     1      11.021  -4.856  26.694  1.00  0.00     0.074 C 
HETATM    7  C7  UNL     1      11.856  -7.324  27.019  1.00  0.00     0.209 C 
ENDROOT
BRANCH   1   8
HETATM    8  N1  UNL     1      13.074  -7.303  29.387  1.00  0.00     0.086 N 
HETATM    9  C1  UNL     1      12.614  -6.822  30.683  1.00  0.00     0.307 C 
HETATM   10  H4  UNL     1      13.479  -6.502  28.900  1.00  0.00     0.316 HD
ENDBRANCH   1   8
BRANCH   7  11
HETATM   11  O2  UNL     1      13.090  -6.759  26.539  1.00  0.00    -0.384 OA
HETATM   12  C8  UNL     1      13.895  -7.690  25.824  1.00  0.00     0.202 C 
ENDBRANCH   7  11
BRANCH   3  13
HETATM   13  N4  UNL     1       8.185  -7.853  28.361  1.00  0.00    -0.316 N 
HETATM   14  C26 UNL     1       7.262  -8.607  27.704  1.00  0.00     0.048 A 
HETATM   15  C21 UNL     1       5.997  -8.034  27.994  1.00  0.00     0.004 A 
HETATM   16  C25 UNL     1       7.406  -9.728  26.875  1.00  0.00     0.030 A 
HETATM   17  C20 UNL     1       6.206  -6.895  28.841  1.00  0.00     0.021 A 
HETATM   18  C22 UNL     1       4.857  -8.630  27.414  1.00  0.00     0.014 A 
HETATM   19  C19 UNL     1       5.532  -5.845  29.468  1.00  0.00     0.045 A 
HETATM   20  C27 UNL     1       7.560  -6.863  29.065  1.00  0.00     0.077 A 
HETATM   21  C16 UNL     1       6.158  -4.812  30.216  1.00  0.00     0.061 A 
HETATM   22  C18 UNL     1       4.146  -5.473  29.500  1.00  0.00     0.155 A 
HETATM   23  C15 UNL     1       7.541  -4.715  30.457  1.00  0.00     0.022 C 
HETATM   24  C17 UNL     1       5.072  -3.909  30.623  1.00  0.00     0.259 A 
HETATM   25  C14 UNL     1       8.494  -3.836  31.055  1.00  0.00     0.004 A 
HETATM   26  C28 UNL     1       8.280  -5.759  29.938  1.00  0.00     0.078 C 
HETATM   27  C9  UNL     1       9.778  -4.405  30.896  1.00  0.00     0.049 A 
HETATM   28  C13 UNL     1       8.395  -2.585  31.702  1.00  0.00     0.014 A 
HETATM   29  N2  UNL     1       9.616  -5.646  30.291  1.00  0.00    -0.308 N 
HETATM   30  C10 UNL     1      10.934  -3.744  31.345  1.00  0.00     0.030 A 
HETATM   31  C11 UNL     1      10.797  -2.503  31.974  1.00  0.00     0.002 A 
HETATM   32  C12 UNL     1       9.545  -1.933  32.155  1.00  0.00     0.001 A 
HETATM   33  O3  UNL     1       5.220  -2.896  31.280  1.00  0.00    -0.267 OA
HETATM   34  N3  UNL     1       3.862  -4.393  30.142  1.00  0.00    -0.303 N 
ATOM     35  H3  UNL     1       2.939  -3.979  30.270  1.00  0.00     0.171 HD
HETATM   36  C23 UNL     1       4.996  -9.753  26.590  1.00  0.00     0.001 A 
HETATM   37  C24 UNL     1       6.251 -10.291  26.326  1.00  0.00     0.002 A 
BRANCH  22  38
HETATM   38  O4  UNL     1       3.215  -6.204  28.900  1.00  0.00    -0.345 OA
HETATM   39  H20 UNL     1       2.355  -5.776  29.050  1.00  0.00     0.219 HD
ENDBRANCH  22  38
ENDBRANCH   3  13
TORSDOF 6
ENDMDL
MODEL 5
REMARK minimizedAffinity -10.260252
REMARK  6 active torsions:
REMARK  status: ('A' for Active; 'I' for Inactive)
REMARK    1  A    between atoms: N1_2  and  C2_3 
REMARK    2  A    between atoms: C4_5  and  N4_35 
REMARK    3  A    between atoms: C5_7  and  N2_12 
REMARK    4  A    between atoms: C7_9  and  O2_10 
REMARK    5  A    between atoms: C18_25  and  O4_26 
REMARK    6  A    between atoms: C27_36  and  C28_37 
ROOT
HETATM    1  C2  UNL     1      10.313  -4.736  33.543  1.00  0.00     0.257 C 
HETATM    2  C3  UNL     1       9.942  -5.891  32.527  1.00  0.00     0.092 C 
HETATM    3  C4  UNL     1      10.998  -5.793  31.473  1.00  0.00     0.234 C 
HETATM    4  O1  UNL     1      10.813  -4.475  30.938  1.00  0.00    -0.333 OA
HETATM    5  C5  UNL     1      11.733  -3.574  31.564  1.00  0.00     0.168 C 
HETATM    6  C6  UNL     1      11.293  -2.185  31.073  1.00  0.00     0.074 C 
HETATM    7  C7  UNL     1      11.575  -3.793  33.130  1.00  0.00     0.209 C 
ENDROOT
BRANCH   1   8
HETATM    8  N1  UNL     1       9.104  -4.084  34.082  1.00  0.00     0.086 N 
HETATM    9  C1  UNL     1       8.778  -4.452  35.453  1.00  0.00     0.307 C 
HETATM   10  H4  UNL     1       8.304  -4.350  33.504  1.00  0.00     0.316 HD
ENDBRANCH   1   8
BRANCH   7  11
HETATM   11  O2  UNL     1      11.553  -2.548  33.852  1.00  0.00    -0.384 OA
HETATM   12  C8  UNL     1      12.233  -2.610  35.101  1.00  0.00     0.202 C 
ENDBRANCH   7  11
BRANCH   3  13
HETATM   13  N4  UNL     1      11.356  -6.575  30.343  1.00  0.00    -0.316 N 
HETATM   14  C26 UNL     1      12.511  -7.112  29.863  1.00  0.00     0.048 A 
HETATM   15  C21 UNL     1      12.219  -7.590  28.560  1.00  0.00     0.004 A 
HETATM   16  C25 UNL     1      13.786  -7.219  30.434  1.00  0.00     0.030 A 
HETATM   17  C20 UNL     1      10.842  -7.301  28.275  1.00  0.00     0.021 A 
HETATM   18  C22 UNL     1      13.266  -8.189  27.829  1.00  0.00     0.014 A 
HETATM   19  C19 UNL     1       9.879  -7.388  27.267  1.00  0.00     0.045 A 
HETATM   20  C27 UNL     1      10.358  -6.719  29.421  1.00  0.00     0.077 A 
HETATM   21  C16 UNL     1       8.553  -6.888  27.369  1.00  0.00     0.061 A 
HETATM   22  C18 UNL     1       9.933  -7.894  25.926  1.00  0.00     0.155 A 
HETATM   23  C15 UNL     1       8.011  -6.263  28.507  1.00  0.00     0.022 C 
HETATM   24  C17 UNL     1       7.937  -7.144  26.059  1.00  0.00     0.259 A 
HETATM   25  C14 UNL     1       6.822  -5.599  28.936  1.00  0.00     0.004 A 
HETATM   26  C28 UNL     1       8.873  -6.204  29.584  1.00  0.00     0.078 C 
HETATM   27  C9  UNL     1       7.006  -5.188  30.275  1.00  0.00     0.049 A 
HETATM   28  C13 UNL     1       5.601  -5.279  28.301  1.00  0.00     0.014 A 
HETATM   29  N2  UNL     1       8.243  -5.661  30.694  1.00  0.00    -0.308 N 
HETATM   30  C10 UNL     1       6.017  -4.461  30.961  1.00  0.00     0.030 A 
HETATM   31  C11 UNL     1       4.825  -4.157  30.299  1.00  0.00     0.002 A 
HETATM   32  C12 UNL     1       4.617  -4.563  28.988  1.00  0.00     0.001 A 
HETATM   33  O3  UNL     1       6.796  -6.848  25.759  1.00  0.00    -0.267 OA
HETATM   34  N3  UNL     1       8.857  -7.771  25.228  1.00  0.00    -0.303 N 
ATOM     35  H3  UNL     1       8.711  -8.071  24.265  1.00  0.00     0.171 HD
HETATM   36  C23 UNL     1      14.541  -8.304  28.398  1.00  0.00     0.001 A 
HETATM   37  C24 UNL     1      14.794  -7.825  29.679  1.00  0.00     0.002 A 
BRANCH  22  38
HETATM   38  O4  UNL     1      11.031  -8.456  25.437  1.00  0.00    -0.345 OA
HETATM   39  H20 UNL     1      10.847  -8.729  24.522  1.00  0.00     0.219 HD
ENDBRANCH  22  38
ENDBRANCH   3  13
TORSDOF 6
ENDMDL
MODEL 6
REMARK minimizedAffinity -9.86230659
REMARK  6 active torsions:
REMARK  status: ('A' for Active; 'I' for Inactive)
REMARK    1  A    between atoms: N1_2  and  C2_3 
REMARK    2  A    between atoms: C4_5  and  N4_35 
REMARK    3  A    between atoms: C5_7  and  N2_12 
REMARK    4  A    between atoms: C7_9  and  O2_10 
REMARK    5  A    between atoms: C18_25  and  O4_26 
REMARK    6  A    between atoms: C27_36  and  C28_37 
ROOT
HETATM    1  C2  UNL     1       8.944 -10.465  27.525  1.00  0.00     0.257 C 
HETATM    2  C3  UNL     1       9.468  -9.719  28.817  1.00  0.00     0.092 C 
HETATM    3  C4  UNL     1       9.311  -8.270  28.481  1.00  0.00     0.234 C 
HETATM    4  O1  UNL     1      10.157  -8.100  27.336  1.00  0.00    -0.333 OA
HETATM    5  C5  UNL     1       9.368  -8.186  26.145  1.00  0.00     0.168 C 
HETATM    6  C6  UNL     1      10.402  -8.206  25.007  1.00  0.00     0.074 C 
HETATM    7  C7  UNL     1       8.512  -9.518  26.272  1.00  0.00     0.209 C 
ENDROOT
BRANCH   1   8
HETATM    8  N1  UNL     1       9.741 -11.674  27.240  1.00  0.00     0.086 N 
HETATM    9  C1  UNL     1      10.856 -11.893  28.152  1.00  0.00     0.307 C 
HETATM   10  H4  UNL     1      10.137 -11.592  26.301  1.00  0.00     0.316 HD
ENDBRANCH   1   8
BRANCH   7  11
HETATM   11  O2  UNL     1       8.482 -10.264  25.042  1.00  0.00    -0.384 OA
HETATM   12  C8  UNL     1       7.274 -10.994  24.854  1.00  0.00     0.202 C 
ENDBRANCH   7  11
BRANCH   3  13
HETATM   13  N4  UNL     1       9.463  -7.057  29.202  1.00  0.00    -0.316 N 
HETATM   14  C26 UNL     1      10.469  -6.465  29.904  1.00  0.00     0.048 A 
HETATM   15  C21 UNL     1       9.891  -5.357  30.575  1.00  0.00     0.004 A 
HETATM   16  C25 UNL     1      11.825  -6.795  30.028  1.00  0.00     0.030 A 
HETATM   17  C20 UNL     1       8.492  -5.320  30.256  1.00  0.00     0.021 A 
HETATM   18  C22 UNL     1      10.732  -4.573  31.393  1.00  0.00     0.014 A 
HETATM   19  C19 UNL     1       7.312  -4.630  30.539  1.00  0.00     0.045 A 
HETATM   20  C27 UNL     1       8.301  -6.358  29.379  1.00  0.00     0.077 A 
HETATM   21  C16 UNL     1       6.030  -4.977  30.033  1.00  0.00     0.061 A 
HETATM   22  C18 UNL     1       7.032  -3.512  31.393  1.00  0.00     0.155 A 
HETATM   23  C15 UNL     1       5.771  -6.042  29.152  1.00  0.00     0.022 C 
HETATM   24  C17 UNL     1       5.096  -4.021  30.646  1.00  0.00     0.259 A 
HETATM   25  C14 UNL     1       4.676  -6.712  28.527  1.00  0.00     0.004 A 
HETATM   26  C28 UNL     1       6.899  -6.734  28.755  1.00  0.00     0.078 C 
HETATM   27  C9  UNL     1       5.194  -7.771  27.748  1.00  0.00     0.049 A 
HETATM   28  C13 UNL     1       3.275  -6.536  28.566  1.00  0.00     0.014 A 
HETATM   29  N2  UNL     1       6.580  -7.708  27.820  1.00  0.00    -0.308 N 
HETATM   30  C10 UNL     1       4.347  -8.646  27.045  1.00  0.00     0.030 A 
HETATM   31  C11 UNL     1       2.966  -8.445  27.114  1.00  0.00     0.002 A 
HETATM   32  C12 UNL     1       2.436  -7.402  27.860  1.00  0.00     0.001 A 
HETATM   33  O3  UNL     1       3.895  -4.006  30.455  1.00  0.00    -0.267 OA
HETATM   34  N3  UNL     1       5.798  -3.150  31.470  1.00  0.00    -0.303 N 
ATOM     35  H3  UNL     1       5.415  -2.382  32.021  1.00  0.00     0.171 HD
HETATM   36  C23 UNL     1      12.089  -4.896  31.516  1.00  0.00     0.001 A 
HETATM   37  C24 UNL     1      12.624  -5.990  30.844  1.00  0.00     0.002 A 
BRANCH  22  38
HETATM   38  O4  UNL     1       7.992  -2.890  32.064  1.00  0.00    -0.345 OA
HETATM   39  H20 UNL     1       7.585  -2.167  32.572  1.00  0.00     0.219 HD
ENDBRANCH  22  38
ENDBRANCH   3  13
TORSDOF 6
ENDMDL
MODEL 7
REMARK minimizedAffinity -9.7194519
REMARK  6 active torsions:
REMARK  status: ('A' for Active; 'I' for Inactive)
REMARK    1  A    between atoms: N1_2  and  C2_3 
REMARK    2  A    between atoms: C4_5  and  N4_35 
REMARK    3  A    between atoms: C5_7  and  N2_12 
REMARK    4  A    between atoms: C7_9  and  O2_10 
REMARK    5  A    between atoms: C18_25  and  O4_26 
REMARK    6  A    between atoms: C27_36  and  C28_37 
ROOT
HETATM    1  C2  UNL     1      10.588  -4.090  32.188  1.00  0.00     0.257 C 
HETATM    2  C3  UNL     1      10.000  -5.546  31.994  1.00  0.00     0.092 C 
HETATM    3  C4  UNL     1      10.776  -6.094  30.839  1.00  0.00     0.234 C 
HETATM    4  O1  UNL     1      10.456  -5.196  29.767  1.00  0.00    -0.333 OA
HETATM    5  C5  UNL     1      11.488  -4.212  29.647  1.00  0.00     0.168 C 
HETATM    6  C6  UNL     1      10.931  -3.203  28.629  1.00  0.00     0.074 C 
HETATM    7  C7  UNL     1      11.707  -3.616  31.104  1.00  0.00     0.209 C 
ENDROOT
BRANCH   1   8
HETATM    8  N1  UNL     1       9.534  -3.129  32.566  1.00  0.00     0.086 N 
HETATM    9  C1  UNL     1       8.673  -2.712  31.467  1.00  0.00     0.307 C 
HETATM   10  H4  UNL     1       9.977  -2.285  32.933  1.00  0.00     0.316 HD
ENDBRANCH   1   8
BRANCH   7  11
HETATM   11  O2  UNL     1      11.843  -2.183  31.090  1.00  0.00    -0.384 OA
HETATM   12  C8  UNL     1      12.338  -1.652  32.314  1.00  0.00     0.202 C 
ENDBRANCH   7  11
BRANCH   3  13
HETATM   13  N4  UNL     1      10.865  -7.363  30.209  1.00  0.00    -0.316 N 
HETATM   14  C26 UNL     1      11.878  -8.202  29.858  1.00  0.00     0.048 A 
HETATM   15  C21 UNL     1      11.298  -9.213  29.049  1.00  0.00     0.004 A 
HETATM   16  C25 UNL     1      13.246  -8.173  30.158  1.00  0.00     0.030 A 
HETATM   17  C20 UNL     1       9.896  -8.934  28.919  1.00  0.00     0.021 A 
HETATM   18  C22 UNL     1      12.151 -10.214  28.538  1.00  0.00     0.014 A 
HETATM   19  C19 UNL     1       8.734  -9.382  28.288  1.00  0.00     0.045 A 
HETATM   20  C27 UNL     1       9.685  -7.815  29.686  1.00  0.00     0.077 A 
HETATM   21  C16 UNL     1       7.469  -8.738  28.370  1.00  0.00     0.061 A 
HETATM   22  C18 UNL     1       8.483 -10.478  27.398  1.00  0.00     0.155 A 
HETATM   23  C15 UNL     1       7.200  -7.579  29.120  1.00  0.00     0.022 C 
HETATM   24  C17 UNL     1       6.576  -9.522  27.504  1.00  0.00     0.259 A 
HETATM   25  C14 UNL     1       6.144  -6.651  29.369  1.00  0.00     0.004 A 
HETATM   26  C28 UNL     1       8.280  -7.109  29.841  1.00  0.00     0.078 C 
HETATM   27  C9  UNL     1       6.625  -5.667  30.262  1.00  0.00     0.049 A 
HETATM   28  C13 UNL     1       4.818  -6.533  28.899  1.00  0.00     0.014 A 
HETATM   29  N2  UNL     1       7.919  -6.023  30.624  1.00  0.00    -0.308 N 
HETATM   30  C10 UNL     1       5.823  -4.584  30.662  1.00  0.00     0.030 A 
HETATM   31  C11 UNL     1       4.518  -4.497  30.170  1.00  0.00     0.002 A 
HETATM   32  C12 UNL     1       4.019  -5.460  29.304  1.00  0.00     0.001 A 
HETATM   33  O3  UNL     1       5.401  -9.272  27.313  1.00  0.00    -0.267 OA
HETATM   34  N3  UNL     1       7.281 -10.580  26.945  1.00  0.00    -0.303 N 
ATOM     35  H3  UNL     1       6.922 -11.290  26.308  1.00  0.00     0.171 HD
HETATM   36  C23 UNL     1      13.518 -10.192  28.840  1.00  0.00     0.001 A 
HETATM   37  C24 UNL     1      14.054  -9.186  29.636  1.00  0.00     0.002 A 
BRANCH  22  38
HETATM   38  O4  UNL     1       9.438 -11.335  27.062  1.00  0.00    -0.345 OA
HETATM   39  H20 UNL     1       9.053 -11.994  26.459  1.00  0.00     0.219 HD
ENDBRANCH  22  38
ENDBRANCH   3  13
TORSDOF 6
ENDMDL
MODEL 8
REMARK minimizedAffinity -9.66832829
REMARK  6 active torsions:
REMARK  status: ('A' for Active; 'I' for Inactive)
REMARK    1  A    between atoms: N1_2  and  C2_3 
REMARK    2  A    between atoms: C4_5  and  N4_35 
REMARK    3  A    between atoms: C5_7  and  N2_12 
REMARK    4  A    between atoms: C7_9  and  O2_10 
REMARK    5  A    between atoms: C18_25  and  O4_26 
REMARK    6  A    between atoms: C27_36  and  C28_37 
ROOT
HETATM    1  C2  UNL     1      11.449  -8.820  28.925  1.00  0.00     0.257 C 
HETATM    2  C3  UNL     1      10.981  -7.881  30.109  1.00  0.00     0.092 C 
HETATM    3  C4  UNL     1      10.203  -6.804  29.424  1.00  0.00     0.234 C 
HETATM    4  O1  UNL     1      11.168  -6.197  28.555  1.00  0.00    -0.333 OA
HETATM    5  C5  UNL     1      11.041  -6.751  27.242  1.00  0.00     0.168 C 
HETATM    6  C6  UNL     1      12.250  -6.188  26.476  1.00  0.00     0.074 C 
HETATM    7  C7  UNL     1      11.061  -8.330  27.422  1.00  0.00     0.209 C 
ENDROOT
BRANCH   1   8
HETATM    8  N1  UNL     1      12.810  -9.343  29.157  1.00  0.00     0.086 N 
HETATM    9  C1  UNL     1      13.612  -8.551  30.080  1.00  0.00     0.307 C 
HETATM   10  H4  UNL     1      13.310  -9.359  28.266  1.00  0.00     0.316 HD
ENDBRANCH   1   8
BRANCH   7  11
HETATM   11  O2  UNL     1      11.883  -8.979  26.434  1.00  0.00    -0.384 OA
HETATM   12  C8  UNL     1      11.131  -9.642  25.423  1.00  0.00     0.202 C 
ENDBRANCH   7  11
BRANCH   3  13
HETATM   13  N4  UNL     1       9.405  -5.715  29.865  1.00  0.00    -0.316 N 
HETATM   14  C26 UNL     1       9.595  -4.643  30.683  1.00  0.00     0.048 A 
HETATM   15  C21 UNL     1       8.317  -4.061  30.883  1.00  0.00     0.004 A 
HETATM   16  C25 UNL     1      10.756  -4.130  31.277  1.00  0.00     0.030 A 
HETATM   17  C20 UNL     1       7.352  -4.840  30.162  1.00  0.00     0.021 A 
HETATM   18  C22 UNL     1       8.236  -2.925  31.717  1.00  0.00     0.014 A 
HETATM   19  C19 UNL     1       5.982  -4.953  29.917  1.00  0.00     0.045 A 
HETATM   20  C27 UNL     1       8.084  -5.811  29.525  1.00  0.00     0.077 A 
HETATM   21  C16 UNL     1       5.379  -5.981  29.144  1.00  0.00     0.061 A 
HETATM   22  C18 UNL     1       4.856  -4.189  30.374  1.00  0.00     0.155 A 
HETATM   23  C15 UNL     1       6.076  -7.013  28.489  1.00  0.00     0.022 C 
HETATM   24  C17 UNL     1       3.932  -5.730  29.218  1.00  0.00     0.259 A 
HETATM   25  C14 UNL     1       5.831  -8.199  27.733  1.00  0.00     0.004 A 
HETATM   26  C28 UNL     1       7.449  -6.934  28.613  1.00  0.00     0.078 C 
HETATM   27  C9  UNL     1       7.077  -8.777  27.404  1.00  0.00     0.049 A 
HETATM   28  C13 UNL     1       4.657  -8.862  27.312  1.00  0.00     0.014 A 
HETATM   29  N2  UNL     1       8.072  -7.926  27.870  1.00  0.00    -0.308 N 
HETATM   30  C10 UNL     1       7.160  -9.989  26.697  1.00  0.00     0.030 A 
HETATM   31  C11 UNL     1       5.977 -10.619  26.303  1.00  0.00     0.002 A 
HETATM   32  C12 UNL     1       4.741 -10.062  26.602  1.00  0.00     0.001 A 
HETATM   33  O3  UNL     1       3.081  -6.412  28.680  1.00  0.00    -0.267 OA
HETATM   34  N3  UNL     1       3.697  -4.603  29.995  1.00  0.00    -0.303 N 
ATOM     35  H3  UNL     1       2.792  -4.188  30.220  1.00  0.00     0.171 HD
HETATM   36  C23 UNL     1       9.394  -2.406  32.308  1.00  0.00     0.001 A 
HETATM   37  C24 UNL     1      10.632  -3.001  32.090  1.00  0.00     0.002 A 
BRANCH  22  38
HETATM   38  O4  UNL     1       5.007  -3.119  31.143  1.00  0.00    -0.345 OA
HETATM   39  H20 UNL     1       4.124  -2.755  31.329  1.00  0.00     0.219 HD
ENDBRANCH  22  38
ENDBRANCH   3  13
TORSDOF 6
ENDMDL
MODEL 9
REMARK minimizedAffinity -9.20563793
REMARK  6 active torsions:
REMARK  status: ('A' for Active; 'I' for Inactive)
REMARK    1  A    between atoms: N1_2  and  C2_3 
REMARK    2  A    between atoms: C4_5  and  N4_35 
REMARK    3  A    between atoms: C5_7  and  N2_12 
REMARK    4  A    between atoms: C7_9  and  O2_10 
REMARK    5  A    between atoms: C18_25  and  O4_26 
REMARK    6  A    between atoms: C27_36  and  C28_37 
ROOT
HETATM    1  C2  UNL     1      10.877  -9.278  27.387  1.00  0.00     0.257 C 
HETATM    2  C3  UNL     1       9.578  -8.509  27.860  1.00  0.00     0.092 C 
HETATM    3  C4  UNL     1      10.115  -7.329  28.606  1.00  0.00     0.234 C 
HETATM    4  O1  UNL     1      10.855  -7.922  29.680  1.00  0.00    -0.333 OA
HETATM    5  C5  UNL     1      12.240  -7.988  29.325  1.00  0.00     0.168 C 
HETATM    6  C6  UNL     1      12.878  -8.825  30.446  1.00  0.00     0.074 C 
HETATM    7  C7  UNL     1      12.300  -8.666  27.890  1.00  0.00     0.209 C 
ENDROOT
BRANCH   1   8
HETATM    8  N1  UNL     1      10.689 -10.741  27.448  1.00  0.00     0.086 N 
HETATM    9  C1  UNL     1       9.841 -11.286  26.397  1.00  0.00     0.307 C 
HETATM   10  H4  UNL     1      10.248 -10.977  28.339  1.00  0.00     0.316 HD
ENDBRANCH   1   8
BRANCH   7  11
HETATM   11  O2  UNL     1      13.351  -9.645  27.794  1.00  0.00    -0.384 OA
HETATM   12  C8  UNL     1      13.058 -10.855  28.484  1.00  0.00     0.202 C 
ENDBRANCH   7  11
BRANCH   3  13
HETATM   13  N4  UNL     1       9.537  -6.169  29.187  1.00  0.00    -0.316 N 
HETATM   14  C26 UNL     1       9.986  -5.152  29.972  1.00  0.00     0.048 A 
HETATM   15  C21 UNL     1       8.838  -4.433  30.391  1.00  0.00     0.004 A 
HETATM   16  C25 UNL     1      11.281  -4.795  30.368  1.00  0.00     0.030 A 
HETATM   17  C20 UNL     1       7.680  -5.072  29.834  1.00  0.00     0.021 A 
HETATM   18  C22 UNL     1       9.031  -3.321  31.238  1.00  0.00     0.014 A 
HETATM   19  C19 UNL     1       6.285  -5.019  29.822  1.00  0.00     0.045 A 
HETATM   20  C27 UNL     1       8.176  -6.102  29.073  1.00  0.00     0.077 A 
HETATM   21  C16 UNL     1       5.444  -5.946  29.150  1.00  0.00     0.061 A 
HETATM   22  C18 UNL     1       5.350  -4.144  30.470  1.00  0.00     0.155 A 
HETATM   23  C15 UNL     1       5.895  -7.031  28.376  1.00  0.00     0.022 C 
HETATM   24  C17 UNL     1       4.070  -5.532  29.470  1.00  0.00     0.259 A 
HETATM   25  C14 UNL     1       5.388  -8.157  27.659  1.00  0.00     0.004 A 
HETATM   26  C28 UNL     1       7.269  -7.115  28.268  1.00  0.00     0.078 C 
HETATM   27  C9  UNL     1       6.485  -8.865  27.119  1.00  0.00     0.049 A 
HETATM   28  C13 UNL     1       4.090  -8.666  27.435  1.00  0.00     0.014 A 
HETATM   29  N2  UNL     1       7.638  -8.149  27.420  1.00  0.00    -0.308 N 
HETATM   30  C10 UNL     1       6.304 -10.056  26.395  1.00  0.00     0.030 A 
HETATM   31  C11 UNL     1       5.005 -10.533  26.199  1.00  0.00     0.002 A 
HETATM   32  C12 UNL     1       3.912  -9.846  26.707  1.00  0.00     0.001 A 
HETATM   33  O3  UNL     1       3.066  -6.093  29.074  1.00  0.00    -0.267 OA
HETATM   34  N3  UNL     1       4.102  -4.409  30.287  1.00  0.00    -0.303 N 
ATOM     35  H3  UNL     1       3.304  -3.900  30.665  1.00  0.00     0.171 HD
HETATM   36  C23 UNL     1      10.325  -2.957  31.632  1.00  0.00     0.001 A 
HETATM   37  C24 UNL     1      11.430  -3.684  31.203  1.00  0.00     0.002 A 
BRANCH  22  38
HETATM   38  O4  UNL     1       5.753  -3.122  31.214  1.00  0.00    -0.345 OA
HETATM   39  H20 UNL     1       4.963  -2.665  31.551  1.00  0.00     0.219 HD
ENDBRANCH  22  38
ENDBRANCH   3  13
TORSDOF 6
ENDMDL
