MODEL 1
REMARK minimizedAffinity -9.57084846
REMARK  6 active torsions:
REMARK  status: ('A' for Active; 'I' for Inactive)
REMARK    1  A    between atoms: C2_2  and  C30_32 
REMARK    2  A    between atoms: C3_3  and  C4_4 
REMARK    3  A    between atoms: C4_4  and  C5_5 
REMARK    4  A    between atoms: C5_5  and  C6_6 
REMARK    5  A    between atoms: C6_6  and  C8_8 
REMARK    6  A    between atoms: C30_32  and  O4_34 
ROOT
HETATM    1  C8  UNL     1       1.141   7.031  13.244  1.00  0.00    -0.002 C 
HETATM    2  C9  UNL     1       0.289   8.238  13.730  1.00  0.00     0.007 C 
HETATM    3  C10 UNL     1      -1.182   7.782  13.763  1.00  0.00     0.015 C 
HETATM    4  C11 UNL     1      -1.138   6.251  13.594  1.00  0.00    -0.005 C 
HETATM    5  C12 UNL     1      -0.883   5.640  15.006  1.00  0.00     0.021 C 
HETATM    6  C13 UNL     1      -2.354   5.504  13.060  1.00  0.00    -0.000 C 
HETATM    7  C14 UNL     1      -2.220   4.358  12.343  1.00  0.00    -0.060 C 
HETATM    8  C15 UNL     1      -0.823   3.804  12.018  1.00  0.00     0.036 C 
HETATM    9  C16 UNL     1       0.403   4.632  12.454  1.00  0.00     0.015 C 
HETATM   10  C17 UNL     1       0.064   6.120  12.577  1.00  0.00    -0.028 C 
HETATM   11  C18 UNL     1      -0.267   6.671  11.153  1.00  0.00     0.016 C 
HETATM   12  C19 UNL     1      -3.426   3.558  11.777  1.00  0.00    -0.014 C 
HETATM   13  C20 UNL     1      -3.537   3.900  10.274  1.00  0.00     0.020 C 
HETATM   14  C21 UNL     1      -3.202   2.037  11.965  1.00  0.00     0.021 C 
HETATM   15  C22 UNL     1      -4.383   1.142  11.620  1.00  0.00     0.080 C 
HETATM   16  C23 UNL     1      -5.700   1.836  11.373  1.00  0.00     0.135 C 
HETATM   17  O1  UNL     1      -6.533   1.281  10.652  1.00  0.00    -0.297 OA
HETATM   18  C24 UNL     1      -6.017   3.147  12.103  1.00  0.00     0.018 C 
HETATM   19  C25 UNL     1      -6.906   4.005  11.173  1.00  0.00     0.023 C 
HETATM   20  C26 UNL     1      -6.864   2.759  13.333  1.00  0.00     0.023 C 
HETATM   21  C27 UNL     1      -4.723   3.895  12.577  1.00  0.00     0.020 C 
HETATM   22  C28 UNL     1      -4.906   5.409  12.707  1.00  0.00     0.090 C 
HETATM   23  C29 UNL     1      -3.713   6.037  13.381  1.00  0.00     0.157 C 
HETATM   24  O2  UNL     1      -3.865   6.985  14.149  1.00  0.00    -0.293 OA
ENDROOT
BRANCH   1  25
HETATM   25  C6  UNL     1       2.387   7.477  12.429  1.00  0.00    -0.014 C 
HETATM   26  C7  UNL     1       2.169   8.791  11.671  1.00  0.00     0.010 C 
BRANCH  25  27
HETATM   27  C5  UNL     1       2.929   6.376  11.474  1.00  0.00     0.008 C 
BRANCH  27  28
HETATM   28  C4  UNL     1       3.680   6.803  10.205  1.00  0.00     0.028 C 
BRANCH  28  29
HETATM   29  C3  UNL     1       3.122   6.281   8.912  1.00  0.00    -0.013 C 
HETATM   30  C2  UNL     1       2.503   6.960   7.925  1.00  0.00     0.008 C 
HETATM   31  C1  UNL     1       2.115   6.289   6.635  1.00  0.00     0.055 C 
BRANCH  30  32
HETATM   32  C30 UNL     1       2.171   8.403   7.960  1.00  0.00     0.171 C 
HETATM   33  O3  UNL     1       1.134   8.878   8.386  1.00  0.00    -0.646 OA
BRANCH  32  34
HETATM   34  O4  UNL     1       3.173   9.198   7.548  1.00  0.00    -0.773 OA
HETATM   35  H44 UNL     1       2.819  10.100   7.673  1.00  0.00     0.167 HD
ENDBRANCH  32  34
ENDBRANCH  30  32
ENDBRANCH  28  29
ENDBRANCH  27  28
ENDBRANCH  25  27
ENDBRANCH   1  25
TORSDOF 6
ENDMDL
MODEL 2
REMARK minimizedAffinity -9.31059647
REMARK  6 active torsions:
REMARK  status: ('A' for Active; 'I' for Inactive)
REMARK    1  A    between atoms: C2_2  and  C30_32 
REMARK    2  A    between atoms: C3_3  and  C4_4 
REMARK    3  A    between atoms: C4_4  and  C5_5 
REMARK    4  A    between atoms: C5_5  and  C6_6 
REMARK    5  A    between atoms: C6_6  and  C8_8 
REMARK    6  A    between atoms: C30_32  and  O4_34 
ROOT
HETATM    1  C8  UNL     1      -2.157   5.967  13.551  1.00  0.00    -0.002 C 
HETATM    2  C9  UNL     1      -2.326   5.499  12.078  1.00  0.00     0.007 C 
HETATM    3  C10 UNL     1      -0.950   5.609  11.396  1.00  0.00     0.015 C 
HETATM    4  C11 UNL     1       0.054   5.843  12.542  1.00  0.00    -0.005 C 
HETATM    5  C12 UNL     1       0.419   4.444  13.126  1.00  0.00     0.021 C 
HETATM    6  C13 UNL     1       1.395   6.510  12.260  1.00  0.00    -0.000 C 
HETATM    7  C14 UNL     1       2.020   7.264  13.201  1.00  0.00    -0.060 C 
HETATM    8  C15 UNL     1       1.364   7.497  14.571  1.00  0.00     0.036 C 
HETATM    9  C16 UNL     1      -0.049   6.924  14.803  1.00  0.00     0.015 C 
HETATM   10  C17 UNL     1      -0.816   6.762  13.488  1.00  0.00    -0.028 C 
HETATM   11  C18 UNL     1      -1.085   8.182  12.895  1.00  0.00     0.016 C 
HETATM   12  C19 UNL     1       3.388   7.964  12.965  1.00  0.00    -0.014 C 
HETATM   13  C20 UNL     1       3.095   9.454  12.677  1.00  0.00     0.020 C 
HETATM   14  C21 UNL     1       4.288   7.827  14.218  1.00  0.00     0.021 C 
HETATM   15  C22 UNL     1       5.723   8.309  14.063  1.00  0.00     0.080 C 
HETATM   16  C23 UNL     1       6.173   8.633  12.660  1.00  0.00     0.135 C 
HETATM   17  O1  UNL     1       7.089   9.445  12.507  1.00  0.00    -0.297 OA
HETATM   18  C24 UNL     1       5.568   7.873  11.473  1.00  0.00     0.018 C 
HETATM   19  C25 UNL     1       5.535   8.833  10.262  1.00  0.00     0.023 C 
HETATM   20  C26 UNL     1       6.558   6.736  11.142  1.00  0.00     0.023 C 
HETATM   21  C27 UNL     1       4.164   7.259  11.809  1.00  0.00     0.020 C 
HETATM   22  C28 UNL     1       3.269   7.077  10.582  1.00  0.00     0.090 C 
HETATM   23  C29 UNL     1       2.039   6.279  10.930  1.00  0.00     0.157 C 
HETATM   24  O2  UNL     1       1.568   5.483  10.120  1.00  0.00    -0.293 OA
ENDROOT
BRANCH   1  25
HETATM   25  C6  UNL     1      -3.436   6.655  14.105  1.00  0.00    -0.014 C 
HETATM   26  C7  UNL     1      -3.718   6.306  15.570  1.00  0.00     0.010 C 
BRANCH  25  27
HETATM   27  C5  UNL     1      -4.698   6.413  13.230  1.00  0.00     0.008 C 
BRANCH  27  28
HETATM   28  C4  UNL     1      -5.585   5.197  13.533  1.00  0.00     0.028 C 
BRANCH  28  29
HETATM   29  C3  UNL     1      -5.343   3.987  12.678  1.00  0.00    -0.013 C 
HETATM   30  C2  UNL     1      -6.197   2.990  12.365  1.00  0.00     0.008 C 
HETATM   31  C1  UNL     1      -5.818   1.910  11.388  1.00  0.00     0.055 C 
BRANCH  30  32
HETATM   32  C30 UNL     1      -7.575   2.852  12.888  1.00  0.00     0.171 C 
HETATM   33  O3  UNL     1      -8.172   3.694  13.534  1.00  0.00    -0.646 OA
BRANCH  32  34
HETATM   34  O4  UNL     1      -8.184   1.714  12.513  1.00  0.00    -0.773 OA
HETATM   35  H44 UNL     1      -9.081   1.796  12.893  1.00  0.00     0.167 HD
ENDBRANCH  32  34
ENDBRANCH  30  32
ENDBRANCH  28  29
ENDBRANCH  27  28
ENDBRANCH  25  27
ENDBRANCH   1  25
TORSDOF 6
ENDMDL
MODEL 3
REMARK minimizedAffinity -9.23122692
REMARK  6 active torsions:
REMARK  status: ('A' for Active; 'I' for Inactive)
REMARK    1  A    between atoms: C2_2  and  C30_32 
REMARK    2  A    between atoms: C3_3  and  C4_4 
REMARK    3  A    between atoms: C4_4  and  C5_5 
REMARK    4  A    between atoms: C5_5  and  C6_6 
REMARK    5  A    between atoms: C6_6  and  C8_8 
REMARK    6  A    between atoms: C30_32  and  O4_34 
ROOT
HETATM    1  C8  UNL     1       0.679   8.199  13.017  1.00  0.00    -0.002 C 
HETATM    2  C9  UNL     1       0.745   9.446  13.943  1.00  0.00     0.007 C 
HETATM    3  C10 UNL     1      -0.589   9.527  14.708  1.00  0.00     0.015 C 
HETATM    4  C11 UNL     1      -1.286   8.177  14.453  1.00  0.00    -0.005 C 
HETATM    5  C12 UNL     1      -0.716   7.162  15.490  1.00  0.00     0.021 C 
HETATM    6  C13 UNL     1      -2.800   8.060  14.585  1.00  0.00    -0.000 C 
HETATM    7  C14 UNL     1      -3.507   7.173  13.838  1.00  0.00    -0.060 C 
HETATM    8  C15 UNL     1      -2.795   6.285  12.806  1.00  0.00     0.036 C 
HETATM    9  C16 UNL     1      -1.283   6.498  12.589  1.00  0.00     0.015 C 
HETATM   10  C17 UNL     1      -0.855   7.922  12.955  1.00  0.00    -0.028 C 
HETATM   11  C18 UNL     1      -1.517   8.912  11.943  1.00  0.00     0.016 C 
HETATM   12  C19 UNL     1      -5.050   7.013  13.936  1.00  0.00    -0.014 C 
HETATM   13  C20 UNL     1      -5.664   7.761  12.730  1.00  0.00     0.020 C 
HETATM   14  C21 UNL     1      -5.443   5.516  13.893  1.00  0.00     0.021 C 
HETATM   15  C22 UNL     1      -6.908   5.203  14.159  1.00  0.00     0.080 C 
HETATM   16  C23 UNL     1      -7.753   6.343  14.671  1.00  0.00     0.135 C 
HETATM   17  O1  UNL     1      -8.968   6.318  14.456  1.00  0.00    -0.297 OA
HETATM   18  C24 UNL     1      -7.113   7.437  15.534  1.00  0.00     0.018 C 
HETATM   19  C25 UNL     1      -7.859   8.761  15.251  1.00  0.00     0.023 C 
HETATM   20  C26 UNL     1      -7.393   7.047  17.000  1.00  0.00     0.023 C 
HETATM   21  C27 UNL     1      -5.564   7.544  15.310  1.00  0.00     0.020 C 
HETATM   22  C28 UNL     1      -5.001   8.937  15.602  1.00  0.00     0.090 C 
HETATM   23  C29 UNL     1      -3.494   8.917  15.594  1.00  0.00     0.157 C 
HETATM   24  O2  UNL     1      -2.862   9.618  16.383  1.00  0.00    -0.293 OA
ENDROOT
BRANCH   1  25
HETATM   25  C6  UNL     1       1.482   8.394  11.702  1.00  0.00    -0.014 C 
HETATM   26  C7  UNL     1       0.585   8.521  10.465  1.00  0.00     0.010 C 
BRANCH  25  27
HETATM   27  C5  UNL     1       2.577   7.314  11.477  1.00  0.00     0.008 C 
BRANCH  27  28
HETATM   28  C4  UNL     1       3.592   7.514  10.342  1.00  0.00     0.028 C 
BRANCH  28  29
HETATM   29  C3  UNL     1       3.020   7.523   8.954  1.00  0.00    -0.013 C 
HETATM   30  C2  UNL     1       2.805   6.481   8.123  1.00  0.00     0.008 C 
HETATM   31  C1  UNL     1       2.105   6.663   6.804  1.00  0.00     0.055 C 
BRANCH  30  32
HETATM   32  C30 UNL     1       3.178   5.076   8.403  1.00  0.00     0.171 C 
HETATM   33  O3  UNL     1       3.113   4.533   9.491  1.00  0.00    -0.646 OA
BRANCH  32  34
HETATM   34  O4  UNL     1       3.529   4.382   7.307  1.00  0.00    -0.773 OA
HETATM   35  H44 UNL     1       3.696   3.481   7.648  1.00  0.00     0.167 HD
ENDBRANCH  32  34
ENDBRANCH  30  32
ENDBRANCH  28  29
ENDBRANCH  27  28
ENDBRANCH  25  27
ENDBRANCH   1  25
TORSDOF 6
ENDMDL
MODEL 4
REMARK minimizedAffinity -9.03681755
REMARK  6 active torsions:
REMARK  status: ('A' for Active; 'I' for Inactive)
REMARK    1  A    between atoms: C2_2  and  C30_32 
REMARK    2  A    between atoms: C3_3  and  C4_4 
REMARK    3  A    between atoms: C4_4  and  C5_5 
REMARK    4  A    between atoms: C5_5  and  C6_6 
REMARK    5  A    between atoms: C6_6  and  C8_8 
REMARK    6  A    between atoms: C30_32  and  O4_34 
ROOT
HETATM    1  C8  UNL     1       2.402   8.906  13.012  1.00  0.00    -0.002 C 
HETATM    2  C9  UNL     1       3.232   7.867  12.205  1.00  0.00     0.007 C 
HETATM    3  C10 UNL     1       2.259   6.780  11.711  1.00  0.00     0.015 C 
HETATM    4  C11 UNL     1       0.850   7.347  11.971  1.00  0.00    -0.005 C 
HETATM    5  C12 UNL     1       0.493   8.263  10.759  1.00  0.00     0.021 C 
HETATM    6  C13 UNL     1      -0.341   6.406  12.112  1.00  0.00    -0.000 C 
HETATM    7  C14 UNL     1      -1.403   6.725  12.895  1.00  0.00    -0.060 C 
HETATM    8  C15 UNL     1      -1.413   8.038  13.694  1.00  0.00     0.036 C 
HETATM    9  C16 UNL     1      -0.152   8.924  13.645  1.00  0.00     0.015 C 
HETATM   10  C17 UNL     1       1.103   8.105  13.334  1.00  0.00    -0.028 C 
HETATM   11  C18 UNL     1       1.374   7.142  14.535  1.00  0.00     0.016 C 
HETATM   12  C19 UNL     1      -2.642   5.802  13.073  1.00  0.00    -0.014 C 
HETATM   13  C20 UNL     1      -2.486   5.085  14.433  1.00  0.00     0.020 C 
HETATM   14  C21 UNL     1      -3.946   6.637  13.055  1.00  0.00     0.021 C 
HETATM   15  C22 UNL     1      -5.244   5.845  13.038  1.00  0.00     0.080 C 
HETATM   16  C23 UNL     1      -5.120   4.361  12.796  1.00  0.00     0.135 C 
HETATM   17  O1  UNL     1      -6.003   3.617  13.230  1.00  0.00    -0.297 OA
HETATM   18  C24 UNL     1      -3.973   3.825  11.930  1.00  0.00     0.018 C 
HETATM   19  C25 UNL     1      -3.590   2.425  12.464  1.00  0.00     0.023 C 
HETATM   20  C26 UNL     1      -4.554   3.643  10.513  1.00  0.00     0.023 C 
HETATM   21  C27 UNL     1      -2.757   4.814  11.871  1.00  0.00     0.020 C 
HETATM   22  C28 UNL     1      -1.419   4.121  11.605  1.00  0.00     0.090 C 
HETATM   23  C29 UNL     1      -0.337   5.132  11.330  1.00  0.00     0.157 C 
HETATM   24  O2  UNL     1       0.541   4.890  10.503  1.00  0.00    -0.293 OA
ENDROOT
BRANCH   1  25
HETATM   25  C6  UNL     1       3.219   9.547  14.167  1.00  0.00    -0.014 C 
HETATM   26  C7  UNL     1       2.768  10.973  14.502  1.00  0.00     0.010 C 
BRANCH  25  27
HETATM   27  C5  UNL     1       4.757   9.496  13.942  1.00  0.00     0.008 C 
BRANCH  27  28
HETATM   28  C4  UNL     1       5.566   8.375  14.611  1.00  0.00     0.028 C 
BRANCH  28  29
HETATM   29  C3  UNL     1       6.995   8.251  14.168  1.00  0.00    -0.013 C 
HETATM   30  C2  UNL     1       8.110   8.187  14.924  1.00  0.00     0.008 C 
HETATM   31  C1  UNL     1       9.461   7.938  14.309  1.00  0.00     0.055 C 
BRANCH  30  32
HETATM   32  C30 UNL     1       8.149   8.309  16.399  1.00  0.00     0.171 C 
HETATM   33  O3  UNL     1       7.431   9.033  17.066  1.00  0.00    -0.646 OA
BRANCH  32  34
HETATM   34  O4  UNL     1       9.013   7.466  16.988  1.00  0.00    -0.773 OA
HETATM   35  H44 UNL     1       8.887   7.635  17.943  1.00  0.00     0.167 HD
ENDBRANCH  32  34
ENDBRANCH  30  32
ENDBRANCH  28  29
ENDBRANCH  27  28
ENDBRANCH  25  27
ENDBRANCH   1  25
TORSDOF 6
ENDMDL
MODEL 5
REMARK minimizedAffinity -9.03057671
REMARK  6 active torsions:
REMARK  status: ('A' for Active; 'I' for Inactive)
REMARK    1  A    between atoms: C2_2  and  C30_32 
REMARK    2  A    between atoms: C3_3  and  C4_4 
REMARK    3  A    between atoms: C4_4  and  C5_5 
REMARK    4  A    between atoms: C5_5  and  C6_6 
REMARK    5  A    between atoms: C6_6  and  C8_8 
REMARK    6  A    between atoms: C30_32  and  O4_34 
ROOT
HETATM    1  C8  UNL     1      -1.588   6.056  12.329  1.00  0.00    -0.002 C 
HETATM    2  C9  UNL     1      -1.989   6.842  13.610  1.00  0.00     0.007 C 
HETATM    3  C10 UNL     1      -0.895   7.894  13.870  1.00  0.00     0.015 C 
HETATM    4  C11 UNL     1      -0.039   7.915  12.589  1.00  0.00    -0.005 C 
HETATM    5  C12 UNL     1      -0.753   8.862  11.575  1.00  0.00     0.021 C 
HETATM    6  C13 UNL     1       1.401   8.412  12.637  1.00  0.00    -0.000 C 
HETATM    7  C14 UNL     1       2.345   7.924  11.792  1.00  0.00    -0.060 C 
HETATM    8  C15 UNL     1       1.988   6.823  10.782  1.00  0.00     0.036 C 
HETATM    9  C16 UNL     1       0.562   6.237  10.823  1.00  0.00     0.015 C 
HETATM   10  C17 UNL     1      -0.067   6.381  12.211  1.00  0.00    -0.028 C 
HETATM   11  C18 UNL     1       0.731   5.484  13.211  1.00  0.00     0.016 C 
HETATM   12  C19 UNL     1       3.826   8.398  11.800  1.00  0.00    -0.014 C 
HETATM   13  C20 UNL     1       4.646   7.319  12.544  1.00  0.00     0.020 C 
HETATM   14  C21 UNL     1       4.349   8.563  10.352  1.00  0.00     0.021 C 
HETATM   15  C22 UNL     1       5.726   9.194  10.208  1.00  0.00     0.080 C 
HETATM   16  C23 UNL     1       6.316   9.803  11.455  1.00  0.00     0.135 C 
HETATM   17  O1  UNL     1       7.544   9.886  11.547  1.00  0.00    -0.297 OA
HETATM   18  C24 UNL     1       5.390  10.403  12.520  1.00  0.00     0.018 C 
HETATM   19  C25 UNL     1       6.062  10.206  13.899  1.00  0.00     0.023 C 
HETATM   20  C26 UNL     1       5.337  11.919  12.239  1.00  0.00     0.023 C 
HETATM   21  C27 UNL     1       3.940   9.810  12.453  1.00  0.00     0.020 C 
HETATM   22  C28 UNL     1       3.200   9.853  13.792  1.00  0.00     0.090 C 
HETATM   23  C29 UNL     1       1.749   9.489  13.615  1.00  0.00     0.157 C 
HETATM   24  O2  UNL     1       0.884  10.050  14.286  1.00  0.00    -0.293 OA
ENDROOT
BRANCH   1  25
HETATM   25  C6  UNL     1      -2.060   4.577  12.370  1.00  0.00    -0.014 C 
HETATM   26  C7  UNL     1      -2.236   3.964  10.976  1.00  0.00     0.010 C 
BRANCH  25  27
HETATM   27  C5  UNL     1      -3.336   4.357  13.231  1.00  0.00     0.008 C 
BRANCH  27  28
HETATM   28  C4  UNL     1      -4.664   4.959  12.752  1.00  0.00     0.028 C 
BRANCH  28  29
HETATM   29  C3  UNL     1      -5.880   4.105  12.964  1.00  0.00    -0.013 C 
HETATM   30  C2  UNL     1      -6.290   3.030  12.259  1.00  0.00     0.008 C 
HETATM   31  C1  UNL     1      -7.478   2.214  12.692  1.00  0.00     0.055 C 
BRANCH  30  32
HETATM   32  C30 UNL     1      -5.633   2.509  11.038  1.00  0.00     0.171 C 
HETATM   33  O3  UNL     1      -5.596   3.077   9.961  1.00  0.00    -0.646 OA
BRANCH  32  34
HETATM   34  O4  UNL     1      -4.977   1.353  11.229  1.00  0.00    -0.773 OA
HETATM   35  H44 UNL     1      -4.569   1.172  10.360  1.00  0.00     0.167 HD
ENDBRANCH  32  34
ENDBRANCH  30  32
ENDBRANCH  28  29
ENDBRANCH  27  28
ENDBRANCH  25  27
ENDBRANCH   1  25
TORSDOF 6
ENDMDL
MODEL 6
REMARK minimizedAffinity -9.0045557
REMARK  6 active torsions:
REMARK  status: ('A' for Active; 'I' for Inactive)
REMARK    1  A    between atoms: C2_2  and  C30_32 
REMARK    2  A    between atoms: C3_3  and  C4_4 
REMARK    3  A    between atoms: C4_4  and  C5_5 
REMARK    4  A    between atoms: C5_5  and  C6_6 
REMARK    5  A    between atoms: C6_6  and  C8_8 
REMARK    6  A    between atoms: C30_32  and  O4_34 
ROOT
HETATM    1  C8  UNL     1       0.728   5.876  11.800  1.00  0.00    -0.002 C 
HETATM    2  C9  UNL     1       0.746   4.330  11.633  1.00  0.00     0.007 C 
HETATM    3  C10 UNL     1      -0.693   3.824  11.849  1.00  0.00     0.015 C 
HETATM    4  C11 UNL     1      -1.575   5.088  11.837  1.00  0.00    -0.005 C 
HETATM    5  C12 UNL     1      -1.882   5.419  10.344  1.00  0.00     0.021 C 
HETATM    6  C13 UNL     1      -2.936   5.079  12.522  1.00  0.00    -0.000 C 
HETATM    7  C14 UNL     1      -3.460   6.207  13.066  1.00  0.00    -0.060 C 
HETATM    8  C15 UNL     1      -2.668   7.523  13.037  1.00  0.00     0.036 C 
HETATM    9  C16 UNL     1      -1.240   7.496  12.455  1.00  0.00     0.015 C 
HETATM   10  C17 UNL     1      -0.611   6.105  12.567  1.00  0.00    -0.028 C 
HETATM   11  C18 UNL     1      -0.400   5.779  14.081  1.00  0.00     0.016 C 
HETATM   12  C19 UNL     1      -4.843   6.251  13.774  1.00  0.00    -0.014 C 
HETATM   13  C20 UNL     1      -4.578   6.235  15.297  1.00  0.00     0.020 C 
HETATM   14  C21 UNL     1      -5.612   7.537  13.379  1.00  0.00     0.021 C 
HETATM   15  C22 UNL     1      -7.054   7.624  13.856  1.00  0.00     0.080 C 
HETATM   16  C23 UNL     1      -7.643   6.364  14.441  1.00  0.00     0.135 C 
HETATM   17  O1  UNL     1      -8.568   6.467  15.251  1.00  0.00    -0.297 OA
HETATM   18  C24 UNL     1      -7.164   4.997  13.939  1.00  0.00     0.018 C 
HETATM   19  C25 UNL     1      -7.252   4.001  15.119  1.00  0.00     0.023 C 
HETATM   20  C26 UNL     1      -8.185   4.549  12.872  1.00  0.00     0.023 C 
HETATM   21  C27 UNL     1      -5.735   5.064  13.296  1.00  0.00     0.020 C 
HETATM   22  C28 UNL     1      -4.969   3.741  13.374  1.00  0.00     0.090 C 
HETATM   23  C29 UNL     1      -3.712   3.801  12.545  1.00  0.00     0.157 C 
HETATM   24  O2  UNL     1      -3.328   2.806  11.932  1.00  0.00    -0.293 OA
ENDROOT
BRANCH   1  25
HETATM   25  C6  UNL     1       2.057   6.423  12.388  1.00  0.00    -0.014 C 
HETATM   26  C7  UNL     1       1.876   7.100  13.752  1.00  0.00     0.010 C 
BRANCH  25  27
HETATM   27  C5  UNL     1       2.831   7.354  11.412  1.00  0.00     0.008 C 
BRANCH  27  28
HETATM   28  C4  UNL     1       3.809   6.725  10.410  1.00  0.00     0.028 C 
BRANCH  28  29
HETATM   29  C3  UNL     1       3.197   6.210   9.139  1.00  0.00    -0.013 C 
HETATM   30  C2  UNL     1       2.668   6.910   8.113  1.00  0.00     0.008 C 
HETATM   31  C1  UNL     1       2.207   6.228   6.854  1.00  0.00     0.055 C 
BRANCH  30  32
HETATM   32  C30 UNL     1       2.513   8.382   8.075  1.00  0.00     0.171 C 
HETATM   33  O3  UNL     1       3.342   9.168   7.654  1.00  0.00    -0.646 OA
BRANCH  32  34
HETATM   34  O4  UNL     1       1.304   8.808   8.478  1.00  0.00    -0.773 OA
HETATM   35  H44 UNL     1       1.346   9.777   8.351  1.00  0.00     0.167 HD
ENDBRANCH  32  34
ENDBRANCH  30  32
ENDBRANCH  28  29
ENDBRANCH  27  28
ENDBRANCH  25  27
ENDBRANCH   1  25
TORSDOF 6
ENDMDL
MODEL 7
REMARK minimizedAffinity -8.8544445
REMARK  6 active torsions:
REMARK  status: ('A' for Active; 'I' for Inactive)
REMARK    1  A    between atoms: C2_2  and  C30_32 
REMARK    2  A    between atoms: C3_3  and  C4_4 
REMARK    3  A    between atoms: C4_4  and  C5_5 
REMARK    4  A    between atoms: C5_5  and  C6_6 
REMARK    5  A    between atoms: C6_6  and  C8_8 
REMARK    6  A    between atoms: C30_32  and  O4_34 
ROOT
HETATM    1  C8  UNL     1      -2.085   7.967  13.951  1.00  0.00    -0.002 C 
HETATM    2  C9  UNL     1      -1.921   7.420  15.397  1.00  0.00     0.007 C 
HETATM    3  C10 UNL     1      -0.429   7.520  15.765  1.00  0.00     0.015 C 
HETATM    4  C11 UNL     1       0.203   8.393  14.663  1.00  0.00    -0.005 C 
HETATM    5  C12 UNL     1      -0.029   9.882  15.067  1.00  0.00     0.021 C 
HETATM    6  C13 UNL     1       1.696   8.297  14.372  1.00  0.00    -0.000 C 
HETATM    7  C14 UNL     1       2.189   8.524  13.128  1.00  0.00    -0.060 C 
HETATM    8  C15 UNL     1       1.239   8.850  11.964  1.00  0.00     0.036 C 
HETATM    9  C16 UNL     1      -0.278   8.821  12.239  1.00  0.00     0.015 C 
HETATM   10  C17 UNL     1      -0.623   7.898  13.411  1.00  0.00    -0.028 C 
HETATM   11  C18 UNL     1      -0.294   6.428  12.994  1.00  0.00     0.016 C 
HETATM   12  C19 UNL     1       3.701   8.440  12.779  1.00  0.00    -0.014 C 
HETATM   13  C20 UNL     1       3.935   7.079  12.084  1.00  0.00     0.020 C 
HETATM   14  C21 UNL     1       4.104   9.599  11.834  1.00  0.00     0.021 C 
HETATM   15  C22 UNL     1       5.592   9.745  11.555  1.00  0.00     0.080 C 
HETATM   16  C23 UNL     1       6.518   8.914  12.408  1.00  0.00     0.135 C 
HETATM   17  O1  UNL     1       7.625   8.611  11.954  1.00  0.00    -0.297 OA
HETATM   18  C24 UNL     1       6.117   8.562  13.846  1.00  0.00     0.018 C 
HETATM   19  C25 UNL     1       6.721   7.179  14.182  1.00  0.00     0.023 C 
HETATM   20  C26 UNL     1       6.804   9.605  14.751  1.00  0.00     0.023 C 
HETATM   21  C27 UNL     1       4.565   8.625  14.065  1.00  0.00     0.020 C 
HETATM   22  C28 UNL     1       4.070   7.713  15.190  1.00  0.00     0.090 C 
HETATM   23  C29 UNL     1       2.622   7.987  15.505  1.00  0.00     0.157 C 
HETATM   24  O2  UNL     1       2.219   7.924  16.665  1.00  0.00    -0.293 OA
ENDROOT
BRANCH   1  25
HETATM   25  C6  UNL     1      -3.228   7.256  13.175  1.00  0.00    -0.014 C 
HETATM   26  C7  UNL     1      -4.454   8.151  12.960  1.00  0.00     0.010 C 
BRANCH  25  27
HETATM   27  C5  UNL     1      -3.645   5.893  13.797  1.00  0.00     0.008 C 
BRANCH  27  28
HETATM   28  C4  UNL     1      -4.020   4.737  12.859  1.00  0.00     0.028 C 
BRANCH  28  29
HETATM   29  C3  UNL     1      -5.385   4.147  13.068  1.00  0.00    -0.013 C 
HETATM   30  C2  UNL     1      -6.040   3.245  12.307  1.00  0.00     0.008 C 
HETATM   31  C1  UNL     1      -7.362   2.669  12.738  1.00  0.00     0.055 C 
BRANCH  30  32
HETATM   32  C30 UNL     1      -5.550   2.697  11.022  1.00  0.00     0.171 C 
HETATM   33  O3  UNL     1      -5.022   3.343  10.135  1.00  0.00    -0.646 OA
BRANCH  32  34
HETATM   34  O4  UNL     1      -5.656   1.361  10.930  1.00  0.00    -0.773 OA
HETATM   35  H44 UNL     1      -5.255   1.156  10.062  1.00  0.00     0.167 HD
ENDBRANCH  32  34
ENDBRANCH  30  32
ENDBRANCH  28  29
ENDBRANCH  27  28
ENDBRANCH  25  27
ENDBRANCH   1  25
TORSDOF 6
ENDMDL
MODEL 8
REMARK minimizedAffinity -8.76466942
REMARK  6 active torsions:
REMARK  status: ('A' for Active; 'I' for Inactive)
REMARK    1  A    between atoms: C2_2  and  C30_32 
REMARK    2  A    between atoms: C3_3  and  C4_4 
REMARK    3  A    between atoms: C4_4  and  C5_5 
REMARK    4  A    between atoms: C5_5  and  C6_6 
REMARK    5  A    between atoms: C6_6  and  C8_8 
REMARK    6  A    between atoms: C30_32  and  O4_34 
ROOT
HETATM    1  C8  UNL     1      -1.903   6.475  13.606  1.00  0.00    -0.002 C 
HETATM    2  C9  UNL     1      -2.082   5.915  12.166  1.00  0.00     0.007 C 
HETATM    3  C10 UNL     1      -0.689   5.869  11.511  1.00  0.00     0.015 C 
HETATM    4  C11 UNL     1       0.309   6.110  12.659  1.00  0.00    -0.005 C 
HETATM    5  C12 UNL     1       0.554   4.733  13.351  1.00  0.00     0.021 C 
HETATM    6  C13 UNL     1       1.703   6.650  12.362  1.00  0.00    -0.000 C 
HETATM    7  C14 UNL     1       2.367   7.422  13.261  1.00  0.00    -0.060 C 
HETATM    8  C15 UNL     1       1.707   7.803  14.595  1.00  0.00     0.036 C 
HETATM    9  C16 UNL     1       0.249   7.358  14.834  1.00  0.00     0.015 C 
HETATM   10  C17 UNL     1      -0.504   7.159  13.517  1.00  0.00    -0.028 C 
HETATM   11  C18 UNL     1      -0.651   8.548  12.817  1.00  0.00     0.016 C 
HETATM   12  C19 UNL     1       3.789   7.996  13.007  1.00  0.00    -0.014 C 
HETATM   13  C20 UNL     1       3.618   9.479  12.607  1.00  0.00     0.020 C 
HETATM   14  C21 UNL     1       4.653   7.884  14.287  1.00  0.00     0.021 C 
HETATM   15  C22 UNL     1       6.124   8.243  14.132  1.00  0.00     0.080 C 
HETATM   16  C23 UNL     1       6.622   8.428  12.721  1.00  0.00     0.135 C 
HETATM   17  O1  UNL     1       7.602   9.154  12.531  1.00  0.00    -0.297 OA
HETATM   18  C24 UNL     1       5.982   7.630  11.577  1.00  0.00     0.018 C 
HETATM   19  C25 UNL     1       6.045   8.499  10.300  1.00  0.00     0.023 C 
HETATM   20  C26 UNL     1       6.886   6.401  11.352  1.00  0.00     0.023 C 
HETATM   21  C27 UNL     1       4.529   7.152  11.924  1.00  0.00     0.020 C 
HETATM   22  C28 UNL     1       3.644   6.949  10.692  1.00  0.00     0.090 C 
HETATM   23  C29 UNL     1       2.350   6.274  11.068  1.00  0.00     0.157 C 
HETATM   24  O2  UNL     1       1.833   5.459  10.306  1.00  0.00    -0.293 OA
ENDROOT
BRANCH   1  25
HETATM   25  C6  UNL     1      -3.134   7.297  14.078  1.00  0.00    -0.014 C 
HETATM   26  C7  UNL     1      -3.324   7.272  15.599  1.00  0.00     0.010 C 
BRANCH  25  27
HETATM   27  C5  UNL     1      -4.454   6.908  13.354  1.00  0.00     0.008 C 
BRANCH  27  28
HETATM   28  C4  UNL     1      -5.544   6.173  14.147  1.00  0.00     0.028 C 
BRANCH  28  29
HETATM   29  C3  UNL     1      -6.958   6.465  13.735  1.00  0.00    -0.013 C 
HETATM   30  C2  UNL     1      -7.874   5.626  13.207  1.00  0.00     0.008 C 
HETATM   31  C1  UNL     1      -9.293   6.066  12.966  1.00  0.00     0.055 C 
BRANCH  30  32
HETATM   32  C30 UNL     1      -7.627   4.212  12.847  1.00  0.00     0.171 C 
HETATM   33  O3  UNL     1      -6.585   3.770  12.396  1.00  0.00    -0.646 OA
BRANCH  32  34
HETATM   34  O4  UNL     1      -8.650   3.393  13.143  1.00  0.00    -0.773 OA
HETATM   35  H44 UNL     1      -8.318   2.508  12.892  1.00  0.00     0.167 HD
ENDBRANCH  32  34
ENDBRANCH  30  32
ENDBRANCH  28  29
ENDBRANCH  27  28
ENDBRANCH  25  27
ENDBRANCH   1  25
TORSDOF 6
ENDMDL
MODEL 9
REMARK minimizedAffinity -8.68589878
REMARK  6 active torsions:
REMARK  status: ('A' for Active; 'I' for Inactive)
REMARK    1  A    between atoms: C2_2  and  C30_32 
REMARK    2  A    between atoms: C3_3  and  C4_4 
REMARK    3  A    between atoms: C4_4  and  C5_5 
REMARK    4  A    between atoms: C5_5  and  C6_6 
REMARK    5  A    between atoms: C6_6  and  C8_8 
REMARK    6  A    between atoms: C30_32  and  O4_34 
ROOT
HETATM    1  C8  UNL     1      -3.984   7.001  14.562  1.00  0.00    -0.002 C 
HETATM    2  C9  UNL     1      -4.311   5.605  13.961  1.00  0.00     0.007 C 
HETATM    3  C10 UNL     1      -3.093   5.163  13.128  1.00  0.00     0.015 C 
HETATM    4  C11 UNL     1      -1.969   6.150  13.496  1.00  0.00    -0.005 C 
HETATM    5  C12 UNL     1      -1.305   5.622  14.806  1.00  0.00     0.021 C 
HETATM    6  C13 UNL     1      -0.807   6.381  12.536  1.00  0.00    -0.000 C 
HETATM    7  C14 UNL     1      -0.165   7.576  12.480  1.00  0.00    -0.060 C 
HETATM    8  C15 UNL     1      -0.623   8.746  13.364  1.00  0.00     0.036 C 
HETATM    9  C16 UNL     1      -1.877   8.543  14.240  1.00  0.00     0.015 C 
HETATM   10  C17 UNL     1      -2.808   7.478  13.655  1.00  0.00    -0.028 C 
HETATM   11  C18 UNL     1      -3.383   8.013  12.304  1.00  0.00     0.016 C 
HETATM   12  C19 UNL     1       1.024   7.862  11.521  1.00  0.00    -0.014 C 
HETATM   13  C20 UNL     1       0.464   8.668  10.327  1.00  0.00     0.020 C 
HETATM   14  C21 UNL     1       2.122   8.677  12.249  1.00  0.00     0.021 C 
HETATM   15  C22 UNL     1       3.423   8.874  11.485  1.00  0.00     0.080 C 
HETATM   16  C23 UNL     1       3.589   8.060  10.226  1.00  0.00     0.135 C 
HETATM   17  O1  UNL     1       4.334   8.489   9.340  1.00  0.00    -0.297 OA
HETATM   18  C24 UNL     1       2.929   6.680  10.119  1.00  0.00     0.018 C 
HETATM   19  C25 UNL     1       2.557   6.446   8.636  1.00  0.00     0.023 C 
HETATM   20  C26 UNL     1       4.016   5.653  10.497  1.00  0.00     0.023 C 
HETATM   21  C27 UNL     1       1.707   6.527  11.090  1.00  0.00     0.020 C 
HETATM   22  C28 UNL     1       0.667   5.514  10.607  1.00  0.00     0.090 C 
HETATM   23  C29 UNL     1      -0.355   5.241  11.681  1.00  0.00     0.157 C 
HETATM   24  O2  UNL     1      -0.820   4.111  11.819  1.00  0.00    -0.293 OA
ENDROOT
BRANCH   1  25
HETATM   25  C6  UNL     1      -5.249   7.889  14.717  1.00  0.00    -0.014 C 
HETATM   26  C7  UNL     1      -4.941   9.276  15.293  1.00  0.00     0.010 C 
BRANCH  25  27
HETATM   27  C5  UNL     1      -6.394   7.205  15.516  1.00  0.00     0.008 C 
BRANCH  27  28
HETATM   28  C4  UNL     1      -7.090   5.980  14.907  1.00  0.00     0.028 C 
BRANCH  28  29
HETATM   29  C3  UNL     1      -7.760   6.205  13.582  1.00  0.00    -0.013 C 
HETATM   30  C2  UNL     1      -8.094   5.298  12.640  1.00  0.00     0.008 C 
HETATM   31  C1  UNL     1      -8.878   5.690  11.417  1.00  0.00     0.055 C 
BRANCH  30  32
HETATM   32  C30 UNL     1      -7.782   3.852  12.700  1.00  0.00     0.171 C 
HETATM   33  O3  UNL     1      -6.670   3.366  12.602  1.00  0.00    -0.646 OA
BRANCH  32  34
HETATM   34  O4  UNL     1      -8.849   3.080  12.966  1.00  0.00    -0.773 OA
HETATM   35  H44 UNL     1      -8.475   2.178  13.017  1.00  0.00     0.167 HD
ENDBRANCH  32  34
ENDBRANCH  30  32
ENDBRANCH  28  29
ENDBRANCH  27  28
ENDBRANCH  25  27
ENDBRANCH   1  25
TORSDOF 6
ENDMDL
