MODEL 1
REMARK minimizedAffinity -9.85497284
REMARK  8 active torsions:
REMARK  status: ('A' for Active; 'I' for Inactive)
REMARK    1  A    between atoms: C5_5  and  O1_6 
REMARK    2  A    between atoms: C9_10  and  C10_11 
REMARK    3  A    between atoms: C10_11  and  C11_12 
REMARK    4  A    between atoms: C11_12  and  C12_13 
REMARK    5  A    between atoms: C14_15  and  C15_16 
REMARK    6  A    between atoms: C15_16  and  C16_17 
REMARK    7  A    between atoms: C16_17  and  C17_18 
REMARK    8  A    between atoms: C23_24  and  O2_25 
ROOT
HETATM    1  C12 UNL     1      -3.261  48.051 -21.612  1.00  0.00    -0.087 C 
HETATM    2  C13 UNL     1      -4.213  47.287 -20.730  1.00  0.00     0.043 C 
HETATM    3  C14 UNL     1      -2.004  48.405 -21.278  1.00  0.00    -0.024 C 
ENDROOT
BRANCH   3   4
HETATM    4  C15 UNL     1      -1.265  48.125 -20.001  1.00  0.00     0.030 C 
BRANCH   4   5
HETATM    5  C16 UNL     1      -1.600  49.083 -18.844  1.00  0.00     0.042 C 
BRANCH   5   6
HETATM    6  C17 UNL     1      -1.262  50.592 -19.025  1.00  0.00     0.065 C 
HETATM    7  C18 UNL     1      -2.479  51.466 -18.683  1.00  0.00     0.046 C 
HETATM    8  C19 UNL     1      -0.058  50.895 -18.111  1.00  0.00     0.043 C 
HETATM    9  C20 UNL     1       0.459  52.310 -18.310  1.00  0.00     0.044 C 
HETATM   10  C21 UNL     1       0.549  52.637 -19.770  1.00  0.00    -0.021 A 
HETATM   11  C22 UNL     1       1.307  53.743 -20.181  1.00  0.00     0.046 A 
HETATM   12  C27 UNL     1      -0.136  51.875 -20.726  1.00  0.00     0.082 A 
HETATM   13  C23 UNL     1       1.392  54.061 -21.533  1.00  0.00     0.066 A 
HETATM   14  C24 UNL     1       0.731  53.296 -22.484  1.00  0.00     0.046 A 
HETATM   15  C25 UNL     1      -0.033  52.189 -22.092  1.00  0.00    -0.025 A 
HETATM   16  C26 UNL     1      -0.762  51.383 -23.128  1.00  0.00     0.051 C 
HETATM   17  O3  UNL     1      -0.910  50.790 -20.405  1.00  0.00    -0.340 OA
BRANCH  13  18
HETATM   18  O2  UNL     1       2.121  55.127 -21.968  1.00  0.00    -0.361 OA
HETATM   19  H36 UNL     1       2.528  55.558 -21.198  1.00  0.00     0.217 HD
ENDBRANCH  13  18
ENDBRANCH   5   6
ENDBRANCH   4   5
ENDBRANCH   3   4
BRANCH   1  20
HETATM   20  C11 UNL     1      -3.826  48.455 -22.966  1.00  0.00     0.034 C 
BRANCH  20  21
HETATM   21  C10 UNL     1      -2.747  48.546 -24.058  1.00  0.00     0.014 C 
BRANCH  21  22
HETATM   22  C9  UNL     1      -3.280  48.530 -25.520  1.00  0.00     0.024 C 
HETATM   23  C2  UNL     1      -4.808  48.325 -25.617  1.00  0.00    -0.084 C 
HETATM   24  C1  UNL     1      -5.660  48.178 -24.585  1.00  0.00     0.015 C 
HETATM   25  C3  UNL     1      -5.395  48.361 -27.015  1.00  0.00     0.036 C 
HETATM   26  C4  UNL     1      -4.333  48.315 -28.102  1.00  0.00     0.037 C 
HETATM   27  C5  UNL     1      -3.252  49.390 -27.926  1.00  0.00     0.127 C 
HETATM   28  C6  UNL     1      -2.905  49.757 -26.437  1.00  0.00    -0.014 C 
HETATM   29  C7  UNL     1      -3.635  51.048 -25.979  1.00  0.00     0.018 C 
HETATM   30  C8  UNL     1      -1.399  50.100 -26.416  1.00  0.00     0.018 C 
BRANCH  27  31
HETATM   31  O1  UNL     1      -3.613  50.559 -28.664  1.00  0.00    -0.395 OA
HETATM   32  H8  UNL     1      -3.717  50.301 -29.595  1.00  0.00     0.210 HD
ENDBRANCH  27  31
ENDBRANCH  21  22
ENDBRANCH  20  21
ENDBRANCH   1  20
TORSDOF 8
ENDMDL
MODEL 2
REMARK minimizedAffinity -9.43685341
REMARK  8 active torsions:
REMARK  status: ('A' for Active; 'I' for Inactive)
REMARK    1  A    between atoms: C5_5  and  O1_6 
REMARK    2  A    between atoms: C9_10  and  C10_11 
REMARK    3  A    between atoms: C10_11  and  C11_12 
REMARK    4  A    between atoms: C11_12  and  C12_13 
REMARK    5  A    between atoms: C14_15  and  C15_16 
REMARK    6  A    between atoms: C15_16  and  C16_17 
REMARK    7  A    between atoms: C16_17  and  C17_18 
REMARK    8  A    between atoms: C23_24  and  O2_25 
ROOT
HETATM    1  C12 UNL     1       0.513  52.650 -21.701  1.00  0.00    -0.087 C 
HETATM    2  C13 UNL     1       1.132  53.483 -20.610  1.00  0.00     0.043 C 
HETATM    3  C14 UNL     1      -0.100  51.462 -21.522  1.00  0.00    -0.024 C 
ENDROOT
BRANCH   3   4
HETATM    4  C15 UNL     1      -0.320  50.711 -20.240  1.00  0.00     0.030 C 
BRANCH   4   5
HETATM    5  C16 UNL     1      -0.824  49.268 -20.421  1.00  0.00     0.042 C 
BRANCH   5   6
HETATM    6  C17 UNL     1      -2.360  49.040 -20.521  1.00  0.00     0.065 C 
HETATM    7  C18 UNL     1      -2.748  47.686 -19.906  1.00  0.00     0.046 C 
HETATM    8  C19 UNL     1      -3.038  50.219 -19.794  1.00  0.00     0.043 C 
HETATM    9  C20 UNL     1      -4.549  50.183 -19.948  1.00  0.00     0.044 C 
HETATM   10  C21 UNL     1      -4.927  49.886 -21.367  1.00  0.00    -0.021 A 
HETATM   11  C22 UNL     1      -6.237  50.138 -21.798  1.00  0.00     0.046 A 
HETATM   12  C27 UNL     1      -4.000  49.333 -22.262  1.00  0.00     0.082 A 
HETATM   13  C23 UNL     1      -6.601  49.858 -23.111  1.00  0.00     0.066 A 
HETATM   14  C24 UNL     1      -5.681  49.329 -24.005  1.00  0.00     0.046 A 
HETATM   15  C25 UNL     1      -4.367  49.069 -23.593  1.00  0.00    -0.025 A 
HETATM   16  C26 UNL     1      -3.386  48.475 -24.563  1.00  0.00     0.051 C 
HETATM   17  O3  UNL     1      -2.705  49.042 -21.916  1.00  0.00    -0.340 OA
BRANCH  13  18
HETATM   18  O2  UNL     1      -7.865  50.093 -23.563  1.00  0.00    -0.361 OA
HETATM   19  H36 UNL     1      -8.390  50.466 -22.836  1.00  0.00     0.217 HD
ENDBRANCH  13  18
ENDBRANCH   5   6
ENDBRANCH   4   5
ENDBRANCH   3   4
BRANCH   1  20
HETATM   20  C11 UNL     1       0.643  53.230 -23.102  1.00  0.00     0.034 C 
BRANCH  20  21
HETATM   21  C10 UNL     1       0.848  52.148 -24.176  1.00  0.00     0.014 C 
BRANCH  21  22
HETATM   22  C9  UNL     1       0.332  52.520 -25.597  1.00  0.00     0.024 C 
HETATM   23  C2  UNL     1       1.291  52.098 -26.732  1.00  0.00    -0.084 C 
HETATM   24  C1  UNL     1       2.466  51.458 -26.586  1.00  0.00     0.015 C 
HETATM   25  C3  UNL     1       0.814  52.380 -28.144  1.00  0.00     0.036 C 
HETATM   26  C4  UNL     1      -0.407  53.286 -28.184  1.00  0.00     0.037 C 
HETATM   27  C5  UNL     1      -1.555  52.780 -27.301  1.00  0.00     0.127 C 
HETATM   28  C6  UNL     1      -1.116  52.032 -25.989  1.00  0.00    -0.014 C 
HETATM   29  C7  UNL     1      -1.162  50.490 -26.164  1.00  0.00     0.018 C 
HETATM   30  C8  UNL     1      -2.183  52.363 -24.924  1.00  0.00     0.018 C 
BRANCH  27  31
HETATM   31  O1  UNL     1      -2.434  51.965 -28.077  1.00  0.00    -0.395 OA
HETATM   32  H8  UNL     1      -2.759  52.502 -28.819  1.00  0.00     0.210 HD
ENDBRANCH  27  31
ENDBRANCH  21  22
ENDBRANCH  20  21
ENDBRANCH   1  20
TORSDOF 8
ENDMDL
MODEL 3
REMARK minimizedAffinity -9.41702652
REMARK  8 active torsions:
REMARK  status: ('A' for Active; 'I' for Inactive)
REMARK    1  A    between atoms: C5_5  and  O1_6 
REMARK    2  A    between atoms: C9_10  and  C10_11 
REMARK    3  A    between atoms: C10_11  and  C11_12 
REMARK    4  A    between atoms: C11_12  and  C12_13 
REMARK    5  A    between atoms: C14_15  and  C15_16 
REMARK    6  A    between atoms: C15_16  and  C16_17 
REMARK    7  A    between atoms: C16_17  and  C17_18 
REMARK    8  A    between atoms: C23_24  and  O2_25 
ROOT
HETATM    1  C12 UNL     1      -4.668  48.277 -26.807  1.00  0.00    -0.087 C 
HETATM    2  C13 UNL     1      -5.242  48.336 -25.417  1.00  0.00     0.043 C 
HETATM    3  C14 UNL     1      -3.429  48.678 -27.155  1.00  0.00    -0.024 C 
ENDROOT
BRANCH   3   4
HETATM    4  C15 UNL     1      -2.352  49.249 -26.277  1.00  0.00     0.030 C 
BRANCH   4   5
HETATM    5  C16 UNL     1      -2.109  50.758 -26.460  1.00  0.00     0.042 C 
BRANCH   5   6
HETATM    6  C17 UNL     1      -0.849  51.379 -25.790  1.00  0.00     0.065 C 
HETATM    7  C18 UNL     1       0.428  50.684 -26.287  1.00  0.00     0.046 C 
HETATM    8  C19 UNL     1      -0.856  52.884 -26.128  1.00  0.00     0.043 C 
HETATM    9  C20 UNL     1       0.253  53.629 -25.406  1.00  0.00     0.044 C 
HETATM   10  C21 UNL     1       0.327  53.204 -23.972  1.00  0.00    -0.021 A 
HETATM   11  C22 UNL     1       1.037  53.993 -23.055  1.00  0.00     0.046 A 
HETATM   12  C27 UNL     1      -0.276  52.015 -23.538  1.00  0.00     0.082 A 
HETATM   13  C23 UNL     1       1.118  53.603 -21.722  1.00  0.00     0.066 A 
HETATM   14  C24 UNL     1       0.506  52.437 -21.285  1.00  0.00     0.046 A 
HETATM   15  C25 UNL     1      -0.207  51.635 -22.187  1.00  0.00    -0.025 A 
HETATM   16  C26 UNL     1      -0.846  50.363 -21.706  1.00  0.00     0.051 C 
HETATM   17  O3  UNL     1      -0.975  51.181 -24.372  1.00  0.00    -0.340 OA
BRANCH  13  18
HETATM   18  O2  UNL     1       1.798  54.348 -20.805  1.00  0.00    -0.361 OA
HETATM   19  H36 UNL     1       2.164  55.129 -21.251  1.00  0.00     0.217 HD
ENDBRANCH  13  18
ENDBRANCH   5   6
ENDBRANCH   4   5
ENDBRANCH   3   4
BRANCH   1  20
HETATM   20  C11 UNL     1      -5.615  47.739 -27.869  1.00  0.00     0.034 C 
BRANCH  20  21
HETATM   21  C10 UNL     1      -5.236  48.193 -29.289  1.00  0.00     0.014 C 
BRANCH  21  22
HETATM   22  C9  UNL     1      -6.395  48.157 -30.328  1.00  0.00     0.024 C 
HETATM   23  C2  UNL     1      -6.036  47.404 -31.627  1.00  0.00    -0.084 C 
HETATM   24  C1  UNL     1      -4.863  46.804 -31.902  1.00  0.00     0.015 C 
HETATM   25  C3  UNL     1      -7.146  47.283 -32.653  1.00  0.00     0.036 C 
HETATM   26  C4  UNL     1      -8.340  48.170 -32.337  1.00  0.00     0.037 C 
HETATM   27  C5  UNL     1      -8.875  47.967 -30.913  1.00  0.00     0.127 C 
HETATM   28  C6  UNL     1      -7.790  47.613 -29.831  1.00  0.00    -0.014 C 
HETATM   29  C7  UNL     1      -7.733  46.087 -29.552  1.00  0.00     0.018 C 
HETATM   30  C8  UNL     1      -8.267  48.261 -28.513  1.00  0.00     0.018 C 
BRANCH  27  31
HETATM   31  O1  UNL     1      -9.914  46.986 -30.926  1.00  0.00    -0.395 OA
HETATM   32  H8  UNL     1     -10.607  47.297 -31.532  1.00  0.00     0.210 HD
ENDBRANCH  27  31
ENDBRANCH  21  22
ENDBRANCH  20  21
ENDBRANCH   1  20
TORSDOF 8
ENDMDL
MODEL 4
REMARK minimizedAffinity -9.37065983
REMARK  8 active torsions:
REMARK  status: ('A' for Active; 'I' for Inactive)
REMARK    1  A    between atoms: C5_5  and  O1_6 
REMARK    2  A    between atoms: C9_10  and  C10_11 
REMARK    3  A    between atoms: C10_11  and  C11_12 
REMARK    4  A    between atoms: C11_12  and  C12_13 
REMARK    5  A    between atoms: C14_15  and  C15_16 
REMARK    6  A    between atoms: C15_16  and  C16_17 
REMARK    7  A    between atoms: C16_17  and  C17_18 
REMARK    8  A    between atoms: C23_24  and  O2_25 
ROOT
HETATM    1  C12 UNL     1      -3.882  48.593 -26.632  1.00  0.00    -0.087 C 
HETATM    2  C13 UNL     1      -2.461  49.078 -26.515  1.00  0.00     0.043 C 
HETATM    3  C14 UNL     1      -4.716  48.367 -25.598  1.00  0.00    -0.024 C 
ENDROOT
BRANCH   3   4
HETATM    4  C15 UNL     1      -4.451  48.549 -24.130  1.00  0.00     0.030 C 
BRANCH   4   5
HETATM    5  C16 UNL     1      -2.994  48.901 -23.782  1.00  0.00     0.042 C 
BRANCH   5   6
HETATM    6  C17 UNL     1      -2.738  50.154 -22.896  1.00  0.00     0.065 C 
HETATM    7  C18 UNL     1      -3.884  51.168 -23.047  1.00  0.00     0.046 C 
HETATM    8  C19 UNL     1      -2.596  49.657 -21.443  1.00  0.00     0.043 C 
HETATM    9  C20 UNL     1      -2.198  50.780 -20.500  1.00  0.00     0.044 C 
HETATM   10  C21 UNL     1      -1.104  51.609 -21.099  1.00  0.00    -0.021 A 
HETATM   11  C22 UNL     1      -0.364  52.471 -20.276  1.00  0.00     0.046 A 
HETATM   12  C27 UNL     1      -0.827  51.559 -22.472  1.00  0.00     0.082 A 
HETATM   13  C23 UNL     1       0.649  53.251 -20.823  1.00  0.00     0.066 A 
HETATM   14  C24 UNL     1       0.939  53.189 -22.179  1.00  0.00     0.046 A 
HETATM   15  C25 UNL     1       0.210  52.335 -23.017  1.00  0.00    -0.025 A 
HETATM   16  C26 UNL     1       0.518  52.294 -24.486  1.00  0.00     0.051 C 
HETATM   17  O3  UNL     1      -1.512  50.755 -23.346  1.00  0.00    -0.340 OA
BRANCH  13  18
HETATM   18  O2  UNL     1       1.388  54.098 -20.052  1.00  0.00    -0.361 OA
HETATM   19  H36 UNL     1       1.079  54.030 -19.134  1.00  0.00     0.217 HD
ENDBRANCH  13  18
ENDBRANCH   5   6
ENDBRANCH   4   5
ENDBRANCH   3   4
BRANCH   1  20
HETATM   20  C11 UNL     1      -4.351  48.325 -28.055  1.00  0.00     0.034 C 
BRANCH  20  21
HETATM   21  C10 UNL     1      -5.693  47.574 -28.106  1.00  0.00     0.014 C 
BRANCH  21  22
HETATM   22  C9  UNL     1      -6.714  48.114 -29.150  1.00  0.00     0.024 C 
HETATM   23  C2  UNL     1      -6.410  47.670 -30.598  1.00  0.00    -0.084 C 
HETATM   24  C1  UNL     1      -5.390  46.886 -30.994  1.00  0.00     0.015 C 
HETATM   25  C3  UNL     1      -7.406  48.115 -31.651  1.00  0.00     0.036 C 
HETATM   26  C4  UNL     1      -8.384  49.159 -31.135  1.00  0.00     0.037 C 
HETATM   27  C5  UNL     1      -9.096  48.726 -29.847  1.00  0.00     0.127 C 
HETATM   28  C6  UNL     1      -8.242  47.831 -28.875  1.00  0.00    -0.014 C 
HETATM   29  C7  UNL     1      -8.575  46.324 -29.040  1.00  0.00     0.018 C 
HETATM   30  C8  UNL     1      -8.686  48.203 -27.444  1.00  0.00     0.018 C 
BRANCH  27  31
HETATM   31  O1  UNL     1     -10.329  48.083 -30.172  1.00  0.00    -0.395 OA
HETATM   32  H8  UNL     1     -10.863  48.711 -30.687  1.00  0.00     0.210 HD
ENDBRANCH  27  31
ENDBRANCH  21  22
ENDBRANCH  20  21
ENDBRANCH   1  20
TORSDOF 8
ENDMDL
MODEL 5
REMARK minimizedAffinity -9.35645199
REMARK  8 active torsions:
REMARK  status: ('A' for Active; 'I' for Inactive)
REMARK    1  A    between atoms: C5_5  and  O1_6 
REMARK    2  A    between atoms: C9_10  and  C10_11 
REMARK    3  A    between atoms: C10_11  and  C11_12 
REMARK    4  A    between atoms: C11_12  and  C12_13 
REMARK    5  A    between atoms: C14_15  and  C15_16 
REMARK    6  A    between atoms: C15_16  and  C16_17 
REMARK    7  A    between atoms: C16_17  and  C17_18 
REMARK    8  A    between atoms: C23_24  and  O2_25 
ROOT
HETATM    1  C12 UNL     1      -4.122  48.735 -27.128  1.00  0.00    -0.087 C 
HETATM    2  C13 UNL     1      -3.545  49.840 -27.973  1.00  0.00     0.043 C 
HETATM    3  C14 UNL     1      -3.702  48.400 -25.892  1.00  0.00    -0.024 C 
ENDROOT
BRANCH   3   4
HETATM    4  C15 UNL     1      -2.608  49.029 -25.076  1.00  0.00     0.030 C 
BRANCH   4   5
HETATM    5  C16 UNL     1      -2.780  48.884 -23.554  1.00  0.00     0.042 C 
BRANCH   5   6
HETATM    6  C17 UNL     1      -2.558  50.147 -22.672  1.00  0.00     0.065 C 
HETATM    7  C18 UNL     1      -3.734  51.126 -22.820  1.00  0.00     0.046 C 
HETATM    8  C19 UNL     1      -2.394  49.657 -21.219  1.00  0.00     0.043 C 
HETATM    9  C20 UNL     1      -2.027  50.793 -20.279  1.00  0.00     0.044 C 
HETATM   10  C21 UNL     1      -0.960  51.653 -20.885  1.00  0.00    -0.021 A 
HETATM   11  C22 UNL     1      -0.242  52.539 -20.067  1.00  0.00     0.046 A 
HETATM   12  C27 UNL     1      -0.688  51.608 -22.259  1.00  0.00     0.082 A 
HETATM   13  C23 UNL     1       0.745  53.347 -20.620  1.00  0.00     0.066 A 
HETATM   14  C24 UNL     1       1.030  53.291 -21.977  1.00  0.00     0.046 A 
HETATM   15  C25 UNL     1       0.323  52.414 -22.810  1.00  0.00    -0.025 A 
HETATM   16  C26 UNL     1       0.625  52.379 -24.281  1.00  0.00     0.051 C 
HETATM   17  O3  UNL     1      -1.353  50.783 -23.129  1.00  0.00    -0.340 OA
BRANCH  13  18
HETATM   18  O2  UNL     1       1.462  54.217 -19.854  1.00  0.00    -0.361 OA
HETATM   19  H36 UNL     1       1.159  54.141 -18.934  1.00  0.00     0.217 HD
ENDBRANCH  13  18
ENDBRANCH   5   6
ENDBRANCH   4   5
ENDBRANCH   3   4
BRANCH   1  20
HETATM   20  C11 UNL     1      -5.247  47.948 -27.784  1.00  0.00     0.034 C 
BRANCH  20  21
HETATM   21  C10 UNL     1      -5.323  48.174 -29.304  1.00  0.00     0.014 C 
BRANCH  21  22
HETATM   22  C9  UNL     1      -5.628  46.901 -30.148  1.00  0.00     0.024 C 
HETATM   23  C2  UNL     1      -6.744  46.017 -29.549  1.00  0.00    -0.084 C 
HETATM   24  C1  UNL     1      -7.437  46.263 -28.422  1.00  0.00     0.015 C 
HETATM   25  C3  UNL     1      -7.128  44.794 -30.360  1.00  0.00     0.036 C 
HETATM   26  C4  UNL     1      -6.148  44.501 -31.485  1.00  0.00     0.037 C 
HETATM   27  C5  UNL     1      -5.902  45.713 -32.394  1.00  0.00     0.127 C 
HETATM   28  C6  UNL     1      -5.954  47.112 -31.677  1.00  0.00    -0.014 C 
HETATM   29  C7  UNL     1      -7.329  47.806 -31.869  1.00  0.00     0.018 C 
HETATM   30  C8  UNL     1      -4.928  48.008 -32.404  1.00  0.00     0.018 C 
BRANCH  27  31
HETATM   31  O1  UNL     1      -6.809  45.678 -33.497  1.00  0.00    -0.395 OA
HETATM   32  H8  UNL     1      -6.669  44.839 -33.968  1.00  0.00     0.210 HD
ENDBRANCH  27  31
ENDBRANCH  21  22
ENDBRANCH  20  21
ENDBRANCH   1  20
TORSDOF 8
ENDMDL
MODEL 6
REMARK minimizedAffinity -9.27893066
REMARK  8 active torsions:
REMARK  status: ('A' for Active; 'I' for Inactive)
REMARK    1  A    between atoms: C5_5  and  O1_6 
REMARK    2  A    between atoms: C9_10  and  C10_11 
REMARK    3  A    between atoms: C10_11  and  C11_12 
REMARK    4  A    between atoms: C11_12  and  C12_13 
REMARK    5  A    between atoms: C14_15  and  C15_16 
REMARK    6  A    between atoms: C15_16  and  C16_17 
REMARK    7  A    between atoms: C16_17  and  C17_18 
REMARK    8  A    between atoms: C23_24  and  O2_25 
ROOT
HETATM    1  C12 UNL     1      -4.712  48.274 -26.581  1.00  0.00    -0.087 C 
HETATM    2  C13 UNL     1      -5.079  48.362 -25.123  1.00  0.00     0.043 C 
HETATM    3  C14 UNL     1      -3.530  48.649 -27.110  1.00  0.00    -0.024 C 
ENDROOT
BRANCH   3   4
HETATM    4  C15 UNL     1      -2.330  49.213 -26.404  1.00  0.00     0.030 C 
BRANCH   4   5
HETATM    5  C16 UNL     1      -2.028  50.687 -26.731  1.00  0.00     0.042 C 
BRANCH   5   6
HETATM    6  C17 UNL     1      -0.793  51.346 -26.052  1.00  0.00     0.065 C 
HETATM    7  C18 UNL     1       0.505  50.658 -26.503  1.00  0.00     0.046 C 
HETATM    8  C19 UNL     1      -0.816  52.841 -26.431  1.00  0.00     0.043 C 
HETATM    9  C20 UNL     1       0.266  53.623 -25.706  1.00  0.00     0.044 C 
HETATM   10  C21 UNL     1       0.315  53.237 -24.259  1.00  0.00    -0.021 A 
HETATM   11  C22 UNL     1       0.993  54.061 -23.349  1.00  0.00     0.046 A 
HETATM   12  C27 UNL     1      -0.279  52.051 -23.806  1.00  0.00     0.082 A 
HETATM   13  C23 UNL     1       1.052  53.709 -22.005  1.00  0.00     0.066 A 
HETATM   14  C24 UNL     1       0.448  52.545 -21.550  1.00  0.00     0.046 A 
HETATM   15  C25 UNL     1      -0.232  51.708 -22.444  1.00  0.00    -0.025 A 
HETATM   16  C26 UNL     1      -0.862  50.440 -21.943  1.00  0.00     0.051 C 
HETATM   17  O3  UNL     1      -0.946  51.183 -24.632  1.00  0.00    -0.340 OA
BRANCH  13  18
HETATM   18  O2  UNL     1       1.701  54.488 -21.094  1.00  0.00    -0.361 OA
HETATM   19  H36 UNL     1       2.064  55.263 -21.553  1.00  0.00     0.217 HD
ENDBRANCH  13  18
ENDBRANCH   5   6
ENDBRANCH   4   5
ENDBRANCH   3   4
BRANCH   1  20
HETATM   20  C11 UNL     1      -5.810  47.738 -27.487  1.00  0.00     0.034 C 
BRANCH  20  21
HETATM   21  C10 UNL     1      -5.437  47.807 -28.978  1.00  0.00     0.014 C 
BRANCH  21  22
HETATM   22  C9  UNL     1      -6.354  46.983 -29.929  1.00  0.00     0.024 C 
HETATM   23  C2  UNL     1      -7.791  47.538 -30.035  1.00  0.00    -0.084 C 
HETATM   24  C1  UNL     1      -8.273  48.627 -29.409  1.00  0.00     0.015 C 
HETATM   25  C3  UNL     1      -8.714  46.811 -30.995  1.00  0.00     0.036 C 
HETATM   26  C4  UNL     1      -8.140  45.488 -31.476  1.00  0.00     0.037 C 
HETATM   27  C5  UNL     1      -6.729  45.626 -32.061  1.00  0.00     0.127 C 
HETATM   28  C6  UNL     1      -5.829  46.730 -31.395  1.00  0.00    -0.014 C 
HETATM   29  C7  UNL     1      -5.821  48.043 -32.224  1.00  0.00     0.018 C 
HETATM   30  C8  UNL     1      -4.382  46.197 -31.444  1.00  0.00     0.018 C 
BRANCH  27  31
HETATM   31  O1  UNL     1      -6.812  45.827 -33.473  1.00  0.00    -0.395 OA
HETATM   32  H8  UNL     1      -7.288  45.069 -33.853  1.00  0.00     0.210 HD
ENDBRANCH  27  31
ENDBRANCH  21  22
ENDBRANCH  20  21
ENDBRANCH   1  20
TORSDOF 8
ENDMDL
MODEL 7
REMARK minimizedAffinity -9.22626305
REMARK  8 active torsions:
REMARK  status: ('A' for Active; 'I' for Inactive)
REMARK    1  A    between atoms: C5_5  and  O1_6 
REMARK    2  A    between atoms: C9_10  and  C10_11 
REMARK    3  A    between atoms: C10_11  and  C11_12 
REMARK    4  A    between atoms: C11_12  and  C12_13 
REMARK    5  A    between atoms: C14_15  and  C15_16 
REMARK    6  A    between atoms: C15_16  and  C16_17 
REMARK    7  A    between atoms: C16_17  and  C17_18 
REMARK    8  A    between atoms: C23_24  and  O2_25 
ROOT
HETATM    1  C12 UNL     1      -3.897  48.900 -25.691  1.00  0.00    -0.087 C 
HETATM    2  C13 UNL     1      -5.150  48.326 -25.086  1.00  0.00     0.043 C 
HETATM    3  C14 UNL     1      -3.558  48.831 -26.994  1.00  0.00    -0.024 C 
ENDROOT
BRANCH   3   4
HETATM    4  C15 UNL     1      -4.322  48.201 -28.123  1.00  0.00     0.030 C 
BRANCH   4   5
HETATM    5  C16 UNL     1      -5.775  47.824 -27.781  1.00  0.00     0.042 C 
BRANCH   5   6
HETATM    6  C17 UNL     1      -6.699  47.358 -28.943  1.00  0.00     0.065 C 
HETATM    7  C18 UNL     1      -7.172  45.913 -28.714  1.00  0.00     0.046 C 
HETATM    8  C19 UNL     1      -7.879  48.349 -29.004  1.00  0.00     0.043 C 
HETATM    9  C20 UNL     1      -8.780  48.080 -30.198  1.00  0.00     0.044 C 
HETATM   10  C21 UNL     1      -7.963  47.840 -31.431  1.00  0.00    -0.021 A 
HETATM   11  C22 UNL     1      -8.579  47.909 -32.689  1.00  0.00     0.046 A 
HETATM   12  C27 UNL     1      -6.601  47.518 -31.345  1.00  0.00     0.082 A 
HETATM   13  C23 UNL     1      -7.832  47.681 -33.840  1.00  0.00     0.066 A 
HETATM   14  C24 UNL     1      -6.479  47.382 -33.760  1.00  0.00     0.046 A 
HETATM   15  C25 UNL     1      -5.846  47.306 -32.511  1.00  0.00    -0.025 A 
HETATM   16  C26 UNL     1      -4.387  46.959 -32.436  1.00  0.00     0.051 C 
HETATM   17  O3  UNL     1      -5.928  47.416 -30.155  1.00  0.00    -0.340 OA
BRANCH  13  18
HETATM   18  O2  UNL     1      -8.398  47.742 -35.078  1.00  0.00    -0.361 OA
HETATM   19  H36 UNL     1      -9.338  47.965 -34.977  1.00  0.00     0.217 HD
ENDBRANCH  13  18
ENDBRANCH   5   6
ENDBRANCH   4   5
ENDBRANCH   3   4
BRANCH   1  20
HETATM   20  C11 UNL     1      -2.960  49.578 -24.701  1.00  0.00     0.034 C 
BRANCH  20  21
HETATM   21  C10 UNL     1      -3.225  51.087 -24.569  1.00  0.00     0.014 C 
BRANCH  21  22
HETATM   22  C9  UNL     1      -1.957  51.989 -24.625  1.00  0.00     0.024 C 
HETATM   23  C2  UNL     1      -0.937  51.691 -23.504  1.00  0.00    -0.084 C 
HETATM   24  C1  UNL     1      -1.058  50.753 -22.546  1.00  0.00     0.015 C 
HETATM   25  C3  UNL     1       0.346  52.497 -23.543  1.00  0.00     0.036 C 
HETATM   26  C4  UNL     1       0.284  53.659 -24.521  1.00  0.00     0.037 C 
HETATM   27  C5  UNL     1      -0.145  53.231 -25.931  1.00  0.00     0.127 C 
HETATM   28  C6  UNL     1      -1.166  52.036 -25.989  1.00  0.00    -0.014 C 
HETATM   29  C7  UNL     1      -0.456  50.686 -26.276  1.00  0.00     0.018 C 
HETATM   30  C8  UNL     1      -2.070  52.300 -27.213  1.00  0.00     0.018 C 
BRANCH  27  31
HETATM   31  O1  UNL     1       1.012  52.945 -26.718  1.00  0.00    -0.395 OA
HETATM   32  H8  UNL     1       1.563  53.745 -26.736  1.00  0.00     0.210 HD
ENDBRANCH  27  31
ENDBRANCH  21  22
ENDBRANCH  20  21
ENDBRANCH   1  20
TORSDOF 8
ENDMDL
MODEL 8
REMARK minimizedAffinity -9.11539268
REMARK  8 active torsions:
REMARK  status: ('A' for Active; 'I' for Inactive)
REMARK    1  A    between atoms: C5_5  and  O1_6 
REMARK    2  A    between atoms: C9_10  and  C10_11 
REMARK    3  A    between atoms: C10_11  and  C11_12 
REMARK    4  A    between atoms: C11_12  and  C12_13 
REMARK    5  A    between atoms: C14_15  and  C15_16 
REMARK    6  A    between atoms: C15_16  and  C16_17 
REMARK    7  A    between atoms: C16_17  and  C17_18 
REMARK    8  A    between atoms: C23_24  and  O2_25 
ROOT
HETATM    1  C12 UNL     1      -3.605  48.393 -23.437  1.00  0.00    -0.087 C 
HETATM    2  C13 UNL     1      -5.057  48.072 -23.203  1.00  0.00     0.043 C 
HETATM    3  C14 UNL     1      -2.630  48.313 -22.510  1.00  0.00    -0.024 C 
ENDROOT
BRANCH   3   4
HETATM    4  C15 UNL     1      -2.743  47.888 -21.074  1.00  0.00     0.030 C 
BRANCH   4   5
HETATM    5  C16 UNL     1      -2.748  49.047 -20.061  1.00  0.00     0.042 C 
BRANCH   5   6
HETATM    6  C17 UNL     1      -1.399  49.769 -19.773  1.00  0.00     0.065 C 
HETATM    7  C18 UNL     1      -0.281  49.206 -20.666  1.00  0.00     0.046 C 
HETATM    8  C19 UNL     1      -1.634  51.273 -20.020  1.00  0.00     0.043 C 
HETATM    9  C20 UNL     1      -0.422  52.103 -19.631  1.00  0.00     0.044 C 
HETATM   10  C21 UNL     1       0.120  51.656 -18.308  1.00  0.00    -0.021 A 
HETATM   11  C22 UNL     1       1.008  52.488 -17.611  1.00  0.00     0.046 A 
HETATM   12  C27 UNL     1      -0.222  50.407 -17.771  1.00  0.00     0.082 A 
HETATM   13  C23 UNL     1       1.524  52.080 -16.386  1.00  0.00     0.066 A 
HETATM   14  C24 UNL     1       1.172  50.853 -15.841  1.00  0.00     0.046 A 
HETATM   15  C25 UNL     1       0.288  50.006 -16.524  1.00  0.00    -0.025 A 
HETATM   16  C26 UNL     1      -0.068  48.671 -15.935  1.00  0.00     0.051 C 
HETATM   17  O3  UNL     1      -1.070  49.529 -18.395  1.00  0.00    -0.340 OA
BRANCH  13  18
HETATM   18  O2  UNL     1       2.388  52.865 -15.682  1.00  0.00    -0.361 OA
HETATM   19  H36 UNL     1       2.534  53.686 -16.178  1.00  0.00     0.217 HD
ENDBRANCH  13  18
ENDBRANCH   5   6
ENDBRANCH   4   5
ENDBRANCH   3   4
BRANCH   1  20
HETATM   20  C11 UNL     1      -3.274  48.869 -24.844  1.00  0.00     0.034 C 
BRANCH  20  21
HETATM   21  C10 UNL     1      -2.921  50.365 -24.898  1.00  0.00     0.014 C 
BRANCH  21  22
HETATM   22  C9  UNL     1      -1.566  50.702 -25.587  1.00  0.00     0.024 C 
HETATM   23  C2  UNL     1      -1.711  51.096 -27.074  1.00  0.00    -0.084 C 
HETATM   24  C1  UNL     1      -2.861  51.173 -27.769  1.00  0.00     0.015 C 
HETATM   25  C3  UNL     1      -0.431  51.493 -27.783  1.00  0.00     0.036 C 
HETATM   26  C4  UNL     1       0.816  51.165 -26.977  1.00  0.00     0.037 C 
HETATM   27  C5  UNL     1       0.773  51.731 -25.552  1.00  0.00     0.127 C 
HETATM   28  C6  UNL     1      -0.654  51.786 -24.893  1.00  0.00    -0.014 C 
HETATM   29  C7  UNL     1      -1.282  53.202 -24.999  1.00  0.00     0.018 C 
HETATM   30  C8  UNL     1      -0.444  51.535 -23.385  1.00  0.00     0.018 C 
BRANCH  27  31
HETATM   31  O1  UNL     1       1.390  53.020 -25.528  1.00  0.00    -0.395 OA
HETATM   32  H8  UNL     1       2.302  52.917 -25.849  1.00  0.00     0.210 HD
ENDBRANCH  27  31
ENDBRANCH  21  22
ENDBRANCH  20  21
ENDBRANCH   1  20
TORSDOF 8
ENDMDL
MODEL 9
REMARK minimizedAffinity -9.03308487
REMARK  8 active torsions:
REMARK  status: ('A' for Active; 'I' for Inactive)
REMARK    1  A    between atoms: C5_5  and  O1_6 
REMARK    2  A    between atoms: C9_10  and  C10_11 
REMARK    3  A    between atoms: C10_11  and  C11_12 
REMARK    4  A    between atoms: C11_12  and  C12_13 
REMARK    5  A    between atoms: C14_15  and  C15_16 
REMARK    6  A    between atoms: C15_16  and  C16_17 
REMARK    7  A    between atoms: C16_17  and  C17_18 
REMARK    8  A    between atoms: C23_24  and  O2_25 
ROOT
HETATM    1  C12 UNL     1       0.652  53.004 -21.656  1.00  0.00    -0.087 C 
HETATM    2  C13 UNL     1       1.481  53.824 -20.703  1.00  0.00     0.043 C 
HETATM    3  C14 UNL     1      -0.157  51.984 -21.306  1.00  0.00    -0.024 C 
ENDROOT
BRANCH   3   4
HETATM    4  C15 UNL     1      -0.432  51.443 -19.932  1.00  0.00     0.030 C 
BRANCH   4   5
HETATM    5  C16 UNL     1      -0.336  49.911 -19.816  1.00  0.00     0.042 C 
BRANCH   5   6
HETATM    6  C17 UNL     1      -1.654  49.089 -19.913  1.00  0.00     0.065 C 
HETATM    7  C18 UNL     1      -1.511  47.955 -20.940  1.00  0.00     0.046 C 
HETATM    8  C19 UNL     1      -1.954  48.553 -18.499  1.00  0.00     0.043 C 
HETATM    9  C20 UNL     1      -3.300  47.851 -18.436  1.00  0.00     0.044 C 
HETATM   10  C21 UNL     1      -4.346  48.651 -19.151  1.00  0.00    -0.021 A 
HETATM   11  C22 UNL     1      -5.701  48.366 -18.930  1.00  0.00     0.046 A 
HETATM   12  C27 UNL     1      -3.991  49.658 -20.059  1.00  0.00     0.082 A 
HETATM   13  C23 UNL     1      -6.680  49.098 -19.594  1.00  0.00     0.066 A 
HETATM   14  C24 UNL     1      -6.332  50.110 -20.479  1.00  0.00     0.046 A 
HETATM   15  C25 UNL     1      -4.983  50.407 -20.714  1.00  0.00    -0.025 A 
HETATM   16  C26 UNL     1      -4.619  51.489 -21.690  1.00  0.00     0.051 C 
HETATM   17  O3  UNL     1      -2.690  49.988 -20.342  1.00  0.00    -0.340 OA
BRANCH  13  18
HETATM   18  O2  UNL     1      -8.006  48.849 -19.401  1.00  0.00    -0.361 OA
HETATM   19  H36 UNL     1      -8.095  48.127 -18.758  1.00  0.00     0.217 HD
ENDBRANCH  13  18
ENDBRANCH   5   6
ENDBRANCH   4   5
ENDBRANCH   3   4
BRANCH   1  20
HETATM   20  C11 UNL     1       0.800  53.383 -23.123  1.00  0.00     0.034 C 
BRANCH  20  21
HETATM   21  C10 UNL     1       0.681  52.172 -24.064  1.00  0.00     0.014 C 
BRANCH  21  22
HETATM   22  C9  UNL     1       0.220  52.503 -25.513  1.00  0.00     0.024 C 
HETATM   23  C2  UNL     1       1.208  52.023 -26.600  1.00  0.00    -0.084 C 
HETATM   24  C1  UNL     1       2.365  51.368 -26.391  1.00  0.00     0.015 C 
HETATM   25  C3  UNL     1       0.783  52.264 -28.035  1.00  0.00     0.036 C 
HETATM   26  C4  UNL     1      -0.418  53.189 -28.148  1.00  0.00     0.037 C 
HETATM   27  C5  UNL     1      -1.605  52.736 -27.288  1.00  0.00     0.127 C 
HETATM   28  C6  UNL     1      -1.223  52.026 -25.937  1.00  0.00    -0.014 C 
HETATM   29  C7  UNL     1      -1.293  50.481 -26.060  1.00  0.00     0.018 C 
HETATM   30  C8  UNL     1      -2.319  52.414 -24.921  1.00  0.00     0.018 C 
BRANCH  27  31
HETATM   31  O1  UNL     1      -2.473  51.909 -28.064  1.00  0.00    -0.395 OA
HETATM   32  H8  UNL     1      -2.762  52.426 -28.835  1.00  0.00     0.210 HD
ENDBRANCH  27  31
ENDBRANCH  21  22
ENDBRANCH  20  21
ENDBRANCH   1  20
TORSDOF 8
ENDMDL
