MODEL 1
REMARK minimizedAffinity -8.44691372
REMARK  4 active torsions:
REMARK  status: ('A' for Active; 'I' for Inactive)
REMARK    1  A    between atoms: C2_2  and  C4_4 
REMARK    2  A    between atoms: C13_13  and  C15_15 
REMARK    3  A    between atoms: C15_15  and  O1_16 
REMARK    4  A    between atoms: C18_19  and  O2_20 
ROOT
HETATM    1  C4  UNL     1       0.179  51.994 -27.258  1.00  0.00     0.021 C 
HETATM    2  C5  UNL     1       0.047  50.588 -26.638  1.00  0.00     0.008 C 
HETATM    3  C6  UNL     1      -0.837  50.602 -25.391  1.00  0.00     0.009 C 
HETATM    4  C7  UNL     1      -0.271  51.464 -24.232  1.00  0.00     0.034 C 
HETATM    5  C8  UNL     1      -1.332  51.783 -23.096  1.00  0.00    -0.033 C 
HETATM    6  C9  UNL     1      -2.510  52.617 -23.680  1.00  0.00     0.016 C 
HETATM    7  C10 UNL     1      -1.977  50.468 -22.583  1.00  0.00     0.010 C 
HETATM    8  C11 UNL     1      -1.061  49.592 -21.744  1.00  0.00     0.002 C 
HETATM    9  C12 UNL     1      -0.066  50.355 -20.877  1.00  0.00     0.012 C 
HETATM   10  C13 UNL     1      -0.466  51.810 -20.549  1.00  0.00    -0.018 C 
HETATM   11  C14 UNL     1      -1.767  51.845 -19.705  1.00  0.00     0.018 C 
HETATM   12  C16 UNL     1      -0.672  52.614 -21.900  1.00  0.00     0.007 C 
HETATM   13  C17 UNL     1       0.619  53.341 -22.350  1.00  0.00     0.041 C 
HETATM   14  C18 UNL     1       0.531  53.880 -23.768  1.00  0.00     0.156 C 
HETATM   15  C19 UNL     1       0.426  52.729 -24.737  1.00  0.00     0.118 A 
HETATM   16  O3  UNL     1       1.706  52.418 -25.352  1.00  0.00    -0.366 OA
HETATM   17  C20 UNL     1       0.696  52.953 -26.213  1.00  0.00     0.165 A 
ENDROOT
BRANCH  10  18
HETATM   18  C15 UNL     1       0.652  52.425 -19.647  1.00  0.00     0.173 C 
BRANCH  18  19
HETATM   19  O1  UNL     1       0.201  53.573 -18.934  1.00  0.00    -0.400 OA
HETATM   20  H28 UNL     1       0.182  54.319 -19.556  1.00  0.00     0.209 HD
ENDBRANCH  18  19
ENDBRANCH  10  18
BRANCH  14  21
HETATM   21  O2  UNL     1       1.704  54.658 -24.021  1.00  0.00    -0.392 OA
HETATM   22  H33 UNL     1       2.381  54.023 -24.329  1.00  0.00     0.210 HD
ENDBRANCH  14  21
BRANCH   1  23
HETATM   23  C2  UNL     1      -1.141  52.539 -27.893  1.00  0.00    -0.016 C 
HETATM   24  C1  UNL     1      -1.189  54.070 -27.950  1.00  0.00     0.010 C 
HETATM   25  C3  UNL     1      -2.378  52.050 -27.125  1.00  0.00     0.010 C 
ENDBRANCH   1  23
TORSDOF 4
ENDMDL
MODEL 2
REMARK minimizedAffinity -8.31148338
REMARK  4 active torsions:
REMARK  status: ('A' for Active; 'I' for Inactive)
REMARK    1  A    between atoms: C2_2  and  C4_4 
REMARK    2  A    between atoms: C13_13  and  C15_15 
REMARK    3  A    between atoms: C15_15  and  O1_16 
REMARK    4  A    between atoms: C18_19  and  O2_20 
ROOT
HETATM    1  C4  UNL     1       8.998  62.012 -34.491  1.00  0.00     0.021 C 
HETATM    2  C5  UNL     1       9.118  62.686 -35.874  1.00  0.00     0.008 C 
HETATM    3  C6  UNL     1       8.552  64.105 -35.861  1.00  0.00     0.009 C 
HETATM    4  C7  UNL     1       7.033  64.171 -35.548  1.00  0.00     0.034 C 
HETATM    5  C8  UNL     1       6.522  65.626 -35.171  1.00  0.00    -0.033 C 
HETATM    6  C9  UNL     1       7.223  66.122 -33.871  1.00  0.00     0.016 C 
HETATM    7  C10 UNL     1       6.934  66.639 -36.271  1.00  0.00     0.010 C 
HETATM    8  C11 UNL     1       6.174  66.507 -37.580  1.00  0.00     0.002 C 
HETATM    9  C12 UNL     1       4.720  66.075 -37.432  1.00  0.00     0.012 C 
HETATM   10  C13 UNL     1       4.089  66.363 -36.053  1.00  0.00    -0.018 C 
HETATM   11  C14 UNL     1       4.033  67.889 -35.781  1.00  0.00     0.018 C 
HETATM   12  C16 UNL     1       4.942  65.642 -34.927  1.00  0.00     0.007 C 
HETATM   13  C17 UNL     1       4.398  64.230 -34.596  1.00  0.00     0.041 C 
HETATM   14  C18 UNL     1       5.349  63.416 -33.735  1.00  0.00     0.156 C 
HETATM   15  C19 UNL     1       6.609  63.128 -34.513  1.00  0.00     0.118 A 
HETATM   16  O3  UNL     1       6.602  61.791 -35.083  1.00  0.00    -0.366 OA
HETATM   17  C20 UNL     1       7.556  62.039 -34.046  1.00  0.00     0.165 A 
ENDROOT
BRANCH  10  18
HETATM   18  C15 UNL     1       2.606  65.874 -36.090  1.00  0.00     0.173 C 
BRANCH  18  19
HETATM   19  O1  UNL     1       2.372  64.788 -35.198  1.00  0.00    -0.400 OA
HETATM   20  H28 UNL     1       2.730  63.984 -35.610  1.00  0.00     0.209 HD
ENDBRANCH  18  19
ENDBRANCH  10  18
BRANCH  14  21
HETATM   21  O2  UNL     1       4.687  62.203 -33.365  1.00  0.00    -0.392 OA
HETATM   22  H33 UNL     1       4.851  61.578 -34.098  1.00  0.00     0.210 HD
ENDBRANCH  14  21
BRANCH   1  23
HETATM   23  C2  UNL     1       9.919  62.638 -33.395  1.00  0.00    -0.016 C 
HETATM   24  C1  UNL     1      11.285  63.073 -33.939  1.00  0.00     0.010 C 
HETATM   25  C3  UNL     1      10.156  61.660 -32.233  1.00  0.00     0.010 C 
ENDBRANCH   1  23
TORSDOF 4
ENDMDL
MODEL 3
REMARK minimizedAffinity -8.01353455
REMARK  4 active torsions:
REMARK  status: ('A' for Active; 'I' for Inactive)
REMARK    1  A    between atoms: C2_2  and  C4_4 
REMARK    2  A    between atoms: C13_13  and  C15_15 
REMARK    3  A    between atoms: C15_15  and  O1_16 
REMARK    4  A    between atoms: C18_19  and  O2_20 
ROOT
HETATM    1  C4  UNL     1      -1.778  49.442 -20.169  1.00  0.00     0.021 C 
HETATM    2  C5  UNL     1      -0.461  49.748 -20.911  1.00  0.00     0.008 C 
HETATM    3  C6  UNL     1      -0.668  50.770 -22.028  1.00  0.00     0.009 C 
HETATM    4  C7  UNL     1      -1.622  50.286 -23.152  1.00  0.00     0.034 C 
HETATM    5  C8  UNL     1      -2.129  51.449 -24.105  1.00  0.00    -0.033 C 
HETATM    6  C9  UNL     1      -2.959  52.487 -23.292  1.00  0.00     0.016 C 
HETATM    7  C10 UNL     1      -0.921  52.243 -24.669  1.00  0.00     0.010 C 
HETATM    8  C11 UNL     1      -0.094  51.499 -25.704  1.00  0.00     0.002 C 
HETATM    9  C12 UNL     1      -0.891  50.563 -26.604  1.00  0.00     0.012 C 
HETATM   10  C13 UNL     1      -2.395  50.893 -26.724  1.00  0.00    -0.018 C 
HETATM   11  C14 UNL     1      -2.601  52.280 -27.388  1.00  0.00     0.018 C 
HETATM   12  C16 UNL     1      -3.051  50.879 -25.281  1.00  0.00     0.007 C 
HETATM   13  C17 UNL     1      -3.646  49.494 -24.922  1.00  0.00     0.041 C 
HETATM   14  C18 UNL     1      -4.024  49.374 -23.456  1.00  0.00     0.156 C 
HETATM   15  C19 UNL     1      -2.778  49.445 -22.609  1.00  0.00     0.118 A 
HETATM   16  O3  UNL     1      -2.326  48.127 -22.196  1.00  0.00    -0.366 OA
HETATM   17  C20 UNL     1      -2.818  48.986 -21.163  1.00  0.00     0.165 A 
ENDROOT
BRANCH  10  18
HETATM   18  C15 UNL     1      -3.042  49.849 -27.690  1.00  0.00     0.173 C 
BRANCH  18  19
HETATM   19  O1  UNL     1      -3.557  50.454 -28.873  1.00  0.00    -0.400 OA
HETATM   20  H28 UNL     1      -4.398  50.883 -28.644  1.00  0.00     0.209 HD
ENDBRANCH  18  19
ENDBRANCH  10  18
BRANCH  14  21
HETATM   21  O2  UNL     1      -4.698  48.126 -23.272  1.00  0.00    -0.392 OA
HETATM   22  H33 UNL     1      -3.995  47.465 -23.121  1.00  0.00     0.210 HD
ENDBRANCH  14  21
BRANCH   1  23
HETATM   23  C2  UNL     1      -2.322  50.634 -19.318  1.00  0.00    -0.016 C 
HETATM   24  C1  UNL     1      -3.611  51.236 -19.889  1.00  0.00     0.010 C 
HETATM   25  C3  UNL     1      -1.283  51.759 -19.195  1.00  0.00     0.010 C 
ENDBRANCH   1  23
TORSDOF 4
ENDMDL
MODEL 4
REMARK minimizedAffinity -7.84658241
REMARK  4 active torsions:
REMARK  status: ('A' for Active; 'I' for Inactive)
REMARK    1  A    between atoms: C2_2  and  C4_4 
REMARK    2  A    between atoms: C13_13  and  C15_15 
REMARK    3  A    between atoms: C15_15  and  O1_16 
REMARK    4  A    between atoms: C18_19  and  O2_20 
ROOT
HETATM    1  C4  UNL     1      -1.257  51.731 -26.383  1.00  0.00     0.021 C 
HETATM    2  C5  UNL     1      -2.234  52.490 -25.462  1.00  0.00     0.008 C 
HETATM    3  C6  UNL     1      -2.867  51.563 -24.426  1.00  0.00     0.009 C 
HETATM    4  C7  UNL     1      -3.740  50.437 -25.042  1.00  0.00     0.034 C 
HETATM    5  C8  UNL     1      -4.092  49.272 -24.024  1.00  0.00    -0.033 C 
HETATM    6  C9  UNL     1      -2.790  48.559 -23.553  1.00  0.00     0.016 C 
HETATM    7  C10 UNL     1      -4.726  49.860 -22.736  1.00  0.00     0.010 C 
HETATM    8  C11 UNL     1      -6.138  50.395 -22.905  1.00  0.00     0.002 C 
HETATM    9  C12 UNL     1      -6.994  49.630 -23.907  1.00  0.00     0.012 C 
HETATM   10  C13 UNL     1      -6.545  48.177 -24.177  1.00  0.00    -0.018 C 
HETATM   11  C14 UNL     1      -6.659  47.319 -22.890  1.00  0.00     0.018 C 
HETATM   12  C16 UNL     1      -5.047  48.180 -24.697  1.00  0.00     0.007 C 
HETATM   13  C17 UNL     1      -4.965  48.221 -26.244  1.00  0.00     0.041 C 
HETATM   14  C18 UNL     1      -3.563  48.506 -26.754  1.00  0.00     0.156 C 
HETATM   15  C19 UNL     1      -3.155  49.900 -26.349  1.00  0.00     0.118 A 
HETATM   16  O3  UNL     1      -3.322  50.853 -27.435  1.00  0.00    -0.366 OA
HETATM   17  C20 UNL     1      -1.978  50.574 -27.030  1.00  0.00     0.165 A 
ENDROOT
BRANCH  10  18
HETATM   18  C15 UNL     1      -7.539  47.549 -25.206  1.00  0.00     0.173 C 
BRANCH  18  19
HETATM   19  O1  UNL     1      -8.407  48.522 -25.782  1.00  0.00    -0.400 OA
HETATM   20  H28 UNL     1      -9.093  48.731 -25.127  1.00  0.00     0.209 HD
ENDBRANCH  18  19
ENDBRANCH  10  18
BRANCH  14  21
HETATM   21  O2  UNL     1      -3.573  48.369 -28.178  1.00  0.00    -0.392 OA
HETATM   22  H33 UNL     1      -3.852  49.238 -28.527  1.00  0.00     0.210 HD
ENDBRANCH  14  21
BRANCH   1  23
HETATM   23  C2  UNL     1       0.040  51.234 -25.667  1.00  0.00    -0.016 C 
HETATM   24  C1  UNL     1       0.512  52.183 -24.559  1.00  0.00     0.010 C 
HETATM   25  C3  UNL     1       1.196  51.048 -26.662  1.00  0.00     0.010 C 
ENDBRANCH   1  23
TORSDOF 4
ENDMDL
MODEL 5
REMARK minimizedAffinity -7.77523375
REMARK  4 active torsions:
REMARK  status: ('A' for Active; 'I' for Inactive)
REMARK    1  A    between atoms: C2_2  and  C4_4 
REMARK    2  A    between atoms: C13_13  and  C15_15 
REMARK    3  A    between atoms: C15_15  and  O1_16 
REMARK    4  A    between atoms: C18_19  and  O2_20 
ROOT
HETATM    1  C4  UNL     1      -4.373  48.126 -23.725  1.00  0.00     0.021 C 
HETATM    2  C5  UNL     1      -3.049  48.363 -22.969  1.00  0.00     0.008 C 
HETATM    3  C6  UNL     1      -2.555  49.799 -23.136  1.00  0.00     0.009 C 
HETATM    4  C7  UNL     1      -2.217  50.179 -24.602  1.00  0.00     0.034 C 
HETATM    5  C8  UNL     1      -2.062  51.741 -24.837  1.00  0.00    -0.033 C 
HETATM    6  C9  UNL     1      -3.407  52.466 -24.533  1.00  0.00     0.016 C 
HETATM    7  C10 UNL     1      -1.041  52.335 -23.832  1.00  0.00     0.010 C 
HETATM    8  C11 UNL     1       0.409  51.961 -24.096  1.00  0.00     0.002 C 
HETATM    9  C12 UNL     1       0.770  51.814 -25.569  1.00  0.00     0.012 C 
HETATM   10  C13 UNL     1      -0.156  52.565 -26.549  1.00  0.00    -0.018 C 
HETATM   11  C14 UNL     1      -0.074  54.097 -26.318  1.00  0.00     0.018 C 
HETATM   12  C16 UNL     1      -1.647  52.064 -26.348  1.00  0.00     0.007 C 
HETATM   13  C17 UNL     1      -2.007  50.899 -27.303  1.00  0.00     0.041 C 
HETATM   14  C18 UNL     1      -3.318  50.222 -26.943  1.00  0.00     0.156 C 
HETATM   15  C19 UNL     1      -3.180  49.541 -25.603  1.00  0.00     0.118 A 
HETATM   16  O3  UNL     1      -2.932  48.115 -25.741  1.00  0.00    -0.366 OA
HETATM   17  C20 UNL     1      -4.192  48.494 -25.177  1.00  0.00     0.165 A 
ENDROOT
BRANCH  10  18
HETATM   18  C15 UNL     1       0.372  52.316 -27.998  1.00  0.00     0.173 C 
BRANCH  18  19
HETATM   19  O1  UNL     1       0.027  53.374 -28.888  1.00  0.00    -0.400 OA
HETATM   20  H28 UNL     1      -0.909  53.268 -29.126  1.00  0.00     0.209 HD
ENDBRANCH  18  19
ENDBRANCH  10  18
BRANCH  14  21
HETATM   21  O2  UNL     1      -3.625  49.274 -27.969  1.00  0.00    -0.392 OA
HETATM   22  H33 UNL     1      -3.158  48.452 -27.720  1.00  0.00     0.210 HD
ENDBRANCH  14  21
BRANCH   1  23
HETATM   23  C2  UNL     1      -5.598  48.884 -23.119  1.00  0.00    -0.016 C 
HETATM   24  C1  UNL     1      -6.483  47.988 -22.245  1.00  0.00     0.010 C 
HETATM   25  C3  UNL     1      -6.479  49.500 -24.218  1.00  0.00     0.010 C 
ENDBRANCH   1  23
TORSDOF 4
ENDMDL
MODEL 6
REMARK minimizedAffinity -7.67536306
REMARK  4 active torsions:
REMARK  status: ('A' for Active; 'I' for Inactive)
REMARK    1  A    between atoms: C2_2  and  C4_4 
REMARK    2  A    between atoms: C13_13  and  C15_15 
REMARK    3  A    between atoms: C15_15  and  O1_16 
REMARK    4  A    between atoms: C18_19  and  O2_20 
ROOT
HETATM    1  C4  UNL     1      -3.462  51.845 -25.046  1.00  0.00     0.021 C 
HETATM    2  C5  UNL     1      -2.229  52.626 -24.547  1.00  0.00     0.008 C 
HETATM    3  C6  UNL     1      -1.443  51.832 -23.505  1.00  0.00     0.009 C 
HETATM    4  C7  UNL     1      -2.242  51.536 -22.208  1.00  0.00     0.034 C 
HETATM    5  C8  UNL     1      -1.583  50.420 -21.293  1.00  0.00    -0.033 C 
HETATM    6  C9  UNL     1      -1.534  49.062 -22.054  1.00  0.00     0.016 C 
HETATM    7  C10 UNL     1      -0.103  50.776 -20.995  1.00  0.00     0.010 C 
HETATM    8  C11 UNL     1       0.095  51.942 -20.041  1.00  0.00     0.002 C 
HETATM    9  C12 UNL     1      -0.963  52.059 -18.950  1.00  0.00     0.012 C 
HETATM   10  C13 UNL     1      -1.717  50.751 -18.626  1.00  0.00    -0.018 C 
HETATM   11  C14 UNL     1      -0.744  49.682 -18.061  1.00  0.00     0.018 C 
HETATM   12  C16 UNL     1      -2.414  50.209 -19.943  1.00  0.00     0.007 C 
HETATM   13  C17 UNL     1      -3.872  50.714 -20.082  1.00  0.00     0.041 C 
HETATM   14  C18 UNL     1      -4.463  50.444 -21.455  1.00  0.00     0.156 C 
HETATM   15  C19 UNL     1      -3.717  51.250 -22.489  1.00  0.00     0.118 A 
HETATM   16  O3  UNL     1      -4.432  52.464 -22.851  1.00  0.00    -0.366 OA
HETATM   17  C20 UNL     1      -4.321  51.461 -23.866  1.00  0.00     0.165 A 
ENDROOT
BRANCH  10  18
HETATM   18  C15 UNL     1      -2.739  51.055 -17.484  1.00  0.00     0.173 C 
BRANCH  18  19
HETATM   19  O1  UNL     1      -2.202  50.781 -16.192  1.00  0.00    -0.400 OA
HETATM   20  H28 UNL     1      -2.221  49.819 -16.061  1.00  0.00     0.209 HD
ENDBRANCH  18  19
ENDBRANCH  10  18
BRANCH  14  21
HETATM   21  O2  UNL     1      -5.846  50.807 -21.423  1.00  0.00    -0.392 OA
HETATM   22  H33 UNL     1      -5.875  51.763 -21.623  1.00  0.00     0.210 HD
ENDBRANCH  14  21
BRANCH   1  23
HETATM   23  C2  UNL     1      -3.116  50.584 -25.902  1.00  0.00    -0.016 C 
HETATM   24  C1  UNL     1      -3.431  49.268 -25.182  1.00  0.00     0.010 C 
HETATM   25  C3  UNL     1      -1.632  50.567 -26.302  1.00  0.00     0.010 C 
ENDBRANCH   1  23
TORSDOF 4
ENDMDL
MODEL 7
REMARK minimizedAffinity -7.62214279
REMARK  4 active torsions:
REMARK  status: ('A' for Active; 'I' for Inactive)
REMARK    1  A    between atoms: C2_2  and  C4_4 
REMARK    2  A    between atoms: C13_13  and  C15_15 
REMARK    3  A    between atoms: C15_15  and  O1_16 
REMARK    4  A    between atoms: C18_19  and  O2_20 
ROOT
HETATM    1  C4  UNL     1       0.720  52.626 -26.979  1.00  0.00     0.021 C 
HETATM    2  C5  UNL     1       0.214  51.223 -27.373  1.00  0.00     0.008 C 
HETATM    3  C6  UNL     1      -1.192  50.959 -26.833  1.00  0.00     0.009 C 
HETATM    4  C7  UNL     1      -1.278  50.962 -25.284  1.00  0.00     0.034 C 
HETATM    5  C8  UNL     1      -2.762  51.058 -24.728  1.00  0.00    -0.033 C 
HETATM    6  C9  UNL     1      -3.415  52.401 -25.170  1.00  0.00     0.016 C 
HETATM    7  C10 UNL     1      -3.643  49.947 -25.358  1.00  0.00     0.010 C 
HETATM    8  C11 UNL     1      -3.348  48.540 -24.864  1.00  0.00     0.002 C 
HETATM    9  C12 UNL     1      -2.922  48.453 -23.404  1.00  0.00     0.012 C 
HETATM   10  C13 UNL     1      -3.364  49.641 -22.521  1.00  0.00    -0.018 C 
HETATM   11  C14 UNL     1      -4.911  49.714 -22.433  1.00  0.00     0.018 C 
HETATM   12  C16 UNL     1      -2.790  50.988 -23.130  1.00  0.00     0.007 C 
HETATM   13  C17 UNL     1      -1.421  51.371 -22.515  1.00  0.00     0.041 C 
HETATM   14  C18 UNL     1      -0.725  52.490 -23.271  1.00  0.00     0.156 C 
HETATM   15  C19 UNL     1      -0.361  52.010 -24.653  1.00  0.00     0.118 A 
HETATM   16  O3  UNL     1       1.035  51.611 -24.740  1.00  0.00    -0.366 OA
HETATM   17  C20 UNL     1       0.656  52.777 -25.479  1.00  0.00     0.165 A 
ENDROOT
BRANCH  10  18
HETATM   18  C15 UNL     1      -2.859  49.374 -21.067  1.00  0.00     0.173 C 
BRANCH  18  19
HETATM   19  O1  UNL     1      -3.650  50.044 -20.089  1.00  0.00    -0.400 OA
HETATM   20  H28 UNL     1      -3.394  50.981 -20.091  1.00  0.00     0.209 HD
ENDBRANCH  18  19
ENDBRANCH  10  18
BRANCH  14  21
HETATM   21  O2  UNL     1       0.443  52.864 -22.534  1.00  0.00    -0.392 OA
HETATM   22  H33 UNL     1       1.148  52.256 -22.829  1.00  0.00     0.210 HD
ENDBRANCH  14  21
BRANCH   1  23
HETATM   23  C2  UNL     1      -0.041  53.798 -27.678  1.00  0.00    -0.016 C 
HETATM   24  C1  UNL     1      -0.080  55.075 -26.831  1.00  0.00     0.010 C 
HETATM   25  C3  UNL     1      -1.487  53.406 -28.020  1.00  0.00     0.010 C 
ENDBRANCH   1  23
TORSDOF 4
ENDMDL
MODEL 8
REMARK minimizedAffinity -7.59219074
REMARK  4 active torsions:
REMARK  status: ('A' for Active; 'I' for Inactive)
REMARK    1  A    between atoms: C2_2  and  C4_4 
REMARK    2  A    between atoms: C13_13  and  C15_15 
REMARK    3  A    between atoms: C15_15  and  O1_16 
REMARK    4  A    between atoms: C18_19  and  O2_20 
ROOT
HETATM    1  C4  UNL     1      -1.175  51.378 -17.941  1.00  0.00     0.021 C 
HETATM    2  C5  UNL     1      -2.572  51.687 -18.518  1.00  0.00     0.008 C 
HETATM    3  C6  UNL     1      -2.770  51.041 -19.889  1.00  0.00     0.009 C 
HETATM    4  C7  UNL     1      -1.796  51.567 -20.976  1.00  0.00     0.034 C 
HETATM    5  C8  UNL     1      -1.743  50.661 -22.278  1.00  0.00    -0.033 C 
HETATM    6  C9  UNL     1      -1.217  49.238 -21.921  1.00  0.00     0.016 C 
HETATM    7  C10 UNL     1      -3.173  50.441 -22.836  1.00  0.00     0.010 C 
HETATM    8  C11 UNL     1      -3.802  51.663 -23.484  1.00  0.00     0.002 C 
HETATM    9  C12 UNL     1      -2.821  52.575 -24.211  1.00  0.00     0.012 C 
HETATM   10  C13 UNL     1      -1.505  51.900 -24.655  1.00  0.00    -0.018 C 
HETATM   11  C14 UNL     1      -1.785  50.783 -25.695  1.00  0.00     0.018 C 
HETATM   12  C16 UNL     1      -0.776  51.290 -23.386  1.00  0.00     0.007 C 
HETATM   13  C17 UNL     1       0.242  52.279 -22.765  1.00  0.00     0.041 C 
HETATM   14  C18 UNL     1       0.742  51.834 -21.401  1.00  0.00     0.156 C 
HETATM   15  C19 UNL     1      -0.401  51.850 -20.417  1.00  0.00     0.118 A 
HETATM   16  O3  UNL     1      -0.394  53.049 -19.595  1.00  0.00    -0.366 OA
HETATM   17  C20 UNL     1      -0.119  51.814 -18.926  1.00  0.00     0.165 A 
ENDROOT
BRANCH  10  18
HETATM   18  C15 UNL     1      -0.638  52.971 -25.391  1.00  0.00     0.173 C 
BRANCH  18  19
HETATM   19  O1  UNL     1      -1.196  53.347 -26.648  1.00  0.00    -0.400 OA
HETATM   20  H28 UNL     1      -1.001  52.638 -27.282  1.00  0.00     0.209 HD
ENDBRANCH  18  19
ENDBRANCH  10  18
BRANCH  14  21
HETATM   21  O2  UNL     1       1.780  52.731 -20.995  1.00  0.00    -0.392 OA
HETATM   22  H33 UNL     1       1.328  53.480 -20.560  1.00  0.00     0.210 HD
ENDBRANCH  14  21
BRANCH   1  23
HETATM   23  C2  UNL     1      -0.966  49.880 -17.544  1.00  0.00    -0.016 C 
HETATM   24  C1  UNL     1      -2.150  49.297 -16.765  1.00  0.00     0.010 C 
HETATM   25  C3  UNL     1       0.303  49.695 -16.697  1.00  0.00     0.010 C 
ENDBRANCH   1  23
TORSDOF 4
ENDMDL
MODEL 9
REMARK minimizedAffinity -7.56232595
REMARK  4 active torsions:
REMARK  status: ('A' for Active; 'I' for Inactive)
REMARK    1  A    between atoms: C2_2  and  C4_4 
REMARK    2  A    between atoms: C13_13  and  C15_15 
REMARK    3  A    between atoms: C15_15  and  O1_16 
REMARK    4  A    between atoms: C18_19  and  O2_20 
ROOT
HETATM    1  C4  UNL     1      -4.904  51.142 -22.486  1.00  0.00     0.021 C 
HETATM    2  C5  UNL     1      -5.106  52.169 -23.619  1.00  0.00     0.008 C 
HETATM    3  C6  UNL     1      -4.322  51.786 -24.874  1.00  0.00     0.009 C 
HETATM    4  C7  UNL     1      -2.784  51.760 -24.668  1.00  0.00     0.034 C 
HETATM    5  C8  UNL     1      -1.997  51.019 -25.831  1.00  0.00    -0.033 C 
HETATM    6  C9  UNL     1      -2.420  49.521 -25.896  1.00  0.00     0.016 C 
HETATM    7  C10 UNL     1      -2.390  51.616 -27.208  1.00  0.00     0.010 C 
HETATM    8  C11 UNL     1      -1.853  53.012 -27.477  1.00  0.00     0.002 C 
HETATM    9  C12 UNL     1      -0.481  53.293 -26.876  1.00  0.00     0.012 C 
HETATM   10  C13 UNL     1       0.375  52.042 -26.583  1.00  0.00    -0.018 C 
HETATM   11  C14 UNL     1       0.714  51.289 -27.897  1.00  0.00     0.018 C 
HETATM   12  C16 UNL     1      -0.416  51.085 -25.598  1.00  0.00     0.007 C 
HETATM   13  C17 UNL     1      -0.067  51.357 -24.113  1.00  0.00     0.041 C 
HETATM   14  C18 UNL     1      -1.006  50.657 -23.146  1.00  0.00     0.156 C 
HETATM   15  C19 UNL     1      -2.392  51.235 -23.287  1.00  0.00     0.118 A 
HETATM   16  O3  UNL     1      -2.681  52.212 -22.249  1.00  0.00    -0.366 OA
HETATM   17  C20 UNL     1      -3.428  50.992 -22.204  1.00  0.00     0.165 A 
ENDROOT
BRANCH  10  18
HETATM   18  C15 UNL     1       1.740  52.520 -25.993  1.00  0.00     0.173 C 
BRANCH  18  19
HETATM   19  O1  UNL     1       2.850  52.070 -26.765  1.00  0.00    -0.400 OA
HETATM   20  H28 UNL     1       2.997  51.133 -26.556  1.00  0.00     0.209 HD
ENDBRANCH  18  19
ENDBRANCH  10  18
BRANCH  14  21
HETATM   21  O2  UNL     1      -0.503  50.848 -21.821  1.00  0.00    -0.392 OA
HETATM   22  H33 UNL     1      -0.867  51.704 -21.520  1.00  0.00     0.210 HD
ENDBRANCH  14  21
BRANCH   1  23
HETATM   23  C2  UNL     1      -5.549  49.746 -22.768  1.00  0.00    -0.016 C 
HETATM   24  C1  UNL     1      -5.467  49.336 -24.243  1.00  0.00     0.010 C 
HETATM   25  C3  UNL     1      -7.026  49.714 -22.343  1.00  0.00     0.010 C 
ENDBRANCH   1  23
TORSDOF 4
ENDMDL
