MODEL 1
REMARK minimizedAffinity -9.28650379
REMARK  4 active torsions:
REMARK  status: ('A' for Active; 'I' for Inactive)
REMARK    1  A    between atoms: C4_4  and  C5_5 
REMARK    2  A    between atoms: C5_5  and  C6_6 
REMARK    3  A    between atoms: C6_6  and  C7_7 
REMARK    4  A    between atoms: C7_7  and  C9_9 
ROOT
HETATM    1  C9  UNL     1      -3.076  49.018 -25.575  1.00  0.00    -0.002 C 
HETATM    2  C10 UNL     1      -4.358  48.309 -25.135  1.00  0.00     0.007 C 
HETATM    3  C11 UNL     1      -4.250  48.307 -23.624  1.00  0.00     0.015 C 
HETATM    4  C12 UNL     1      -3.823  49.751 -23.254  1.00  0.00    -0.013 C 
HETATM    5  C13 UNL     1      -5.118  50.598 -23.120  1.00  0.00     0.021 C 
HETATM    6  C14 UNL     1      -3.130  49.813 -21.874  1.00  0.00    -0.070 C 
HETATM    7  C15 UNL     1      -3.518  49.012 -20.859  1.00  0.00    -0.022 C 
HETATM    8  C16 UNL     1      -3.004  49.077 -19.454  1.00  0.00     0.034 C 
HETATM    9  C17 UNL     1      -2.193  50.353 -19.155  1.00  0.00     0.013 C 
HETATM   10  C18 UNL     1      -1.586  50.370 -17.706  1.00  0.00     0.018 C 
HETATM   11  C19 UNL     1      -1.063  49.011 -17.205  1.00  0.00     0.023 C 
HETATM   12  C20 UNL     1      -2.665  50.840 -16.705  1.00  0.00     0.023 C 
HETATM   13  C21 UNL     1      -0.457  51.401 -17.639  1.00  0.00     0.135 C 
HETATM   14  O1  UNL     1       0.427  51.367 -16.785  1.00  0.00    -0.297 OA
HETATM   15  C22 UNL     1      -0.523  52.527 -18.636  1.00  0.00     0.080 C 
HETATM   16  C23 UNL     1      -0.388  51.979 -20.046  1.00  0.00     0.017 C 
HETATM   17  C24 UNL     1      -1.196  50.670 -20.330  1.00  0.00    -0.031 C 
HETATM   18  C25 UNL     1      -0.180  49.512 -20.522  1.00  0.00     0.016 C 
HETATM   19  C26 UNL     1      -2.064  50.883 -21.648  1.00  0.00     0.024 C 
HETATM   20  C27 UNL     1      -1.189  51.170 -22.890  1.00  0.00     0.010 C 
HETATM   21  C28 UNL     1      -1.423  50.203 -24.041  1.00  0.00     0.011 C 
HETATM   22  C29 UNL     1      -2.903  50.173 -24.495  1.00  0.00    -0.029 C 
HETATM   23  C30 UNL     1      -3.292  51.560 -25.060  1.00  0.00     0.016 C 
ENDROOT
BRANCH   1  24
HETATM   24  C7  UNL     1      -3.057  49.380 -27.098  1.00  0.00    -0.014 C 
HETATM   25  C8  UNL     1      -4.308  48.851 -27.810  1.00  0.00     0.010 C 
BRANCH  24  26
HETATM   26  C6  UNL     1      -2.914  50.915 -27.313  1.00  0.00     0.008 C 
BRANCH  26  27
HETATM   27  C5  UNL     1      -1.578  51.393 -27.907  1.00  0.00     0.028 C 
BRANCH  27  28
HETATM   28  C4  UNL     1      -0.407  51.220 -26.976  1.00  0.00    -0.025 C 
HETATM   29  C2  UNL     1       0.897  51.454 -27.222  1.00  0.00    -0.091 C 
HETATM   30  C1  UNL     1       1.933  51.206 -26.155  1.00  0.00     0.042 C 
HETATM   31  C3  UNL     1       1.465  51.961 -28.518  1.00  0.00     0.042 C 
ENDBRANCH  27  28
ENDBRANCH  26  27
ENDBRANCH  24  26
ENDBRANCH   1  24
TORSDOF 4
ENDMDL
MODEL 2
REMARK minimizedAffinity -9.18970203
REMARK  4 active torsions:
REMARK  status: ('A' for Active; 'I' for Inactive)
REMARK    1  A    between atoms: C4_4  and  C5_5 
REMARK    2  A    between atoms: C5_5  and  C6_6 
REMARK    3  A    between atoms: C6_6  and  C7_7 
REMARK    4  A    between atoms: C7_7  and  C9_9 
ROOT
HETATM    1  C9  UNL     1      -3.401  49.310 -18.765  1.00  0.00    -0.002 C 
HETATM    2  C10 UNL     1      -3.742  47.962 -19.404  1.00  0.00     0.007 C 
HETATM    3  C11 UNL     1      -3.490  48.205 -20.878  1.00  0.00     0.015 C 
HETATM    4  C12 UNL     1      -2.119  48.929 -20.933  1.00  0.00    -0.013 C 
HETATM    5  C13 UNL     1      -1.018  47.836 -20.965  1.00  0.00     0.021 C 
HETATM    6  C14 UNL     1      -1.949  49.744 -22.235  1.00  0.00    -0.070 C 
HETATM    7  C15 UNL     1      -2.454  49.306 -23.407  1.00  0.00    -0.022 C 
HETATM    8  C16 UNL     1      -2.239  49.948 -24.742  1.00  0.00     0.034 C 
HETATM    9  C17 UNL     1      -1.122  51.009 -24.740  1.00  0.00     0.013 C 
HETATM   10  C18 UNL     1      -0.963  51.738 -26.123  1.00  0.00     0.018 C 
HETATM   11  C19 UNL     1      -2.286  52.038 -26.854  1.00  0.00     0.023 C 
HETATM   12  C20 UNL     1      -0.109  50.863 -27.067  1.00  0.00     0.023 C 
HETATM   13  C21 UNL     1      -0.188  53.043 -25.926  1.00  0.00     0.135 C 
HETATM   14  O1  UNL     1      -0.245  53.978 -26.722  1.00  0.00    -0.297 OA
HETATM   15  C22 UNL     1       0.725  53.101 -24.731  1.00  0.00     0.080 C 
HETATM   16  C23 UNL     1      -0.087  53.001 -23.452  1.00  0.00     0.017 C 
HETATM   17  C24 UNL     1      -1.234  51.938 -23.475  1.00  0.00    -0.031 C 
HETATM   18  C25 UNL     1      -2.589  52.695 -23.461  1.00  0.00     0.016 C 
HETATM   19  C26 UNL     1      -1.094  51.009 -22.189  1.00  0.00     0.024 C 
HETATM   20  C27 UNL     1      -1.222  51.805 -20.870  1.00  0.00     0.010 C 
HETATM   21  C28 UNL     1      -2.316  51.290 -19.946  1.00  0.00     0.011 C 
HETATM   22  C29 UNL     1      -2.127  49.796 -19.585  1.00  0.00    -0.029 C 
HETATM   23  C30 UNL     1      -0.817  49.626 -18.780  1.00  0.00     0.016 C 
ENDROOT
BRANCH   1  24
HETATM   24  C7  UNL     1      -3.334  49.258 -17.202  1.00  0.00    -0.014 C 
HETATM   25  C8  UNL     1      -2.289  48.243 -16.725  1.00  0.00     0.010 C 
BRANCH  24  26
HETATM   26  C6  UNL     1      -3.047  50.664 -16.601  1.00  0.00     0.008 C 
BRANCH  26  27
HETATM   27  C5  UNL     1      -2.331  50.683 -15.239  1.00  0.00     0.028 C 
BRANCH  27  28
HETATM   28  C4  UNL     1      -3.098  51.405 -14.163  1.00  0.00    -0.025 C 
HETATM   29  C2  UNL     1      -2.615  52.066 -13.093  1.00  0.00    -0.091 C 
HETATM   30  C1  UNL     1      -3.553  52.719 -12.110  1.00  0.00     0.042 C 
HETATM   31  C3  UNL     1      -1.160  52.229 -12.750  1.00  0.00     0.042 C 
ENDBRANCH  27  28
ENDBRANCH  26  27
ENDBRANCH  24  26
ENDBRANCH   1  24
TORSDOF 4
ENDMDL
MODEL 3
REMARK minimizedAffinity -9.13971329
REMARK  4 active torsions:
REMARK  status: ('A' for Active; 'I' for Inactive)
REMARK    1  A    between atoms: C4_4  and  C5_5 
REMARK    2  A    between atoms: C5_5  and  C6_6 
REMARK    3  A    between atoms: C6_6  and  C7_7 
REMARK    4  A    between atoms: C7_7  and  C9_9 
ROOT
HETATM    1  C9  UNL     1      -3.922  48.671 -19.517  1.00  0.00    -0.002 C 
HETATM    2  C10 UNL     1      -4.371  47.487 -20.375  1.00  0.00     0.007 C 
HETATM    3  C11 UNL     1      -4.025  47.929 -21.782  1.00  0.00     0.015 C 
HETATM    4  C12 UNL     1      -2.585  48.495 -21.678  1.00  0.00    -0.013 C 
HETATM    5  C13 UNL     1      -1.604  47.306 -21.853  1.00  0.00     0.021 C 
HETATM    6  C14 UNL     1      -2.268  49.480 -22.826  1.00  0.00    -0.070 C 
HETATM    7  C15 UNL     1      -2.760  49.290 -24.068  1.00  0.00    -0.022 C 
HETATM    8  C16 UNL     1      -2.415  50.107 -25.275  1.00  0.00     0.034 C 
HETATM    9  C17 UNL     1      -1.195  51.024 -25.068  1.00  0.00     0.013 C 
HETATM   10  C18 UNL     1      -0.895  51.938 -26.310  1.00  0.00     0.018 C 
HETATM   11  C19 UNL     1      -2.142  52.494 -27.023  1.00  0.00     0.023 C 
HETATM   12  C20 UNL     1      -0.093  51.133 -27.356  1.00  0.00     0.023 C 
HETATM   13  C21 UNL     1       0.002  53.102 -25.881  1.00  0.00     0.135 C 
HETATM   14  O1  UNL     1       0.082  54.151 -26.518  1.00  0.00    -0.297 OA
HETATM   15  C22 UNL     1       0.858  52.870 -24.666  1.00  0.00     0.080 C 
HETATM   16  C23 UNL     1      -0.020  52.661 -23.445  1.00  0.00     0.017 C 
HETATM   17  C24 UNL     1      -1.270  51.749 -23.674  1.00  0.00    -0.031 C 
HETATM   18  C25 UNL     1      -2.537  52.640 -23.580  1.00  0.00     0.016 C 
HETATM   19  C26 UNL     1      -1.289  50.620 -22.551  1.00  0.00     0.024 C 
HETATM   20  C27 UNL     1      -1.396  51.209 -21.125  1.00  0.00     0.010 C 
HETATM   21  C28 UNL     1      -2.580  50.680 -20.330  1.00  0.00     0.011 C 
HETATM   22  C29 UNL     1      -2.567  49.136 -20.209  1.00  0.00    -0.029 C 
HETATM   23  C30 UNL     1      -1.322  48.698 -19.402  1.00  0.00     0.016 C 
ENDROOT
BRANCH   1  24
HETATM   24  C7  UNL     1      -3.936  48.368 -17.982  1.00  0.00    -0.014 C 
HETATM   25  C8  UNL     1      -2.950  47.248 -17.628  1.00  0.00     0.010 C 
BRANCH  24  26
HETATM   26  C6  UNL     1      -3.633  49.647 -17.149  1.00  0.00     0.008 C 
BRANCH  26  27
HETATM   27  C5  UNL     1      -2.552  49.506 -16.063  1.00  0.00     0.028 C 
BRANCH  27  28
HETATM   28  C4  UNL     1      -1.367  50.412 -16.270  1.00  0.00    -0.025 C 
HETATM   29  C2  UNL     1      -0.057  50.102 -16.200  1.00  0.00    -0.091 C 
HETATM   30  C1  UNL     1       0.991  51.162 -16.427  1.00  0.00     0.042 C 
HETATM   31  C3  UNL     1       0.504  48.741 -15.901  1.00  0.00     0.042 C 
ENDBRANCH  27  28
ENDBRANCH  26  27
ENDBRANCH  24  26
ENDBRANCH   1  24
TORSDOF 4
ENDMDL
MODEL 4
REMARK minimizedAffinity -9.13283634
REMARK  4 active torsions:
REMARK  status: ('A' for Active; 'I' for Inactive)
REMARK    1  A    between atoms: C4_4  and  C5_5 
REMARK    2  A    between atoms: C5_5  and  C6_6 
REMARK    3  A    between atoms: C6_6  and  C7_7 
REMARK    4  A    between atoms: C7_7  and  C9_9 
ROOT
HETATM    1  C9  UNL     1      -3.587  49.132 -25.449  1.00  0.00    -0.002 C 
HETATM    2  C10 UNL     1      -4.757  48.352 -24.845  1.00  0.00     0.007 C 
HETATM    3  C11 UNL     1      -4.447  48.358 -23.362  1.00  0.00     0.015 C 
HETATM    4  C12 UNL     1      -4.056  49.824 -23.043  1.00  0.00    -0.013 C 
HETATM    5  C13 UNL     1      -5.366  50.596 -22.731  1.00  0.00     0.021 C 
HETATM    6  C14 UNL     1      -3.189  49.926 -21.768  1.00  0.00    -0.070 C 
HETATM    7  C15 UNL     1      -3.391  49.106 -20.716  1.00  0.00    -0.022 C 
HETATM    8  C16 UNL     1      -2.698  49.202 -19.392  1.00  0.00     0.034 C 
HETATM    9  C17 UNL     1      -1.928  50.521 -19.196  1.00  0.00     0.013 C 
HETATM   10  C18 UNL     1      -1.134  50.575 -17.842  1.00  0.00     0.018 C 
HETATM   11  C19 UNL     1      -0.473  49.248 -17.424  1.00  0.00     0.023 C 
HETATM   12  C20 UNL     1      -2.093  50.985 -16.702  1.00  0.00     0.023 C 
HETATM   13  C21 UNL     1      -0.066  51.668 -17.919  1.00  0.00     0.135 C 
HETATM   14  O1  UNL     1       0.926  51.685 -17.191  1.00  0.00    -0.297 OA
HETATM   15  C22 UNL     1      -0.327  52.787 -18.891  1.00  0.00     0.080 C 
HETATM   16  C23 UNL     1      -0.352  52.247 -20.310  1.00  0.00     0.017 C 
HETATM   17  C24 UNL     1      -1.116  50.894 -20.492  1.00  0.00    -0.031 C 
HETATM   18  C25 UNL     1      -0.071  49.795 -20.826  1.00  0.00     0.016 C 
HETATM   19  C26 UNL     1      -2.164  51.055 -21.680  1.00  0.00     0.024 C 
HETATM   20  C27 UNL     1      -1.481  51.390 -23.026  1.00  0.00     0.010 C 
HETATM   21  C28 UNL     1      -1.812  50.410 -24.142  1.00  0.00     0.011 C 
HETATM   22  C29 UNL     1      -3.336  50.296 -24.394  1.00  0.00    -0.029 C 
HETATM   23  C30 UNL     1      -3.875  51.658 -24.893  1.00  0.00     0.016 C 
ENDROOT
BRANCH   1  24
HETATM   24  C7  UNL     1      -3.793  49.493 -26.958  1.00  0.00    -0.014 C 
HETATM   25  C8  UNL     1      -2.598  50.280 -27.508  1.00  0.00     0.010 C 
BRANCH  24  26
HETATM   26  C6  UNL     1      -4.051  48.220 -27.815  1.00  0.00     0.008 C 
BRANCH  26  27
HETATM   27  C5  UNL     1      -5.461  48.083 -28.415  1.00  0.00     0.028 C 
BRANCH  27  28
HETATM   28  C4  UNL     1      -5.486  48.134 -29.919  1.00  0.00    -0.025 C 
HETATM   29  C2  UNL     1      -5.945  47.203 -30.779  1.00  0.00    -0.091 C 
HETATM   30  C1  UNL     1      -5.869  47.434 -32.267  1.00  0.00     0.042 C 
HETATM   31  C3  UNL     1      -6.555  45.885 -30.395  1.00  0.00     0.042 C 
ENDBRANCH  27  28
ENDBRANCH  26  27
ENDBRANCH  24  26
ENDBRANCH   1  24
TORSDOF 4
ENDMDL
MODEL 5
REMARK minimizedAffinity -9.10917568
REMARK  4 active torsions:
REMARK  status: ('A' for Active; 'I' for Inactive)
REMARK    1  A    between atoms: C4_4  and  C5_5 
REMARK    2  A    between atoms: C5_5  and  C6_6 
REMARK    3  A    between atoms: C6_6  and  C7_7 
REMARK    4  A    between atoms: C7_7  and  C9_9 
ROOT
HETATM    1  C9  UNL     1      -4.692  48.557 -19.998  1.00  0.00    -0.002 C 
HETATM    2  C10 UNL     1      -4.989  47.369 -20.915  1.00  0.00     0.007 C 
HETATM    3  C11 UNL     1      -4.431  47.816 -22.250  1.00  0.00     0.015 C 
HETATM    4  C12 UNL     1      -3.032  48.398 -21.923  1.00  0.00    -0.013 C 
HETATM    5  C13 UNL     1      -2.023  47.219 -21.941  1.00  0.00     0.021 C 
HETATM    6  C14 UNL     1      -2.550  49.387 -23.008  1.00  0.00    -0.070 C 
HETATM    7  C15 UNL     1      -2.840  49.193 -24.311  1.00  0.00    -0.022 C 
HETATM    8  C16 UNL     1      -2.319  50.015 -25.450  1.00  0.00     0.034 C 
HETATM    9  C17 UNL     1      -1.156  50.944 -25.055  1.00  0.00     0.013 C 
HETATM   10  C18 UNL     1      -0.675  51.863 -26.236  1.00  0.00     0.018 C 
HETATM   11  C19 UNL     1      -1.802  52.406 -27.135  1.00  0.00     0.023 C 
HETATM   12  C20 UNL     1       0.289  51.068 -27.143  1.00  0.00     0.023 C 
HETATM   13  C21 UNL     1       0.131  53.036 -25.673  1.00  0.00     0.135 C 
HETATM   14  O1  UNL     1       0.298  54.087 -26.290  1.00  0.00    -0.297 OA
HETATM   15  C22 UNL     1       0.789  52.812 -24.339  1.00  0.00     0.080 C 
HETATM   16  C23 UNL     1      -0.267  52.593 -23.270  1.00  0.00     0.017 C 
HETATM   17  C24 UNL     1      -1.456  51.667 -23.691  1.00  0.00    -0.031 C 
HETATM   18  C25 UNL     1      -2.732  52.545 -23.796  1.00  0.00     0.016 C 
HETATM   19  C26 UNL     1      -1.639  50.537 -22.584  1.00  0.00     0.024 C 
HETATM   20  C27 UNL     1      -1.974  51.124 -21.193  1.00  0.00     0.010 C 
HETATM   21  C28 UNL     1      -3.262  50.580 -20.593  1.00  0.00     0.011 C 
HETATM   22  C29 UNL     1      -3.251  49.037 -20.470  1.00  0.00    -0.029 C 
HETATM   23  C30 UNL     1      -2.142  48.611 -19.477  1.00  0.00     0.016 C 
ENDROOT
BRANCH   1  24
HETATM   24  C7  UNL     1      -4.943  48.252 -18.483  1.00  0.00    -0.014 C 
HETATM   25  C8  UNL     1      -4.088  49.156 -17.587  1.00  0.00     0.010 C 
BRANCH  24  26
HETATM   26  C6  UNL     1      -6.450  48.389 -18.120  1.00  0.00     0.008 C 
BRANCH  26  27
HETATM   27  C5  UNL     1      -7.378  48.865 -19.250  1.00  0.00     0.028 C 
BRANCH  27  28
HETATM   28  C4  UNL     1      -8.834  48.577 -18.998  1.00  0.00    -0.025 C 
HETATM   29  C2  UNL     1      -9.730  48.011 -19.831  1.00  0.00    -0.091 C 
HETATM   30  C1  UNL     1     -11.160  47.817 -19.397  1.00  0.00     0.042 C 
HETATM   31  C3  UNL     1      -9.443  47.529 -21.225  1.00  0.00     0.042 C 
ENDBRANCH  27  28
ENDBRANCH  26  27
ENDBRANCH  24  26
ENDBRANCH   1  24
TORSDOF 4
ENDMDL
MODEL 6
REMARK minimizedAffinity -8.99226856
REMARK  4 active torsions:
REMARK  status: ('A' for Active; 'I' for Inactive)
REMARK    1  A    between atoms: C4_4  and  C5_5 
REMARK    2  A    between atoms: C5_5  and  C6_6 
REMARK    3  A    between atoms: C6_6  and  C7_7 
REMARK    4  A    between atoms: C7_7  and  C9_9 
ROOT
HETATM    1  C9  UNL     1      -1.864  51.567 -19.033  1.00  0.00    -0.002 C 
HETATM    2  C10 UNL     1      -3.363  51.283 -19.149  1.00  0.00     0.007 C 
HETATM    3  C11 UNL     1      -3.625  51.411 -20.635  1.00  0.00     0.015 C 
HETATM    4  C12 UNL     1      -2.482  50.610 -21.311  1.00  0.00    -0.013 C 
HETATM    5  C13 UNL     1      -2.942  49.130 -21.399  1.00  0.00     0.021 C 
HETATM    6  C14 UNL     1      -2.240  51.067 -22.767  1.00  0.00    -0.070 C 
HETATM    7  C15 UNL     1      -3.262  51.458 -23.558  1.00  0.00    -0.022 C 
HETATM    8  C16 UNL     1      -3.156  51.796 -25.013  1.00  0.00     0.034 C 
HETATM    9  C17 UNL     1      -1.818  51.371 -25.647  1.00  0.00     0.013 C 
HETATM   10  C18 UNL     1      -1.683  51.807 -27.150  1.00  0.00     0.018 C 
HETATM   11  C19 UNL     1      -2.264  53.196 -27.477  1.00  0.00     0.023 C 
HETATM   12  C20 UNL     1      -2.416  50.785 -28.047  1.00  0.00     0.023 C 
HETATM   13  C21 UNL     1      -0.210  51.766 -27.563  1.00  0.00     0.135 C 
HETATM   14  O1  UNL     1       0.232  52.401 -28.519  1.00  0.00    -0.297 OA
HETATM   15  C22 UNL     1       0.675  50.834 -26.780  1.00  0.00     0.080 C 
HETATM   16  C23 UNL     1       0.749  51.284 -25.331  1.00  0.00     0.017 C 
HETATM   17  C24 UNL     1      -0.612  51.737 -24.706  1.00  0.00    -0.031 C 
HETATM   18  C25 UNL     1      -0.542  53.270 -24.467  1.00  0.00     0.016 C 
HETATM   19  C26 UNL     1      -0.825  50.961 -23.333  1.00  0.00     0.024 C 
HETATM   20  C27 UNL     1       0.287  51.268 -22.303  1.00  0.00     0.010 C 
HETATM   21  C28 UNL     1      -0.235  51.805 -20.979  1.00  0.00     0.011 C 
HETATM   22  C29 UNL     1      -1.252  50.845 -20.312  1.00  0.00    -0.029 C 
HETATM   23  C30 UNL     1      -0.540  49.520 -19.948  1.00  0.00     0.016 C 
ENDROOT
BRANCH   1  24
HETATM   24  C7  UNL     1      -1.277  51.248 -17.617  1.00  0.00    -0.014 C 
HETATM   25  C8  UNL     1      -1.910  49.982 -17.027  1.00  0.00     0.010 C 
BRANCH  24  26
HETATM   26  C6  UNL     1       0.272  51.115 -17.663  1.00  0.00     0.008 C 
BRANCH  26  27
HETATM   27  C5  UNL     1       1.069  52.256 -17.007  1.00  0.00     0.028 C 
BRANCH  27  28
HETATM   28  C4  UNL     1       1.639  51.898 -15.660  1.00  0.00    -0.025 C 
HETATM   29  C2  UNL     1       2.928  51.922 -15.266  1.00  0.00    -0.091 C 
HETATM   30  C1  UNL     1       3.306  51.511 -13.865  1.00  0.00     0.042 C 
HETATM   31  C3  UNL     1       4.095  52.334 -16.119  1.00  0.00     0.042 C 
ENDBRANCH  27  28
ENDBRANCH  26  27
ENDBRANCH  24  26
ENDBRANCH   1  24
TORSDOF 4
ENDMDL
MODEL 7
REMARK minimizedAffinity -8.89054203
REMARK  4 active torsions:
REMARK  status: ('A' for Active; 'I' for Inactive)
REMARK    1  A    between atoms: C4_4  and  C5_5 
REMARK    2  A    between atoms: C5_5  and  C6_6 
REMARK    3  A    between atoms: C6_6  and  C7_7 
REMARK    4  A    between atoms: C7_7  and  C9_9 
ROOT
HETATM    1  C9  UNL     1      -0.267  50.985 -25.045  1.00  0.00    -0.002 C 
HETATM    2  C10 UNL     1      -0.463  50.623 -26.519  1.00  0.00     0.007 C 
HETATM    3  C11 UNL     1      -1.768  49.854 -26.515  1.00  0.00     0.015 C 
HETATM    4  C12 UNL     1      -2.727  50.703 -25.642  1.00  0.00    -0.013 C 
HETATM    5  C13 UNL     1      -3.394  51.753 -26.570  1.00  0.00     0.021 C 
HETATM    6  C14 UNL     1      -3.881  49.855 -25.060  1.00  0.00    -0.070 C 
HETATM    7  C15 UNL     1      -4.431  48.845 -25.765  1.00  0.00    -0.022 C 
HETATM    8  C16 UNL     1      -5.629  48.047 -25.352  1.00  0.00     0.034 C 
HETATM    9  C17 UNL     1      -6.402  48.666 -24.172  1.00  0.00     0.013 C 
HETATM   10  C18 UNL     1      -7.606  47.778 -23.691  1.00  0.00     0.018 C 
HETATM   11  C19 UNL     1      -7.338  46.261 -23.702  1.00  0.00     0.023 C 
HETATM   12  C20 UNL     1      -8.826  48.032 -24.603  1.00  0.00     0.023 C 
HETATM   13  C21 UNL     1      -8.024  48.206 -22.282  1.00  0.00     0.135 C 
HETATM   14  O1  UNL     1      -8.652  47.472 -21.521  1.00  0.00    -0.297 OA
HETATM   15  C22 UNL     1      -7.696  49.622 -21.891  1.00  0.00     0.080 C 
HETATM   16  C23 UNL     1      -6.190  49.816 -21.863  1.00  0.00     0.017 C 
HETATM   17  C24 UNL     1      -5.414  49.161 -23.053  1.00  0.00    -0.031 C 
HETATM   18  C25 UNL     1      -4.580  47.979 -22.488  1.00  0.00     0.016 C 
HETATM   19  C26 UNL     1      -4.464  50.259 -23.707  1.00  0.00     0.024 C 
HETATM   20  C27 UNL     1      -3.416  50.802 -22.709  1.00  0.00     0.010 C 
HETATM   21  C28 UNL     1      -1.979  50.654 -23.187  1.00  0.00     0.011 C 
HETATM   22  C29 UNL     1      -1.738  51.340 -24.554  1.00  0.00    -0.029 C 
HETATM   23  C30 UNL     1      -1.948  52.866 -24.404  1.00  0.00     0.016 C 
ENDROOT
BRANCH   1  24
HETATM   24  C7  UNL     1       0.892  52.009 -24.805  1.00  0.00    -0.014 C 
HETATM   25  C8  UNL     1       1.440  52.549 -26.131  1.00  0.00     0.010 C 
BRANCH  24  26
HETATM   26  C6  UNL     1       0.433  53.178 -23.886  1.00  0.00     0.008 C 
BRANCH  26  27
HETATM   27  C5  UNL     1       1.051  53.214 -22.478  1.00  0.00     0.028 C 
BRANCH  27  28
HETATM   28  C4  UNL     1       0.591  52.091 -21.587  1.00  0.00    -0.025 C 
HETATM   29  C2  UNL     1       0.226  52.148 -20.291  1.00  0.00    -0.091 C 
HETATM   30  C1  UNL     1      -0.195  50.899 -19.560  1.00  0.00     0.042 C 
HETATM   31  C3  UNL     1       0.194  53.391 -19.447  1.00  0.00     0.042 C 
ENDBRANCH  27  28
ENDBRANCH  26  27
ENDBRANCH  24  26
ENDBRANCH   1  24
TORSDOF 4
ENDMDL
MODEL 8
REMARK minimizedAffinity -8.80741215
REMARK  4 active torsions:
REMARK  status: ('A' for Active; 'I' for Inactive)
REMARK    1  A    between atoms: C4_4  and  C5_5 
REMARK    2  A    between atoms: C5_5  and  C6_6 
REMARK    3  A    between atoms: C6_6  and  C7_7 
REMARK    4  A    between atoms: C7_7  and  C9_9 
ROOT
HETATM    1  C9  UNL     1      -2.045  51.399 -21.830  1.00  0.00    -0.002 C 
HETATM    2  C10 UNL     1      -1.692  50.567 -20.595  1.00  0.00     0.007 C 
HETATM    3  C11 UNL     1      -2.819  49.558 -20.525  1.00  0.00     0.015 C 
HETATM    4  C12 UNL     1      -2.972  49.032 -21.975  1.00  0.00    -0.013 C 
HETATM    5  C13 UNL     1      -1.980  47.851 -22.148  1.00  0.00     0.021 C 
HETATM    6  C14 UNL     1      -4.379  48.445 -22.231  1.00  0.00    -0.070 C 
HETATM    7  C15 UNL     1      -5.046  47.777 -21.266  1.00  0.00    -0.022 C 
HETATM    8  C16 UNL     1      -6.350  47.063 -21.443  1.00  0.00     0.034 C 
HETATM    9  C17 UNL     1      -6.754  46.880 -22.918  1.00  0.00     0.013 C 
HETATM   10  C18 UNL     1      -8.163  46.208 -23.092  1.00  0.00     0.018 C 
HETATM   11  C19 UNL     1      -9.225  46.656 -22.070  1.00  0.00     0.023 C 
HETATM   12  C20 UNL     1      -8.020  44.675 -22.956  1.00  0.00     0.023 C 
HETATM   13  C21 UNL     1      -8.683  46.469 -24.507  1.00  0.00     0.135 C 
HETATM   14  O1  UNL     1      -9.875  46.406 -24.802  1.00  0.00    -0.297 OA
HETATM   15  C22 UNL     1      -7.641  46.733 -25.560  1.00  0.00     0.080 C 
HETATM   16  C23 UNL     1      -6.893  48.016 -25.240  1.00  0.00     0.017 C 
HETATM   17  C24 UNL     1      -6.511  48.203 -23.734  1.00  0.00    -0.031 C 
HETATM   18  C25 UNL     1      -7.362  49.369 -23.165  1.00  0.00     0.016 C 
HETATM   19  C26 UNL     1      -4.958  48.541 -23.641  1.00  0.00     0.024 C 
HETATM   20  C27 UNL     1      -4.594  49.849 -24.381  1.00  0.00     0.010 C 
HETATM   21  C28 UNL     1      -3.895  50.876 -23.503  1.00  0.00     0.011 C 
HETATM   22  C29 UNL     1      -2.603  50.318 -22.856  1.00  0.00    -0.029 C 
HETATM   23  C30 UNL     1      -1.578  49.986 -23.966  1.00  0.00     0.016 C 
ENDROOT
BRANCH   1  24
HETATM   24  C7  UNL     1      -0.897  52.363 -22.280  1.00  0.00    -0.014 C 
HETATM   25  C8  UNL     1       0.135  52.557 -21.162  1.00  0.00     0.010 C 
BRANCH  24  26
HETATM   26  C6  UNL     1      -0.208  51.856 -23.579  1.00  0.00     0.008 C 
BRANCH  26  27
HETATM   27  C5  UNL     1       0.438  52.934 -24.467  1.00  0.00     0.028 C 
BRANCH  27  28
HETATM   28  C4  UNL     1       0.284  52.673 -25.942  1.00  0.00    -0.025 C 
HETATM   29  C2  UNL     1       1.116  52.001 -26.763  1.00  0.00    -0.091 C 
HETATM   30  C1  UNL     1       0.791  51.857 -28.228  1.00  0.00     0.042 C 
HETATM   31  C3  UNL     1       2.405  51.346 -26.354  1.00  0.00     0.042 C 
ENDBRANCH  27  28
ENDBRANCH  26  27
ENDBRANCH  24  26
ENDBRANCH   1  24
TORSDOF 4
ENDMDL
MODEL 9
REMARK minimizedAffinity -8.70049
REMARK  4 active torsions:
REMARK  status: ('A' for Active; 'I' for Inactive)
REMARK    1  A    between atoms: C4_4  and  C5_5 
REMARK    2  A    between atoms: C5_5  and  C6_6 
REMARK    3  A    between atoms: C6_6  and  C7_7 
REMARK    4  A    between atoms: C7_7  and  C9_9 
ROOT
HETATM    1  C9  UNL     1      -1.014  51.745 -21.126  1.00  0.00    -0.002 C 
HETATM    2  C10 UNL     1      -0.293  50.872 -20.097  1.00  0.00     0.007 C 
HETATM    3  C11 UNL     1      -1.387  49.949 -19.600  1.00  0.00     0.015 C 
HETATM    4  C12 UNL     1      -2.104  49.456 -20.883  1.00  0.00    -0.013 C 
HETATM    5  C13 UNL     1      -1.337  48.207 -21.393  1.00  0.00     0.021 C 
HETATM    6  C14 UNL     1      -3.545  48.980 -20.592  1.00  0.00    -0.070 C 
HETATM    7  C15 UNL     1      -3.856  48.351 -19.439  1.00  0.00    -0.022 C 
HETATM    8  C16 UNL     1      -5.183  47.740 -19.111  1.00  0.00     0.034 C 
HETATM    9  C17 UNL     1      -6.116  47.608 -20.330  1.00  0.00     0.013 C 
HETATM   10  C18 UNL     1      -7.536  47.046 -19.960  1.00  0.00     0.018 C 
HETATM   11  C19 UNL     1      -8.108  47.559 -18.625  1.00  0.00     0.023 C 
HETATM   12  C20 UNL     1      -7.468  45.506 -19.865  1.00  0.00     0.023 C 
HETATM   13  C21 UNL     1      -8.520  47.366 -21.087  1.00  0.00     0.135 C 
HETATM   14  O1  UNL     1      -9.739  47.397 -20.919  1.00  0.00    -0.297 OA
HETATM   15  C22 UNL     1      -7.925  47.566 -22.454  1.00  0.00     0.080 C 
HETATM   16  C23 UNL     1      -7.018  48.784 -22.452  1.00  0.00     0.017 C 
HETATM   17  C24 UNL     1      -6.093  48.920 -21.198  1.00  0.00    -0.031 C 
HETATM   18  C25 UNL     1      -6.584  50.140 -20.371  1.00  0.00     0.016 C 
HETATM   19  C26 UNL     1      -4.595  49.139 -21.690  1.00  0.00     0.024 C 
HETATM   20  C27 UNL     1      -4.433  50.426 -22.531  1.00  0.00     0.010 C 
HETATM   21  C28 UNL     1      -3.385  51.386 -21.989  1.00  0.00     0.011 C 
HETATM   22  C29 UNL     1      -1.991  50.723 -21.857  1.00  0.00    -0.029 C 
HETATM   23  C30 UNL     1      -1.477  50.330 -23.262  1.00  0.00     0.016 C 
ENDROOT
BRANCH   1  24
HETATM   24  C7  UNL     1      -0.045  52.626 -21.982  1.00  0.00    -0.014 C 
HETATM   25  C8  UNL     1       1.379  52.598 -21.414  1.00  0.00     0.010 C 
BRANCH  24  26
HETATM   26  C6  UNL     1      -0.046  52.185 -23.474  1.00  0.00     0.008 C 
BRANCH  26  27
HETATM   27  C5  UNL     1       0.665  53.128 -24.460  1.00  0.00     0.028 C 
BRANCH  27  28
HETATM   28  C4  UNL     1       0.406  52.798 -25.906  1.00  0.00    -0.025 C 
HETATM   29  C2  UNL     1       1.141  52.026 -26.731  1.00  0.00    -0.091 C 
HETATM   30  C1  UNL     1       0.721  51.825 -28.165  1.00  0.00     0.042 C 
HETATM   31  C3  UNL     1       2.407  51.307 -26.357  1.00  0.00     0.042 C 
ENDBRANCH  27  28
ENDBRANCH  26  27
ENDBRANCH  24  26
ENDBRANCH   1  24
TORSDOF 4
ENDMDL
