MODEL 1
REMARK minimizedAffinity -6.1170001
REMARK CNNscore 0.477473348
REMARK CNNaffinity 6.38374949
REMARK  6 active torsions:
REMARK  status: ('A' for Active; 'I' for Inactive)
REMARK    1  A    between atoms: C2_2  and  N1_3 
REMARK    2  A    between atoms: N1_3  and  C3_4 
REMARK    3  A    between atoms: N1_3  and  C22_25 
REMARK    4  A    between atoms: C3_4  and  C4_5 
REMARK    5  A    between atoms: C5_6  and  C6_7 
REMARK    6  A    between atoms: C9_11  and  C10_12 
ROOT
HETATM    1  C6  UNL     1     -13.652 -11.056  27.616  1.00  0.00    -0.033 C 
HETATM    2  C7  UNL     1     -13.164 -11.967  28.539  1.00  0.00     0.036 C 
HETATM    3  C8  UNL     1     -12.163 -12.881  28.175  1.00  0.00     0.043 C 
HETATM    4 CL1  UNL     1     -11.820 -14.079  29.394  1.00  0.00    -0.084 Cl
HETATM    5  C9  UNL     1     -11.551 -12.888  26.884  1.00  0.00    -0.010 C 
HETATM    6  C20 UNL     1     -12.148 -12.020  25.945  1.00  0.00     0.043 C 
HETATM    7 CL2  UNL     1     -11.868 -12.036  24.240  1.00  0.00    -0.084 Cl
HETATM    8  C21 UNL     1     -13.147 -11.099  26.321  1.00  0.00     0.036 C 
ENDROOT
BRANCH   1   9
HETATM    9  C5  UNL     1     -14.685 -10.096  28.011  1.00  0.00     0.009 C 
HETATM   10  C4  UNL     1     -14.753  -9.460  29.192  1.00  0.00    -0.007 C 
BRANCH  10  11
HETATM   11  C3  UNL     1     -13.776  -9.524  30.336  1.00  0.00     0.144 C 
BRANCH  11  12
HETATM   12  N1  UNL     1     -13.894  -8.383  31.254  1.00  0.00    -0.405 N 
BRANCH  12  13
HETATM   13  C2  UNL     1     -13.467  -8.730  32.614  1.00  0.00     0.113 C 
HETATM   14  C1  UNL     1     -14.308  -8.179  33.759  1.00  0.00     0.026 C 
ENDBRANCH  12  13
BRANCH  12  15
HETATM   15  C22 UNL     1     -13.493  -7.069  30.705  1.00  0.00     0.079 C 
HETATM   16  C23 UNL     1     -12.218  -6.429  31.285  1.00  0.00     0.025 C 
HETATM   17  C24 UNL     1     -11.759  -5.200  30.486  1.00  0.00     0.002 C 
HETATM   18  C25 UNL     1     -12.836  -4.605  29.582  1.00  0.00     0.000 C 
HETATM   19  C26 UNL     1     -14.202  -4.626  30.250  1.00  0.00     0.002 C 
HETATM   20  C27 UNL     1     -14.639  -6.029  30.687  1.00  0.00     0.025 C 
ENDBRANCH  12  15
ENDBRANCH  11  12
ENDBRANCH  10  11
ENDBRANCH   1   9
BRANCH   5  21
HETATM   21  C10 UNL     1     -10.369 -13.851  26.647  1.00  0.00     0.030 C 
HETATM   22  C11 UNL     1     -10.297 -14.851  25.448  1.00  0.00    -0.005 C 
HETATM   23  C12 UNL     1      -9.866 -14.182  24.122  1.00  0.00     0.010 C 
HETATM   24  C16 UNL     1      -9.221 -15.918  25.785  1.00  0.00     0.010 C 
HETATM   25  C13 UNL     1      -8.496 -13.514  24.268  1.00  0.00    -0.013 C 
HETATM   26  C14 UNL     1      -7.448 -14.574  24.630  1.00  0.00     0.009 C 
HETATM   27  C19 UNL     1      -8.600 -12.467  25.381  1.00  0.00     0.010 C 
HETATM   28  C15 UNL     1      -7.839 -15.261  25.947  1.00  0.00    -0.013 C 
HETATM   29  C17 UNL     1      -7.899 -14.198  27.055  1.00  0.00     0.010 C 
HETATM   30  C18 UNL     1      -8.968 -13.137  26.716  1.00  0.00    -0.005 C 
ENDBRANCH   5  21
TORSDOF 6
ENDMDL
MODEL 2
REMARK minimizedAffinity -8.94783592
REMARK CNNscore 0.409420222
REMARK CNNaffinity 7.01831579
REMARK  6 active torsions:
REMARK  status: ('A' for Active; 'I' for Inactive)
REMARK    1  A    between atoms: C2_2  and  N1_3 
REMARK    2  A    between atoms: N1_3  and  C3_4 
REMARK    3  A    between atoms: N1_3  and  C22_25 
REMARK    4  A    between atoms: C3_4  and  C4_5 
REMARK    5  A    between atoms: C5_6  and  C6_7 
REMARK    6  A    between atoms: C9_11  and  C10_12 
ROOT
HETATM    1  C6  UNL     1      -2.135   5.067  12.661  1.00  0.00    -0.033 C 
HETATM    2  C7  UNL     1      -2.386   6.403  12.931  1.00  0.00     0.036 C 
HETATM    3  C8  UNL     1      -3.698   6.848  13.155  1.00  0.00     0.043 C 
HETATM    4 CL1  UNL     1      -3.848   8.580  13.274  1.00  0.00    -0.084 Cl
HETATM    5  C9  UNL     1      -4.822   5.967  13.185  1.00  0.00    -0.010 C 
HETATM    6  C20 UNL     1      -4.539   4.639  12.801  1.00  0.00     0.043 C 
HETATM    7 CL2  UNL     1      -5.713   3.431  12.416  1.00  0.00    -0.084 Cl
HETATM    8  C21 UNL     1      -3.218   4.198  12.586  1.00  0.00     0.036 C 
ENDROOT
BRANCH   1   9
HETATM    9  C5  UNL     1      -0.760   4.610  12.444  1.00  0.00     0.009 C 
HETATM   10  C4  UNL     1       0.253   5.364  11.987  1.00  0.00    -0.007 C 
BRANCH  10  11
HETATM   11  C3  UNL     1       0.241   6.834  11.663  1.00  0.00     0.144 C 
BRANCH  11  12
HETATM   12  N1  UNL     1       1.538   7.324  11.177  1.00  0.00    -0.405 N 
BRANCH  12  13
HETATM   13  C2  UNL     1       2.618   7.046  12.130  1.00  0.00     0.113 C 
HETATM   14  C1  UNL     1       3.931   7.788  11.916  1.00  0.00     0.026 C 
ENDBRANCH  12  13
BRANCH  12  15
HETATM   15  C22 UNL     1       1.803   7.126   9.735  1.00  0.00     0.079 C 
HETATM   16  C23 UNL     1       2.756   5.979   9.351  1.00  0.00     0.025 C 
HETATM   17  C24 UNL     1       2.772   5.707   7.839  1.00  0.00     0.002 C 
HETATM   18  C25 UNL     1       2.213   6.849   6.993  1.00  0.00     0.000 C 
HETATM   19  C26 UNL     1       2.632   8.205   7.537  1.00  0.00     0.002 C 
HETATM   20  C27 UNL     1       2.222   8.422   8.999  1.00  0.00     0.025 C 
ENDBRANCH  12  15
ENDBRANCH  11  12
ENDBRANCH  10  11
ENDBRANCH   1   9
BRANCH   5  21
HETATM   21  C10 UNL     1      -6.194   6.554  13.575  1.00  0.00     0.030 C 
HETATM   22  C11 UNL     1      -7.514   5.717  13.609  1.00  0.00    -0.005 C 
HETATM   23  C12 UNL     1      -7.653   4.852  14.885  1.00  0.00     0.010 C 
HETATM   24  C16 UNL     1      -8.707   6.711  13.607  1.00  0.00     0.010 C 
HETATM   25  C13 UNL     1      -7.609   5.723  16.142  1.00  0.00    -0.013 C 
HETATM   26  C14 UNL     1      -8.774   6.721  16.112  1.00  0.00     0.009 C 
HETATM   27  C19 UNL     1      -6.271   6.469  16.150  1.00  0.00     0.010 C 
HETATM   28  C15 UNL     1      -8.669   7.603  14.860  1.00  0.00    -0.013 C 
HETATM   29  C17 UNL     1      -7.339   8.369  14.910  1.00  0.00     0.010 C 
HETATM   30  C18 UNL     1      -6.155   7.379  14.915  1.00  0.00    -0.005 C 
ENDBRANCH   5  21
TORSDOF 6
ENDMDL
MODEL 3
REMARK minimizedAffinity -9.252882
REMARK CNNscore 0.359530807
REMARK CNNaffinity 7.08744001
REMARK  6 active torsions:
REMARK  status: ('A' for Active; 'I' for Inactive)
REMARK    1  A    between atoms: C2_2  and  N1_3 
REMARK    2  A    between atoms: N1_3  and  C3_4 
REMARK    3  A    between atoms: N1_3  and  C22_25 
REMARK    4  A    between atoms: C3_4  and  C4_5 
REMARK    5  A    between atoms: C5_6  and  C6_7 
REMARK    6  A    between atoms: C9_11  and  C10_12 
ROOT
HETATM    1  C6  UNL     1      -2.244   4.552  12.353  1.00  0.00    -0.033 C 
HETATM    2  C7  UNL     1      -2.431   5.882  12.693  1.00  0.00     0.036 C 
HETATM    3  C8  UNL     1      -3.717   6.371  12.969  1.00  0.00     0.043 C 
HETATM    4 CL1  UNL     1      -3.790   8.100  13.175  1.00  0.00    -0.084 Cl
HETATM    5  C9  UNL     1      -4.878   5.538  12.983  1.00  0.00    -0.010 C 
HETATM    6  C20 UNL     1      -4.661   4.219  12.529  1.00  0.00     0.043 C 
HETATM    7 CL2  UNL     1      -5.894   3.082  12.114  1.00  0.00    -0.084 Cl
HETATM    8  C21 UNL     1      -3.365   3.733  12.262  1.00  0.00     0.036 C 
ENDROOT
BRANCH   1   9
HETATM    9  C5  UNL     1      -0.896   4.048  12.083  1.00  0.00     0.009 C 
HETATM   10  C4  UNL     1       0.210   4.800  11.950  1.00  0.00    -0.007 C 
BRANCH  10  11
HETATM   11  C3  UNL     1       0.340   6.291  12.113  1.00  0.00     0.144 C 
BRANCH  11  12
HETATM   12  N1  UNL     1      -0.000   7.032  10.890  1.00  0.00    -0.405 N 
BRANCH  12  13
HETATM   13  C2  UNL     1      -0.432   8.403  11.184  1.00  0.00     0.113 C 
HETATM   14  C1  UNL     1      -0.144   8.928  12.584  1.00  0.00     0.026 C 
ENDBRANCH  12  13
BRANCH  12  15
HETATM   15  C22 UNL     1       0.893   6.809   9.732  1.00  0.00     0.079 C 
HETATM   16  C23 UNL     1       2.365   6.476  10.039  1.00  0.00     0.025 C 
HETATM   17  C24 UNL     1       3.140   6.028   8.791  1.00  0.00     0.002 C 
HETATM   18  C25 UNL     1       2.469   6.401   7.471  1.00  0.00     0.000 C 
HETATM   19  C26 UNL     1       1.841   7.784   7.533  1.00  0.00     0.002 C 
HETATM   20  C27 UNL     1       0.821   7.932   8.669  1.00  0.00     0.025 C 
ENDBRANCH  12  15
ENDBRANCH  11  12
ENDBRANCH  10  11
ENDBRANCH   1   9
BRANCH   5  21
HETATM   21  C10 UNL     1      -6.215   6.163  13.433  1.00  0.00     0.030 C 
HETATM   22  C11 UNL     1      -7.558   5.366  13.509  1.00  0.00    -0.005 C 
HETATM   23  C12 UNL     1      -7.675   4.491  14.779  1.00  0.00     0.010 C 
HETATM   24  C16 UNL     1      -8.718   6.398  13.564  1.00  0.00     0.010 C 
HETATM   25  C13 UNL     1      -7.555   5.344  16.043  1.00  0.00    -0.013 C 
HETATM   26  C14 UNL     1      -8.688   6.378  16.070  1.00  0.00     0.009 C 
HETATM   27  C19 UNL     1      -6.194   6.048  16.008  1.00  0.00     0.010 C 
HETATM   28  C15 UNL     1      -8.604   7.272  14.825  1.00  0.00    -0.013 C 
HETATM   29  C17 UNL     1      -7.249   7.996  14.832  1.00  0.00     0.010 C 
HETATM   30  C18 UNL     1      -6.098   6.969  14.779  1.00  0.00    -0.005 C 
ENDBRANCH   5  21
TORSDOF 6
ENDMDL
MODEL 4
REMARK minimizedAffinity -9.40902996
REMARK CNNscore 0.319296032
REMARK CNNaffinity 7.01479197
REMARK  6 active torsions:
REMARK  status: ('A' for Active; 'I' for Inactive)
REMARK    1  A    between atoms: C2_2  and  N1_3 
REMARK    2  A    between atoms: N1_3  and  C3_4 
REMARK    3  A    between atoms: N1_3  and  C22_25 
REMARK    4  A    between atoms: C3_4  and  C4_5 
REMARK    5  A    between atoms: C5_6  and  C6_7 
REMARK    6  A    between atoms: C9_11  and  C10_12 
ROOT
HETATM    1  C6  UNL     1      -2.085   4.465  12.274  1.00  0.00    -0.033 C 
HETATM    2  C7  UNL     1      -3.284   3.917  11.847  1.00  0.00     0.036 C 
HETATM    3  C8  UNL     1      -4.505   4.441  12.300  1.00  0.00     0.043 C 
HETATM    4 CL1  UNL     1      -5.897   3.505  11.827  1.00  0.00    -0.084 Cl
HETATM    5  C9  UNL     1      -4.590   5.583  13.154  1.00  0.00    -0.010 C 
HETATM    6  C20 UNL     1      -3.351   6.042  13.649  1.00  0.00     0.043 C 
HETATM    7 CL2  UNL     1      -3.138   7.168  14.942  1.00  0.00    -0.084 Cl
HETATM    8  C21 UNL     1      -2.129   5.517  13.182  1.00  0.00     0.036 C 
ENDROOT
BRANCH   1   9
HETATM    9  C5  UNL     1      -0.817   3.921  11.782  1.00  0.00     0.009 C 
HETATM   10  C4  UNL     1       0.342   4.595  11.689  1.00  0.00    -0.007 C 
BRANCH  10  11
HETATM   11  C3  UNL     1       0.627   6.009  12.122  1.00  0.00     0.144 C 
BRANCH  11  12
HETATM   12  N1  UNL     1       0.272   7.003  11.100  1.00  0.00    -0.405 N 
BRANCH  12  13
HETATM   13  C2  UNL     1       0.119   8.345  11.673  1.00  0.00     0.113 C 
HETATM   14  C1  UNL     1      -1.304   8.866  11.831  1.00  0.00     0.026 C 
ENDBRANCH  12  13
BRANCH  12  15
HETATM   15  C22 UNL     1       0.967   6.868   9.801  1.00  0.00     0.079 C 
HETATM   16  C23 UNL     1       2.417   6.350   9.834  1.00  0.00     0.025 C 
HETATM   17  C24 UNL     1       2.957   6.019   8.435  1.00  0.00     0.002 C 
HETATM   18  C25 UNL     1       2.162   6.648   7.294  1.00  0.00     0.000 C 
HETATM   19  C26 UNL     1       1.716   8.061   7.634  1.00  0.00     0.002 C 
HETATM   20  C27 UNL     1       0.885   8.138   8.920  1.00  0.00     0.025 C 
ENDBRANCH  12  15
ENDBRANCH  11  12
ENDBRANCH  10  11
ENDBRANCH   1   9
BRANCH   5  21
HETATM   21  C10 UNL     1      -5.990   6.147  13.475  1.00  0.00     0.030 C 
HETATM   22  C11 UNL     1      -7.289   5.277  13.490  1.00  0.00    -0.005 C 
HETATM   23  C12 UNL     1      -7.453   4.452  14.788  1.00  0.00     0.010 C 
HETATM   24  C16 UNL     1      -8.505   6.239  13.412  1.00  0.00     0.010 C 
HETATM   25  C13 UNL     1      -7.476   5.365  16.016  1.00  0.00    -0.013 C 
HETATM   26  C14 UNL     1      -8.664   6.330  15.911  1.00  0.00     0.009 C 
HETATM   27  C19 UNL     1      -6.158   6.145  16.047  1.00  0.00     0.010 C 
HETATM   28  C15 UNL     1      -8.536   7.172  14.634  1.00  0.00    -0.013 C 
HETATM   29  C17 UNL     1      -7.227   7.974  14.705  1.00  0.00     0.010 C 
HETATM   30  C18 UNL     1      -6.021   7.016  14.786  1.00  0.00    -0.005 C 
ENDBRANCH   5  21
TORSDOF 6
ENDMDL
MODEL 5
REMARK minimizedAffinity -7.43650627
REMARK CNNscore 0.313842565
REMARK CNNaffinity 6.80950165
REMARK  6 active torsions:
REMARK  status: ('A' for Active; 'I' for Inactive)
REMARK    1  A    between atoms: C2_2  and  N1_3 
REMARK    2  A    between atoms: N1_3  and  C3_4 
REMARK    3  A    between atoms: N1_3  and  C22_25 
REMARK    4  A    between atoms: C3_4  and  C4_5 
REMARK    5  A    between atoms: C5_6  and  C6_7 
REMARK    6  A    between atoms: C9_11  and  C10_12 
ROOT
HETATM    1  C6  UNL     1      -1.083   8.051  13.128  1.00  0.00    -0.033 C 
HETATM    2  C7  UNL     1      -1.724   7.022  12.457  1.00  0.00     0.036 C 
HETATM    3  C8  UNL     1      -2.846   6.397  13.023  1.00  0.00     0.043 C 
HETATM    4 CL1  UNL     1      -3.396   4.996  12.143  1.00  0.00    -0.084 Cl
HETATM    5  C9  UNL     1      -3.425   6.812  14.261  1.00  0.00    -0.010 C 
HETATM    6  C20 UNL     1      -2.681   7.787  14.960  1.00  0.00     0.043 C 
HETATM    7 CL2  UNL     1      -2.925   8.248  16.607  1.00  0.00    -0.084 Cl
HETATM    8  C21 UNL     1      -1.561   8.417  14.381  1.00  0.00     0.036 C 
ENDROOT
BRANCH   1   9
HETATM    9  C5  UNL     1       0.077   8.707  12.521  1.00  0.00     0.009 C 
HETATM   10  C4  UNL     1       1.282   8.146  12.324  1.00  0.00    -0.007 C 
BRANCH  10  11
HETATM   11  C3  UNL     1       1.698   6.726  12.604  1.00  0.00     0.144 C 
BRANCH  11  12
HETATM   12  N1  UNL     1       1.823   5.916  11.385  1.00  0.00    -0.405 N 
BRANCH  12  13
HETATM   13  C2  UNL     1       0.851   4.818  11.356  1.00  0.00     0.113 C 
HETATM   14  C1  UNL     1       0.272   4.378  12.694  1.00  0.00     0.026 C 
ENDBRANCH  12  13
BRANCH  12  15
HETATM   15  C22 UNL     1       2.074   6.667  10.135  1.00  0.00     0.079 C 
HETATM   16  C23 UNL     1       3.160   7.757  10.180  1.00  0.00     0.025 C 
HETATM   17  C24 UNL     1       3.508   8.302   8.787  1.00  0.00     0.002 C 
HETATM   18  C25 UNL     1       2.459   8.000   7.719  1.00  0.00     0.000 C 
HETATM   19  C26 UNL     1       1.048   8.130   8.268  1.00  0.00     0.002 C 
HETATM   20  C27 UNL     1       0.789   7.236   9.486  1.00  0.00     0.025 C 
ENDBRANCH  12  15
ENDBRANCH  11  12
ENDBRANCH  10  11
ENDBRANCH   1   9
BRANCH   5  21
HETATM   21  C10 UNL     1      -4.736   6.136  14.713  1.00  0.00     0.030 C 
HETATM   22  C11 UNL     1      -5.566   6.603  15.953  1.00  0.00    -0.005 C 
HETATM   23  C12 UNL     1      -6.443   7.845  15.666  1.00  0.00     0.010 C 
HETATM   24  C16 UNL     1      -6.531   5.450  16.339  1.00  0.00     0.010 C 
HETATM   25  C13 UNL     1      -7.416   7.572  14.516  1.00  0.00    -0.013 C 
HETATM   26  C14 UNL     1      -8.343   6.411  14.898  1.00  0.00     0.009 C 
HETATM   27  C19 UNL     1      -6.591   7.207  13.278  1.00  0.00     0.010 C 
HETATM   28  C15 UNL     1      -7.509   5.155  15.188  1.00  0.00    -0.013 C 
HETATM   29  C17 UNL     1      -6.721   4.787  13.922  1.00  0.00     0.010 C 
HETATM   30  C18 UNL     1      -5.765   5.936  13.539  1.00  0.00    -0.005 C 
ENDBRANCH   5  21
TORSDOF 6
ENDMDL
MODEL 6
REMARK minimizedAffinity -6.89297485
REMARK CNNscore 0.284743696
REMARK CNNaffinity 5.66238928
REMARK  6 active torsions:
REMARK  status: ('A' for Active; 'I' for Inactive)
REMARK    1  A    between atoms: C2_2  and  N1_3 
REMARK    2  A    between atoms: N1_3  and  C3_4 
REMARK    3  A    between atoms: N1_3  and  C22_25 
REMARK    4  A    between atoms: C3_4  and  C4_5 
REMARK    5  A    between atoms: C5_6  and  C6_7 
REMARK    6  A    between atoms: C9_11  and  C10_12 
ROOT
HETATM    1  C6  UNL     1      -0.884  11.902  19.108  1.00  0.00    -0.033 C 
HETATM    2  C7  UNL     1      -0.549  13.228  19.333  1.00  0.00     0.036 C 
HETATM    3  C8  UNL     1       0.580  13.555  20.099  1.00  0.00     0.043 C 
HETATM    4 CL1  UNL     1       0.730  15.255  20.450  1.00  0.00    -0.084 Cl
HETATM    5  C9  UNL     1       1.473  12.571  20.625  1.00  0.00    -0.010 C 
HETATM    6  C20 UNL     1       1.040  11.238  20.465  1.00  0.00     0.043 C 
HETATM    7 CL2  UNL     1       1.707   9.860  21.266  1.00  0.00    -0.084 Cl
HETATM    8  C21 UNL     1      -0.091  10.917  19.688  1.00  0.00     0.036 C 
ENDROOT
BRANCH   1   9
HETATM    9  C5  UNL     1      -2.055  11.571  18.294  1.00  0.00     0.009 C 
HETATM   10  C4  UNL     1      -2.088  10.673  17.296  1.00  0.00    -0.007 C 
BRANCH  10  11
HETATM   11  C3  UNL     1      -0.981   9.764  16.832  1.00  0.00     0.144 C 
BRANCH  11  12
HETATM   12  N1  UNL     1      -1.108   9.382  15.419  1.00  0.00    -0.405 N 
BRANCH  12  13
HETATM   13  C2  UNL     1       0.088   8.685  14.932  1.00  0.00     0.113 C 
HETATM   14  C1  UNL     1       0.945   9.423  13.912  1.00  0.00     0.026 C 
ENDBRANCH  12  13
BRANCH  12  15
HETATM   15  C22 UNL     1      -2.435   8.876  15.005  1.00  0.00     0.079 C 
HETATM   16  C23 UNL     1      -2.806   7.447  15.444  1.00  0.00     0.025 C 
HETATM   17  C24 UNL     1      -4.280   7.112  15.175  1.00  0.00     0.002 C 
HETATM   18  C25 UNL     1      -4.960   8.042  14.173  1.00  0.00     0.000 C 
HETATM   19  C26 UNL     1      -4.030   8.405  13.026  1.00  0.00     0.002 C 
HETATM   20  C27 UNL     1      -2.719   9.048  13.493  1.00  0.00     0.025 C 
ENDBRANCH  12  15
ENDBRANCH  11  12
ENDBRANCH  10  11
ENDBRANCH   1   9
BRANCH   5  21
HETATM   21  C10 UNL     1       2.754  13.059  21.335  1.00  0.00     0.030 C 
HETATM   22  C11 UNL     1       3.004  12.899  22.870  1.00  0.00    -0.005 C 
HETATM   23  C12 UNL     1       3.467  11.477  23.266  1.00  0.00     0.010 C 
HETATM   24  C16 UNL     1       4.147  13.872  23.267  1.00  0.00     0.010 C 
HETATM   25  C13 UNL     1       4.754  11.097  22.531  1.00  0.00    -0.013 C 
HETATM   26  C14 UNL     1       5.867  12.084  22.908  1.00  0.00     0.009 C 
HETATM   27  C19 UNL     1       4.473  11.164  21.026  1.00  0.00     0.010 C 
HETATM   28  C15 UNL     1       5.447  13.510  22.526  1.00  0.00    -0.013 C 
HETATM   29  C17 UNL     1       5.208  13.561  21.009  1.00  0.00     0.010 C 
HETATM   30  C18 UNL     1       4.074  12.592  20.617  1.00  0.00    -0.005 C 
ENDBRANCH   5  21
TORSDOF 6
ENDMDL
MODEL 7
REMARK minimizedAffinity -6.4496274
REMARK CNNscore 0.273858368
REMARK CNNaffinity 5.38487864
REMARK  6 active torsions:
REMARK  status: ('A' for Active; 'I' for Inactive)
REMARK    1  A    between atoms: C2_2  and  N1_3 
REMARK    2  A    between atoms: N1_3  and  C3_4 
REMARK    3  A    between atoms: N1_3  and  C22_25 
REMARK    4  A    between atoms: C3_4  and  C4_5 
REMARK    5  A    between atoms: C5_6  and  C6_7 
REMARK    6  A    between atoms: C9_11  and  C10_12 
ROOT
HETATM    1  C6  UNL     1      -3.932  -9.479   6.864  1.00  0.00    -0.033 C 
HETATM    2  C7  UNL     1      -3.469  -9.465   8.170  1.00  0.00     0.036 C 
HETATM    3  C8  UNL     1      -4.312  -9.846   9.226  1.00  0.00     0.043 C 
HETATM    4 CL1  UNL     1      -3.635  -9.573  10.808  1.00  0.00    -0.084 Cl
HETATM    5  C9  UNL     1      -5.644 -10.323   9.023  1.00  0.00    -0.010 C 
HETATM    6  C20 UNL     1      -6.110 -10.220   7.695  1.00  0.00     0.043 C 
HETATM    7 CL2  UNL     1      -7.753 -10.392   7.189  1.00  0.00    -0.084 Cl
HETATM    8  C21 UNL     1      -5.254  -9.845   6.639  1.00  0.00     0.036 C 
ENDROOT
BRANCH   1   9
HETATM    9  C5  UNL     1      -3.039  -9.095   5.768  1.00  0.00     0.009 C 
HETATM   10  C4  UNL     1      -2.769  -9.837   4.681  1.00  0.00    -0.007 C 
BRANCH  10  11
HETATM   11  C3  UNL     1      -3.358 -11.170   4.301  1.00  0.00     0.144 C 
BRANCH  11  12
HETATM   12  N1  UNL     1      -3.185 -11.486   2.876  1.00  0.00    -0.405 N 
BRANCH  12  13
HETATM   13  C2  UNL     1      -3.461 -10.326   2.022  1.00  0.00     0.113 C 
HETATM   14  C1  UNL     1      -4.374 -10.558   0.824  1.00  0.00     0.026 C 
ENDBRANCH  12  13
BRANCH  12  15
HETATM   15  C22 UNL     1      -2.027 -12.345   2.543  1.00  0.00     0.079 C 
HETATM   16  C23 UNL     1      -1.578 -13.359   3.612  1.00  0.00     0.025 C 
HETATM   17  C24 UNL     1      -0.539 -14.356   3.079  1.00  0.00     0.002 C 
HETATM   18  C25 UNL     1       0.152 -13.911   1.792  1.00  0.00     0.000 C 
HETATM   19  C26 UNL     1       0.448 -12.420   1.802  1.00  0.00     0.002 C 
HETATM   20  C27 UNL     1      -0.801 -11.558   2.020  1.00  0.00     0.025 C 
ENDBRANCH  12  15
ENDBRANCH  11  12
ENDBRANCH  10  11
ENDBRANCH   1   9
BRANCH   5  21
HETATM   21  C10 UNL     1      -6.425 -10.839  10.249  1.00  0.00     0.030 C 
HETATM   22  C11 UNL     1      -6.081 -10.442  11.722  1.00  0.00    -0.005 C 
HETATM   23  C12 UNL     1      -6.616  -9.046  12.116  1.00  0.00     0.010 C 
HETATM   24  C16 UNL     1      -6.768 -11.470  12.662  1.00  0.00     0.010 C 
HETATM   25  C13 UNL     1      -8.136  -8.975  11.946  1.00  0.00    -0.013 C 
HETATM   26  C14 UNL     1      -8.800 -10.015  12.857  1.00  0.00     0.009 C 
HETATM   27  C19 UNL     1      -8.458  -9.271  10.477  1.00  0.00     0.010 C 
HETATM   28  C15 UNL     1      -8.296 -11.419  12.494  1.00  0.00    -0.013 C 
HETATM   29  C17 UNL     1      -8.665 -11.708  11.030  1.00  0.00     0.010 C 
HETATM   30  C18 UNL     1      -7.984 -10.685  10.098  1.00  0.00    -0.005 C 
ENDBRANCH   5  21
TORSDOF 6
ENDMDL
MODEL 8
REMARK minimizedAffinity -6.6538806
REMARK CNNscore 0.260176063
REMARK CNNaffinity 5.72920847
REMARK  6 active torsions:
REMARK  status: ('A' for Active; 'I' for Inactive)
REMARK    1  A    between atoms: C2_2  and  N1_3 
REMARK    2  A    between atoms: N1_3  and  C3_4 
REMARK    3  A    between atoms: N1_3  and  C22_25 
REMARK    4  A    between atoms: C3_4  and  C4_5 
REMARK    5  A    between atoms: C5_6  and  C6_7 
REMARK    6  A    between atoms: C9_11  and  C10_12 
ROOT
HETATM    1  C6  UNL     1     -13.599   6.445  22.343  1.00  0.00    -0.033 C 
HETATM    2  C7  UNL     1     -13.638   7.238  21.207  1.00  0.00     0.036 C 
HETATM    3  C8  UNL     1     -12.929   8.449  21.163  1.00  0.00     0.043 C 
HETATM    4 CL1  UNL     1     -13.256   9.409  19.746  1.00  0.00    -0.084 Cl
HETATM    5  C9  UNL     1     -12.092   8.898  22.229  1.00  0.00    -0.010 C 
HETATM    6  C20 UNL     1     -12.164   8.118  23.403  1.00  0.00     0.043 C 
HETATM    7 CL2  UNL     1     -11.548   8.571  24.952  1.00  0.00    -0.084 Cl
HETATM    8  C21 UNL     1     -12.871   6.899  23.437  1.00  0.00     0.036 C 
ENDROOT
BRANCH   1   9
HETATM    9  C5  UNL     1     -14.328   5.175  22.373  1.00  0.00     0.009 C 
HETATM   10  C4  UNL     1     -14.414   4.345  23.426  1.00  0.00    -0.007 C 
BRANCH  10  11
HETATM   11  C3  UNL     1     -13.859   4.547  24.811  1.00  0.00     0.144 C 
BRANCH  11  12
HETATM   12  N1  UNL     1     -13.669   3.286  25.541  1.00  0.00    -0.405 N 
BRANCH  12  13
HETATM   13  C2  UNL     1     -13.107   2.238  24.682  1.00  0.00     0.113 C 
HETATM   14  C1  UNL     1     -11.625   2.345  24.347  1.00  0.00     0.026 C 
ENDBRANCH  12  13
BRANCH  12  15
HETATM   15  C22 UNL     1     -13.157   3.412  26.923  1.00  0.00     0.079 C 
HETATM   16  C23 UNL     1     -12.921   2.105  27.703  1.00  0.00     0.025 C 
HETATM   17  C24 UNL     1     -12.169   2.333  29.022  1.00  0.00     0.002 C 
HETATM   18  C25 UNL     1     -12.184   3.780  29.508  1.00  0.00     0.000 C 
HETATM   19  C26 UNL     1     -13.533   4.438  29.266  1.00  0.00     0.002 C 
HETATM   20  C27 UNL     1     -13.967   4.402  27.796  1.00  0.00     0.025 C 
ENDBRANCH  12  15
ENDBRANCH  11  12
ENDBRANCH  10  11
ENDBRANCH   1   9
BRANCH   5  21
HETATM   21  C10 UNL     1     -11.259  10.178  22.008  1.00  0.00     0.030 C 
HETATM   22  C11 UNL     1     -11.617  11.269  20.948  1.00  0.00    -0.005 C 
HETATM   23  C12 UNL     1     -12.742  12.223  21.412  1.00  0.00     0.010 C 
HETATM   24  C16 UNL     1     -10.353  12.142  20.720  1.00  0.00     0.010 C 
HETATM   25  C13 UNL     1     -12.356  12.931  22.713  1.00  0.00    -0.013 C 
HETATM   26  C14 UNL     1     -11.089  13.765  22.482  1.00  0.00     0.009 C 
HETATM   27  C19 UNL     1     -12.099  11.857  23.775  1.00  0.00     0.010 C 
HETATM   28  C15 UNL     1      -9.944  12.851  22.022  1.00  0.00    -0.013 C 
HETATM   29  C17 UNL     1      -9.679  11.808  23.119  1.00  0.00     0.010 C 
HETATM   30  C18 UNL     1     -10.938  10.944  23.345  1.00  0.00    -0.005 C 
ENDBRANCH   5  21
TORSDOF 6
ENDMDL
MODEL 9
REMARK minimizedAffinity -6.87094641
REMARK CNNscore 0.253622979
REMARK CNNaffinity 5.62207031
REMARK  6 active torsions:
REMARK  status: ('A' for Active; 'I' for Inactive)
REMARK    1  A    between atoms: C2_2  and  N1_3 
REMARK    2  A    between atoms: N1_3  and  C3_4 
REMARK    3  A    between atoms: N1_3  and  C22_25 
REMARK    4  A    between atoms: C3_4  and  C4_5 
REMARK    5  A    between atoms: C5_6  and  C6_7 
REMARK    6  A    between atoms: C9_11  and  C10_12 
ROOT
HETATM    1  C6  UNL     1      -0.753  11.675  19.119  1.00  0.00    -0.033 C 
HETATM    2  C7  UNL     1      -0.440  13.015  19.285  1.00  0.00     0.036 C 
HETATM    3  C8  UNL     1       0.671  13.393  20.056  1.00  0.00     0.043 C 
HETATM    4 CL1  UNL     1       0.794  15.111  20.325  1.00  0.00    -0.084 Cl
HETATM    5  C9  UNL     1       1.564  12.449  20.647  1.00  0.00    -0.010 C 
HETATM    6  C20 UNL     1       1.150  11.103  20.545  1.00  0.00     0.043 C 
HETATM    7 CL2  UNL     1       1.818   9.775  21.425  1.00  0.00    -0.084 Cl
HETATM    8  C21 UNL     1       0.039  10.730  19.762  1.00  0.00     0.036 C 
ENDROOT
BRANCH   1   9
HETATM    9  C5  UNL     1      -1.905  11.290  18.300  1.00  0.00     0.009 C 
HETATM   10  C4  UNL     1      -1.876  10.444  17.257  1.00  0.00    -0.007 C 
BRANCH  10  11
HETATM   11  C3  UNL     1      -0.704   9.656  16.736  1.00  0.00     0.144 C 
BRANCH  11  12
HETATM   12  N1  UNL     1      -1.098   8.375  16.133  1.00  0.00    -0.405 N 
BRANCH  12  13
HETATM   13  C2  UNL     1      -2.553   8.186  16.154  1.00  0.00     0.113 C 
HETATM   14  C1  UNL     1      -3.084   6.879  15.581  1.00  0.00     0.026 C 
ENDBRANCH  12  13
BRANCH  12  15
HETATM   15  C22 UNL     1      -0.355   7.980  14.916  1.00  0.00     0.079 C 
HETATM   16  C23 UNL     1       1.136   7.635  15.089  1.00  0.00     0.025 C 
HETATM   17  C24 UNL     1       1.747   7.010  13.826  1.00  0.00     0.002 C 
HETATM   18  C25 UNL     1       0.930   7.240  12.557  1.00  0.00     0.000 C 
HETATM   19  C26 UNL     1       0.342   8.642  12.517  1.00  0.00     0.002 C 
HETATM   20  C27 UNL     1      -0.531   8.966  13.736  1.00  0.00     0.025 C 
ENDBRANCH  12  15
ENDBRANCH  11  12
ENDBRANCH  10  11
ENDBRANCH   1   9
BRANCH   5  21
HETATM   21  C10 UNL     1       2.825  12.987  21.357  1.00  0.00     0.030 C 
HETATM   22  C11 UNL     1       3.074  12.851  22.894  1.00  0.00    -0.005 C 
HETATM   23  C12 UNL     1       3.584  11.450  23.306  1.00  0.00     0.010 C 
HETATM   24  C16 UNL     1       4.182  13.866  23.286  1.00  0.00     0.010 C 
HETATM   25  C13 UNL     1       4.887  11.107  22.579  1.00  0.00    -0.013 C 
HETATM   26  C14 UNL     1       5.963  12.135  22.951  1.00  0.00     0.009 C 
HETATM   27  C19 UNL     1       4.610  11.149  21.073  1.00  0.00     0.010 C 
HETATM   28  C15 UNL     1       5.496  13.542  22.553  1.00  0.00    -0.013 C 
HETATM   29  C17 UNL     1       5.262  13.570  21.035  1.00  0.00     0.010 C 
HETATM   30  C18 UNL     1       4.163  12.559  20.648  1.00  0.00    -0.005 C 
ENDBRANCH   5  21
TORSDOF 6
ENDMDL
