MODEL 1
REMARK minimizedAffinity -9.72017765
REMARK  4 active torsions:
REMARK  status: ('A' for Active; 'I' for Inactive)
REMARK    1  A    between atoms: C14_16  and  C15_17 
REMARK    2  A    between atoms: C15_17  and  C17_19 
REMARK    3  A    between atoms: C17_19  and  C18_20 
REMARK    4  A    between atoms: C18_20  and  C19_21 
ROOT
HETATM    1  C1  UNL     1      -7.185   3.699  13.698  1.00  0.00     0.017 C 
HETATM    2  C2  UNL     1      -6.272   4.035  12.765  1.00  0.00    -0.060 C 
HETATM    3  C3  UNL     1      -6.612   3.911  11.293  1.00  0.00     0.212 C 
HETATM    4  O1  UNL     1      -5.676   3.066  10.627  1.00  0.00    -0.317 OA
HETATM    5  C4  UNL     1      -5.590   1.825  11.177  1.00  0.00     0.259 C 
HETATM    6  O2  UNL     1      -6.540   1.118  11.481  1.00  0.00    -0.265 OA
HETATM    7  C5  UNL     1      -4.149   1.507  11.462  1.00  0.00     0.112 C 
HETATM    8  C6  UNL     1      -3.629   2.313  12.660  1.00  0.00     0.020 C 
HETATM    9  C7  UNL     1      -3.660   3.849  12.480  1.00  0.00    -0.024 A 
HETATM   10  C8  UNL     1      -3.112   4.393  11.178  1.00  0.00     0.022 A 
HETATM   11  C9  UNL     1      -2.327   4.680  12.439  1.00  0.00    -0.027 A 
HETATM   12  C10 UNL     1      -1.009   3.915  12.624  1.00  0.00     0.011 C 
HETATM   13  C11 UNL     1       0.317   4.687  12.505  1.00  0.00     0.011 C 
HETATM   14  C12 UNL     1       0.169   6.207  12.378  1.00  0.00    -0.032 C 
HETATM   15  C13 UNL     1      -0.126   6.527  10.888  1.00  0.00     0.016 C 
HETATM   16  C14 UNL     1       1.385   7.055  12.876  1.00  0.00    -0.002 C 
HETATM   17  C23 UNL     1       0.748   8.406  13.302  1.00  0.00     0.006 C 
HETATM   18  C24 UNL     1      -0.774   8.194  13.347  1.00  0.00     0.011 C 
HETATM   19  C25 UNL     1      -0.962   6.665  13.369  1.00  0.00    -0.032 C 
HETATM   20  C26 UNL     1      -0.757   6.207  14.849  1.00  0.00     0.016 C 
HETATM   21  C27 UNL     1      -2.340   6.180  12.848  1.00  0.00     0.004 C 
HETATM   22  C28 UNL     1      -3.512   6.519  13.778  1.00  0.00     0.007 C 
HETATM   23  C29 UNL     1      -4.832   6.042  13.182  1.00  0.00     0.010 C 
HETATM   24  C30 UNL     1      -4.880   4.508  13.181  1.00  0.00     0.025 C 
ENDROOT
BRANCH  16  25
HETATM   25  C15 UNL     1       2.708   7.214  12.068  1.00  0.00    -0.014 C 
HETATM   26  C16 UNL     1       2.955   8.573  11.400  1.00  0.00     0.010 C 
BRANCH  25  27
HETATM   27  C17 UNL     1       2.889   6.061  11.053  1.00  0.00     0.008 C 
BRANCH  27  28
HETATM   28  C18 UNL     1       3.682   6.424   9.787  1.00  0.00     0.028 C 
BRANCH  28  29
HETATM   29  C19 UNL     1       2.843   6.354   8.539  1.00  0.00    -0.025 C 
HETATM   30  C20 UNL     1       2.534   7.346   7.680  1.00  0.00    -0.091 C 
HETATM   31  C21 UNL     1       1.671   7.069   6.475  1.00  0.00     0.042 C 
HETATM   32  C22 UNL     1       2.981   8.776   7.796  1.00  0.00     0.042 C 
ENDBRANCH  28  29
ENDBRANCH  27  28
ENDBRANCH  25  27
ENDBRANCH  16  25
TORSDOF 4
ENDMDL
MODEL 2
REMARK minimizedAffinity -9.26037693
REMARK  4 active torsions:
REMARK  status: ('A' for Active; 'I' for Inactive)
REMARK    1  A    between atoms: C14_16  and  C15_17 
REMARK    2  A    between atoms: C15_17  and  C17_19 
REMARK    3  A    between atoms: C17_19  and  C18_20 
REMARK    4  A    between atoms: C18_20  and  C19_21 
ROOT
HETATM    1  C1  UNL     1      -8.206   4.876  13.301  1.00  0.00     0.017 C 
HETATM    2  C2  UNL     1      -7.058   5.113  13.965  1.00  0.00    -0.060 C 
HETATM    3  C3  UNL     1      -7.073   5.277  15.471  1.00  0.00     0.212 C 
HETATM    4  O1  UNL     1      -6.514   6.533  15.850  1.00  0.00    -0.317 OA
HETATM    5  C4  UNL     1      -7.141   7.593  15.274  1.00  0.00     0.259 C 
HETATM    6  O2  UNL     1      -8.351   7.755  15.219  1.00  0.00    -0.265 OA
HETATM    7  C5  UNL     1      -6.120   8.475  14.611  1.00  0.00     0.112 C 
HETATM    8  C6  UNL     1      -5.572   7.825  13.333  1.00  0.00     0.020 C 
HETATM    9  C7  UNL     1      -4.843   6.476  13.543  1.00  0.00    -0.024 A 
HETATM   10  C8  UNL     1      -3.827   6.419  14.663  1.00  0.00     0.022 A 
HETATM   11  C9  UNL     1      -3.307   6.338  13.244  1.00  0.00    -0.027 A 
HETATM   12  C10 UNL     1      -2.576   7.574  12.703  1.00  0.00     0.011 C 
HETATM   13  C11 UNL     1      -1.055   7.496  12.481  1.00  0.00     0.011 C 
HETATM   14  C12 UNL     1      -0.447   6.102  12.670  1.00  0.00    -0.032 C 
HETATM   15  C13 UNL     1      -0.214   5.895  14.191  1.00  0.00     0.016 C 
HETATM   16  C14 UNL     1       0.875   5.822  11.883  1.00  0.00    -0.002 C 
HETATM   17  C23 UNL     1       0.861   4.284  11.667  1.00  0.00     0.006 C 
HETATM   18  C24 UNL     1      -0.551   3.790  12.023  1.00  0.00     0.011 C 
HETATM   19  C25 UNL     1      -1.427   5.057  12.023  1.00  0.00    -0.032 C 
HETATM   20  C26 UNL     1      -1.800   5.347  10.534  1.00  0.00     0.016 C 
HETATM   21  C27 UNL     1      -2.714   4.948  12.881  1.00  0.00     0.004 C 
HETATM   22  C28 UNL     1      -3.770   3.998  12.302  1.00  0.00     0.007 C 
HETATM   23  C29 UNL     1      -4.987   3.917  13.218  1.00  0.00     0.010 C 
HETATM   24  C30 UNL     1      -5.740   5.255  13.203  1.00  0.00     0.025 C 
ENDROOT
BRANCH  16  25
HETATM   25  C15 UNL     1       2.264   6.381  12.315  1.00  0.00    -0.014 C 
HETATM   26  C16 UNL     1       2.264   7.571  13.283  1.00  0.00     0.010 C 
BRANCH  25  27
HETATM   27  C17 UNL     1       3.161   6.670  11.087  1.00  0.00     0.008 C 
BRANCH  27  28
HETATM   28  C18 UNL     1       3.176   5.567  10.016  1.00  0.00     0.028 C 
BRANCH  28  29
HETATM   29  C19 UNL     1       2.960   6.106   8.628  1.00  0.00    -0.025 C 
HETATM   30  C20 UNL     1       2.028   6.982   8.204  1.00  0.00    -0.091 C 
HETATM   31  C21 UNL     1       1.978   7.402   6.756  1.00  0.00     0.042 C 
HETATM   32  C22 UNL     1       0.974   7.624   9.063  1.00  0.00     0.042 C 
ENDBRANCH  28  29
ENDBRANCH  27  28
ENDBRANCH  25  27
ENDBRANCH  16  25
TORSDOF 4
ENDMDL
MODEL 3
REMARK minimizedAffinity -9.00558567
REMARK  4 active torsions:
REMARK  status: ('A' for Active; 'I' for Inactive)
REMARK    1  A    between atoms: C14_16  and  C15_17 
REMARK    2  A    between atoms: C15_17  and  C17_19 
REMARK    3  A    between atoms: C17_19  and  C18_20 
REMARK    4  A    between atoms: C18_20  and  C19_21 
ROOT
HETATM    1  C1  UNL     1       4.161   7.207  11.493  1.00  0.00     0.017 C 
HETATM    2  C2  UNL     1       2.942   6.649  11.357  1.00  0.00    -0.060 C 
HETATM    3  C3  UNL     1       2.727   5.535  10.352  1.00  0.00     0.212 C 
HETATM    4  O1  UNL     1       1.695   5.878   9.430  1.00  0.00    -0.317 OA
HETATM    5  C4  UNL     1       1.932   7.043   8.770  1.00  0.00     0.259 C 
HETATM    6  O2  UNL     1       2.989   7.352   8.238  1.00  0.00    -0.265 OA
HETATM    7  C5  UNL     1       0.734   7.941   8.896  1.00  0.00     0.112 C 
HETATM    8  C6  UNL     1       0.618   8.514  10.315  1.00  0.00     0.020 C 
HETATM    9  C7  UNL     1       0.437   7.462  11.436  1.00  0.00    -0.024 A 
HETATM   10  C8  UNL     1      -0.599   6.385  11.197  1.00  0.00     0.022 A 
HETATM   11  C9  UNL     1      -0.888   7.404  12.277  1.00  0.00    -0.027 A 
HETATM   12  C10 UNL     1      -1.969   8.451  11.970  1.00  0.00     0.011 C 
HETATM   13  C11 UNL     1      -3.311   8.368  12.718  1.00  0.00     0.011 C 
HETATM   14  C12 UNL     1      -3.363   7.324  13.838  1.00  0.00    -0.032 C 
HETATM   15  C13 UNL     1      -3.667   5.950  13.184  1.00  0.00     0.016 C 
HETATM   16  C14 UNL     1      -4.384   7.607  14.988  1.00  0.00    -0.002 C 
HETATM   17  C23 UNL     1      -3.763   6.893  16.221  1.00  0.00     0.006 C 
HETATM   18  C24 UNL     1      -2.319   6.521  15.848  1.00  0.00     0.011 C 
HETATM   19  C25 UNL     1      -1.994   7.378  14.610  1.00  0.00    -0.032 C 
HETATM   20  C26 UNL     1      -1.597   8.795  15.134  1.00  0.00     0.016 C 
HETATM   21  C27 UNL     1      -0.866   6.808  13.712  1.00  0.00     0.004 C 
HETATM   22  C28 UNL     1       0.529   6.874  14.348  1.00  0.00     0.007 C 
HETATM   23  C29 UNL     1       1.575   6.264  13.421  1.00  0.00     0.010 C 
HETATM   24  C30 UNL     1       1.763   7.156  12.186  1.00  0.00     0.025 C 
ENDROOT
BRANCH  16  25
HETATM   25  C15 UNL     1      -5.920   7.387  14.845  1.00  0.00    -0.014 C 
HETATM   26  C16 UNL     1      -6.812   8.630  14.952  1.00  0.00     0.010 C 
BRANCH  25  27
HETATM   27  C17 UNL     1      -6.418   6.268  15.789  1.00  0.00     0.008 C 
BRANCH  27  28
HETATM   28  C18 UNL     1      -7.733   5.594  15.366  1.00  0.00     0.028 C 
BRANCH  28  29
HETATM   29  C19 UNL     1      -7.510   4.301  14.628  1.00  0.00    -0.025 C 
HETATM   30  C20 UNL     1      -7.700   4.039  13.320  1.00  0.00    -0.091 C 
HETATM   31  C21 UNL     1      -7.413   2.664  12.769  1.00  0.00     0.042 C 
HETATM   32  C22 UNL     1      -8.191   5.019  12.292  1.00  0.00     0.042 C 
ENDBRANCH  28  29
ENDBRANCH  27  28
ENDBRANCH  25  27
ENDBRANCH  16  25
TORSDOF 4
ENDMDL
MODEL 4
REMARK minimizedAffinity -8.84604931
REMARK  4 active torsions:
REMARK  status: ('A' for Active; 'I' for Inactive)
REMARK    1  A    between atoms: C14_16  and  C15_17 
REMARK    2  A    between atoms: C15_17  and  C17_19 
REMARK    3  A    between atoms: C17_19  and  C18_20 
REMARK    4  A    between atoms: C18_20  and  C19_21 
ROOT
HETATM    1  C1  UNL     1       6.554   6.910  10.841  1.00  0.00     0.017 C 
HETATM    2  C2  UNL     1       5.402   7.602  10.941  1.00  0.00    -0.060 C 
HETATM    3  C3  UNL     1       5.345   9.048  10.491  1.00  0.00     0.212 C 
HETATM    4  O1  UNL     1       4.909   9.892  11.554  1.00  0.00    -0.317 OA
HETATM    5  C4  UNL     1       5.686   9.796  12.666  1.00  0.00     0.259 C 
HETATM    6  O2  UNL     1       6.909   9.823  12.680  1.00  0.00    -0.265 OA
HETATM    7  C5  UNL     1       4.814   9.532  13.862  1.00  0.00     0.112 C 
HETATM    8  C6  UNL     1       4.274   8.095  13.848  1.00  0.00     0.020 C 
HETATM    9  C7  UNL     1       3.386   7.740  12.631  1.00  0.00    -0.024 A 
HETATM   10  C8  UNL     1       2.304   8.733  12.265  1.00  0.00     0.022 A 
HETATM   11  C9  UNL     1       1.865   7.395  12.820  1.00  0.00    -0.027 A 
HETATM   12  C10 UNL     1       1.313   7.388  14.253  1.00  0.00     0.011 C 
HETATM   13  C11 UNL     1      -0.191   7.137  14.464  1.00  0.00     0.011 C 
HETATM   14  C12 UNL     1      -0.964   6.747  13.201  1.00  0.00    -0.032 C 
HETATM   15  C13 UNL     1      -1.310   8.054  12.439  1.00  0.00     0.016 C 
HETATM   16  C14 UNL     1      -2.259   5.900  13.427  1.00  0.00    -0.002 C 
HETATM   17  C23 UNL     1      -2.407   5.085  12.113  1.00  0.00     0.006 C 
HETATM   18  C24 UNL     1      -1.084   5.228  11.341  1.00  0.00     0.011 C 
HETATM   19  C25 UNL     1      -0.071   5.744  12.381  1.00  0.00    -0.032 C 
HETATM   20  C26 UNL     1       0.421   4.500  13.188  1.00  0.00     0.016 C 
HETATM   21  C27 UNL     1       1.141   6.500  11.777  1.00  0.00     0.004 C 
HETATM   22  C28 UNL     1       2.115   5.599  11.008  1.00  0.00     0.007 C 
HETATM   23  C29 UNL     1       3.258   6.418  10.415  1.00  0.00     0.010 C 
HETATM   24  C30 UNL     1       4.158   6.948  11.541  1.00  0.00     0.025 C 
ENDROOT
BRANCH  16  25
HETATM   25  C15 UNL     1      -3.599   6.505  13.942  1.00  0.00    -0.014 C 
HETATM   26  C16 UNL     1      -3.925   6.308  15.429  1.00  0.00     0.010 C 
BRANCH  25  27
HETATM   27  C17 UNL     1      -4.790   6.071  13.055  1.00  0.00     0.008 C 
BRANCH  27  28
HETATM   28  C18 UNL     1      -6.179   6.274  13.682  1.00  0.00     0.028 C 
BRANCH  28  29
HETATM   29  C19 UNL     1      -7.055   5.057  13.555  1.00  0.00    -0.025 C 
HETATM   30  C20 UNL     1      -6.765   3.871  12.984  1.00  0.00    -0.091 C 
HETATM   31  C21 UNL     1      -7.790   2.766  12.959  1.00  0.00     0.042 C 
HETATM   32  C22 UNL     1      -5.459   3.508  12.335  1.00  0.00     0.042 C 
ENDBRANCH  28  29
ENDBRANCH  27  28
ENDBRANCH  25  27
ENDBRANCH  16  25
TORSDOF 4
ENDMDL
MODEL 5
REMARK minimizedAffinity -8.77059937
REMARK  4 active torsions:
REMARK  status: ('A' for Active; 'I' for Inactive)
REMARK    1  A    between atoms: C14_16  and  C15_17 
REMARK    2  A    between atoms: C15_17  and  C17_19 
REMARK    3  A    between atoms: C17_19  and  C18_20 
REMARK    4  A    between atoms: C18_20  and  C19_21 
ROOT
HETATM    1  C1  UNL     1      -8.334   4.246  12.856  1.00  0.00     0.017 C 
HETATM    2  C2  UNL     1      -7.260   4.491  13.632  1.00  0.00    -0.060 C 
HETATM    3  C3  UNL     1      -7.394   4.464  15.142  1.00  0.00     0.212 C 
HETATM    4  O1  UNL     1      -6.979   5.704  15.710  1.00  0.00    -0.317 OA
HETATM    5  C4  UNL     1      -7.659   6.773  15.216  1.00  0.00     0.259 C 
HETATM    6  O2  UNL     1      -8.873   6.841  15.085  1.00  0.00    -0.265 OA
HETATM    7  C5  UNL     1      -6.680   7.812  14.746  1.00  0.00     0.112 C 
HETATM    8  C6  UNL     1      -5.988   7.375  13.447  1.00  0.00     0.020 C 
HETATM    9  C7  UNL     1      -5.156   6.074  13.553  1.00  0.00    -0.024 A 
HETATM   10  C8  UNL     1      -4.218   5.960  14.736  1.00  0.00     0.022 A 
HETATM   11  C9  UNL     1      -3.596   6.101  13.363  1.00  0.00    -0.027 A 
HETATM   12  C10 UNL     1      -2.946   7.451  13.032  1.00  0.00     0.011 C 
HETATM   13  C11 UNL     1      -1.412   7.526  12.923  1.00  0.00     0.011 C 
HETATM   14  C12 UNL     1      -0.694   6.175  12.994  1.00  0.00    -0.032 C 
HETATM   15  C13 UNL     1      -0.548   5.799  14.493  1.00  0.00     0.016 C 
HETATM   16  C14 UNL     1       0.699   6.104  12.287  1.00  0.00    -0.002 C 
HETATM   17  C23 UNL     1       0.840   4.609  11.889  1.00  0.00     0.006 C 
HETATM   18  C24 UNL     1      -0.542   3.961  12.071  1.00  0.00     0.011 C 
HETATM   19  C25 UNL     1      -1.528   5.141  12.151  1.00  0.00    -0.032 C 
HETATM   20  C26 UNL     1      -1.822   5.585  10.683  1.00  0.00     0.016 C 
HETATM   21  C27 UNL     1      -2.856   4.821  12.886  1.00  0.00     0.004 C 
HETATM   22  C28 UNL     1      -3.778   3.867  12.116  1.00  0.00     0.007 C 
HETATM   23  C29 UNL     1      -5.042   3.573  12.916  1.00  0.00     0.010 C 
HETATM   24  C30 UNL     1      -5.912   4.835  13.000  1.00  0.00     0.025 C 
ENDROOT
BRANCH  16  25
HETATM   25  C15 UNL     1       1.999   6.717  12.890  1.00  0.00    -0.014 C 
HETATM   26  C16 UNL     1       1.920   7.226  14.336  1.00  0.00     0.010 C 
BRANCH  25  27
HETATM   27  C17 UNL     1       2.597   7.797  11.958  1.00  0.00     0.008 C 
BRANCH  27  28
HETATM   28  C18 UNL     1       3.104   7.281  10.602  1.00  0.00     0.028 C 
BRANCH  28  29
HETATM   29  C19 UNL     1       4.315   6.397  10.735  1.00  0.00    -0.025 C 
HETATM   30  C20 UNL     1       5.599   6.758  10.927  1.00  0.00    -0.091 C 
HETATM   31  C21 UNL     1       6.678   5.709  11.037  1.00  0.00     0.042 C 
HETATM   32  C22 UNL     1       6.104   8.168  11.053  1.00  0.00     0.042 C 
ENDBRANCH  28  29
ENDBRANCH  27  28
ENDBRANCH  25  27
ENDBRANCH  16  25
TORSDOF 4
ENDMDL
MODEL 6
REMARK minimizedAffinity -8.59631824
REMARK  4 active torsions:
REMARK  status: ('A' for Active; 'I' for Inactive)
REMARK    1  A    between atoms: C14_16  and  C15_17 
REMARK    2  A    between atoms: C15_17  and  C17_19 
REMARK    3  A    between atoms: C17_19  and  C18_20 
REMARK    4  A    between atoms: C18_20  and  C19_21 
ROOT
HETATM    1  C1  UNL     1       5.087  10.697  12.252  1.00  0.00     0.017 C 
HETATM    2  C2  UNL     1       4.573   9.511  12.633  1.00  0.00    -0.060 C 
HETATM    3  C3  UNL     1       5.482   8.437  13.196  1.00  0.00     0.212 C 
HETATM    4  O1  UNL     1       5.375   7.235  12.437  1.00  0.00    -0.317 OA
HETATM    5  C4  UNL     1       5.648   7.410  11.117  1.00  0.00     0.259 C 
HETATM    6  O2  UNL     1       6.607   8.019  10.667  1.00  0.00    -0.265 OA
HETATM    7  C5  UNL     1       4.525   6.839  10.296  1.00  0.00     0.112 C 
HETATM    8  C6  UNL     1       3.273   7.723  10.380  1.00  0.00     0.020 C 
HETATM    9  C7  UNL     1       2.677   7.884  11.799  1.00  0.00    -0.024 A 
HETATM   10  C8  UNL     1       2.506   6.620  12.613  1.00  0.00     0.022 A 
HETATM   11  C9  UNL     1       1.251   7.319  12.140  1.00  0.00    -0.027 A 
HETATM   12  C10 UNL     1       0.467   6.642  11.006  1.00  0.00     0.011 C 
HETATM   13  C11 UNL     1      -0.896   6.004  11.329  1.00  0.00     0.011 C 
HETATM   14  C12 UNL     1      -1.412   6.267  12.747  1.00  0.00    -0.032 C 
HETATM   15  C13 UNL     1      -0.732   5.240  13.691  1.00  0.00     0.016 C 
HETATM   16  C14 UNL     1      -2.965   6.215  12.929  1.00  0.00    -0.002 C 
HETATM   17  C23 UNL     1      -3.231   7.159  14.134  1.00  0.00     0.006 C 
HETATM   18  C24 UNL     1      -1.933   7.945  14.387  1.00  0.00     0.011 C 
HETATM   19  C25 UNL     1      -1.103   7.767  13.102  1.00  0.00    -0.032 C 
HETATM   20  C26 UNL     1      -1.645   8.806  12.068  1.00  0.00     0.016 C 
HETATM   21  C27 UNL     1       0.424   7.954  13.293  1.00  0.00     0.004 C 
HETATM   22  C28 UNL     1       0.843   9.401  13.580  1.00  0.00     0.007 C 
HETATM   23  C29 UNL     1       2.351   9.497  13.790  1.00  0.00     0.010 C 
HETATM   24  C30 UNL     1       3.080   9.227  12.467  1.00  0.00     0.025 C 
ENDROOT
BRANCH  16  25
HETATM   25  C15 UNL     1      -3.777   4.886  12.985  1.00  0.00    -0.014 C 
HETATM   26  C16 UNL     1      -3.979   4.140  11.659  1.00  0.00     0.010 C 
BRANCH  25  27
HETATM   27  C17 UNL     1      -5.125   5.081  13.717  1.00  0.00     0.008 C 
BRANCH  27  28
HETATM   28  C18 UNL     1      -6.376   4.921  12.837  1.00  0.00     0.028 C 
BRANCH  28  29
HETATM   29  C19 UNL     1      -7.596   5.556  13.446  1.00  0.00    -0.025 C 
HETATM   30  C20 UNL     1      -8.721   5.970  12.830  1.00  0.00    -0.091 C 
HETATM   31  C21 UNL     1      -9.844   6.588  13.626  1.00  0.00     0.042 C 
HETATM   32  C22 UNL     1      -8.998   5.877  11.355  1.00  0.00     0.042 C 
ENDBRANCH  28  29
ENDBRANCH  27  28
ENDBRANCH  25  27
ENDBRANCH  16  25
TORSDOF 4
ENDMDL
MODEL 7
REMARK minimizedAffinity -8.56522083
REMARK  4 active torsions:
REMARK  status: ('A' for Active; 'I' for Inactive)
REMARK    1  A    between atoms: C14_16  and  C15_17 
REMARK    2  A    between atoms: C15_17  and  C17_19 
REMARK    3  A    between atoms: C17_19  and  C18_20 
REMARK    4  A    between atoms: C18_20  and  C19_21 
ROOT
HETATM    1  C1  UNL     1       2.340   5.449  10.897  1.00  0.00     0.017 C 
HETATM    2  C2  UNL     1       1.283   6.283  10.950  1.00  0.00    -0.060 C 
HETATM    3  C3  UNL     1       1.267   7.541  10.103  1.00  0.00     0.212 C 
HETATM    4  O1  UNL     1       1.093   8.697  10.919  1.00  0.00    -0.317 OA
HETATM    5  C4  UNL     1       2.040   8.817  11.887  1.00  0.00     0.259 C 
HETATM    6  O2  UNL     1       3.245   8.690  11.718  1.00  0.00    -0.265 OA
HETATM    7  C5  UNL     1       1.370   9.013  13.218  1.00  0.00     0.112 C 
HETATM    8  C6  UNL     1       0.721   7.712  13.708  1.00  0.00     0.020 C 
HETATM    9  C7  UNL     1      -0.391   7.147  12.791  1.00  0.00    -0.024 A 
HETATM   10  C8  UNL     1      -1.435   8.129  12.305  1.00  0.00     0.022 A 
HETATM   11  C9  UNL     1      -1.879   7.068  13.289  1.00  0.00    -0.027 A 
HETATM   12  C10 UNL     1      -2.173   7.533  14.723  1.00  0.00     0.011 C 
HETATM   13  C11 UNL     1      -3.632   7.547  15.211  1.00  0.00     0.011 C 
HETATM   14  C12 UNL     1      -4.642   6.921  14.244  1.00  0.00    -0.032 C 
HETATM   15  C13 UNL     1      -5.007   7.996  13.186  1.00  0.00     0.016 C 
HETATM   16  C14 UNL     1      -5.943   6.345  14.893  1.00  0.00    -0.002 C 
HETATM   17  C23 UNL     1      -6.383   5.221  13.915  1.00  0.00     0.006 C 
HETATM   18  C24 UNL     1      -5.207   4.971  12.956  1.00  0.00     0.011 C 
HETATM   19  C25 UNL     1      -3.990   5.623  13.640  1.00  0.00    -0.032 C 
HETATM   20  C26 UNL     1      -3.468   4.602  14.701  1.00  0.00     0.016 C 
HETATM   21  C27 UNL     1      -2.844   6.017  12.673  1.00  0.00     0.004 C 
HETATM   22  C28 UNL     1      -2.095   4.819  12.075  1.00  0.00     0.007 C 
HETATM   23  C29 UNL     1      -1.010   5.286  11.111  1.00  0.00     0.010 C 
HETATM   24  C30 UNL     1       0.112   5.989  11.887  1.00  0.00     0.025 C 
ENDROOT
BRANCH  16  25
HETATM   25  C15 UNL     1      -7.120   7.238  15.391  1.00  0.00    -0.014 C 
HETATM   26  C16 UNL     1      -7.507   7.115  16.870  1.00  0.00     0.010 C 
BRANCH  25  27
HETATM   27  C17 UNL     1      -8.363   7.088  14.482  1.00  0.00     0.008 C 
BRANCH  27  28
HETATM   28  C18 UNL     1      -9.679   7.603  15.086  1.00  0.00     0.028 C 
BRANCH  28  29
HETATM   29  C19 UNL     1      -9.736   9.106  15.153  1.00  0.00    -0.025 C 
HETATM   30  C20 UNL     1     -10.552   9.944  14.485  1.00  0.00    -0.091 C 
HETATM   31  C21 UNL     1     -10.452  11.435  14.694  1.00  0.00     0.042 C 
HETATM   32  C22 UNL     1     -11.613   9.536  13.501  1.00  0.00     0.042 C 
ENDBRANCH  28  29
ENDBRANCH  27  28
ENDBRANCH  25  27
ENDBRANCH  16  25
TORSDOF 4
ENDMDL
MODEL 8
REMARK minimizedAffinity -8.56477165
REMARK  4 active torsions:
REMARK  status: ('A' for Active; 'I' for Inactive)
REMARK    1  A    between atoms: C14_16  and  C15_17 
REMARK    2  A    between atoms: C15_17  and  C17_19 
REMARK    3  A    between atoms: C17_19  and  C18_20 
REMARK    4  A    between atoms: C18_20  and  C19_21 
ROOT
HETATM    1  C1  UNL     1      -7.490   4.662  12.464  1.00  0.00     0.017 C 
HETATM    2  C2  UNL     1      -6.646   5.022  13.450  1.00  0.00    -0.060 C 
HETATM    3  C3  UNL     1      -7.090   4.934  14.897  1.00  0.00     0.212 C 
HETATM    4  O1  UNL     1      -6.971   6.201  15.541  1.00  0.00    -0.317 OA
HETATM    5  C4  UNL     1      -7.668   7.186  14.914  1.00  0.00     0.259 C 
HETATM    6  O2  UNL     1      -8.825   7.100  14.529  1.00  0.00    -0.265 OA
HETATM    7  C5  UNL     1      -6.758   8.357  14.663  1.00  0.00     0.112 C 
HETATM    8  C6  UNL     1      -5.757   8.050  13.541  1.00  0.00     0.020 C 
HETATM    9  C7  UNL     1      -4.801   6.865  13.821  1.00  0.00    -0.024 A 
HETATM   10  C8  UNL     1      -4.126   6.840  15.176  1.00  0.00     0.022 A 
HETATM   11  C9  UNL     1      -3.254   7.099  13.966  1.00  0.00    -0.027 A 
HETATM   12  C10 UNL     1      -2.733   8.532  13.782  1.00  0.00     0.011 C 
HETATM   13  C11 UNL     1      -1.235   8.807  14.001  1.00  0.00     0.011 C 
HETATM   14  C12 UNL     1      -0.375   7.559  14.222  1.00  0.00    -0.032 C 
HETATM   15  C13 UNL     1      -0.499   7.162  15.718  1.00  0.00     0.016 C 
HETATM   16  C14 UNL     1       1.133   7.690  13.827  1.00  0.00    -0.002 C 
HETATM   17  C23 UNL     1       1.552   6.238  13.468  1.00  0.00     0.006 C 
HETATM   18  C24 UNL     1       0.260   5.411  13.352  1.00  0.00     0.011 C 
HETATM   19  C25 UNL     1      -0.868   6.451  13.221  1.00  0.00    -0.032 C 
HETATM   20  C26 UNL     1      -0.903   6.894  11.724  1.00  0.00     0.016 C 
HETATM   21  C27 UNL     1      -2.266   5.940  13.657  1.00  0.00     0.004 C 
HETATM   22  C28 UNL     1      -2.871   4.898  12.708  1.00  0.00     0.007 C 
HETATM   23  C29 UNL     1      -4.225   4.419  13.221  1.00  0.00     0.010 C 
HETATM   24  C30 UNL     1      -5.253   5.555  13.119  1.00  0.00     0.025 C 
ENDROOT
BRANCH  16  25
HETATM   25  C15 UNL     1       2.183   8.448  14.693  1.00  0.00    -0.014 C 
HETATM   26  C16 UNL     1       2.023   9.970  14.804  1.00  0.00     0.010 C 
BRANCH  25  27
HETATM   27  C17 UNL     1       3.627   8.075  14.282  1.00  0.00     0.008 C 
BRANCH  27  28
HETATM   28  C18 UNL     1       3.994   8.398  12.825  1.00  0.00     0.028 C 
BRANCH  28  29
HETATM   29  C19 UNL     1       5.214   7.651  12.357  1.00  0.00    -0.025 C 
HETATM   30  C20 UNL     1       5.304   6.710  11.396  1.00  0.00    -0.091 C 
HETATM   31  C21 UNL     1       6.633   6.076  11.072  1.00  0.00     0.042 C 
HETATM   32  C22 UNL     1       4.163   6.196  10.564  1.00  0.00     0.042 C 
ENDBRANCH  28  29
ENDBRANCH  27  28
ENDBRANCH  25  27
ENDBRANCH  16  25
TORSDOF 4
ENDMDL
MODEL 9
REMARK minimizedAffinity -8.52799129
REMARK  4 active torsions:
REMARK  status: ('A' for Active; 'I' for Inactive)
REMARK    1  A    between atoms: C14_16  and  C15_17 
REMARK    2  A    between atoms: C15_17  and  C17_19 
REMARK    3  A    between atoms: C17_19  and  C18_20 
REMARK    4  A    between atoms: C18_20  and  C19_21 
ROOT
HETATM    1  C1  UNL     1      -5.985   5.312  13.176  1.00  0.00     0.017 C 
HETATM    2  C2  UNL     1      -4.830   5.714  13.742  1.00  0.00    -0.060 C 
HETATM    3  C3  UNL     1      -4.754   5.925  15.241  1.00  0.00     0.212 C 
HETATM    4  O1  UNL     1      -4.334   7.253  15.545  1.00  0.00    -0.317 OA
HETATM    5  C4  UNL     1      -5.134   8.206  14.996  1.00  0.00     0.259 C 
HETATM    6  O2  UNL     1      -6.356   8.211  15.033  1.00  0.00    -0.265 OA
HETATM    7  C5  UNL     1      -4.288   9.188  14.235  1.00  0.00     0.112 C 
HETATM    8  C6  UNL     1      -3.758   8.571  12.934  1.00  0.00     0.020 C 
HETATM    9  C7  UNL     1      -2.848   7.333  13.117  1.00  0.00    -0.024 A 
HETATM   10  C8  UNL     1      -1.752   7.442  14.155  1.00  0.00     0.022 A 
HETATM   11  C9  UNL     1      -1.333   7.381  12.702  1.00  0.00    -0.027 A 
HETATM   12  C10 UNL     1      -0.810   8.682  12.077  1.00  0.00     0.011 C 
HETATM   13  C11 UNL     1       0.687   8.789  11.738  1.00  0.00     0.011 C 
HETATM   14  C12 UNL     1       1.483   7.491  11.912  1.00  0.00    -0.032 C 
HETATM   15  C13 UNL     1       1.853   7.365  13.414  1.00  0.00     0.016 C 
HETATM   16  C14 UNL     1       2.767   7.355  11.030  1.00  0.00    -0.002 C 
HETATM   17  C23 UNL     1       2.936   5.821  10.851  1.00  0.00     0.006 C 
HETATM   18  C24 UNL     1       1.630   5.164  11.328  1.00  0.00     0.011 C 
HETATM   19  C25 UNL     1       0.600   6.309  11.367  1.00  0.00    -0.032 C 
HETATM   20  C26 UNL     1       0.083   6.501   9.906  1.00  0.00     0.016 C 
HETATM   21  C27 UNL     1      -0.595   6.066  12.326  1.00  0.00     0.004 C 
HETATM   22  C28 UNL     1      -1.559   4.971  11.853  1.00  0.00     0.007 C 
HETATM   23  C29 UNL     1      -2.684   4.767  12.863  1.00  0.00     0.010 C 
HETATM   24  C30 UNL     1      -3.603   5.997  12.876  1.00  0.00     0.025 C 
ENDROOT
BRANCH  16  25
HETATM   25  C15 UNL     1       4.101   8.099  11.339  1.00  0.00    -0.014 C 
HETATM   26  C16 UNL     1       4.784   8.816  10.166  1.00  0.00     0.010 C 
BRANCH  25  27
HETATM   27  C17 UNL     1       5.101   7.180  12.079  1.00  0.00     0.008 C 
BRANCH  27  28
HETATM   28  C18 UNL     1       5.660   7.748  13.393  1.00  0.00     0.028 C 
BRANCH  28  29
HETATM   29  C19 UNL     1       7.127   7.464  13.569  1.00  0.00    -0.025 C 
HETATM   30  C20 UNL     1       8.136   8.340  13.745  1.00  0.00    -0.091 C 
HETATM   31  C21 UNL     1       9.553   7.850  13.904  1.00  0.00     0.042 C 
HETATM   32  C22 UNL     1       7.996   9.835  13.806  1.00  0.00     0.042 C 
ENDBRANCH  28  29
ENDBRANCH  27  28
ENDBRANCH  25  27
ENDBRANCH  16  25
TORSDOF 4
ENDMDL
