MODEL 1
REMARK minimizedAffinity -9.55084324
REMARK  6 active torsions:
REMARK  status: ('A' for Active; 'I' for Inactive)
REMARK    1  A    between atoms: C2_2  and  C3_3 
REMARK       I    between atoms: C3_3  and  N1_5 
REMARK    2  A    between atoms: C7_9  and  N2_10 
REMARK    3  A    between atoms: C8_13  and  C9_14 
REMARK    4  A    between atoms: C12_17  and  O2_18 
REMARK    5  A    between atoms: O2_18  and  C13_19 
REMARK    6  A    between atoms: C22_28  and  N4_29 
ROOT
HETATM    1  N2  UNL     1       6.294  -8.189  28.125  1.00  0.00    -0.269 N 
HETATM    2  N3  UNL     1       7.225  -7.419  28.727  1.00  0.00    -0.295 N 
ATOM      3  H3  UNL     1       8.233  -7.574  28.766  1.00  0.00     0.187 HD
HETATM    4  C8  UNL     1       6.526  -6.402  29.261  1.00  0.00     0.075 A 
HETATM    5  C21 UNL     1       5.144  -6.488  28.918  1.00  0.00     0.076 A 
HETATM    6  C22 UNL     1       3.967  -5.749  29.097  1.00  0.00     0.095 A 
HETATM    7  N5  UNL     1       2.818  -6.225  28.574  1.00  0.00    -0.342 N 
ATOM      8  H5  UNL     1       1.943  -5.713  28.689  1.00  0.00     0.167 HD
HETATM    9  C23 UNL     1       2.849  -7.388  27.897  1.00  0.00     0.183 A 
HETATM   10  N6  UNL     1       3.912  -8.168  27.645  1.00  0.00    -0.337 N 
ATOM     11  H6  UNL     1       3.875  -9.035  27.110  1.00  0.00     0.168 HD
HETATM   12  C24 UNL     1       5.033  -7.660  28.188  1.00  0.00     0.139 A 
ENDROOT
BRANCH   4  13
HETATM   13  C9  UNL     1       7.205  -5.382  30.056  1.00  0.00    -0.007 A 
HETATM   14  C10 UNL     1       6.476  -4.504  30.868  1.00  0.00     0.016 A 
HETATM   15  C11 UNL     1       7.135  -3.523  31.617  1.00  0.00     0.038 A 
HETATM   16  C12 UNL     1       8.525  -3.433  31.576  1.00  0.00     0.076 A 
HETATM   17  C19 UNL     1       9.261  -4.300  30.766  1.00  0.00     0.038 A 
HETATM   18  C20 UNL     1       8.602  -5.280  30.019  1.00  0.00     0.016 A 
BRANCH  16  19
HETATM   19  O2  UNL     1       9.105  -2.419  32.302  1.00  0.00    -0.311 OA
BRANCH  19  20
HETATM   20  C13 UNL     1      10.040  -2.768  33.250  1.00  0.00     0.076 A 
HETATM   21  C14 UNL     1       9.790  -3.710  34.251  1.00  0.00     0.037 A 
HETATM   22  C15 UNL     1      10.773  -3.986  35.204  1.00  0.00     0.003 A 
HETATM   23  C16 UNL     1      11.993  -3.311  35.164  1.00  0.00     0.000 A 
HETATM   24  C17 UNL     1      12.232  -2.355  34.177  1.00  0.00     0.003 A 
HETATM   25  C18 UNL     1      11.251  -2.077  33.224  1.00  0.00     0.037 A 
ENDBRANCH  19  20
ENDBRANCH  16  19
ENDBRANCH   4  13
BRANCH   1  26
HETATM   26  C7  UNL     1       6.712  -9.407  27.446  1.00  0.00     0.128 C 
HETATM   27  C6  UNL     1       8.128  -9.843  27.871  1.00  0.00     0.030 C 
HETATM   28  C5  UNL     1       8.577 -11.103  27.122  1.00  0.00     0.022 C 
HETATM   29  C4  UNL     1       8.422 -10.939  25.608  1.00  0.00     0.126 C 
HETATM   30  N1  UNL     1       7.043 -10.562  25.290  1.00  0.00    -0.347 N 
HETATM   31  C3  UNL     1       6.053 -11.458  24.912  1.00  0.00     0.242 C 
HETATM   32  C25 UNL     1       6.617  -9.304  25.916  1.00  0.00     0.153 C 
HETATM   33  O1  UNL     1       4.856 -11.243  25.083  1.00  0.00    -0.268 OA
BRANCH  31  34
HETATM   34  C2  UNL     1       6.500 -12.714  24.253  1.00  0.00     0.064 C 
HETATM   35  C1  UNL     1       6.249 -13.901  24.821  1.00  0.00     0.017 C 
ENDBRANCH  31  34
ENDBRANCH   1  26
BRANCH   6  36
HETATM   36  N4  UNL     1       3.885  -4.530  29.755  1.00  0.00    -0.288 NA
HETATM   37  H20 UNL     1       4.716  -3.955  29.696  1.00  0.00     0.125 HD
HETATM   38  H21 UNL     1       3.014  -4.065  29.529  1.00  0.00     0.125 HD
ENDBRANCH   6  36
TORSDOF 6
ENDMDL
MODEL 2
REMARK minimizedAffinity -9.49035645
REMARK  6 active torsions:
REMARK  status: ('A' for Active; 'I' for Inactive)
REMARK    1  A    between atoms: C2_2  and  C3_3 
REMARK       I    between atoms: C3_3  and  N1_5 
REMARK    2  A    between atoms: C7_9  and  N2_10 
REMARK    3  A    between atoms: C8_13  and  C9_14 
REMARK    4  A    between atoms: C12_17  and  O2_18 
REMARK    5  A    between atoms: O2_18  and  C13_19 
REMARK    6  A    between atoms: C22_28  and  N4_29 
ROOT
HETATM    1  N2  UNL     1       5.090  -7.950  27.709  1.00  0.00    -0.269 N 
HETATM    2  N3  UNL     1       5.244  -7.260  28.859  1.00  0.00    -0.295 N 
ATOM      3  H3  UNL     1       4.622  -7.248  29.668  1.00  0.00     0.187 HD
HETATM    4  C8  UNL     1       6.401  -6.594  28.698  1.00  0.00     0.075 A 
HETATM    5  C21 UNL     1       7.028  -6.936  27.464  1.00  0.00     0.076 A 
HETATM    6  C22 UNL     1       8.213  -6.654  26.772  1.00  0.00     0.095 A 
HETATM    7  N5  UNL     1       8.410  -7.227  25.566  1.00  0.00    -0.342 N 
ATOM      8  H5  UNL     1       9.261  -7.040  25.035  1.00  0.00     0.167 HD
HETATM    9  C23 UNL     1       7.463  -8.049  25.079  1.00  0.00     0.183 A 
HETATM   10  N6  UNL     1       6.305  -8.407  25.655  1.00  0.00    -0.337 N 
ATOM     11  H6  UNL     1       5.631  -9.050  25.240  1.00  0.00     0.168 HD
HETATM   12  C24 UNL     1       6.147  -7.811  26.850  1.00  0.00     0.139 A 
ENDROOT
BRANCH   4  13
HETATM   13  C9  UNL     1       6.870  -5.678  29.735  1.00  0.00    -0.007 A 
HETATM   14  C10 UNL     1       8.103  -5.882  30.368  1.00  0.00     0.016 A 
HETATM   15  C11 UNL     1       8.538  -5.006  31.367  1.00  0.00     0.038 A 
HETATM   16  C12 UNL     1       7.754  -3.909  31.721  1.00  0.00     0.076 A 
HETATM   17  C19 UNL     1       6.522  -3.698  31.100  1.00  0.00     0.038 A 
HETATM   18  C20 UNL     1       6.088  -4.573  30.100  1.00  0.00     0.016 A 
BRANCH  16  19
HETATM   19  O2  UNL     1       8.222  -3.113  32.740  1.00  0.00    -0.311 OA
BRANCH  19  20
HETATM   20  C13 UNL     1       9.506  -2.629  32.634  1.00  0.00     0.076 A 
HETATM   21  C14 UNL     1      10.553  -3.072  33.444  1.00  0.00     0.037 A 
HETATM   22  C15 UNL     1      11.823  -2.508  33.306  1.00  0.00     0.003 A 
HETATM   23  C16 UNL     1      12.039  -1.494  32.373  1.00  0.00     0.000 A 
HETATM   24  C17 UNL     1      10.986  -1.037  31.580  1.00  0.00     0.003 A 
HETATM   25  C18 UNL     1       9.717  -1.600  31.716  1.00  0.00     0.037 A 
ENDBRANCH  19  20
ENDBRANCH  16  19
ENDBRANCH   4  13
BRANCH   1  26
HETATM   26  C7  UNL     1       3.910  -8.784  27.536  1.00  0.00     0.128 C 
HETATM   27  C6  UNL     1       4.270 -10.185  27.002  1.00  0.00     0.030 C 
HETATM   28  C5  UNL     1       3.019 -11.042  26.783  1.00  0.00     0.022 C 
HETATM   29  C4  UNL     1       1.984 -10.313  25.923  1.00  0.00     0.126 C 
HETATM   30  N1  UNL     1       1.672  -9.014  26.519  1.00  0.00    -0.347 N 
HETATM   31  C3  UNL     1       0.589  -8.774  27.354  1.00  0.00     0.242 C 
HETATM   32  C25 UNL     1       2.838  -8.130  26.651  1.00  0.00     0.153 C 
HETATM   33  O1  UNL     1       0.572  -7.869  28.184  1.00  0.00    -0.268 OA
BRANCH  31  34
HETATM   34  C2  UNL     1      -0.595  -9.658  27.188  1.00  0.00     0.064 C 
HETATM   35  C1  UNL     1      -1.102 -10.311  28.242  1.00  0.00     0.017 C 
ENDBRANCH  31  34
ENDBRANCH   1  26
BRANCH   6  36
HETATM   36  N4  UNL     1       9.236  -5.842  27.243  1.00  0.00    -0.288 NA
HETATM   37  H20 UNL     1       9.346  -5.832  28.248  1.00  0.00     0.125 HD
HETATM   38  H21 UNL     1      10.084  -6.001  26.711  1.00  0.00     0.125 HD
ENDBRANCH   6  36
TORSDOF 6
ENDMDL
MODEL 3
REMARK minimizedAffinity -9.34256458
REMARK  6 active torsions:
REMARK  status: ('A' for Active; 'I' for Inactive)
REMARK    1  A    between atoms: C2_2  and  C3_3 
REMARK       I    between atoms: C3_3  and  N1_5 
REMARK    2  A    between atoms: C7_9  and  N2_10 
REMARK    3  A    between atoms: C8_13  and  C9_14 
REMARK    4  A    between atoms: C12_17  and  O2_18 
REMARK    5  A    between atoms: O2_18  and  C13_19 
REMARK    6  A    between atoms: C22_28  and  N4_29 
ROOT
HETATM    1  N2  UNL     1       4.778  -8.057  27.877  1.00  0.00    -0.269 N 
HETATM    2  N3  UNL     1       4.823  -6.955  28.656  1.00  0.00    -0.295 N 
ATOM      3  H3  UNL     1       4.060  -6.316  28.878  1.00  0.00     0.187 HD
HETATM    4  C8  UNL     1       6.100  -6.892  29.073  1.00  0.00     0.075 A 
HETATM    5  C21 UNL     1       6.850  -8.017  28.619  1.00  0.00     0.076 A 
HETATM    6  C22 UNL     1       8.140  -8.545  28.754  1.00  0.00     0.095 A 
HETATM    7  N5  UNL     1       8.437  -9.698  28.118  1.00  0.00    -0.342 N 
ATOM      8  H5  UNL     1       9.368 -10.109  28.192  1.00  0.00     0.167 HD
HETATM    9  C23 UNL     1       7.480 -10.296  27.383  1.00  0.00     0.183 A 
HETATM   10  N6  UNL     1       6.212  -9.896  27.198  1.00  0.00    -0.337 N 
ATOM     11  H6  UNL     1       5.526 -10.404  26.639  1.00  0.00     0.168 HD
HETATM   12  C24 UNL     1       5.961  -8.744  27.844  1.00  0.00     0.139 A 
ENDROOT
BRANCH   4  13
HETATM   13  C9  UNL     1       6.546  -5.775  29.902  1.00  0.00    -0.007 A 
HETATM   14  C10 UNL     1       7.841  -5.752  30.438  1.00  0.00     0.016 A 
HETATM   15  C11 UNL     1       8.254  -4.684  31.240  1.00  0.00     0.038 A 
HETATM   16  C12 UNL     1       7.385  -3.623  31.490  1.00  0.00     0.076 A 
HETATM   17  C19 UNL     1       6.092  -3.638  30.965  1.00  0.00     0.038 A 
HETATM   18  C20 UNL     1       5.679  -4.705  30.162  1.00  0.00     0.016 A 
BRANCH  16  19
HETATM   19  O2  UNL     1       7.841  -2.627  32.321  1.00  0.00    -0.311 OA
BRANCH  19  20
HETATM   20  C13 UNL     1       9.201  -2.419  32.380  1.00  0.00     0.076 A 
HETATM   21  C14 UNL     1      10.034  -3.092  33.277  1.00  0.00     0.037 A 
HETATM   22  C15 UNL     1      11.399  -2.801  33.306  1.00  0.00     0.003 A 
HETATM   23  C16 UNL     1      11.925  -1.829  32.454  1.00  0.00     0.000 A 
HETATM   24  C17 UNL     1      11.087  -1.142  31.575  1.00  0.00     0.003 A 
HETATM   25  C18 UNL     1       9.723  -1.432  31.544  1.00  0.00     0.037 A 
ENDBRANCH  19  20
ENDBRANCH  16  19
ENDBRANCH   4  13
BRANCH   1  26
HETATM   26  C7  UNL     1       3.522  -8.422  27.238  1.00  0.00     0.128 C 
HETATM   27  C6  UNL     1       2.326  -7.668  27.852  1.00  0.00     0.030 C 
HETATM   28  C5  UNL     1       1.003  -8.088  27.202  1.00  0.00     0.022 C 
HETATM   29  C4  UNL     1       0.831  -9.609  27.212  1.00  0.00     0.126 C 
HETATM   30  N1  UNL     1       1.990 -10.242  26.579  1.00  0.00    -0.347 N 
HETATM   31  C3  UNL     1       2.038 -10.637  25.249  1.00  0.00     0.242 C 
HETATM   32  C25 UNL     1       3.264  -9.936  27.242  1.00  0.00     0.153 C 
HETATM   33  O1  UNL     1       3.087 -10.735  24.618  1.00  0.00    -0.268 OA
BRANCH  31  34
HETATM   34  C2  UNL     1       0.743 -10.970  24.601  1.00  0.00     0.064 C 
HETATM   35  C1  UNL     1       0.239 -10.174  23.649  1.00  0.00     0.017 C 
ENDBRANCH  31  34
ENDBRANCH   1  26
BRANCH   6  36
HETATM   36  N4  UNL     1       9.152  -7.990  29.525  1.00  0.00    -0.288 NA
HETATM   37  H20 UNL     1       8.838  -7.484  30.343  1.00  0.00     0.125 HD
HETATM   38  H21 UNL     1       9.885  -8.670  29.686  1.00  0.00     0.125 HD
ENDBRANCH   6  36
TORSDOF 6
ENDMDL
MODEL 4
REMARK minimizedAffinity -9.03405952
REMARK  6 active torsions:
REMARK  status: ('A' for Active; 'I' for Inactive)
REMARK    1  A    between atoms: C2_2  and  C3_3 
REMARK       I    between atoms: C3_3  and  N1_5 
REMARK    2  A    between atoms: C7_9  and  N2_10 
REMARK    3  A    between atoms: C8_13  and  C9_14 
REMARK    4  A    between atoms: C12_17  and  O2_18 
REMARK    5  A    between atoms: O2_18  and  C13_19 
REMARK    6  A    between atoms: C22_28  and  N4_29 
ROOT
HETATM    1  N2  UNL     1       7.756  -5.521  30.047  1.00  0.00    -0.269 N 
HETATM    2  N3  UNL     1       7.711  -6.689  29.372  1.00  0.00    -0.295 N 
ATOM      3  H3  UNL     1       8.480  -7.333  29.187  1.00  0.00     0.187 HD
HETATM    4  C8  UNL     1       6.425  -6.810  28.998  1.00  0.00     0.075 A 
HETATM    5  C21 UNL     1       5.631  -5.746  29.519  1.00  0.00     0.076 A 
HETATM    6  C22 UNL     1       4.288  -5.350  29.544  1.00  0.00     0.095 A 
HETATM    7  N5  UNL     1       3.961  -4.211  30.190  1.00  0.00    -0.342 N 
ATOM      8  H5  UNL     1       2.992  -3.892  30.225  1.00  0.00     0.167 HD
HETATM    9  C23 UNL     1       4.938  -3.503  30.787  1.00  0.00     0.183 A 
HETATM   10  N6  UNL     1       6.247  -3.792  30.845  1.00  0.00    -0.337 N 
ATOM     11  H6  UNL     1       6.940  -3.220  31.329  1.00  0.00     0.168 HD
HETATM   12  C24 UNL     1       6.530  -4.930  30.187  1.00  0.00     0.139 A 
ENDROOT
BRANCH   4  13
HETATM   13  C9  UNL     1       6.003  -7.944  28.179  1.00  0.00    -0.007 A 
HETATM   14  C10 UNL     1       6.943  -8.849  27.669  1.00  0.00     0.016 A 
HETATM   15  C11 UNL     1       6.531  -9.925  26.877  1.00  0.00     0.038 A 
HETATM   16  C12 UNL     1       5.175 -10.115  26.612  1.00  0.00     0.076 A 
HETATM   17  C19 UNL     1       4.230  -9.217  27.111  1.00  0.00     0.038 A 
HETATM   18  C20 UNL     1       4.643  -8.142  27.904  1.00  0.00     0.016 A 
BRANCH  16  19
HETATM   19  O2  UNL     1       4.843 -11.168  25.792  1.00  0.00    -0.311 OA
BRANCH  19  20
HETATM   20  C13 UNL     1       4.190 -10.877  24.615  1.00  0.00     0.076 A 
HETATM   21  C14 UNL     1       3.441  -9.713  24.431  1.00  0.00     0.037 A 
HETATM   22  C15 UNL     1       2.773  -9.502  23.223  1.00  0.00     0.003 A 
HETATM   23  C16 UNL     1       2.841 -10.460  22.211  1.00  0.00     0.000 A 
HETATM   24  C17 UNL     1       3.572 -11.633  22.406  1.00  0.00     0.003 A 
HETATM   25  C18 UNL     1       4.240 -11.845  23.612  1.00  0.00     0.037 A 
ENDBRANCH  19  20
ENDBRANCH  16  19
ENDBRANCH   4  13
BRANCH   1  26
HETATM   26  C7  UNL     1       9.027  -5.065  30.590  1.00  0.00     0.128 C 
HETATM   27  C6  UNL     1      10.218  -5.521  29.724  1.00  0.00     0.030 C 
HETATM   28  C5  UNL     1      11.555  -5.072  30.324  1.00  0.00     0.022 C 
HETATM   29  C4  UNL     1      11.678  -5.489  31.792  1.00  0.00     0.126 C 
HETATM   30  N1  UNL     1      10.530  -4.985  32.548  1.00  0.00    -0.347 N 
HETATM   31  C3  UNL     1      10.529  -3.804  33.277  1.00  0.00     0.242 C 
HETATM   32  C25 UNL     1       9.237  -5.478  32.055  1.00  0.00     0.153 C 
HETATM   33  O1  UNL     1       9.506  -3.167  33.518  1.00  0.00    -0.268 OA
BRANCH  31  34
HETATM   34  C2  UNL     1      11.841  -3.333  33.793  1.00  0.00     0.064 C 
HETATM   35  C1  UNL     1      12.043  -3.209  35.112  1.00  0.00     0.017 C 
ENDBRANCH  31  34
ENDBRANCH   1  26
BRANCH   6  36
HETATM   36  N4  UNL     1       3.238  -6.058  28.976  1.00  0.00    -0.288 NA
HETATM   37  H20 UNL     1       3.360  -7.063  28.957  1.00  0.00     0.125 HD
HETATM   38  H21 UNL     1       2.353  -5.733  29.346  1.00  0.00     0.125 HD
ENDBRANCH   6  36
TORSDOF 6
ENDMDL
MODEL 5
REMARK minimizedAffinity -9.02418709
REMARK  6 active torsions:
REMARK  status: ('A' for Active; 'I' for Inactive)
REMARK    1  A    between atoms: C2_2  and  C3_3 
REMARK       I    between atoms: C3_3  and  N1_5 
REMARK    2  A    between atoms: C7_9  and  N2_10 
REMARK    3  A    between atoms: C8_13  and  C9_14 
REMARK    4  A    between atoms: C12_17  and  O2_18 
REMARK    5  A    between atoms: O2_18  and  C13_19 
REMARK    6  A    between atoms: C22_28  and  N4_29 
ROOT
HETATM    1  N2  UNL     1       6.803  -8.368  27.156  1.00  0.00    -0.269 N 
HETATM    2  N3  UNL     1       7.492  -7.521  27.949  1.00  0.00    -0.295 N 
ATOM      3  H3  UNL     1       8.505  -7.427  28.032  1.00  0.00     0.187 HD
HETATM    4  C8  UNL     1       6.544  -6.829  28.605  1.00  0.00     0.075 A 
HETATM    5  C21 UNL     1       5.238  -7.185  28.155  1.00  0.00     0.076 A 
HETATM    6  C22 UNL     1       3.908  -6.808  28.379  1.00  0.00     0.095 A 
HETATM    7  N5  UNL     1       2.931  -7.444  27.699  1.00  0.00    -0.342 N 
ATOM      8  H5  UNL     1       1.952  -7.195  27.841  1.00  0.00     0.167 HD
HETATM    9  C23 UNL     1       3.274  -8.412  26.830  1.00  0.00     0.183 A 
HETATM   10  N6  UNL     1       4.507  -8.843  26.520  1.00  0.00    -0.337 N 
ATOM     11  H6  UNL     1       4.705  -9.575  25.837  1.00  0.00     0.168 HD
HETATM   12  C24 UNL     1       5.448  -8.188  27.222  1.00  0.00     0.139 A 
ENDROOT
BRANCH   4  13
HETATM   13  C9  UNL     1       6.921  -5.843  29.616  1.00  0.00    -0.007 A 
HETATM   14  C10 UNL     1       6.053  -4.797  29.956  1.00  0.00     0.016 A 
HETATM   15  C11 UNL     1       6.429  -3.852  30.916  1.00  0.00     0.038 A 
HETATM   16  C12 UNL     1       7.661  -3.963  31.557  1.00  0.00     0.076 A 
HETATM   17  C19 UNL     1       8.536  -4.998  31.222  1.00  0.00     0.038 A 
HETATM   18  C20 UNL     1       8.160  -5.943  30.264  1.00  0.00     0.016 A 
BRANCH  16  19
HETATM   19  O2  UNL     1       7.985  -2.976  32.459  1.00  0.00    -0.311 OA
BRANCH  19  20
HETATM   20  C13 UNL     1       9.275  -2.497  32.443  1.00  0.00     0.076 A 
HETATM   21  C14 UNL     1       9.728  -1.566  31.506  1.00  0.00     0.037 A 
HETATM   22  C15 UNL     1      11.062  -1.154  31.527  1.00  0.00     0.003 A 
HETATM   23  C16 UNL     1      11.942  -1.684  32.470  1.00  0.00     0.000 A 
HETATM   24  C17 UNL     1      11.493  -2.631  33.391  1.00  0.00     0.003 A 
HETATM   25  C18 UNL     1      10.161  -3.044  33.372  1.00  0.00     0.037 A 
ENDBRANCH  19  20
ENDBRANCH  16  19
ENDBRANCH   4  13
BRANCH   1  26
HETATM   26  C7  UNL     1       7.534  -9.293  26.302  1.00  0.00     0.128 C 
HETATM   27  C6  UNL     1       7.561 -10.717  26.890  1.00  0.00     0.030 C 
HETATM   28  C5  UNL     1       8.367 -11.676  26.007  1.00  0.00     0.022 C 
HETATM   29  C4  UNL     1       9.760 -11.119  25.703  1.00  0.00     0.126 C 
HETATM   30  N1  UNL     1       9.642  -9.784  25.115  1.00  0.00    -0.347 N 
HETATM   31  C3  UNL     1       9.656  -9.524  23.751  1.00  0.00     0.242 C 
HETATM   32  C25 UNL     1       8.959  -8.816  25.982  1.00  0.00     0.153 C 
HETATM   33  O1  UNL     1       9.126  -8.534  23.254  1.00  0.00    -0.268 OA
BRANCH  31  34
HETATM   34  C2  UNL     1      10.376 -10.498  22.890  1.00  0.00     0.064 C 
HETATM   35  C1  UNL     1      11.001 -10.085  21.780  1.00  0.00     0.017 C 
ENDBRANCH  31  34
ENDBRANCH   1  26
BRANCH   6  36
HETATM   36  N4  UNL     1       3.502  -5.794  29.237  1.00  0.00    -0.288 NA
HETATM   37  H20 UNL     1       4.159  -5.032  29.339  1.00  0.00     0.125 HD
HETATM   38  H21 UNL     1       2.546  -5.524  29.035  1.00  0.00     0.125 HD
ENDBRANCH   6  36
TORSDOF 6
ENDMDL
MODEL 6
REMARK minimizedAffinity -9.00656033
REMARK  6 active torsions:
REMARK  status: ('A' for Active; 'I' for Inactive)
REMARK    1  A    between atoms: C2_2  and  C3_3 
REMARK       I    between atoms: C3_3  and  N1_5 
REMARK    2  A    between atoms: C7_9  and  N2_10 
REMARK    3  A    between atoms: C8_13  and  C9_14 
REMARK    4  A    between atoms: C12_17  and  O2_18 
REMARK    5  A    between atoms: O2_18  and  C13_19 
REMARK    6  A    between atoms: C22_28  and  N4_29 
ROOT
HETATM    1  N2  UNL     1       8.874  -7.931  26.698  1.00  0.00    -0.269 N 
HETATM    2  N3  UNL     1       9.295  -7.147  27.712  1.00  0.00    -0.295 N 
ATOM      3  H3  UNL     1      10.248  -6.844  27.914  1.00  0.00     0.187 HD
HETATM    4  C8  UNL     1       8.175  -6.852  28.397  1.00  0.00     0.075 A 
HETATM    5  C21 UNL     1       7.020  -7.389  27.755  1.00  0.00     0.076 A 
HETATM    6  C22 UNL     1       5.629  -7.385  27.916  1.00  0.00     0.095 A 
HETATM    7  N5  UNL     1       4.872  -8.061  27.027  1.00  0.00    -0.342 N 
ATOM      8  H5  UNL     1       3.856  -8.080  27.117  1.00  0.00     0.167 HD
HETATM    9  C23 UNL     1       5.483  -8.708  26.018  1.00  0.00     0.183 A 
HETATM   10  N6  UNL     1       6.798  -8.766  25.752  1.00  0.00    -0.337 N 
ATOM     11  H6  UNL     1       7.201  -9.264  24.958  1.00  0.00     0.168 HD
HETATM   12  C24 UNL     1       7.514  -8.085  26.663  1.00  0.00     0.139 A 
ENDROOT
BRANCH   4  13
HETATM   13  C9  UNL     1       8.250  -6.056  29.619  1.00  0.00    -0.007 A 
HETATM   14  C10 UNL     1       7.270  -5.099  29.912  1.00  0.00     0.016 A 
HETATM   15  C11 UNL     1       7.357  -4.333  31.078  1.00  0.00     0.038 A 
HETATM   16  C12 UNL     1       8.410  -4.537  31.968  1.00  0.00     0.076 A 
HETATM   17  C19 UNL     1       9.395  -5.484  31.684  1.00  0.00     0.038 A 
HETATM   18  C20 UNL     1       9.307  -6.250  30.518  1.00  0.00     0.016 A 
BRANCH  16  19
HETATM   19  O2  UNL     1       8.458  -3.720  33.074  1.00  0.00    -0.311 OA
BRANCH  19  20
HETATM   20  C13 UNL     1       9.697  -3.434  33.601  1.00  0.00     0.076 A 
HETATM   21  C14 UNL     1      10.153  -3.975  34.805  1.00  0.00     0.037 A 
HETATM   22  C15 UNL     1      11.406  -3.609  35.299  1.00  0.00     0.003 A 
HETATM   23  C16 UNL     1      12.192  -2.692  34.600  1.00  0.00     0.000 A 
HETATM   24  C17 UNL     1      11.725  -2.136  33.409  1.00  0.00     0.003 A 
HETATM   25  C18 UNL     1      10.473  -2.500  32.914  1.00  0.00     0.037 A 
ENDBRANCH  19  20
ENDBRANCH  16  19
ENDBRANCH   4  13
BRANCH   1  26
HETATM   26  C7  UNL     1       9.850  -8.452  25.752  1.00  0.00     0.128 C 
HETATM   27  C6  UNL     1      11.133  -8.933  26.458  1.00  0.00     0.030 C 
HETATM   28  C5  UNL     1      12.171  -9.442  25.453  1.00  0.00     0.022 C 
HETATM   29  C4  UNL     1      12.435  -8.413  24.350  1.00  0.00     0.126 C 
HETATM   30  N1  UNL     1      11.173  -8.041  23.709  1.00  0.00    -0.347 N 
HETATM   31  C3  UNL     1      10.691  -8.609  22.538  1.00  0.00     0.242 C 
HETATM   32  C25 UNL     1      10.191  -7.457  24.633  1.00  0.00     0.153 C 
HETATM   33  O1  UNL     1       9.496  -8.644  22.254  1.00  0.00    -0.268 OA
BRANCH  31  34
HETATM   34  C2  UNL     1      11.698  -9.170  21.600  1.00  0.00     0.064 C 
HETATM   35  C1  UNL     1      12.849  -9.674  22.067  1.00  0.00     0.017 C 
ENDBRANCH  31  34
ENDBRANCH   1  26
BRANCH   6  36
HETATM   36  N4  UNL     1       4.946  -6.707  28.917  1.00  0.00    -0.288 NA
HETATM   37  H20 UNL     1       5.390  -5.856  29.238  1.00  0.00     0.125 HD
HETATM   38  H21 UNL     1       3.964  -6.625  28.679  1.00  0.00     0.125 HD
ENDBRANCH   6  36
TORSDOF 6
ENDMDL
MODEL 7
REMARK minimizedAffinity -8.92585468
REMARK  6 active torsions:
REMARK  status: ('A' for Active; 'I' for Inactive)
REMARK    1  A    between atoms: C2_2  and  C3_3 
REMARK       I    between atoms: C3_3  and  N1_5 
REMARK    2  A    between atoms: C7_9  and  N2_10 
REMARK    3  A    between atoms: C8_13  and  C9_14 
REMARK    4  A    between atoms: C12_17  and  O2_18 
REMARK    5  A    between atoms: O2_18  and  C13_19 
REMARK    6  A    between atoms: C22_28  and  N4_29 
ROOT
HETATM    1  N2  UNL     1       9.209  -7.303  26.278  1.00  0.00    -0.269 N 
HETATM    2  N3  UNL     1       9.553  -6.590  27.371  1.00  0.00    -0.295 N 
ATOM      3  H3  UNL     1      10.461  -6.181  27.590  1.00  0.00     0.187 HD
HETATM    4  C8  UNL     1       8.427  -6.540  28.106  1.00  0.00     0.075 A 
HETATM    5  C21 UNL     1       7.336  -7.156  27.425  1.00  0.00     0.076 A 
HETATM    6  C22 UNL     1       5.965  -7.368  27.611  1.00  0.00     0.095 A 
HETATM    7  N5  UNL     1       5.278  -8.036  26.661  1.00  0.00    -0.342 N 
ATOM      8  H5  UNL     1       4.278  -8.210  26.766  1.00  0.00     0.167 HD
HETATM    9  C23 UNL     1       5.938  -8.468  25.570  1.00  0.00     0.183 A 
HETATM   10  N6  UNL     1       7.237  -8.307  25.275  1.00  0.00    -0.337 N 
ATOM     11  H6  UNL     1       7.678  -8.646  24.420  1.00  0.00     0.168 HD
HETATM   12  C24 UNL     1       7.884  -7.643  26.249  1.00  0.00     0.139 A 
ENDROOT
BRANCH   4  13
HETATM   13  C9  UNL     1       8.434  -5.889  29.414  1.00  0.00    -0.007 A 
HETATM   14  C10 UNL     1       9.402  -6.215  30.373  1.00  0.00     0.016 A 
HETATM   15  C11 UNL     1       9.392  -5.595  31.625  1.00  0.00     0.038 A 
HETATM   16  C12 UNL     1       8.431  -4.628  31.917  1.00  0.00     0.076 A 
HETATM   17  C19 UNL     1       7.458  -4.299  30.971  1.00  0.00     0.038 A 
HETATM   18  C20 UNL     1       7.469  -4.918  29.718  1.00  0.00     0.016 A 
BRANCH  16  19
HETATM   19  O2  UNL     1       8.453  -4.090  33.182  1.00  0.00    -0.311 OA
BRANCH  19  20
HETATM   20  C13 UNL     1       9.643  -3.561  33.629  1.00  0.00     0.076 A 
HETATM   21  C14 UNL     1      10.373  -2.617  32.904  1.00  0.00     0.037 A 
HETATM   22  C15 UNL     1      11.593  -2.153  33.401  1.00  0.00     0.003 A 
HETATM   23  C16 UNL     1      12.087  -2.645  34.610  1.00  0.00     0.000 A 
HETATM   24  C17 UNL     1      11.366  -3.605  35.321  1.00  0.00     0.003 A 
HETATM   25  C18 UNL     1      10.147  -4.069  34.826  1.00  0.00     0.037 A 
ENDBRANCH  19  20
ENDBRANCH  16  19
ENDBRANCH   4  13
BRANCH   1  26
HETATM   26  C7  UNL     1      10.214  -7.566  25.258  1.00  0.00     0.128 C 
HETATM   27  C6  UNL     1       9.621  -8.307  24.044  1.00  0.00     0.030 C 
HETATM   28  C5  UNL     1      10.693  -8.616  22.994  1.00  0.00     0.022 C 
HETATM   29  C4  UNL     1      11.894  -9.334  23.615  1.00  0.00     0.126 C 
HETATM   30  N1  UNL     1      12.418  -8.547  24.733  1.00  0.00    -0.347 N 
HETATM   31  C3  UNL     1      13.480  -7.659  24.636  1.00  0.00     0.242 C 
HETATM   32  C25 UNL     1      11.439  -8.318  25.803  1.00  0.00     0.153 C 
HETATM   33  O1  UNL     1      13.627  -6.705  25.396  1.00  0.00    -0.268 OA
BRANCH  31  34
HETATM   34  C2  UNL     1      14.479  -7.921  23.566  1.00  0.00     0.064 C 
HETATM   35  C1  UNL     1      15.660  -7.289  23.575  1.00  0.00     0.017 C 
ENDBRANCH  31  34
ENDBRANCH   1  26
BRANCH   6  36
HETATM   36  N4  UNL     1       5.229  -6.916  28.698  1.00  0.00    -0.288 NA
HETATM   37  H20 UNL     1       5.562  -6.054  29.111  1.00  0.00     0.125 HD
HETATM   38  H21 UNL     1       4.238  -6.947  28.490  1.00  0.00     0.125 HD
ENDBRANCH   6  36
TORSDOF 6
ENDMDL
MODEL 8
REMARK minimizedAffinity -8.88873196
REMARK  6 active torsions:
REMARK  status: ('A' for Active; 'I' for Inactive)
REMARK    1  A    between atoms: C2_2  and  C3_3 
REMARK       I    between atoms: C3_3  and  N1_5 
REMARK    2  A    between atoms: C7_9  and  N2_10 
REMARK    3  A    between atoms: C8_13  and  C9_14 
REMARK    4  A    between atoms: C12_17  and  O2_18 
REMARK    5  A    between atoms: O2_18  and  C13_19 
REMARK    6  A    between atoms: C22_28  and  N4_29 
ROOT
HETATM    1  N2  UNL     1       8.337  -5.542  29.815  1.00  0.00    -0.269 N 
HETATM    2  N3  UNL     1       7.016  -5.793  29.934  1.00  0.00    -0.295 N 
ATOM      3  H3  UNL     1       6.422  -5.636  30.749  1.00  0.00     0.187 HD
HETATM    4  C8  UNL     1       6.660  -6.294  28.738  1.00  0.00     0.075 A 
HETATM    5  C21 UNL     1       7.755  -6.279  27.824  1.00  0.00     0.076 A 
HETATM    6  C22 UNL     1       8.009  -6.589  26.482  1.00  0.00     0.095 A 
HETATM    7  N5  UNL     1       9.258  -6.413  26.002  1.00  0.00    -0.342 N 
ATOM      8  H5  UNL     1       9.478  -6.631  25.030  1.00  0.00     0.167 HD
HETATM    9  C23 UNL     1      10.208  -5.944  26.832  1.00  0.00     0.183 A 
HETATM   10  N6  UNL     1      10.079  -5.597  28.122  1.00  0.00    -0.337 N 
ATOM     11  H6  UNL     1      10.838  -5.231  28.697  1.00  0.00     0.168 HD
HETATM   12  C24 UNL     1       8.822  -5.792  28.560  1.00  0.00     0.139 A 
ENDROOT
BRANCH   4  13
HETATM   13  C9  UNL     1       5.289  -6.745  28.510  1.00  0.00    -0.007 A 
HETATM   14  C10 UNL     1       4.202  -5.914  28.810  1.00  0.00     0.016 A 
HETATM   15  C11 UNL     1       2.894  -6.359  28.599  1.00  0.00     0.038 A 
HETATM   16  C12 UNL     1       2.667  -7.627  28.066  1.00  0.00     0.076 A 
HETATM   17  C19 UNL     1       3.742  -8.466  27.769  1.00  0.00     0.038 A 
HETATM   18  C20 UNL     1       5.050  -8.020  27.978  1.00  0.00     0.016 A 
BRANCH  16  19
HETATM   19  O2  UNL     1       1.355  -8.018  27.925  1.00  0.00    -0.311 OA
BRANCH  19  20
HETATM   20  C13 UNL     1       1.015  -8.705  26.781  1.00  0.00     0.076 A 
HETATM   21  C14 UNL     1       0.754 -10.077  26.770  1.00  0.00     0.037 A 
HETATM   22  C15 UNL     1       0.452 -10.715  25.566  1.00  0.00     0.003 A 
HETATM   23  C16 UNL     1       0.429  -9.987  24.376  1.00  0.00     0.000 A 
HETATM   24  C17 UNL     1       0.712  -8.621  24.387  1.00  0.00     0.003 A 
HETATM   25  C18 UNL     1       1.013  -7.981  25.589  1.00  0.00     0.037 A 
ENDBRANCH  19  20
ENDBRANCH  16  19
ENDBRANCH   4  13
BRANCH   1  26
HETATM   26  C7  UNL     1       9.061  -4.996  30.953  1.00  0.00     0.128 C 
HETATM   27  C6  UNL     1       8.741  -5.757  32.255  1.00  0.00     0.030 C 
HETATM   28  C5  UNL     1       9.475  -5.150  33.456  1.00  0.00     0.022 C 
HETATM   29  C4  UNL     1       9.230  -3.642  33.559  1.00  0.00     0.126 C 
HETATM   30  N1  UNL     1       9.594  -2.995  32.297  1.00  0.00    -0.347 N 
HETATM   31  C3  UNL     1      10.821  -2.395  32.049  1.00  0.00     0.242 C 
HETATM   32  C25 UNL     1       8.835  -3.488  31.141  1.00  0.00     0.153 C 
HETATM   33  O1  UNL     1      11.287  -2.268  30.920  1.00  0.00    -0.268 OA
BRANCH  31  34
HETATM   34  C2  UNL     1      11.564  -1.876  33.227  1.00  0.00     0.064 C 
HETATM   35  C1  UNL     1      12.139  -2.723  34.090  1.00  0.00     0.017 C 
ENDBRANCH  31  34
ENDBRANCH   1  26
BRANCH   6  36
HETATM   36  N4  UNL     1       7.060  -7.042  25.575  1.00  0.00    -0.288 NA
HETATM   37  H20 UNL     1       6.118  -6.710  25.740  1.00  0.00     0.125 HD
HETATM   38  H21 UNL     1       7.401  -6.938  24.627  1.00  0.00     0.125 HD
ENDBRANCH   6  36
TORSDOF 6
ENDMDL
MODEL 9
REMARK minimizedAffinity -8.8582859
REMARK  6 active torsions:
REMARK  status: ('A' for Active; 'I' for Inactive)
REMARK    1  A    between atoms: C2_2  and  C3_3 
REMARK       I    between atoms: C3_3  and  N1_5 
REMARK    2  A    between atoms: C7_9  and  N2_10 
REMARK    3  A    between atoms: C8_13  and  C9_14 
REMARK    4  A    between atoms: C12_17  and  O2_18 
REMARK    5  A    between atoms: O2_18  and  C13_19 
REMARK    6  A    between atoms: C22_28  and  N4_29 
ROOT
HETATM    1  N2  UNL     1       7.049  -5.870  29.330  1.00  0.00    -0.269 N 
HETATM    2  N3  UNL     1       5.814  -6.412  29.273  1.00  0.00    -0.295 N 
ATOM      3  H3  UNL     1       5.074  -6.354  29.972  1.00  0.00     0.187 HD
HETATM    4  C8  UNL     1       5.779  -7.044  28.086  1.00  0.00     0.075 A 
HETATM    5  C21 UNL     1       6.980  -6.825  27.348  1.00  0.00     0.076 A 
HETATM    6  C22 UNL     1       7.514  -7.138  26.091  1.00  0.00     0.095 A 
HETATM    7  N5  UNL     1       8.756  -6.705  25.790  1.00  0.00    -0.342 N 
ATOM      8  H5  UNL     1       9.175  -6.917  24.885  1.00  0.00     0.167 HD
HETATM    9  C23 UNL     1       9.429  -5.985  26.707  1.00  0.00     0.183 A 
HETATM   10  N6  UNL     1       9.016  -5.610  27.927  1.00  0.00    -0.337 N 
ATOM     11  H6  UNL     1       9.570  -5.049  28.574  1.00  0.00     0.168 HD
HETATM   12  C24 UNL     1       7.778  -6.066  28.188  1.00  0.00     0.139 A 
ENDROOT
BRANCH   4  13
HETATM   13  C9  UNL     1       4.598  -7.811  27.698  1.00  0.00    -0.007 A 
HETATM   14  C10 UNL     1       4.723  -9.103  27.172  1.00  0.00     0.016 A 
HETATM   15  C11 UNL     1       3.587  -9.824  26.792  1.00  0.00     0.038 A 
HETATM   16  C12 UNL     1       2.320  -9.267  26.960  1.00  0.00     0.076 A 
HETATM   17  C19 UNL     1       2.184  -7.978  27.478  1.00  0.00     0.038 A 
HETATM   18  C20 UNL     1       3.320  -7.258  27.859  1.00  0.00     0.016 A 
BRANCH  16  19
HETATM   19  O2  UNL     1       1.249 -10.013  26.526  1.00  0.00    -0.311 OA
BRANCH  19  20
HETATM   20  C13 UNL     1       1.015 -11.216  27.153  1.00  0.00     0.076 A 
HETATM   21  C14 UNL     1      -0.171 -11.498  27.834  1.00  0.00     0.037 A 
HETATM   22  C15 UNL     1      -0.324 -12.726  28.480  1.00  0.00     0.003 A 
HETATM   23  C16 UNL     1       0.713 -13.660  28.460  1.00  0.00     0.000 A 
HETATM   24  C17 UNL     1       1.906 -13.366  27.799  1.00  0.00     0.003 A 
HETATM   25  C18 UNL     1       2.060 -12.140  27.152  1.00  0.00     0.037 A 
ENDBRANCH  19  20
ENDBRANCH  16  19
ENDBRANCH   4  13
BRANCH   1  26
HETATM   26  C7  UNL     1       7.437  -5.112  30.510  1.00  0.00     0.128 C 
HETATM   27  C6  UNL     1       6.620  -3.812  30.652  1.00  0.00     0.030 C 
HETATM   28  C5  UNL     1       7.062  -3.000  31.874  1.00  0.00     0.022 C 
HETATM   29  C4  UNL     1       8.575  -2.769  31.875  1.00  0.00     0.126 C 
HETATM   30  N1  UNL     1       9.272  -4.052  31.776  1.00  0.00    -0.347 N 
HETATM   31  C3  UNL     1       9.763  -4.764  32.862  1.00  0.00     0.242 C 
HETATM   32  C25 UNL     1       8.942  -4.810  30.562  1.00  0.00     0.153 C 
HETATM   33  O1  UNL     1       9.925  -5.981  32.846  1.00  0.00    -0.268 OA
BRANCH  31  34
HETATM   34  C2  UNL     1      10.120  -3.978  34.073  1.00  0.00     0.064 C 
HETATM   35  C1  UNL     1      11.369  -3.523  34.238  1.00  0.00     0.017 C 
ENDBRANCH  31  34
ENDBRANCH   1  26
BRANCH   6  36
HETATM   36  N4  UNL     1       6.851  -7.845  25.098  1.00  0.00    -0.288 NA
HETATM   37  H20 UNL     1       5.845  -7.731  25.090  1.00  0.00     0.125 HD
HETATM   38  H21 UNL     1       7.312  -7.716  24.205  1.00  0.00     0.125 HD
ENDBRANCH   6  36
TORSDOF 6
ENDMDL
