MODEL 1
REMARK minimizedAffinity -9.07039165
REMARK  5 active torsions:
REMARK  status: ('A' for Active; 'I' for Inactive)
REMARK    1  A    between atoms: C2_2  and  C3_3 
REMARK    2  A    between atoms: C20_20  and  O1_21 
REMARK    3  A    between atoms: O1_21  and  C21_22 
REMARK    4  A    between atoms: C21_22  and  C22_24 
REMARK    5  A    between atoms: C22_24  and  C23_25 
ROOT
HETATM    1  C3  UNL     1      -6.473  47.421 -27.243  1.00  0.00     0.012 C 
HETATM    2  C4  UNL     1      -7.878  47.299 -27.891  1.00  0.00     0.009 C 
HETATM    3  C5  UNL     1      -8.904  47.604 -26.787  1.00  0.00     0.010 C 
HETATM    4  C6  UNL     1      -8.132  47.386 -25.479  1.00  0.00    -0.039 C 
HETATM    5  C7  UNL     1      -8.085  45.864 -25.185  1.00  0.00     0.015 C 
HETATM    6  C8  UNL     1      -8.715  48.125 -24.269  1.00  0.00     0.010 C 
HETATM    7  C9  UNL     1      -7.750  48.092 -23.067  1.00  0.00     0.011 C 
HETATM    8  C10 UNL     1      -6.289  48.581 -23.380  1.00  0.00    -0.032 C 
HETATM    9  C11 UNL     1      -6.417  50.127 -23.606  1.00  0.00     0.016 C 
HETATM   10  C12 UNL     1      -5.755  47.881 -24.698  1.00  0.00    -0.000 C 
HETATM   11  C13 UNL     1      -4.344  48.363 -25.053  1.00  0.00     0.006 C 
HETATM   12  C14 UNL     1      -3.344  48.181 -23.909  1.00  0.00     0.006 C 
HETATM   13  C15 UNL     1      -3.815  48.789 -22.568  1.00  0.00     0.003 C 
HETATM   14  C16 UNL     1      -2.711  48.796 -21.415  1.00  0.00    -0.035 C 
HETATM   15  C17 UNL     1      -2.219  47.369 -21.073  1.00  0.00     0.016 C 
HETATM   16  C18 UNL     1      -1.475  49.611 -21.909  1.00  0.00     0.012 C 
HETATM   17  C19 UNL     1      -0.469  49.957 -20.814  1.00  0.00     0.034 C 
HETATM   18  C20 UNL     1      -1.108  50.686 -19.635  1.00  0.00     0.140 C 
HETATM   19  C26 UNL     1      -2.325  49.924 -19.022  1.00  0.00    -0.017 C 
HETATM   20  C27 UNL     1      -3.013  50.892 -18.019  1.00  0.00     0.018 C 
HETATM   21  C28 UNL     1      -1.871  48.708 -18.189  1.00  0.00     0.018 C 
HETATM   22  C29 UNL     1      -3.325  49.566 -20.184  1.00  0.00     0.004 C 
HETATM   23  C30 UNL     1      -4.647  48.919 -19.726  1.00  0.00     0.007 C 
HETATM   24  C31 UNL     1      -5.694  48.940 -20.844  1.00  0.00     0.011 C 
HETATM   25  C32 UNL     1      -5.251  48.255 -22.167  1.00  0.00    -0.032 C 
HETATM   26  C33 UNL     1      -5.228  46.722 -21.887  1.00  0.00     0.016 C 
HETATM   27  C34 UNL     1      -6.772  48.023 -25.853  1.00  0.00     0.006 C 
ENDROOT
BRANCH  18  28
HETATM   28  O1  UNL     1      -0.067  50.857 -18.647  1.00  0.00    -0.315 OA
BRANCH  28  29
HETATM   29  C21 UNL     1       0.505  52.086 -18.539  1.00  0.00     0.259 C 
HETATM   30  O2  UNL     1       1.153  52.494 -17.584  1.00  0.00    -0.265 OA
BRANCH  29  31
HETATM   31  C22 UNL     1       0.204  52.915 -19.764  1.00  0.00     0.115 C 
BRANCH  31  32
HETATM   32  C23 UNL     1       1.421  53.108 -20.677  1.00  0.00    -0.013 C 
HETATM   33  C24 UNL     1       1.306  52.201 -21.902  1.00  0.00     0.010 C 
HETATM   34  C25 UNL     1       1.560  54.565 -21.124  1.00  0.00     0.010 C 
ENDBRANCH  31  32
ENDBRANCH  29  31
ENDBRANCH  28  29
ENDBRANCH  18  28
BRANCH   1  35
HETATM   35  C2  UNL     1      -5.565  48.259 -28.103  1.00  0.00    -0.032 C 
HETATM   36  C1  UNL     1      -4.234  48.107 -28.162  1.00  0.00     0.007 C 
ENDBRANCH   1  35
TORSDOF 5
ENDMDL
MODEL 2
REMARK minimizedAffinity -8.8512392
REMARK  5 active torsions:
REMARK  status: ('A' for Active; 'I' for Inactive)
REMARK    1  A    between atoms: C2_2  and  C3_3 
REMARK    2  A    between atoms: C20_20  and  O1_21 
REMARK    3  A    between atoms: O1_21  and  C21_22 
REMARK    4  A    between atoms: C21_22  and  C22_24 
REMARK    5  A    between atoms: C22_24  and  C23_25 
ROOT
HETATM    1  C3  UNL     1       0.521  52.555 -23.077  1.00  0.00     0.012 C 
HETATM    2  C4  UNL     1       1.041  53.521 -24.175  1.00  0.00     0.009 C 
HETATM    3  C5  UNL     1      -0.042  53.578 -25.265  1.00  0.00     0.010 C 
HETATM    4  C6  UNL     1      -0.877  52.311 -25.039  1.00  0.00    -0.039 C 
HETATM    5  C7  UNL     1      -0.128  51.111 -25.675  1.00  0.00     0.015 C 
HETATM    6  C8  UNL     1      -2.301  52.383 -25.601  1.00  0.00     0.010 C 
HETATM    7  C9  UNL     1      -3.166  51.206 -25.103  1.00  0.00     0.011 C 
HETATM    8  C10 UNL     1      -3.181  51.011 -23.544  1.00  0.00    -0.032 C 
HETATM    9  C11 UNL     1      -4.001  52.227 -22.989  1.00  0.00     0.016 C 
HETATM   10  C12 UNL     1      -1.700  51.051 -22.979  1.00  0.00    -0.000 C 
HETATM   11  C13 UNL     1      -1.679  50.899 -21.454  1.00  0.00     0.006 C 
HETATM   12  C14 UNL     1      -2.403  49.641 -20.968  1.00  0.00     0.006 C 
HETATM   13  C15 UNL     1      -3.840  49.497 -21.520  1.00  0.00     0.003 C 
HETATM   14  C16 UNL     1      -4.687  48.309 -20.871  1.00  0.00    -0.035 C 
HETATM   15  C17 UNL     1      -4.017  46.931 -21.093  1.00  0.00     0.016 C 
HETATM   16  C18 UNL     1      -4.779  48.542 -19.331  1.00  0.00     0.012 C 
HETATM   17  C19 UNL     1      -5.801  47.659 -18.620  1.00  0.00     0.034 C 
HETATM   18  C20 UNL     1      -7.198  47.769 -19.226  1.00  0.00     0.140 C 
HETATM   19  C26 UNL     1      -7.230  47.493 -20.762  1.00  0.00    -0.017 C 
HETATM   20  C27 UNL     1      -8.646  47.887 -21.268  1.00  0.00     0.018 C 
HETATM   21  C28 UNL     1      -7.075  45.990 -21.072  1.00  0.00     0.018 C 
HETATM   22  C29 UNL     1      -6.148  48.404 -21.453  1.00  0.00     0.004 C 
HETATM   23  C30 UNL     1      -6.139  48.345 -22.994  1.00  0.00     0.007 C 
HETATM   24  C31 UNL     1      -5.334  49.503 -23.591  1.00  0.00     0.011 C 
HETATM   25  C32 UNL     1      -3.863  49.600 -23.100  1.00  0.00    -0.032 C 
HETATM   26  C33 UNL     1      -3.097  48.411 -23.757  1.00  0.00     0.016 C 
HETATM   27  C34 UNL     1      -0.944  52.297 -23.492  1.00  0.00     0.006 C 
ENDROOT
BRANCH  18  28
HETATM   28  O1  UNL     1      -8.025  46.815 -18.522  1.00  0.00    -0.315 OA
BRANCH  28  29
HETATM   29  C21 UNL     1      -8.607  47.218 -17.361  1.00  0.00     0.259 C 
HETATM   30  O2  UNL     1      -8.257  46.898 -16.234  1.00  0.00    -0.265 OA
BRANCH  29  31
HETATM   31  C22 UNL     1      -9.792  48.109 -17.650  1.00  0.00     0.115 C 
BRANCH  31  32
HETATM   32  C23 UNL     1     -10.993  47.348 -18.226  1.00  0.00    -0.013 C 
HETATM   33  C24 UNL     1     -12.041  47.122 -17.136  1.00  0.00     0.010 C 
HETATM   34  C25 UNL     1     -11.622  48.102 -19.400  1.00  0.00     0.010 C 
ENDBRANCH  31  32
ENDBRANCH  29  31
ENDBRANCH  28  29
ENDBRANCH  18  28
BRANCH   1  35
HETATM   35  C2  UNL     1       0.682  53.171 -21.712  1.00  0.00    -0.032 C 
HETATM   36  C1  UNL     1       1.465  54.228 -21.452  1.00  0.00     0.007 C 
ENDBRANCH   1  35
TORSDOF 5
ENDMDL
MODEL 3
REMARK minimizedAffinity -8.46183205
REMARK  5 active torsions:
REMARK  status: ('A' for Active; 'I' for Inactive)
REMARK    1  A    between atoms: C2_2  and  C3_3 
REMARK    2  A    between atoms: C20_20  and  O1_21 
REMARK    3  A    between atoms: O1_21  and  C21_22 
REMARK    4  A    between atoms: C21_22  and  C22_24 
REMARK    5  A    between atoms: C22_24  and  C23_25 
ROOT
HETATM    1  C3  UNL     1      -4.442  46.217 -16.940  1.00  0.00     0.012 C 
HETATM    2  C4  UNL     1      -4.921  44.811 -16.490  1.00  0.00     0.009 C 
HETATM    3  C5  UNL     1      -5.317  44.048 -17.765  1.00  0.00     0.010 C 
HETATM    4  C6  UNL     1      -5.546  45.148 -18.811  1.00  0.00    -0.039 C 
HETATM    5  C7  UNL     1      -6.957  45.752 -18.587  1.00  0.00     0.015 C 
HETATM    6  C8  UNL     1      -5.413  44.677 -20.263  1.00  0.00     0.010 C 
HETATM    7  C9  UNL     1      -5.376  45.868 -21.243  1.00  0.00     0.011 C 
HETATM    8  C10 UNL     1      -4.307  46.969 -20.904  1.00  0.00    -0.032 C 
HETATM    9  C11 UNL     1      -2.923  46.300 -21.211  1.00  0.00     0.016 C 
HETATM   10  C12 UNL     1      -4.397  47.356 -19.369  1.00  0.00    -0.000 C 
HETATM   11  C13 UNL     1      -3.342  48.403 -18.995  1.00  0.00     0.006 C 
HETATM   12  C14 UNL     1      -3.410  49.659 -19.868  1.00  0.00     0.006 C 
HETATM   13  C15 UNL     1      -3.385  49.365 -21.385  1.00  0.00     0.003 C 
HETATM   14  C16 UNL     1      -3.247  50.657 -22.312  1.00  0.00    -0.035 C 
HETATM   15  C17 UNL     1      -4.416  51.650 -22.102  1.00  0.00     0.016 C 
HETATM   16  C18 UNL     1      -1.928  51.403 -21.941  1.00  0.00     0.012 C 
HETATM   17  C19 UNL     1      -1.512  52.483 -22.936  1.00  0.00     0.034 C 
HETATM   18  C20 UNL     1      -1.402  51.956 -24.365  1.00  0.00     0.140 C 
HETATM   19  C26 UNL     1      -2.696  51.241 -24.863  1.00  0.00    -0.017 C 
HETATM   20  C27 UNL     1      -2.348  50.549 -26.210  1.00  0.00     0.018 C 
HETATM   21  C28 UNL     1      -3.815  52.252 -25.185  1.00  0.00     0.018 C 
HETATM   22  C29 UNL     1      -3.104  50.154 -23.799  1.00  0.00     0.004 C 
HETATM   23  C30 UNL     1      -4.298  49.266 -24.204  1.00  0.00     0.007 C 
HETATM   24  C31 UNL     1      -4.397  48.025 -23.310  1.00  0.00     0.011 C 
HETATM   25  C32 UNL     1      -4.506  48.323 -21.789  1.00  0.00    -0.032 C 
HETATM   26  C33 UNL     1      -5.933  48.905 -21.552  1.00  0.00     0.016 C 
HETATM   27  C34 UNL     1      -4.367  46.094 -18.477  1.00  0.00     0.006 C 
ENDROOT
BRANCH  18  28
HETATM   28  O1  UNL     1      -1.100  53.098 -25.199  1.00  0.00    -0.315 OA
BRANCH  28  29
HETATM   29  C21 UNL     1       0.200  53.480 -25.302  1.00  0.00     0.259 C 
HETATM   30  O2  UNL     1       0.612  54.632 -25.305  1.00  0.00    -0.265 OA
BRANCH  29  31
HETATM   31  C22 UNL     1       1.092  52.271 -25.449  1.00  0.00     0.115 C 
BRANCH  31  32
HETATM   32  C23 UNL     1       1.167  51.747 -26.889  1.00  0.00    -0.013 C 
HETATM   33  C24 UNL     1       0.357  52.651 -27.818  1.00  0.00     0.010 C 
HETATM   34  C25 UNL     1       2.614  51.663 -27.380  1.00  0.00     0.010 C 
ENDBRANCH  31  32
ENDBRANCH  29  31
ENDBRANCH  28  29
ENDBRANCH  18  28
BRANCH   1  35
HETATM   35  C2  UNL     1      -3.134  46.565 -16.278  1.00  0.00    -0.032 C 
HETATM   36  C1  UNL     1      -2.611  45.891 -15.244  1.00  0.00     0.007 C 
ENDBRANCH   1  35
TORSDOF 5
ENDMDL
MODEL 4
REMARK minimizedAffinity -8.45571899
REMARK  5 active torsions:
REMARK  status: ('A' for Active; 'I' for Inactive)
REMARK    1  A    between atoms: C2_2  and  C3_3 
REMARK    2  A    between atoms: C20_20  and  O1_21 
REMARK    3  A    between atoms: O1_21  and  C21_22 
REMARK    4  A    between atoms: C21_22  and  C22_24 
REMARK    5  A    between atoms: C22_24  and  C23_25 
ROOT
HETATM    1  C3  UNL     1      -0.537  51.608 -26.312  1.00  0.00     0.012 C 
HETATM    2  C4  UNL     1      -1.309  51.772 -27.648  1.00  0.00     0.009 C 
HETATM    3  C5  UNL     1      -2.796  51.537 -27.332  1.00  0.00     0.010 C 
HETATM    4  C6  UNL     1      -2.786  50.766 -26.006  1.00  0.00    -0.039 C 
HETATM    5  C7  UNL     1      -2.489  49.275 -26.307  1.00  0.00     0.015 C 
HETATM    6  C8  UNL     1      -4.086  50.878 -25.199  1.00  0.00     0.010 C 
HETATM    7  C9  UNL     1      -3.914  50.323 -23.771  1.00  0.00     0.011 C 
HETATM    8  C10 UNL     1      -2.699  50.919 -22.972  1.00  0.00    -0.032 C 
HETATM    9  C11 UNL     1      -3.104  52.401 -22.660  1.00  0.00     0.016 C 
HETATM   10  C12 UNL     1      -1.394  50.890 -23.872  1.00  0.00    -0.000 C 
HETATM   11  C13 UNL     1      -0.195  51.498 -23.136  1.00  0.00     0.006 C 
HETATM   12  C14 UNL     1       0.075  50.836 -21.782  1.00  0.00     0.006 C 
HETATM   13  C15 UNL     1      -1.166  50.773 -20.862  1.00  0.00     0.003 C 
HETATM   14  C16 UNL     1      -0.868  50.278 -19.374  1.00  0.00    -0.035 C 
HETATM   15  C17 UNL     1      -0.259  48.855 -19.347  1.00  0.00     0.016 C 
HETATM   16  C18 UNL     1       0.171  51.243 -18.723  1.00  0.00     0.012 C 
HETATM   17  C19 UNL     1       0.328  51.075 -17.214  1.00  0.00     0.034 C 
HETATM   18  C20 UNL     1      -0.998  51.191 -16.466  1.00  0.00     0.140 C 
HETATM   19  C26 UNL     1      -2.097  50.220 -17.000  1.00  0.00    -0.017 C 
HETATM   20  C27 UNL     1      -3.436  50.628 -16.325  1.00  0.00     0.018 C 
HETATM   21  C28 UNL     1      -1.830  48.765 -16.562  1.00  0.00     0.018 C 
HETATM   22  C29 UNL     1      -2.211  50.407 -18.559  1.00  0.00     0.004 C 
HETATM   23  C30 UNL     1      -3.347  49.607 -19.228  1.00  0.00     0.007 C 
HETATM   24  C31 UNL     1      -3.624  50.112 -20.647  1.00  0.00     0.011 C 
HETATM   25  C32 UNL     1      -2.395  50.098 -21.598  1.00  0.00    -0.032 C 
HETATM   26  C33 UNL     1      -2.107  48.602 -21.927  1.00  0.00     0.016 C 
HETATM   27  C34 UNL     1      -1.661  51.521 -25.257  1.00  0.00     0.006 C 
ENDROOT
BRANCH  18  28
HETATM   28  O1  UNL     1      -0.709  50.916 -15.077  1.00  0.00    -0.315 OA
BRANCH  28  29
HETATM   29  C21 UNL     1       0.404  51.481 -14.538  1.00  0.00     0.259 C 
HETATM   30  O2  UNL     1       0.531  52.656 -14.223  1.00  0.00    -0.265 OA
BRANCH  29  31
HETATM   31  C22 UNL     1       1.502  50.454 -14.405  1.00  0.00     0.115 C 
BRANCH  31  32
HETATM   32  C23 UNL     1       2.848  51.059 -13.988  1.00  0.00    -0.013 C 
HETATM   33  C24 UNL     1       3.346  52.021 -15.067  1.00  0.00     0.010 C 
HETATM   34  C25 UNL     1       2.741  51.793 -12.649  1.00  0.00     0.010 C 
ENDBRANCH  31  32
ENDBRANCH  29  31
ENDBRANCH  28  29
ENDBRANCH  18  28
BRANCH   1  35
HETATM   35  C2  UNL     1       0.419  52.754 -26.110  1.00  0.00    -0.032 C 
HETATM   36  C1  UNL     1       0.046  53.991 -25.752  1.00  0.00     0.007 C 
ENDBRANCH   1  35
TORSDOF 5
ENDMDL
MODEL 5
REMARK minimizedAffinity -8.4133873
REMARK  5 active torsions:
REMARK  status: ('A' for Active; 'I' for Inactive)
REMARK    1  A    between atoms: C2_2  and  C3_3 
REMARK    2  A    between atoms: C20_20  and  O1_21 
REMARK    3  A    between atoms: O1_21  and  C21_22 
REMARK    4  A    between atoms: C21_22  and  C22_24 
REMARK    5  A    between atoms: C22_24  and  C23_25 
ROOT
HETATM    1  C3  UNL     1      -0.600  52.017 -22.744  1.00  0.00     0.012 C 
HETATM    2  C4  UNL     1       0.668  52.246 -21.880  1.00  0.00     0.009 C 
HETATM    3  C5  UNL     1       0.645  51.185 -20.767  1.00  0.00     0.010 C 
HETATM    4  C6  UNL     1      -0.820  50.733 -20.702  1.00  0.00    -0.039 C 
HETATM    5  C7  UNL     1      -1.621  51.782 -19.887  1.00  0.00     0.015 C 
HETATM    6  C8  UNL     1      -1.027  49.342 -20.093  1.00  0.00     0.010 C 
HETATM    7  C9  UNL     1      -2.469  48.837 -20.311  1.00  0.00     0.011 C 
HETATM    8  C10 UNL     1      -2.966  48.884 -21.801  1.00  0.00    -0.032 C 
HETATM    9  C11 UNL     1      -2.153  47.762 -22.536  1.00  0.00     0.016 C 
HETATM   10  C12 UNL     1      -2.639  50.298 -22.437  1.00  0.00    -0.000 C 
HETATM   11  C13 UNL     1      -3.079  50.366 -23.904  1.00  0.00     0.006 C 
HETATM   12  C14 UNL     1      -4.557  50.020 -24.102  1.00  0.00     0.006 C 
HETATM   13  C15 UNL     1      -4.973  48.676 -23.460  1.00  0.00     0.003 C 
HETATM   14  C16 UNL     1      -6.450  48.193 -23.825  1.00  0.00    -0.035 C 
HETATM   15  C17 UNL     1      -7.522  49.215 -23.378  1.00  0.00     0.016 C 
HETATM   16  C18 UNL     1      -6.561  48.046 -25.374  1.00  0.00     0.012 C 
HETATM   17  C19 UNL     1      -7.811  47.310 -25.850  1.00  0.00     0.034 C 
HETATM   18  C20 UNL     1      -7.967  45.934 -25.206  1.00  0.00     0.140 C 
HETATM   19  C26 UNL     1      -7.930  45.973 -23.646  1.00  0.00    -0.017 C 
HETATM   20  C27 UNL     1      -7.843  44.502 -23.153  1.00  0.00     0.018 C 
HETATM   21  C28 UNL     1      -9.242  46.537 -23.062  1.00  0.00     0.018 C 
HETATM   22  C29 UNL     1      -6.641  46.759 -23.198  1.00  0.00     0.004 C 
HETATM   23  C30 UNL     1      -6.389  46.779 -21.677  1.00  0.00     0.007 C 
HETATM   24  C31 UNL     1      -4.961  47.230 -21.355  1.00  0.00     0.011 C 
HETATM   25  C32 UNL     1      -4.568  48.619 -21.931  1.00  0.00    -0.032 C 
HETATM   26  C33 UNL     1      -5.350  49.680 -21.098  1.00  0.00     0.016 C 
HETATM   27  C34 UNL     1      -1.158  50.679 -22.212  1.00  0.00     0.006 C 
ENDROOT
BRANCH  18  28
HETATM   28  O1  UNL     1      -9.229  45.406 -25.671  1.00  0.00    -0.315 OA
BRANCH  28  29
HETATM   29  C21 UNL     1      -9.395  45.253 -27.011  1.00  0.00     0.259 C 
HETATM   30  O2  UNL     1     -10.367  45.615 -27.660  1.00  0.00    -0.265 OA
BRANCH  29  31
HETATM   31  C22 UNL     1      -8.211  44.530 -27.608  1.00  0.00     0.115 C 
BRANCH  31  32
HETATM   32  C23 UNL     1      -7.910  44.953 -29.051  1.00  0.00    -0.013 C 
HETATM   33  C24 UNL     1      -6.898  46.099 -29.061  1.00  0.00     0.010 C 
HETATM   34  C25 UNL     1      -7.373  43.781 -29.877  1.00  0.00     0.010 C 
ENDBRANCH  31  32
ENDBRANCH  29  31
ENDBRANCH  28  29
ENDBRANCH  18  28
BRANCH   1  35
HETATM   35  C2  UNL     1      -0.247  52.007 -24.208  1.00  0.00    -0.032 C 
HETATM   36  C1  UNL     1       0.611  52.864 -24.780  1.00  0.00     0.007 C 
ENDBRANCH   1  35
TORSDOF 5
ENDMDL
MODEL 6
REMARK minimizedAffinity -8.35887051
REMARK  5 active torsions:
REMARK  status: ('A' for Active; 'I' for Inactive)
REMARK    1  A    between atoms: C2_2  and  C3_3 
REMARK    2  A    between atoms: C20_20  and  O1_21 
REMARK    3  A    between atoms: O1_21  and  C21_22 
REMARK    4  A    between atoms: C21_22  and  C22_24 
REMARK    5  A    between atoms: C22_24  and  C23_25 
ROOT
HETATM    1  C3  UNL     1      -0.681  52.317 -23.070  1.00  0.00     0.012 C 
HETATM    2  C4  UNL     1       0.685  52.547 -22.372  1.00  0.00     0.009 C 
HETATM    3  C5  UNL     1       0.827  51.451 -21.302  1.00  0.00     0.010 C 
HETATM    4  C6  UNL     1      -0.609  50.966 -21.063  1.00  0.00    -0.039 C 
HETATM    5  C7  UNL     1      -1.315  51.970 -20.115  1.00  0.00     0.015 C 
HETATM    6  C8  UNL     1      -0.711  49.552 -20.479  1.00  0.00     0.010 C 
HETATM    7  C9  UNL     1      -2.159  49.023 -20.525  1.00  0.00     0.011 C 
HETATM    8  C10 UNL     1      -2.848  49.106 -21.935  1.00  0.00    -0.032 C 
HETATM    9  C11 UNL     1      -2.120  48.026 -22.808  1.00  0.00     0.016 C 
HETATM   10  C12 UNL     1      -2.632  50.546 -22.560  1.00  0.00    -0.000 C 
HETATM   11  C13 UNL     1      -3.261  50.651 -23.953  1.00  0.00     0.006 C 
HETATM   12  C14 UNL     1      -4.746  50.279 -23.969  1.00  0.00     0.006 C 
HETATM   13  C15 UNL     1      -5.051  48.907 -23.324  1.00  0.00     0.003 C 
HETATM   14  C16 UNL     1      -6.555  48.404 -23.510  1.00  0.00    -0.035 C 
HETATM   15  C17 UNL     1      -7.577  49.388 -22.892  1.00  0.00     0.016 C 
HETATM   16  C18 UNL     1      -6.866  48.303 -25.035  1.00  0.00     0.012 C 
HETATM   17  C19 UNL     1      -8.154  47.556 -25.369  1.00  0.00     0.034 C 
HETATM   18  C20 UNL     1      -8.200  46.158 -24.757  1.00  0.00     0.140 C 
HETATM   19  C26 UNL     1      -7.960  46.148 -23.215  1.00  0.00    -0.017 C 
HETATM   20  C27 UNL     1      -7.783  44.664 -22.788  1.00  0.00     0.018 C 
HETATM   21  C28 UNL     1      -9.194  46.665 -22.446  1.00  0.00     0.018 C 
HETATM   22  C29 UNL     1      -6.638  46.948 -22.913  1.00  0.00     0.004 C 
HETATM   23  C30 UNL     1      -6.188  46.924 -21.438  1.00  0.00     0.007 C 
HETATM   24  C31 UNL     1      -4.739  47.396 -21.289  1.00  0.00     0.011 C 
HETATM   25  C32 UNL     1      -4.449  48.811 -21.863  1.00  0.00    -0.032 C 
HETATM   26  C33 UNL     1      -5.133  49.828 -20.900  1.00  0.00     0.016 C 
HETATM   27  C34 UNL     1      -1.141  50.952 -22.517  1.00  0.00     0.006 C 
ENDROOT
BRANCH  18  28
HETATM   28  O1  UNL     1      -9.503  45.617 -25.071  1.00  0.00    -0.315 OA
BRANCH  28  29
HETATM   29  C21 UNL     1     -10.141  46.101 -26.170  1.00  0.00     0.259 C 
HETATM   30  O2  UNL     1      -9.830  45.887 -27.333  1.00  0.00    -0.265 OA
BRANCH  29  31
HETATM   31  C22 UNL     1     -11.292  46.988 -25.760  1.00  0.00     0.115 C 
BRANCH  31  32
HETATM   32  C23 UNL     1     -12.484  46.915 -26.723  1.00  0.00    -0.013 C 
HETATM   33  C24 UNL     1     -13.790  46.817 -25.934  1.00  0.00     0.010 C 
HETATM   34  C25 UNL     1     -12.529  48.132 -27.650  1.00  0.00     0.010 C 
ENDBRANCH  31  32
ENDBRANCH  29  31
ENDBRANCH  28  29
ENDBRANCH  18  28
BRANCH   1  35
HETATM   35  C2  UNL     1      -0.523  52.361 -24.568  1.00  0.00    -0.032 C 
HETATM   36  C1  UNL     1       0.611  52.051 -25.213  1.00  0.00     0.007 C 
ENDBRANCH   1  35
TORSDOF 5
ENDMDL
MODEL 7
REMARK minimizedAffinity -8.26703262
REMARK  5 active torsions:
REMARK  status: ('A' for Active; 'I' for Inactive)
REMARK    1  A    between atoms: C2_2  and  C3_3 
REMARK    2  A    between atoms: C20_20  and  O1_21 
REMARK    3  A    between atoms: O1_21  and  C21_22 
REMARK    4  A    between atoms: C21_22  and  C22_24 
REMARK    5  A    between atoms: C22_24  and  C23_25 
ROOT
HETATM    1  C3  UNL     1      -2.836  49.056 -22.886  1.00  0.00     0.012 C 
HETATM    2  C4  UNL     1      -2.994  49.496 -24.365  1.00  0.00     0.009 C 
HETATM    3  C5  UNL     1      -2.148  50.768 -24.543  1.00  0.00     0.010 C 
HETATM    4  C6  UNL     1      -1.958  51.301 -23.117  1.00  0.00    -0.039 C 
HETATM    5  C7  UNL     1      -3.242  52.066 -22.704  1.00  0.00     0.015 C 
HETATM    6  C8  UNL     1      -0.738  52.212 -22.939  1.00  0.00     0.010 C 
HETATM    7  C9  UNL     1      -0.447  52.483 -21.449  1.00  0.00     0.011 C 
HETATM    8  C10 UNL     1      -0.328  51.196 -20.554  1.00  0.00    -0.032 C 
HETATM    9  C11 UNL     1       1.016  50.518 -20.993  1.00  0.00     0.016 C 
HETATM   10  C12 UNL     1      -1.547  50.224 -20.842  1.00  0.00    -0.000 C 
HETATM   11  C13 UNL     1      -1.444  48.940 -20.011  1.00  0.00     0.006 C 
HETATM   12  C14 UNL     1      -1.316  49.207 -18.509  1.00  0.00     0.006 C 
HETATM   13  C15 UNL     1      -0.182  50.193 -18.147  1.00  0.00     0.003 C 
HETATM   14  C16 UNL     1       0.108  50.331 -16.583  1.00  0.00    -0.035 C 
HETATM   15  C17 UNL     1      -1.136  50.824 -15.804  1.00  0.00     0.016 C 
HETATM   16  C18 UNL     1       0.486  48.927 -16.018  1.00  0.00     0.012 C 
HETATM   17  C19 UNL     1       1.077  48.952 -14.610  1.00  0.00     0.034 C 
HETATM   18  C20 UNL     1       2.284  49.879 -14.493  1.00  0.00     0.140 C 
HETATM   19  C26 UNL     1       1.996  51.334 -14.978  1.00  0.00    -0.017 C 
HETATM   20  C27 UNL     1       3.361  52.076 -15.039  1.00  0.00     0.018 C 
HETATM   21  C28 UNL     1       1.138  52.113 -13.959  1.00  0.00     0.018 C 
HETATM   22  C29 UNL     1       1.368  51.263 -16.421  1.00  0.00     0.004 C 
HETATM   23  C30 UNL     1       1.141  52.630 -17.098  1.00  0.00     0.007 C 
HETATM   24  C31 UNL     1       0.882  52.471 -18.599  1.00  0.00     0.011 C 
HETATM   25  C32 UNL     1      -0.311  51.544 -18.963  1.00  0.00    -0.032 C 
HETATM   26  C33 UNL     1      -1.608  52.318 -18.576  1.00  0.00     0.016 C 
HETATM   27  C34 UNL     1      -1.713  49.974 -22.358  1.00  0.00     0.006 C 
ENDROOT
BRANCH  18  28
HETATM   28  O1  UNL     1       2.668  49.876 -13.100  1.00  0.00    -0.315 OA
BRANCH  28  29
HETATM   29  C21 UNL     1       3.997  49.906 -12.810  1.00  0.00     0.259 C 
HETATM   30  O2  UNL     1       4.901  49.547 -13.551  1.00  0.00    -0.265 OA
BRANCH  29  31
HETATM   31  C22 UNL     1       4.216  50.424 -11.409  1.00  0.00     0.115 C 
BRANCH  31  32
HETATM   32  C23 UNL     1       2.993  51.148 -10.834  1.00  0.00    -0.013 C 
HETATM   33  C24 UNL     1       2.375  50.320  -9.707  1.00  0.00     0.010 C 
HETATM   34  C25 UNL     1       3.360  52.540 -10.312  1.00  0.00     0.010 C 
ENDBRANCH  31  32
ENDBRANCH  29  31
ENDBRANCH  28  29
ENDBRANCH  18  28
BRANCH   1  35
HETATM   35  C2  UNL     1      -2.529  47.584 -22.802  1.00  0.00    -0.032 C 
HETATM   36  C1  UNL     1      -2.672  46.848 -21.690  1.00  0.00     0.007 C 
ENDBRANCH   1  35
TORSDOF 5
ENDMDL
MODEL 8
REMARK minimizedAffinity -8.25893593
REMARK  5 active torsions:
REMARK  status: ('A' for Active; 'I' for Inactive)
REMARK    1  A    between atoms: C2_2  and  C3_3 
REMARK    2  A    between atoms: C20_20  and  O1_21 
REMARK    3  A    between atoms: O1_21  and  C21_22 
REMARK    4  A    between atoms: C21_22  and  C22_24 
REMARK    5  A    between atoms: C22_24  and  C23_25 
ROOT
HETATM    1  C3  UNL     1       0.232  53.092 -22.398  1.00  0.00     0.012 C 
HETATM    2  C4  UNL     1       1.497  53.431 -21.565  1.00  0.00     0.009 C 
HETATM    3  C5  UNL     1       1.473  52.513 -20.330  1.00  0.00     0.010 C 
HETATM    4  C6  UNL     1       0.010  52.067 -20.216  1.00  0.00    -0.039 C 
HETATM    5  C7  UNL     1      -0.798  53.204 -19.538  1.00  0.00     0.015 C 
HETATM    6  C8  UNL     1      -0.195  50.760 -19.442  1.00  0.00     0.010 C 
HETATM    7  C9  UNL     1      -1.633  50.226 -19.601  1.00  0.00     0.011 C 
HETATM    8  C10 UNL     1      -2.125  50.088 -21.088  1.00  0.00    -0.032 C 
HETATM    9  C11 UNL     1      -1.305  48.888 -21.677  1.00  0.00     0.016 C 
HETATM   10  C12 UNL     1      -1.801  51.415 -21.891  1.00  0.00    -0.000 C 
HETATM   11  C13 UNL     1      -2.235  51.301 -23.356  1.00  0.00     0.006 C 
HETATM   12  C14 UNL     1      -3.711  50.927 -23.515  1.00  0.00     0.006 C 
HETATM   13  C15 UNL     1      -4.125  49.670 -22.715  1.00  0.00     0.003 C 
HETATM   14  C16 UNL     1      -5.598  49.140 -23.023  1.00  0.00    -0.035 C 
HETATM   15  C17 UNL     1      -6.676  50.205 -22.708  1.00  0.00     0.016 C 
HETATM   16  C18 UNL     1      -5.704  48.804 -24.543  1.00  0.00     0.012 C 
HETATM   17  C19 UNL     1      -6.949  48.010 -24.929  1.00  0.00     0.034 C 
HETATM   18  C20 UNL     1      -7.101  46.723 -24.122  1.00  0.00     0.140 C 
HETATM   19  C26 UNL     1      -7.071  46.953 -22.579  1.00  0.00    -0.017 C 
HETATM   20  C27 UNL     1      -6.980  45.553 -21.909  1.00  0.00     0.018 C 
HETATM   21  C28 UNL     1      -8.387  47.578 -22.072  1.00  0.00     0.018 C 
HETATM   22  C29 UNL     1      -5.787  47.793 -22.226  1.00  0.00     0.004 C 
HETATM   23  C30 UNL     1      -5.540  47.999 -20.718  1.00  0.00     0.007 C 
HETATM   24  C31 UNL     1      -4.115  48.492 -20.449  1.00  0.00     0.011 C 
HETATM   25  C32 UNL     1      -3.726  49.803 -21.189  1.00  0.00    -0.032 C 
HETATM   26  C33 UNL     1      -4.514  50.954 -20.495  1.00  0.00     0.016 C 
HETATM   27  C34 UNL     1      -0.322  51.827 -21.709  1.00  0.00     0.006 C 
ENDROOT
BRANCH  18  28
HETATM   28  O1  UNL     1      -8.360  46.136 -24.523  1.00  0.00    -0.315 OA
BRANCH  28  29
HETATM   29  C21 UNL     1      -8.319  45.030 -25.313  1.00  0.00     0.259 C 
HETATM   30  O2  UNL     1      -7.968  43.911 -24.964  1.00  0.00    -0.265 OA
BRANCH  29  31
HETATM   31  C22 UNL     1      -8.742  45.375 -26.721  1.00  0.00     0.115 C 
BRANCH  31  32
HETATM   32  C23 UNL     1      -7.636  45.143 -27.758  1.00  0.00    -0.013 C 
HETATM   33  C24 UNL     1      -8.139  44.213 -28.861  1.00  0.00     0.010 C 
HETATM   34  C25 UNL     1      -7.158  46.462 -28.371  1.00  0.00     0.010 C 
ENDBRANCH  31  32
ENDBRANCH  29  31
ENDBRANCH  28  29
ENDBRANCH  18  28
BRANCH   1  35
HETATM   35  C2  UNL     1       0.591  52.905 -23.849  1.00  0.00    -0.032 C 
HETATM   36  C1  UNL     1       0.194  53.724 -24.833  1.00  0.00     0.007 C 
ENDBRANCH   1  35
TORSDOF 5
ENDMDL
MODEL 9
REMARK minimizedAffinity -8.04247093
REMARK  5 active torsions:
REMARK  status: ('A' for Active; 'I' for Inactive)
REMARK    1  A    between atoms: C2_2  and  C3_3 
REMARK    2  A    between atoms: C20_20  and  O1_21 
REMARK    3  A    between atoms: O1_21  and  C21_22 
REMARK    4  A    between atoms: C21_22  and  C22_24 
REMARK    5  A    between atoms: C22_24  and  C23_25 
ROOT
HETATM    1  C3  UNL     1      -0.524  52.219 -23.020  1.00  0.00     0.012 C 
HETATM    2  C4  UNL     1       0.784  52.499 -22.234  1.00  0.00     0.009 C 
HETATM    3  C5  UNL     1       0.821  51.502 -21.064  1.00  0.00     0.010 C 
HETATM    4  C6  UNL     1      -0.637  51.051 -20.902  1.00  0.00    -0.039 C 
HETATM    5  C7  UNL     1      -1.402  52.142 -20.109  1.00  0.00     0.015 C 
HETATM    6  C8  UNL     1      -0.807  49.696 -20.206  1.00  0.00     0.010 C 
HETATM    7  C9  UNL     1      -2.255  49.177 -20.324  1.00  0.00     0.011 C 
HETATM    8  C10 UNL     1      -2.825  49.138 -21.788  1.00  0.00    -0.032 C 
HETATM    9  C11 UNL     1      -2.044  47.979 -22.498  1.00  0.00     0.016 C 
HETATM   10  C12 UNL     1      -2.536  50.515 -22.518  1.00  0.00    -0.000 C 
HETATM   11  C13 UNL     1      -3.048  50.499 -23.963  1.00  0.00     0.006 C 
HETATM   12  C14 UNL     1      -4.532  50.139 -24.068  1.00  0.00     0.006 C 
HETATM   13  C15 UNL     1      -4.910  48.833 -23.332  1.00  0.00     0.003 C 
HETATM   14  C16 UNL     1      -6.400  48.326 -23.596  1.00  0.00    -0.035 C 
HETATM   15  C17 UNL     1      -7.454  49.370 -23.155  1.00  0.00     0.016 C 
HETATM   16  C18 UNL     1      -6.587  48.092 -25.127  1.00  0.00     0.012 C 
HETATM   17  C19 UNL     1      -7.855  47.328 -25.499  1.00  0.00     0.034 C 
HETATM   18  C20 UNL     1      -7.972  45.990 -24.771  1.00  0.00     0.140 C 
HETATM   19  C26 UNL     1      -7.859  46.117 -23.220  1.00  0.00    -0.017 C 
HETATM   20  C27 UNL     1      -7.740  44.676 -22.650  1.00  0.00     0.018 C 
HETATM   21  C28 UNL     1      -9.143  46.710 -22.605  1.00  0.00     0.018 C 
HETATM   22  C29 UNL     1      -6.553  46.930 -22.881  1.00  0.00     0.004 C 
HETATM   23  C30 UNL     1      -6.227  47.036 -21.378  1.00  0.00     0.007 C 
HETATM   24  C31 UNL     1      -4.787  47.507 -21.152  1.00  0.00     0.011 C 
HETATM   25  C32 UNL     1      -4.430  48.863 -21.824  1.00  0.00    -0.032 C 
HETATM   26  C33 UNL     1      -5.175  49.968 -21.014  1.00  0.00     0.016 C 
HETATM   27  C34 UNL     1      -1.048  50.911 -22.388  1.00  0.00     0.006 C 
ENDROOT
BRANCH  18  28
HETATM   28  O1  UNL     1      -9.252  45.434 -25.143  1.00  0.00    -0.315 OA
BRANCH  28  29
HETATM   29  C21 UNL     1      -9.308  44.669 -26.266  1.00  0.00     0.259 C 
HETATM   30  O2  UNL     1      -9.895  44.954 -27.301  1.00  0.00    -0.265 OA
BRANCH  29  31
HETATM   31  C22 UNL     1      -8.560  43.374 -26.056  1.00  0.00     0.115 C 
BRANCH  31  32
HETATM   32  C23 UNL     1      -9.304  42.387 -25.149  1.00  0.00    -0.013 C 
HETATM   33  C24 UNL     1     -10.267  41.537 -25.977  1.00  0.00     0.010 C 
HETATM   34  C25 UNL     1      -8.331  41.478 -24.393  1.00  0.00     0.010 C 
ENDBRANCH  31  32
ENDBRANCH  29  31
ENDBRANCH  28  29
ENDBRANCH  18  28
BRANCH   1  35
HETATM   35  C2  UNL     1      -0.243  52.127 -24.497  1.00  0.00    -0.032 C 
HETATM   36  C1  UNL     1       0.947  52.392 -25.054  1.00  0.00     0.007 C 
ENDBRANCH   1  35
TORSDOF 5
ENDMDL
