MODEL 1
REMARK minimizedAffinity -5.9479003
REMARK CNNscore 0.529539526
REMARK CNNaffinity 6.22024012
REMARK  18 active torsions:
REMARK  status: ('A' for Active; 'I' for Inactive)
REMARK    1  A    between atoms: C2_2  and  C3_3 
REMARK    2  A    between atoms: C2_2  and  C27_33 
REMARK    3  A    between atoms: C4_4  and  C5_5 
REMARK    4  A    between atoms: C6_6  and  C7_7 
REMARK    5  A    between atoms: C6_6  and  C10_12 
REMARK    6  A    between atoms: C7_7  and  O1_8 
REMARK    7  A    between atoms: O1_8  and  C8_9 
REMARK    8  A    between atoms: C8_9  and  C9_10 
REMARK    9  A    between atoms: C9_10  and  O2_11 
REMARK   10  A    between atoms: C14_16  and  O3_17 
REMARK   11  A    between atoms: C15_18  and  C16_19 
REMARK   12  A    between atoms: C16_19  and  C17_20 
REMARK   13  A    between atoms: C17_20  and  C18_21 
REMARK   14  A    between atoms: C18_21  and  O4_22 
REMARK   15  A    between atoms: C20_24  and  C22_26 
REMARK   16  A    between atoms: C25_30  and  O6_32 
REMARK   17  A    between atoms: C27_33  and  C28_34 
REMARK   18  A    between atoms: C28_34  and  C29_35 
ROOT
HETATM    1  C10 UNL     1     -15.322  -4.011  13.389  1.00  0.00     0.046 C 
HETATM    2  C11 UNL     1     -16.623  -4.356  12.651  1.00  0.00     0.013 C 
HETATM    3  C12 UNL     1     -17.612  -3.363  13.248  1.00  0.00     0.017 C 
HETATM    4  C13 UNL     1     -16.859  -1.997  13.269  1.00  0.00     0.024 C 
HETATM    5  C14 UNL     1     -15.433  -2.484  13.717  1.00  0.00     0.138 C 
HETATM    6  C15 UNL     1     -17.478  -0.977  14.323  1.00  0.00     0.029 C 
HETATM    7  C19 UNL     1     -16.694   0.351  14.236  1.00  0.00    -0.066 C 
HETATM    8  C20 UNL     1     -15.785   0.885  15.088  1.00  0.00    -0.021 C 
HETATM    9  C21 UNL     1     -15.032   2.168  14.868  1.00  0.00     0.052 C 
HETATM   10  C23 UNL     1     -16.972   1.020  12.906  1.00  0.00     0.038 C 
HETATM   11  C24 UNL     1     -16.353   0.156  11.817  1.00  0.00     0.042 C 
HETATM   12  C25 UNL     1     -16.879  -1.304  11.816  1.00  0.00     0.065 C 
HETATM   13  C26 UNL     1     -18.288  -1.288  11.177  1.00  0.00     0.047 C 
ENDROOT
BRANCH   1  14
HETATM   14  C6  UNL     1     -13.989  -4.513  12.841  1.00  0.00    -0.050 C 
HETATM   15  C5  UNL     1     -13.790  -4.822  11.540  1.00  0.00     0.005 C 
BRANCH  15  16
HETATM   16  C4  UNL     1     -14.751  -4.676  10.462  1.00  0.00     0.001 C 
HETATM   17  C3  UNL     1     -14.922  -5.598   9.500  1.00  0.00     0.006 C 
BRANCH  17  18
HETATM   18  C2  UNL     1     -15.827  -5.496   8.360  1.00  0.00    -0.067 C 
HETATM   19  C1  UNL     1     -17.106  -5.882   8.498  1.00  0.00     0.019 C 
BRANCH  18  20
HETATM   20  C27 UNL     1     -15.327  -5.014   7.008  1.00  0.00     0.041 C 
BRANCH  20  21
HETATM   21  C28 UNL     1     -13.802  -5.117   6.828  1.00  0.00     0.032 C 
BRANCH  21  22
HETATM   22  C29 UNL     1     -13.325  -4.420   5.584  1.00  0.00    -0.024 C 
HETATM   23  C30 UNL     1     -12.648  -4.948   4.547  1.00  0.00    -0.091 C 
HETATM   24  C31 UNL     1     -12.198  -6.379   4.447  1.00  0.00     0.042 C 
HETATM   25  C32 UNL     1     -12.274  -4.094   3.362  1.00  0.00     0.042 C 
ENDBRANCH  21  22
ENDBRANCH  20  21
ENDBRANCH  18  20
ENDBRANCH  17  18
ENDBRANCH  15  16
BRANCH  14  26
HETATM   26  C7  UNL     1     -12.852  -4.693  13.825  1.00  0.00     0.202 C 
BRANCH  26  27
HETATM   27  O1  UNL     1     -13.352  -5.233  15.044  1.00  0.00    -0.385 OA
BRANCH  27  28
HETATM   28  C8  UNL     1     -13.588  -6.642  15.035  1.00  0.00     0.194 C 
BRANCH  28  29
HETATM   29  C9  UNL     1     -14.230  -7.140  16.331  1.00  0.00     0.190 C 
BRANCH  29  30
HETATM   30  O2  UNL     1     -14.212  -6.113  17.320  1.00  0.00    -0.399 OA
HETATM   31  H12 UNL     1     -14.223  -6.546  18.191  1.00  0.00     0.209 HD
ENDBRANCH  29  30
ENDBRANCH  28  29
ENDBRANCH  27  28
ENDBRANCH  26  27
ENDBRANCH  14  26
ENDBRANCH   1  14
BRANCH   5  32
HETATM   32  O3  UNL     1     -14.371  -1.675  13.233  1.00  0.00    -0.394 OA
HETATM   33  H19 UNL     1     -13.536  -2.138  13.421  1.00  0.00     0.210 HD
ENDBRANCH   5  32
BRANCH   6  34
HETATM   34  C16 UNL     1     -17.760  -1.531  15.746  1.00  0.00     0.012 C 
BRANCH  34  35
HETATM   35  C17 UNL     1     -16.691  -2.527  16.233  1.00  0.00     0.027 C 
BRANCH  35  36
HETATM   36  C18 UNL     1     -16.797  -2.809  17.728  1.00  0.00     0.164 C 
BRANCH  36  37
HETATM   37  O4  UNL     1     -16.271  -4.093  18.043  1.00  0.00    -0.401 OA
HETATM   38  H27 UNL     1     -15.302  -4.025  18.005  1.00  0.00     0.209 HD
ENDBRANCH  36  37
ENDBRANCH  35  36
ENDBRANCH  34  35
ENDBRANCH   6  34
BRANCH  12  39
HETATM   39  O6  UNL     1     -16.066  -2.040  10.891  1.00  0.00    -0.389 OA
HETATM   40  H39 UNL     1     -15.981  -1.520  10.075  1.00  0.00     0.210 HD
ENDBRANCH  12  39
BRANCH   8  41
HETATM   41  C22 UNL     1     -15.298   0.166  16.289  1.00  0.00     0.265 C 
HETATM   42  O5  UNL     1     -15.414   0.609  17.425  1.00  0.00    -0.302 OA
ENDBRANCH   8  41
TORSDOF 18
ENDMDL
MODEL 2
REMARK minimizedAffinity -6.26273155
REMARK CNNscore 0.502482891
REMARK CNNaffinity 6.69788218
REMARK  18 active torsions:
REMARK  status: ('A' for Active; 'I' for Inactive)
REMARK    1  A    between atoms: C2_2  and  C3_3 
REMARK    2  A    between atoms: C2_2  and  C27_33 
REMARK    3  A    between atoms: C4_4  and  C5_5 
REMARK    4  A    between atoms: C6_6  and  C7_7 
REMARK    5  A    between atoms: C6_6  and  C10_12 
REMARK    6  A    between atoms: C7_7  and  O1_8 
REMARK    7  A    between atoms: O1_8  and  C8_9 
REMARK    8  A    between atoms: C8_9  and  C9_10 
REMARK    9  A    between atoms: C9_10  and  O2_11 
REMARK   10  A    between atoms: C14_16  and  O3_17 
REMARK   11  A    between atoms: C15_18  and  C16_19 
REMARK   12  A    between atoms: C16_19  and  C17_20 
REMARK   13  A    between atoms: C17_20  and  C18_21 
REMARK   14  A    between atoms: C18_21  and  O4_22 
REMARK   15  A    between atoms: C20_24  and  C22_26 
REMARK   16  A    between atoms: C25_30  and  O6_32 
REMARK   17  A    between atoms: C27_33  and  C28_34 
REMARK   18  A    between atoms: C28_34  and  C29_35 
ROOT
HETATM    1  C10 UNL     1      -1.855   7.513  12.987  1.00  0.00     0.046 C 
HETATM    2  C11 UNL     1      -0.707   8.142  12.187  1.00  0.00     0.013 C 
HETATM    3  C12 UNL     1      -0.654   9.558  12.746  1.00  0.00     0.017 C 
HETATM    4  C13 UNL     1      -0.762   9.393  14.293  1.00  0.00     0.024 C 
HETATM    5  C14 UNL     1      -1.845   8.256  14.366  1.00  0.00     0.138 C 
HETATM    6  C15 UNL     1      -1.268  10.720  15.013  1.00  0.00     0.029 C 
HETATM    7  C19 UNL     1      -1.299  10.468  16.536  1.00  0.00    -0.066 C 
HETATM    8  C20 UNL     1      -2.353  10.277  17.368  1.00  0.00    -0.021 C 
HETATM    9  C21 UNL     1      -2.259   9.975  18.838  1.00  0.00     0.052 C 
HETATM   10  C23 UNL     1       0.115  10.314  17.055  1.00  0.00     0.038 C 
HETATM   11  C24 UNL     1       0.679   9.022  16.480  1.00  0.00     0.042 C 
HETATM   12  C25 UNL     1       0.657   8.977  14.929  1.00  0.00     0.065 C 
HETATM   13  C26 UNL     1       1.824   9.859  14.424  1.00  0.00     0.047 C 
ENDROOT
BRANCH   1  14
HETATM   14  C6  UNL     1      -2.015   5.996  13.013  1.00  0.00    -0.050 C 
HETATM   15  C5  UNL     1      -1.020   5.139  12.685  1.00  0.00     0.005 C 
BRANCH  15  16
HETATM   16  C4  UNL     1       0.340   5.494  12.328  1.00  0.00     0.001 C 
HETATM   17  C3  UNL     1       0.945   5.057  11.210  1.00  0.00     0.006 C 
BRANCH  17  18
HETATM   18  C2  UNL     1       2.323   5.327  10.814  1.00  0.00    -0.067 C 
HETATM   19  C1  UNL     1       2.939   4.490   9.963  1.00  0.00     0.019 C 
BRANCH  18  20
HETATM   20  C27 UNL     1       3.085   6.507  11.395  1.00  0.00     0.041 C 
BRANCH  20  21
HETATM   21  C28 UNL     1       3.174   7.723  10.455  1.00  0.00     0.032 C 
BRANCH  21  22
HETATM   22  C29 UNL     1       1.821   8.176   9.979  1.00  0.00    -0.024 C 
HETATM   23  C30 UNL     1       1.273   8.007   8.761  1.00  0.00    -0.091 C 
HETATM   24  C31 UNL     1       1.945   7.334   7.595  1.00  0.00     0.042 C 
HETATM   25  C32 UNL     1      -0.118   8.509   8.471  1.00  0.00     0.042 C 
ENDBRANCH  21  22
ENDBRANCH  20  21
ENDBRANCH  18  20
ENDBRANCH  17  18
ENDBRANCH  15  16
BRANCH  14  26
HETATM   26  C7  UNL     1      -3.369   5.440  13.401  1.00  0.00     0.202 C 
BRANCH  26  27
HETATM   27  O1  UNL     1      -3.999   4.870  12.259  1.00  0.00    -0.385 OA
BRANCH  27  28
HETATM   28  C8  UNL     1      -4.359   3.493  12.386  1.00  0.00     0.194 C 
BRANCH  28  29
HETATM   29  C9  UNL     1      -5.540   3.109  11.493  1.00  0.00     0.190 C 
BRANCH  29  30
HETATM   30  O2  UNL     1      -5.295   1.855  10.861  1.00  0.00    -0.399 OA
HETATM   31  H12 UNL     1      -5.810   1.837  10.036  1.00  0.00     0.209 HD
ENDBRANCH  29  30
ENDBRANCH  28  29
ENDBRANCH  27  28
ENDBRANCH  26  27
ENDBRANCH  14  26
ENDBRANCH   1  14
BRANCH   5  32
HETATM   32  O3  UNL     1      -1.726   7.422  15.510  1.00  0.00    -0.394 OA
HETATM   33  H19 UNL     1      -2.324   6.664  15.387  1.00  0.00     0.210 HD
ENDBRANCH   5  32
BRANCH   6  34
HETATM   34  C16 UNL     1      -2.511  11.417  14.394  1.00  0.00     0.012 C 
BRANCH  34  35
HETATM   35  C17 UNL     1      -2.563  12.930  14.679  1.00  0.00     0.027 C 
BRANCH  35  36
HETATM   36  C18 UNL     1      -1.229  13.618  14.411  1.00  0.00     0.164 C 
BRANCH  36  37
HETATM   37  O4  UNL     1      -1.175  14.125  13.082  1.00  0.00    -0.401 OA
HETATM   38  H27 UNL     1      -1.727  14.925  13.055  1.00  0.00     0.209 HD
ENDBRANCH  36  37
ENDBRANCH  35  36
ENDBRANCH  34  35
ENDBRANCH   6  34
BRANCH  12  39
HETATM   39  O6  UNL     1       1.014   7.642  14.544  1.00  0.00    -0.389 OA
HETATM   40  H39 UNL     1       1.793   7.373  15.060  1.00  0.00     0.210 HD
ENDBRANCH  12  39
BRANCH   8  41
HETATM   41  C22 UNL     1      -3.749  10.183  16.880  1.00  0.00     0.265 C 
HETATM   42  O5  UNL     1      -4.212   9.170  16.373  1.00  0.00    -0.302 OA
ENDBRANCH   8  41
TORSDOF 18
ENDMDL
MODEL 3
REMARK minimizedAffinity -6.51697493
REMARK CNNscore 0.47030744
REMARK CNNaffinity 6.83140326
REMARK  18 active torsions:
REMARK  status: ('A' for Active; 'I' for Inactive)
REMARK    1  A    between atoms: C2_2  and  C3_3 
REMARK    2  A    between atoms: C2_2  and  C27_33 
REMARK    3  A    between atoms: C4_4  and  C5_5 
REMARK    4  A    between atoms: C6_6  and  C7_7 
REMARK    5  A    between atoms: C6_6  and  C10_12 
REMARK    6  A    between atoms: C7_7  and  O1_8 
REMARK    7  A    between atoms: O1_8  and  C8_9 
REMARK    8  A    between atoms: C8_9  and  C9_10 
REMARK    9  A    between atoms: C9_10  and  O2_11 
REMARK   10  A    between atoms: C14_16  and  O3_17 
REMARK   11  A    between atoms: C15_18  and  C16_19 
REMARK   12  A    between atoms: C16_19  and  C17_20 
REMARK   13  A    between atoms: C17_20  and  C18_21 
REMARK   14  A    between atoms: C18_21  and  O4_22 
REMARK   15  A    between atoms: C20_24  and  C22_26 
REMARK   16  A    between atoms: C25_30  and  O6_32 
REMARK   17  A    between atoms: C27_33  and  C28_34 
REMARK   18  A    between atoms: C28_34  and  C29_35 
ROOT
HETATM    1  C10 UNL     1      -0.370   8.659  13.665  1.00  0.00     0.046 C 
HETATM    2  C11 UNL     1      -1.702   8.106  13.142  1.00  0.00     0.013 C 
HETATM    3  C12 UNL     1      -1.365   7.747  11.701  1.00  0.00     0.017 C 
HETATM    4  C13 UNL     1       0.012   7.017  11.770  1.00  0.00     0.024 C 
HETATM    5  C14 UNL     1       0.734   7.908  12.845  1.00  0.00     0.138 C 
HETATM    6  C15 UNL     1       0.787   7.047  10.380  1.00  0.00     0.029 C 
HETATM    7  C19 UNL     1       2.110   6.266  10.542  1.00  0.00    -0.066 C 
HETATM    8  C20 UNL     1       3.385   6.718  10.631  1.00  0.00    -0.021 C 
HETATM    9  C21 UNL     1       4.600   5.860  10.851  1.00  0.00     0.052 C 
HETATM   10  C23 UNL     1       1.810   4.794  10.736  1.00  0.00     0.038 C 
HETATM   11  C24 UNL     1       1.124   4.638  12.086  1.00  0.00     0.042 C 
HETATM   12  C25 UNL     1      -0.171   5.482  12.219  1.00  0.00     0.065 C 
HETATM   13  C26 UNL     1      -1.283   4.752  11.428  1.00  0.00     0.047 C 
ENDROOT
BRANCH   1  14
HETATM   14  C6  UNL     1      -0.149   8.799  15.168  1.00  0.00    -0.050 C 
HETATM   15  C5  UNL     1      -1.069   8.437  16.091  1.00  0.00     0.005 C 
BRANCH  15  16
HETATM   16  C4  UNL     1      -2.354   7.816  15.829  1.00  0.00     0.001 C 
HETATM   17  C3  UNL     1      -3.486   8.518  15.646  1.00  0.00     0.006 C 
BRANCH  17  18
HETATM   18  C2  UNL     1      -4.819   7.964  15.433  1.00  0.00    -0.067 C 
HETATM   19  C1  UNL     1      -5.885   8.780  15.466  1.00  0.00     0.019 C 
BRANCH  18  20
HETATM   20  C27 UNL     1      -5.019   6.470  15.232  1.00  0.00     0.041 C 
BRANCH  20  21
HETATM   21  C28 UNL     1      -6.475   6.002  15.407  1.00  0.00     0.032 C 
BRANCH  21  22
HETATM   22  C29 UNL     1      -7.230   5.992  14.106  1.00  0.00    -0.024 C 
HETATM   23  C30 UNL     1      -7.663   4.925  13.409  1.00  0.00    -0.091 C 
HETATM   24  C31 UNL     1      -7.442   3.490  13.797  1.00  0.00     0.042 C 
HETATM   25  C32 UNL     1      -8.435   5.110  12.127  1.00  0.00     0.042 C 
ENDBRANCH  21  22
ENDBRANCH  20  21
ENDBRANCH  18  20
ENDBRANCH  17  18
ENDBRANCH  15  16
BRANCH  14  26
HETATM   26  C7  UNL     1       1.163   9.399  15.631  1.00  0.00     0.202 C 
BRANCH  26  27
HETATM   27  O1  UNL     1       1.190  10.788  15.321  1.00  0.00    -0.385 OA
BRANCH  27  28
HETATM   28  C8  UNL     1       2.399  11.466  15.668  1.00  0.00     0.194 C 
BRANCH  28  29
HETATM   29  C9  UNL     1       2.857  11.163  17.095  1.00  0.00     0.190 C 
BRANCH  29  30
HETATM   30  O2  UNL     1       4.142  10.548  17.083  1.00  0.00    -0.399 OA
HETATM   31  H12 UNL     1       4.218  10.012  17.892  1.00  0.00     0.209 HD
ENDBRANCH  29  30
ENDBRANCH  28  29
ENDBRANCH  27  28
ENDBRANCH  26  27
ENDBRANCH  14  26
ENDBRANCH   1  14
BRANCH   5  32
HETATM   32  O3  UNL     1       1.700   7.209  13.616  1.00  0.00    -0.394 OA
HETATM   33  H19 UNL     1       1.970   7.789  14.349  1.00  0.00     0.210 HD
ENDBRANCH   5  32
BRANCH   6  34
HETATM   34  C16 UNL     1       0.870   8.420   9.658  1.00  0.00     0.012 C 
BRANCH  34  35
HETATM   35  C17 UNL     1       0.650   8.321   8.137  1.00  0.00     0.027 C 
BRANCH  35  36
HETATM   36  C18 UNL     1       1.908   7.883   7.395  1.00  0.00     0.164 C 
BRANCH  36  37
HETATM   37  O4  UNL     1       2.917   8.883   7.471  1.00  0.00    -0.401 OA
HETATM   38  H27 UNL     1       3.292   8.848   8.368  1.00  0.00     0.209 HD
ENDBRANCH  36  37
ENDBRANCH  35  36
ENDBRANCH  34  35
ENDBRANCH   6  34
BRANCH  12  39
HETATM   39  O6  UNL     1      -0.584   5.400  13.590  1.00  0.00    -0.389 OA
HETATM   40  H39 UNL     1      -0.541   4.470  13.868  1.00  0.00     0.210 HD
ENDBRANCH  12  39
BRANCH   8  41
HETATM   41  C22 UNL     1       3.720   8.160  10.682  1.00  0.00     0.265 C 
HETATM   42  O5  UNL     1       4.810   8.605  10.346  1.00  0.00    -0.302 OA
ENDBRANCH   8  41
TORSDOF 18
ENDMDL
MODEL 4
REMARK minimizedAffinity -5.93167353
REMARK CNNscore 0.464590877
REMARK CNNaffinity 6.2853055
REMARK  18 active torsions:
REMARK  status: ('A' for Active; 'I' for Inactive)
REMARK    1  A    between atoms: C2_2  and  C3_3 
REMARK    2  A    between atoms: C2_2  and  C27_33 
REMARK    3  A    between atoms: C4_4  and  C5_5 
REMARK    4  A    between atoms: C6_6  and  C7_7 
REMARK    5  A    between atoms: C6_6  and  C10_12 
REMARK    6  A    between atoms: C7_7  and  O1_8 
REMARK    7  A    between atoms: O1_8  and  C8_9 
REMARK    8  A    between atoms: C8_9  and  C9_10 
REMARK    9  A    between atoms: C9_10  and  O2_11 
REMARK   10  A    between atoms: C14_16  and  O3_17 
REMARK   11  A    between atoms: C15_18  and  C16_19 
REMARK   12  A    between atoms: C16_19  and  C17_20 
REMARK   13  A    between atoms: C17_20  and  C18_21 
REMARK   14  A    between atoms: C18_21  and  O4_22 
REMARK   15  A    between atoms: C20_24  and  C22_26 
REMARK   16  A    between atoms: C25_30  and  O6_32 
REMARK   17  A    between atoms: C27_33  and  C28_34 
REMARK   18  A    between atoms: C28_34  and  C29_35 
ROOT
HETATM    1  C10 UNL     1     -16.025  -3.270  12.967  1.00  0.00     0.046 C 
HETATM    2  C11 UNL     1     -17.463  -3.457  12.466  1.00  0.00     0.013 C 
HETATM    3  C12 UNL     1     -18.235  -2.436  13.294  1.00  0.00     0.017 C 
HETATM    4  C13 UNL     1     -17.370  -1.139  13.254  1.00  0.00     0.024 C 
HETATM    5  C14 UNL     1     -15.936  -1.768  13.400  1.00  0.00     0.138 C 
HETATM    6  C15 UNL     1     -17.695  -0.154  14.463  1.00  0.00     0.029 C 
HETATM    7  C19 UNL     1     -16.822   1.111  14.310  1.00  0.00    -0.066 C 
HETATM    8  C20 UNL     1     -15.729   1.507  15.008  1.00  0.00    -0.021 C 
HETATM    9  C21 UNL     1     -14.916   2.741  14.727  1.00  0.00     0.052 C 
HETATM   10  C23 UNL     1     -17.274   1.897  13.097  1.00  0.00     0.038 C 
HETATM   11  C24 UNL     1     -16.942   1.070  11.863  1.00  0.00     0.042 C 
HETATM   12  C25 UNL     1     -17.589  -0.340  11.874  1.00  0.00     0.065 C 
HETATM   13  C26 UNL     1     -19.084  -0.167  11.510  1.00  0.00     0.047 C 
ENDROOT
BRANCH   1  14
HETATM   14  C6  UNL     1     -14.864  -3.832  12.153  1.00  0.00    -0.050 C 
HETATM   15  C5  UNL     1     -15.020  -4.423  10.947  1.00  0.00     0.005 C 
BRANCH  15  16
HETATM   16  C4  UNL     1     -16.263  -4.565  10.211  1.00  0.00     0.001 C 
HETATM   17  C3  UNL     1     -16.930  -5.727  10.112  1.00  0.00     0.006 C 
BRANCH  17  18
HETATM   18  C2  UNL     1     -18.152  -5.956   9.348  1.00  0.00    -0.067 C 
HETATM   19  C1  UNL     1     -19.286  -5.340   9.718  1.00  0.00     0.019 C 
BRANCH  18  20
HETATM   20  C27 UNL     1     -18.169  -6.926   8.177  1.00  0.00     0.041 C 
BRANCH  20  21
HETATM   21  C28 UNL     1     -17.431  -6.415   6.926  1.00  0.00     0.032 C 
BRANCH  21  22
HETATM   22  C29 UNL     1     -15.944  -6.620   7.018  1.00  0.00    -0.024 C 
HETATM   23  C30 UNL     1     -14.973  -5.696   6.900  1.00  0.00    -0.091 C 
HETATM   24  C31 UNL     1     -15.197  -4.237   6.614  1.00  0.00     0.042 C 
HETATM   25  C32 UNL     1     -13.524  -6.085   7.050  1.00  0.00     0.042 C 
ENDBRANCH  21  22
ENDBRANCH  20  21
ENDBRANCH  18  20
ENDBRANCH  17  18
ENDBRANCH  15  16
BRANCH  14  26
HETATM   26  C7  UNL     1     -13.477  -3.738  12.755  1.00  0.00     0.202 C 
BRANCH  26  27
HETATM   27  O1  UNL     1     -12.870  -5.026  12.766  1.00  0.00    -0.385 OA
BRANCH  27  28
HETATM   28  C8  UNL     1     -12.048  -5.303  13.900  1.00  0.00     0.194 C 
BRANCH  28  29
HETATM   29  C9  UNL     1     -12.793  -5.131  15.225  1.00  0.00     0.190 C 
BRANCH  29  30
HETATM   30  O2  UNL     1     -11.870  -5.082  16.309  1.00  0.00    -0.399 OA
HETATM   31  H12 UNL     1     -12.338  -5.386  17.106  1.00  0.00     0.209 HD
ENDBRANCH  29  30
ENDBRANCH  28  29
ENDBRANCH  27  28
ENDBRANCH  26  27
ENDBRANCH  14  26
ENDBRANCH   1  14
BRANCH   5  32
HETATM   32  O3  UNL     1     -14.911  -1.011  12.775  1.00  0.00    -0.394 OA
HETATM   33  H19 UNL     1     -14.101  -1.550  12.777  1.00  0.00     0.210 HD
ENDBRANCH   5  32
BRANCH   6  34
HETATM   34  C16 UNL     1     -17.763  -0.789  15.879  1.00  0.00     0.012 C 
BRANCH  34  35
HETATM   35  C17 UNL     1     -16.696  -1.875  16.111  1.00  0.00     0.027 C 
BRANCH  35  36
HETATM   36  C18 UNL     1     -16.745  -2.446  17.525  1.00  0.00     0.164 C 
BRANCH  36  37
HETATM   37  O4  UNL     1     -16.311  -1.482  18.477  1.00  0.00    -0.401 OA
HETATM   38  H27 UNL     1     -17.030  -0.838  18.586  1.00  0.00     0.209 HD
ENDBRANCH  36  37
ENDBRANCH  35  36
ENDBRANCH  34  35
ENDBRANCH   6  34
BRANCH  12  39
HETATM   39  O6  UNL     1     -17.027  -1.067  10.773  1.00  0.00    -0.389 OA
HETATM   40  H39 UNL     1     -17.044  -0.496   9.987  1.00  0.00     0.210 HD
ENDBRANCH  12  39
BRANCH   8  41
HETATM   41  C22 UNL     1     -15.101   0.666  16.053  1.00  0.00     0.265 C 
HETATM   42  O5  UNL     1     -14.978   1.027  17.216  1.00  0.00    -0.302 OA
ENDBRANCH   8  41
TORSDOF 18
ENDMDL
MODEL 5
REMARK minimizedAffinity -6.24417162
REMARK CNNscore 0.457259417
REMARK CNNaffinity 6.23521423
REMARK  18 active torsions:
REMARK  status: ('A' for Active; 'I' for Inactive)
REMARK    1  A    between atoms: C2_2  and  C3_3 
REMARK    2  A    between atoms: C2_2  and  C27_33 
REMARK    3  A    between atoms: C4_4  and  C5_5 
REMARK    4  A    between atoms: C6_6  and  C7_7 
REMARK    5  A    between atoms: C6_6  and  C10_12 
REMARK    6  A    between atoms: C7_7  and  O1_8 
REMARK    7  A    between atoms: O1_8  and  C8_9 
REMARK    8  A    between atoms: C8_9  and  C9_10 
REMARK    9  A    between atoms: C9_10  and  O2_11 
REMARK   10  A    between atoms: C14_16  and  O3_17 
REMARK   11  A    between atoms: C15_18  and  C16_19 
REMARK   12  A    between atoms: C16_19  and  C17_20 
REMARK   13  A    between atoms: C17_20  and  C18_21 
REMARK   14  A    between atoms: C18_21  and  O4_22 
REMARK   15  A    between atoms: C20_24  and  C22_26 
REMARK   16  A    between atoms: C25_30  and  O6_32 
REMARK   17  A    between atoms: C27_33  and  C28_34 
REMARK   18  A    between atoms: C28_34  and  C29_35 
ROOT
HETATM    1  C10 UNL     1       4.328  11.778  17.685  1.00  0.00     0.046 C 
HETATM    2  C11 UNL     1       4.076  13.287  17.560  1.00  0.00     0.013 C 
HETATM    3  C12 UNL     1       3.021  13.533  18.632  1.00  0.00     0.017 C 
HETATM    4  C13 UNL     1       3.518  12.748  19.885  1.00  0.00     0.024 C 
HETATM    5  C14 UNL     1       4.048  11.442  19.189  1.00  0.00     0.138 C 
HETATM    6  C15 UNL     1       2.340  12.422  20.905  1.00  0.00     0.029 C 
HETATM    7  C19 UNL     1       2.939  11.686  22.123  1.00  0.00    -0.066 C 
HETATM    8  C20 UNL     1       2.862  10.379  22.478  1.00  0.00    -0.021 C 
HETATM    9  C21 UNL     1       3.544   9.757  23.665  1.00  0.00     0.052 C 
HETATM   10  C23 UNL     1       3.821  12.635  22.909  1.00  0.00     0.038 C 
HETATM   11  C24 UNL     1       5.031  12.961  22.045  1.00  0.00     0.042 C 
HETATM   12  C25 UNL     1       4.658  13.573  20.668  1.00  0.00     0.065 C 
HETATM   13  C26 UNL     1       4.272  15.052  20.908  1.00  0.00     0.047 C 
ENDROOT
BRANCH   1  14
HETATM   14  C6  UNL     1       5.574  11.167  17.053  1.00  0.00    -0.050 C 
HETATM   15  C5  UNL     1       5.548  10.444  15.910  1.00  0.00     0.005 C 
BRANCH  15  16
HETATM   16  C4  UNL     1       4.387  10.185  15.080  1.00  0.00     0.001 C 
HETATM   17  C3  UNL     1       3.683   9.042  15.135  1.00  0.00     0.006 C 
BRANCH  17  18
HETATM   18  C2  UNL     1       2.541   8.691  14.297  1.00  0.00    -0.067 C 
HETATM   19  C1  UNL     1       2.310   9.390  13.174  1.00  0.00     0.019 C 
BRANCH  18  20
HETATM   20  C27 UNL     1       1.581   7.587  14.708  1.00  0.00     0.041 C 
BRANCH  20  21
HETATM   21  C28 UNL     1       1.439   6.458  13.672  1.00  0.00     0.032 C 
BRANCH  21  22
HETATM   22  C29 UNL     1       0.022   5.966  13.555  1.00  0.00    -0.024 C 
HETATM   23  C30 UNL     1      -0.686   5.745  12.432  1.00  0.00    -0.091 C 
HETATM   24  C31 UNL     1      -0.188   5.982  11.033  1.00  0.00     0.042 C 
HETATM   25  C32 UNL     1      -2.097   5.220  12.508  1.00  0.00     0.042 C 
ENDBRANCH  21  22
ENDBRANCH  20  21
ENDBRANCH  18  20
ENDBRANCH  17  18
ENDBRANCH  15  16
BRANCH  14  26
HETATM   26  C7  UNL     1       6.893  11.367  17.769  1.00  0.00     0.202 C 
BRANCH  26  27
HETATM   27  O1  UNL     1       7.474  10.103  18.069  1.00  0.00    -0.385 OA
BRANCH  27  28
HETATM   28  C8  UNL     1       8.803   9.911  17.582  1.00  0.00     0.194 C 
BRANCH  28  29
HETATM   29  C9  UNL     1       8.886   8.825  16.508  1.00  0.00     0.190 C 
BRANCH  29  30
HETATM   30  O2  UNL     1       8.925   7.534  17.111  1.00  0.00    -0.399 OA
HETATM   31  H12 UNL     1       9.379   6.936  16.492  1.00  0.00     0.209 HD
ENDBRANCH  29  30
ENDBRANCH  28  29
ENDBRANCH  27  28
ENDBRANCH  26  27
ENDBRANCH  14  26
ENDBRANCH   1  14
BRANCH   5  32
HETATM   32  O3  UNL     1       5.115  10.814  19.884  1.00  0.00    -0.394 OA
HETATM   33  H19 UNL     1       5.478  10.121  19.306  1.00  0.00     0.210 HD
ENDBRANCH   5  32
BRANCH   6  34
HETATM   34  C16 UNL     1       1.039  11.828  20.300  1.00  0.00     0.012 C 
BRANCH  34  35
HETATM   35  C17 UNL     1       0.049  12.903  19.814  1.00  0.00     0.027 C 
BRANCH  35  36
HETATM   36  C18 UNL     1      -1.033  12.328  18.905  1.00  0.00     0.164 C 
BRANCH  36  37
HETATM   37  O4  UNL     1      -2.237  13.080  19.009  1.00  0.00    -0.401 OA
HETATM   38  H27 UNL     1      -2.103  13.910  18.521  1.00  0.00     0.209 HD
ENDBRANCH  36  37
ENDBRANCH  35  36
ENDBRANCH  34  35
ENDBRANCH   6  34
BRANCH  12  39
HETATM   39  O6  UNL     1       5.865  13.630  19.895  1.00  0.00    -0.389 OA
HETATM   40  H39 UNL     1       6.569  14.000  20.453  1.00  0.00     0.210 HD
ENDBRANCH  12  39
BRANCH   8  41
HETATM   41  C22 UNL     1       2.211   9.357  21.626  1.00  0.00     0.265 C 
HETATM   42  O5  UNL     1       1.818   8.281  22.057  1.00  0.00    -0.302 OA
ENDBRANCH   8  41
TORSDOF 18
ENDMDL
MODEL 6
REMARK minimizedAffinity -5.78178644
REMARK CNNscore 0.399335325
REMARK CNNaffinity 6.0845089
REMARK  18 active torsions:
REMARK  status: ('A' for Active; 'I' for Inactive)
REMARK    1  A    between atoms: C2_2  and  C3_3 
REMARK    2  A    between atoms: C2_2  and  C27_33 
REMARK    3  A    between atoms: C4_4  and  C5_5 
REMARK    4  A    between atoms: C6_6  and  C7_7 
REMARK    5  A    between atoms: C6_6  and  C10_12 
REMARK    6  A    between atoms: C7_7  and  O1_8 
REMARK    7  A    between atoms: O1_8  and  C8_9 
REMARK    8  A    between atoms: C8_9  and  C9_10 
REMARK    9  A    between atoms: C9_10  and  O2_11 
REMARK   10  A    between atoms: C14_16  and  O3_17 
REMARK   11  A    between atoms: C15_18  and  C16_19 
REMARK   12  A    between atoms: C16_19  and  C17_20 
REMARK   13  A    between atoms: C17_20  and  C18_21 
REMARK   14  A    between atoms: C18_21  and  O4_22 
REMARK   15  A    between atoms: C20_24  and  C22_26 
REMARK   16  A    between atoms: C25_30  and  O6_32 
REMARK   17  A    between atoms: C27_33  and  C28_34 
REMARK   18  A    between atoms: C28_34  and  C29_35 
ROOT
HETATM    1  C10 UNL     1      -2.582  10.061  14.785  1.00  0.00     0.046 C 
HETATM    2  C11 UNL     1      -1.314   9.731  15.585  1.00  0.00     0.013 C 
HETATM    3  C12 UNL     1      -0.955  11.078  16.200  1.00  0.00     0.017 C 
HETATM    4  C13 UNL     1      -2.300  11.655  16.738  1.00  0.00     0.024 C 
HETATM    5  C14 UNL     1      -3.259  11.241  15.563  1.00  0.00     0.138 C 
HETATM    6  C15 UNL     1      -2.255  13.237  16.916  1.00  0.00     0.029 C 
HETATM    7  C19 UNL     1      -3.611  13.702  17.490  1.00  0.00    -0.066 C 
HETATM    8  C20 UNL     1      -4.636  14.355  16.888  1.00  0.00    -0.021 C 
HETATM    9  C21 UNL     1      -5.947  14.705  17.536  1.00  0.00     0.052 C 
HETATM   10  C23 UNL     1      -3.761  13.201  18.911  1.00  0.00     0.038 C 
HETATM   11  C24 UNL     1      -3.887  11.685  18.854  1.00  0.00     0.042 C 
HETATM   12  C25 UNL     1      -2.688  10.994  18.154  1.00  0.00     0.065 C 
HETATM   13  C26 UNL     1      -1.508  10.985  19.156  1.00  0.00     0.047 C 
ENDROOT
BRANCH   1  14
HETATM   14  C6  UNL     1      -3.487   8.930  14.306  1.00  0.00    -0.050 C 
HETATM   15  C5  UNL     1      -3.302   8.276  13.137  1.00  0.00     0.005 C 
BRANCH  15  16
HETATM   16  C4  UNL     1      -2.216   8.482  12.197  1.00  0.00     0.001 C 
HETATM   17  C3  UNL     1      -1.281   7.551  11.939  1.00  0.00     0.006 C 
BRANCH  17  18
HETATM   18  C2  UNL     1      -0.134   7.705  11.051  1.00  0.00    -0.067 C 
HETATM   19  C1  UNL     1      -0.169   8.639  10.086  1.00  0.00     0.019 C 
BRANCH  18  20
HETATM   20  C27 UNL     1       1.071   6.786  11.166  1.00  0.00     0.041 C 
BRANCH  20  21
HETATM   21  C28 UNL     1       2.292   7.245  10.349  1.00  0.00     0.032 C 
BRANCH  21  22
HETATM   22  C29 UNL     1       2.653   6.266   9.265  1.00  0.00    -0.024 C 
HETATM   23  C30 UNL     1       2.438   6.381   7.941  1.00  0.00    -0.091 C 
HETATM   24  C31 UNL     1       1.747   7.537   7.274  1.00  0.00     0.042 C 
HETATM   25  C32 UNL     1       2.897   5.301   6.995  1.00  0.00     0.042 C 
ENDBRANCH  21  22
ENDBRANCH  20  21
ENDBRANCH  18  20
ENDBRANCH  17  18
ENDBRANCH  15  16
BRANCH  14  26
HETATM   26  C7  UNL     1      -4.661   8.553  15.185  1.00  0.00     0.202 C 
BRANCH  26  27
HETATM   27  O1  UNL     1      -5.878   8.930  14.549  1.00  0.00    -0.385 OA
BRANCH  27  28
HETATM   28  C8  UNL     1      -7.051   8.282  15.044  1.00  0.00     0.194 C 
BRANCH  28  29
HETATM   29  C9  UNL     1      -6.735   6.997  15.812  1.00  0.00     0.190 C 
BRANCH  29  30
HETATM   30  O2  UNL     1      -7.212   7.091  17.151  1.00  0.00    -0.399 OA
HETATM   31  H12 UNL     1      -6.666   6.500  17.698  1.00  0.00     0.209 HD
ENDBRANCH  29  30
ENDBRANCH  28  29
ENDBRANCH  27  28
ENDBRANCH  26  27
ENDBRANCH  14  26
ENDBRANCH   1  14
BRANCH   5  32
HETATM   32  O3  UNL     1      -4.600  11.016  15.969  1.00  0.00    -0.394 OA
HETATM   33  H19 UNL     1      -5.073  10.613  15.220  1.00  0.00     0.210 HD
ENDBRANCH   5  32
BRANCH   6  34
HETATM   34  C16 UNL     1      -1.681  14.056  15.727  1.00  0.00     0.012 C 
BRANCH  34  35
HETATM   35  C17 UNL     1      -0.657  15.121  16.161  1.00  0.00     0.027 C 
BRANCH  35  36
HETATM   36  C18 UNL     1       0.299  14.605  17.232  1.00  0.00     0.164 C 
BRANCH  36  37
HETATM   37  O4  UNL     1       0.584  15.618  18.190  1.00  0.00    -0.401 OA
HETATM   38  H27 UNL     1      -0.197  15.703  18.762  1.00  0.00     0.209 HD
ENDBRANCH  36  37
ENDBRANCH  35  36
ENDBRANCH  34  35
ENDBRANCH   6  34
BRANCH  12  39
HETATM   39  O6  UNL     1      -3.039   9.613  17.989  1.00  0.00    -0.389 OA
HETATM   40  H39 UNL     1      -3.406   9.288  18.828  1.00  0.00     0.210 HD
ENDBRANCH  12  39
BRANCH   8  41
HETATM   41  C22 UNL     1      -4.645  14.664  15.438  1.00  0.00     0.265 C 
HETATM   42  O5  UNL     1      -4.769  13.806  14.574  1.00  0.00    -0.302 OA
ENDBRANCH   8  41
TORSDOF 18
ENDMDL
MODEL 7
REMARK minimizedAffinity -6.17627001
REMARK CNNscore 0.366052777
REMARK CNNaffinity 6.04441071
REMARK  18 active torsions:
REMARK  status: ('A' for Active; 'I' for Inactive)
REMARK    1  A    between atoms: C2_2  and  C3_3 
REMARK    2  A    between atoms: C2_2  and  C27_33 
REMARK    3  A    between atoms: C4_4  and  C5_5 
REMARK    4  A    between atoms: C6_6  and  C7_7 
REMARK    5  A    between atoms: C6_6  and  C10_12 
REMARK    6  A    between atoms: C7_7  and  O1_8 
REMARK    7  A    between atoms: O1_8  and  C8_9 
REMARK    8  A    between atoms: C8_9  and  C9_10 
REMARK    9  A    between atoms: C9_10  and  O2_11 
REMARK   10  A    between atoms: C14_16  and  O3_17 
REMARK   11  A    between atoms: C15_18  and  C16_19 
REMARK   12  A    between atoms: C16_19  and  C17_20 
REMARK   13  A    between atoms: C17_20  and  C18_21 
REMARK   14  A    between atoms: C18_21  and  O4_22 
REMARK   15  A    between atoms: C20_24  and  C22_26 
REMARK   16  A    between atoms: C25_30  and  O6_32 
REMARK   17  A    between atoms: C27_33  and  C28_34 
REMARK   18  A    between atoms: C28_34  and  C29_35 
ROOT
HETATM    1  C10 UNL     1     -11.210   9.915  14.133  1.00  0.00     0.046 C 
HETATM    2  C11 UNL     1     -10.032   9.815  15.111  1.00  0.00     0.013 C 
HETATM    3  C12 UNL     1     -10.030  11.191  15.765  1.00  0.00     0.017 C 
HETATM    4  C13 UNL     1     -11.525  11.490  16.097  1.00  0.00     0.024 C 
HETATM    5  C14 UNL     1     -12.206  10.927  14.796  1.00  0.00     0.138 C 
HETATM    6  C15 UNL     1     -11.810  13.047  16.270  1.00  0.00     0.029 C 
HETATM    7  C19 UNL     1     -13.298  13.233  16.636  1.00  0.00    -0.066 C 
HETATM    8  C20 UNL     1     -14.331  13.692  15.886  1.00  0.00    -0.021 C 
HETATM    9  C21 UNL     1     -15.764  13.773  16.333  1.00  0.00     0.052 C 
HETATM   10  C23 UNL     1     -13.554  12.681  18.023  1.00  0.00     0.038 C 
HETATM   11  C24 UNL     1     -13.378  11.171  17.957  1.00  0.00     0.042 C 
HETATM   12  C25 UNL     1     -11.980  10.736  17.444  1.00  0.00     0.065 C 
HETATM   13  C26 UNL     1     -10.978  10.929  18.608  1.00  0.00     0.047 C 
ENDROOT
BRANCH   1  14
HETATM   14  C6  UNL     1     -11.803   8.644  13.534  1.00  0.00    -0.050 C 
HETATM   15  C5  UNL     1     -11.185   7.442  13.582  1.00  0.00     0.005 C 
BRANCH  15  16
HETATM   16  C4  UNL     1      -9.928   7.145  14.243  1.00  0.00     0.001 C 
HETATM   17  C3  UNL     1      -9.037   6.260  13.765  1.00  0.00     0.006 C 
BRANCH  17  18
HETATM   18  C2  UNL     1      -7.782   5.872  14.401  1.00  0.00    -0.067 C 
HETATM   19  C1  UNL     1      -7.755   5.653  15.726  1.00  0.00     0.019 C 
BRANCH  18  20
HETATM   20  C27 UNL     1      -6.498   5.770  13.594  1.00  0.00     0.041 C 
BRANCH  20  21
HETATM   21  C28 UNL     1      -6.089   4.328  13.243  1.00  0.00     0.032 C 
BRANCH  21  22
HETATM   22  C29 UNL     1      -4.858   4.279  12.380  1.00  0.00    -0.024 C 
HETATM   23  C30 UNL     1      -4.567   3.398  11.404  1.00  0.00    -0.091 C 
HETATM   24  C31 UNL     1      -5.435   2.240  10.996  1.00  0.00     0.042 C 
HETATM   25  C32 UNL     1      -3.286   3.522  10.619  1.00  0.00     0.042 C 
ENDBRANCH  21  22
ENDBRANCH  20  21
ENDBRANCH  18  20
ENDBRANCH  17  18
ENDBRANCH  15  16
BRANCH  14  26
HETATM   26  C7  UNL     1     -13.139   8.759  12.830  1.00  0.00     0.202 C 
BRANCH  26  27
HETATM   27  O1  UNL     1     -13.548   7.477  12.363  1.00  0.00    -0.385 OA
BRANCH  27  28
HETATM   28  C8  UNL     1     -14.887   7.106  12.694  1.00  0.00     0.194 C 
BRANCH  28  29
HETATM   29  C9  UNL     1     -15.907   8.182  12.317  1.00  0.00     0.190 C 
BRANCH  29  30
HETATM   30  O2  UNL     1     -15.950   8.350  10.902  1.00  0.00    -0.399 OA
HETATM   31  H12 UNL     1     -16.252   9.257  10.725  1.00  0.00     0.209 HD
ENDBRANCH  29  30
ENDBRANCH  28  29
ENDBRANCH  27  28
ENDBRANCH  26  27
ENDBRANCH  14  26
ENDBRANCH   1  14
BRANCH   5  32
HETATM   32  O3  UNL     1     -13.524  10.442  15.002  1.00  0.00    -0.394 OA
HETATM   33  H19 UNL     1     -13.797   9.974  14.195  1.00  0.00     0.210 HD
ENDBRANCH   5  32
BRANCH   6  34
HETATM   34  C16 UNL     1     -11.237  13.986  15.173  1.00  0.00     0.012 C 
BRANCH  34  35
HETATM   35  C17 UNL     1      -9.979  14.752  15.625  1.00  0.00     0.027 C 
BRANCH  35  36
HETATM   36  C18 UNL     1      -8.782  14.490  14.716  1.00  0.00     0.164 C 
BRANCH  36  37
HETATM   37  O4  UNL     1      -9.164  13.726  13.579  1.00  0.00    -0.401 OA
HETATM   38  H27 UNL     1      -9.640  14.322  12.976  1.00  0.00     0.209 HD
ENDBRANCH  36  37
ENDBRANCH  35  36
ENDBRANCH  34  35
ENDBRANCH   6  34
BRANCH  12  39
HETATM   39  O6  UNL     1     -12.032   9.317  17.238  1.00  0.00    -0.389 OA
HETATM   40  H39 UNL     1     -12.449   8.910  18.016  1.00  0.00     0.210 HD
ENDBRANCH  12  39
BRANCH   8  41
HETATM   41  C22 UNL     1     -14.188  14.026  14.449  1.00  0.00     0.265 C 
HETATM   42  O5  UNL     1     -14.923  14.817  13.872  1.00  0.00    -0.302 OA
ENDBRANCH   8  41
TORSDOF 18
ENDMDL
MODEL 8
REMARK minimizedAffinity -6.00751734
REMARK CNNscore 0.360839665
REMARK CNNaffinity 5.81323862
REMARK  18 active torsions:
REMARK  status: ('A' for Active; 'I' for Inactive)
REMARK    1  A    between atoms: C2_2  and  C3_3 
REMARK    2  A    between atoms: C2_2  and  C27_33 
REMARK    3  A    between atoms: C4_4  and  C5_5 
REMARK    4  A    between atoms: C6_6  and  C7_7 
REMARK    5  A    between atoms: C6_6  and  C10_12 
REMARK    6  A    between atoms: C7_7  and  O1_8 
REMARK    7  A    between atoms: O1_8  and  C8_9 
REMARK    8  A    between atoms: C8_9  and  C9_10 
REMARK    9  A    between atoms: C9_10  and  O2_11 
REMARK   10  A    between atoms: C14_16  and  O3_17 
REMARK   11  A    between atoms: C15_18  and  C16_19 
REMARK   12  A    between atoms: C16_19  and  C17_20 
REMARK   13  A    between atoms: C17_20  and  C18_21 
REMARK   14  A    between atoms: C18_21  and  O4_22 
REMARK   15  A    between atoms: C20_24  and  C22_26 
REMARK   16  A    between atoms: C25_30  and  O6_32 
REMARK   17  A    between atoms: C27_33  and  C28_34 
REMARK   18  A    between atoms: C28_34  and  C29_35 
ROOT
HETATM    1  C10 UNL     1     -15.949  -3.186  12.389  1.00  0.00     0.046 C 
HETATM    2  C11 UNL     1     -17.418  -3.425  12.016  1.00  0.00     0.013 C 
HETATM    3  C12 UNL     1     -18.159  -2.566  13.033  1.00  0.00     0.017 C 
HETATM    4  C13 UNL     1     -17.390  -1.210  13.063  1.00  0.00     0.024 C 
HETATM    5  C14 UNL     1     -15.911  -1.739  12.988  1.00  0.00     0.138 C 
HETATM    6  C15 UNL     1     -17.644  -0.396  14.408  1.00  0.00     0.029 C 
HETATM    7  C19 UNL     1     -16.878   0.942  14.321  1.00  0.00    -0.066 C 
HETATM    8  C20 UNL     1     -15.744   1.340  14.948  1.00  0.00    -0.021 C 
HETATM    9  C21 UNL     1     -15.047   2.657  14.737  1.00  0.00     0.052 C 
HETATM   10  C23 UNL     1     -17.509   1.822  13.262  1.00  0.00     0.038 C 
HETATM   11  C24 UNL     1     -17.260   1.168  11.910  1.00  0.00     0.042 C 
HETATM   12  C25 UNL     1     -17.810  -0.280  11.817  1.00  0.00     0.065 C 
HETATM   13  C26 UNL     1     -19.343  -0.183  11.629  1.00  0.00     0.047 C 
ENDROOT
BRANCH   1  14
HETATM   14  C6  UNL     1     -14.849  -3.561  11.401  1.00  0.00    -0.050 C 
HETATM   15  C5  UNL     1     -13.668  -4.103  11.775  1.00  0.00     0.005 C 
BRANCH  15  16
HETATM   16  C4  UNL     1     -13.277  -4.470  13.124  1.00  0.00     0.001 C 
HETATM   17  C3  UNL     1     -12.482  -5.518  13.400  1.00  0.00     0.006 C 
BRANCH  17  18
HETATM   18  C2  UNL     1     -12.092  -5.977  14.728  1.00  0.00    -0.067 C 
HETATM   19  C1  UNL     1     -11.995  -5.088  15.730  1.00  0.00     0.019 C 
BRANCH  18  20
HETATM   20  C27 UNL     1     -11.740  -7.435  14.978  1.00  0.00     0.041 C 
BRANCH  20  21
HETATM   21  C28 UNL     1     -12.218  -7.973  16.338  1.00  0.00     0.032 C 
BRANCH  21  22
HETATM   22  C29 UNL     1     -11.109  -8.023  17.353  1.00  0.00    -0.024 C 
HETATM   23  C30 UNL     1     -10.489  -9.111  17.848  1.00  0.00    -0.091 C 
HETATM   24  C31 UNL     1     -10.818 -10.533  17.488  1.00  0.00     0.042 C 
HETATM   25  C32 UNL     1      -9.370  -8.966  18.847  1.00  0.00     0.042 C 
ENDBRANCH  21  22
ENDBRANCH  20  21
ENDBRANCH  18  20
ENDBRANCH  17  18
ENDBRANCH  15  16
BRANCH  14  26
HETATM   26  C7  UNL     1     -15.101  -3.281   9.934  1.00  0.00     0.202 C 
BRANCH  26  27
HETATM   27  O1  UNL     1     -15.612  -4.450   9.302  1.00  0.00    -0.385 OA
BRANCH  27  28
HETATM   28  C8  UNL     1     -14.708  -5.107   8.412  1.00  0.00     0.194 C 
BRANCH  28  29
HETATM   29  C9  UNL     1     -15.359  -5.476   7.078  1.00  0.00     0.190 C 
BRANCH  29  30
HETATM   30  O2  UNL     1     -15.023  -4.516   6.080  1.00  0.00    -0.399 OA
HETATM   31  H12 UNL     1     -15.734  -4.523   5.416  1.00  0.00     0.209 HD
ENDBRANCH  29  30
ENDBRANCH  28  29
ENDBRANCH  27  28
ENDBRANCH  26  27
ENDBRANCH  14  26
ENDBRANCH   1  14
BRANCH   5  32
HETATM   32  O3  UNL     1     -15.011  -0.839  12.358  1.00  0.00    -0.394 OA
HETATM   33  H19 UNL     1     -14.173  -1.311  12.214  1.00  0.00     0.210 HD
ENDBRANCH   5  32
BRANCH   6  34
HETATM   34  C16 UNL     1     -17.517  -1.189  15.737  1.00  0.00     0.012 C 
BRANCH  34  35
HETATM   35  C17 UNL     1     -18.795  -1.144  16.596  1.00  0.00     0.027 C 
BRANCH  35  36
HETATM   36  C18 UNL     1     -18.934   0.168  17.362  1.00  0.00     0.164 C 
BRANCH  36  37
HETATM   37  O4  UNL     1     -19.639  -0.026  18.582  1.00  0.00    -0.401 OA
HETATM   38  H27 UNL     1     -19.030  -0.460  19.202  1.00  0.00     0.209 HD
ENDBRANCH  36  37
ENDBRANCH  35  36
ENDBRANCH  34  35
ENDBRANCH   6  34
BRANCH  12  39
HETATM   39  O6  UNL     1     -17.324  -0.833  10.586  1.00  0.00    -0.389 OA
HETATM   40  H39 UNL     1     -17.464  -0.180   9.880  1.00  0.00     0.210 HD
ENDBRANCH  12  39
BRANCH   8  41
HETATM   41  C22 UNL     1     -14.952   0.438  15.816  1.00  0.00     0.265 C 
HETATM   42  O5  UNL     1     -14.684   0.698  16.982  1.00  0.00    -0.302 OA
ENDBRANCH   8  41
TORSDOF 18
ENDMDL
MODEL 9
REMARK minimizedAffinity -6.53517628
REMARK CNNscore 0.330582082
REMARK CNNaffinity 7.07561302
REMARK  18 active torsions:
REMARK  status: ('A' for Active; 'I' for Inactive)
REMARK    1  A    between atoms: C2_2  and  C3_3 
REMARK    2  A    between atoms: C2_2  and  C27_33 
REMARK    3  A    between atoms: C4_4  and  C5_5 
REMARK    4  A    between atoms: C6_6  and  C7_7 
REMARK    5  A    between atoms: C6_6  and  C10_12 
REMARK    6  A    between atoms: C7_7  and  O1_8 
REMARK    7  A    between atoms: O1_8  and  C8_9 
REMARK    8  A    between atoms: C8_9  and  C9_10 
REMARK    9  A    between atoms: C9_10  and  O2_11 
REMARK   10  A    between atoms: C14_16  and  O3_17 
REMARK   11  A    between atoms: C15_18  and  C16_19 
REMARK   12  A    between atoms: C16_19  and  C17_20 
REMARK   13  A    between atoms: C17_20  and  C18_21 
REMARK   14  A    between atoms: C18_21  and  O4_22 
REMARK   15  A    between atoms: C20_24  and  C22_26 
REMARK   16  A    between atoms: C25_30  and  O6_32 
REMARK   17  A    between atoms: C27_33  and  C28_34 
REMARK   18  A    between atoms: C28_34  and  C29_35 
ROOT
HETATM    1  C10 UNL     1      -1.704   7.061  13.089  1.00  0.00     0.046 C 
HETATM    2  C11 UNL     1      -1.780   7.844  11.771  1.00  0.00     0.013 C 
HETATM    3  C12 UNL     1      -0.715   8.916  11.965  1.00  0.00     0.017 C 
HETATM    4  C13 UNL     1       0.517   8.168  12.562  1.00  0.00     0.024 C 
HETATM    5  C14 UNL     1      -0.216   7.200  13.560  1.00  0.00     0.138 C 
HETATM    6  C15 UNL     1       1.508   9.148  13.332  1.00  0.00     0.029 C 
HETATM    7  C19 UNL     1       2.708   8.323  13.846  1.00  0.00    -0.066 C 
HETATM    8  C20 UNL     1       3.016   7.920  15.104  1.00  0.00    -0.021 C 
HETATM    9  C21 UNL     1       4.190   7.059  15.481  1.00  0.00     0.052 C 
HETATM   10  C23 UNL     1       3.539   7.847  12.672  1.00  0.00     0.038 C 
HETATM   11  C24 UNL     1       2.704   6.837  11.897  1.00  0.00     0.042 C 
HETATM   12  C25 UNL     1       1.345   7.406  11.411  1.00  0.00     0.065 C 
HETATM   13  C26 UNL     1       1.630   8.303  10.182  1.00  0.00     0.047 C 
ENDROOT
BRANCH   1  14
HETATM   14  C6  UNL     1      -2.340   5.678  13.182  1.00  0.00    -0.050 C 
HETATM   15  C5  UNL     1      -3.375   5.390  14.004  1.00  0.00     0.005 C 
BRANCH  15  16
HETATM   16  C4  UNL     1      -4.080   6.324  14.861  1.00  0.00     0.001 C 
HETATM   17  C3  UNL     1      -5.114   7.073  14.440  1.00  0.00     0.006 C 
BRANCH  17  18
HETATM   18  C2  UNL     1      -5.833   8.069  15.227  1.00  0.00    -0.067 C 
HETATM   19  C1  UNL     1      -5.258   9.258  15.469  1.00  0.00     0.019 C 
BRANCH  18  20
HETATM   20  C27 UNL     1      -7.197   7.756  15.823  1.00  0.00     0.041 C 
BRANCH  20  21
HETATM   21  C28 UNL     1      -8.145   7.012  14.867  1.00  0.00     0.032 C 
BRANCH  21  22
HETATM   22  C29 UNL     1      -7.820   5.547  14.766  1.00  0.00    -0.024 C 
HETATM   23  C30 UNL     1      -7.807   4.776  13.662  1.00  0.00    -0.091 C 
HETATM   24  C31 UNL     1      -8.156   5.244  12.276  1.00  0.00     0.042 C 
HETATM   25  C32 UNL     1      -7.426   3.320  13.750  1.00  0.00     0.042 C 
ENDBRANCH  21  22
ENDBRANCH  20  21
ENDBRANCH  18  20
ENDBRANCH  17  18
ENDBRANCH  15  16
BRANCH  14  26
HETATM   26  C7  UNL     1      -1.751   4.577  12.324  1.00  0.00     0.202 C 
BRANCH  26  27
HETATM   27  O1  UNL     1      -2.612   3.443  12.341  1.00  0.00    -0.385 OA
BRANCH  27  28
HETATM   28  C8  UNL     1      -3.161   3.075  11.075  1.00  0.00     0.194 C 
BRANCH  28  29
HETATM   29  C9  UNL     1      -4.689   3.016  11.090  1.00  0.00     0.190 C 
BRANCH  29  30
HETATM   30  O2  UNL     1      -5.135   1.678  10.884  1.00  0.00    -0.399 OA
HETATM   31  H12 UNL     1      -6.025   1.722  10.494  1.00  0.00     0.209 HD
ENDBRANCH  29  30
ENDBRANCH  28  29
ENDBRANCH  27  28
ENDBRANCH  26  27
ENDBRANCH  14  26
ENDBRANCH   1  14
BRANCH   5  32
HETATM   32  O3  UNL     1       0.471   5.978  13.784  1.00  0.00    -0.394 OA
HETATM   33  H19 UNL     1      -0.126   5.388  14.276  1.00  0.00     0.210 HD
ENDBRANCH   5  32
BRANCH   6  34
HETATM   34  C16 UNL     1       0.865  10.144  14.335  1.00  0.00     0.012 C 
BRANCH  34  35
HETATM   35  C17 UNL     1      -0.553   9.734  14.774  1.00  0.00     0.027 C 
BRANCH  35  36
HETATM   36  C18 UNL     1      -0.763   9.887  16.277  1.00  0.00     0.164 C 
BRANCH  36  37
HETATM   37  O4  UNL     1      -2.058   9.439  16.658  1.00  0.00    -0.401 OA
HETATM   38  H27 UNL     1      -2.046   8.467  16.640  1.00  0.00     0.209 HD
ENDBRANCH  36  37
ENDBRANCH  35  36
ENDBRANCH  34  35
ENDBRANCH   6  34
BRANCH  12  39
HETATM   39  O6  UNL     1       0.591   6.302  10.891  1.00  0.00    -0.389 OA
HETATM   40  H39 UNL     1       1.171   5.781  10.311  1.00  0.00     0.210 HD
ENDBRANCH  12  39
BRANCH   8  41
HETATM   41  C22 UNL     1       2.119   8.156  16.260  1.00  0.00     0.265 C 
HETATM   42  O5  UNL     1       2.421   8.876  17.203  1.00  0.00    -0.302 OA
ENDBRANCH   8  41
TORSDOF 18
ENDMDL
