MODEL 1
REMARK minimizedAffinity -8.81936836
REMARK CNNscore 0.670265436
REMARK CNNaffinity 7.4344902
REMARK  13 active torsions:
REMARK  status: ('A' for Active; 'I' for Inactive)
REMARK    1  A    between atoms: O1_2  and  C2_3 
REMARK    2  A    between atoms: C12_14  and  C13_15 
REMARK    3  A    between atoms: C13_15  and  C15_17 
REMARK    4  A    between atoms: C15_17  and  C16_18 
REMARK    5  A    between atoms: C17_19  and  C18_20 
REMARK    6  A    between atoms: C18_20  and  O3_23 
REMARK    7  A    between atoms: C28_31  and  O4_32 
REMARK    8  A    between atoms: O4_32  and  C29_33 
REMARK    9  A    between atoms: C30_35  and  C31_36 
REMARK   10  A    between atoms: C31_36  and  O6_37 
REMARK   11  A    between atoms: C32_38  and  O7_39 
REMARK   12  A    between atoms: C33_40  and  O8_41 
REMARK   13  A    between atoms: C34_42  and  O9_43 
ROOT
HETATM    1  C2  UNL     1      -2.881  11.968  15.353  1.00  0.00     0.270 C 
HETATM    2  O2  UNL     1      -2.561  12.387  16.705  1.00  0.00    -0.344 OA
HETATM    3  C3  UNL     1      -1.337  11.725  17.100  1.00  0.00     0.095 C 
HETATM    4  C4  UNL     1      -1.758  10.499  17.914  1.00  0.00     0.008 C 
HETATM    5  C5  UNL     1      -2.342   9.431  17.345  1.00  0.00    -0.021 C 
HETATM    6  C6  UNL     1      -2.776   9.506  15.904  1.00  0.00     0.030 C 
HETATM    7  C7  UNL     1      -2.033  10.654  15.085  1.00  0.00     0.024 C 
HETATM    8  C8  UNL     1      -1.789  10.393  13.568  1.00  0.00     0.016 C 
HETATM    9  C9  UNL     1      -2.101   9.011  12.969  1.00  0.00     0.011 C 
HETATM   10  C10 UNL     1      -2.082   7.874  13.981  1.00  0.00    -0.032 C 
HETATM   11  C11 UNL     1      -0.656   7.692  14.553  1.00  0.00     0.016 C 
HETATM   12  C12 UNL     1      -2.632   6.518  13.449  1.00  0.00    -0.002 C 
HETATM   13  C21 UNL     1      -2.950   5.756  14.760  1.00  0.00     0.006 C 
HETATM   14  C22 UNL     1      -3.113   6.835  15.865  1.00  0.00     0.011 C 
HETATM   15  C23 UNL     1      -3.111   8.189  15.117  1.00  0.00    -0.029 C 
HETATM   16  C24 UNL     1      -4.592   8.401  14.614  1.00  0.00     0.016 C 
HETATM   17  C25 UNL     1      -0.748  11.221  15.777  1.00  0.00     0.039 C 
HETATM   18  C26 UNL     1       0.552  10.453  16.003  1.00  0.00     0.011 C 
HETATM   19  C27 UNL     1       1.578  11.369  16.696  1.00  0.00     0.033 C 
HETATM   20  C28 UNL     1       1.052  11.997  18.007  1.00  0.00     0.136 C 
HETATM   21  C35 UNL     1      -0.341  12.696  17.827  1.00  0.00     0.014 C 
HETATM   22  C36 UNL     1      -0.134  14.004  17.013  1.00  0.00     0.021 C 
HETATM   23  C37 UNL     1      -0.915  13.165  19.187  1.00  0.00     0.021 C 
ENDROOT
BRANCH  20  24
HETATM   24  O4  UNL     1       0.968  10.929  18.959  1.00  0.00    -0.352 OA
BRANCH  24  25
HETATM   25  C29 UNL     1       2.155  10.750  19.744  1.00  0.00     0.292 C 
HETATM   26  O5  UNL     1       2.001   9.607  20.581  1.00  0.00    -0.348 OA
HETATM   27  C30 UNL     1       3.157   9.308  21.380  1.00  0.00     0.179 C 
HETATM   28  C32 UNL     1       4.119  10.501  21.593  1.00  0.00     0.180 C 
HETATM   29  C33 UNL     1       3.362  11.831  21.725  1.00  0.00     0.183 C 
HETATM   30  C34 UNL     1       2.317  12.019  20.612  1.00  0.00     0.204 C 
BRANCH  27  31
HETATM   31  C31 UNL     1       2.646   8.736  22.710  1.00  0.00     0.198 C 
BRANCH  31  32
HETATM   32  O6  UNL     1       1.591   7.801  22.506  1.00  0.00    -0.398 OA
HETATM   33  H48 UNL     1       0.767   8.313  22.424  1.00  0.00     0.209 HD
ENDBRANCH  31  32
ENDBRANCH  27  31
BRANCH  28  34
HETATM   34  O7  UNL     1       5.012  10.568  20.465  1.00  0.00    -0.390 OA
HETATM   35  H50 UNL     1       5.546  11.380  20.542  1.00  0.00     0.210 HD
ENDBRANCH  28  34
BRANCH  29  36
HETATM   36  O8  UNL     1       2.720  11.940  23.000  1.00  0.00    -0.390 OA
HETATM   37  H52 UNL     1       3.398  11.843  23.695  1.00  0.00     0.210 HD
ENDBRANCH  29  36
BRANCH  30  38
HETATM   38  O9  UNL     1       2.705  13.138  19.790  1.00  0.00    -0.388 OA
HETATM   39  H54 UNL     1       2.234  13.916  20.142  1.00  0.00     0.210 HD
ENDBRANCH  30  38
ENDBRANCH  24  25
ENDBRANCH  20  24
BRANCH   1  40
HETATM   40  O1  UNL     1      -2.544  13.009  14.430  1.00  0.00    -0.365 OA
HETATM   41  C1  UNL     1      -3.270  14.203  14.694  1.00  0.00     0.204 C 
ENDBRANCH   1  40
BRANCH  12  42
HETATM   42  C13 UNL     1      -1.959   5.713  12.297  1.00  0.00    -0.010 C 
HETATM   43  C14 UNL     1      -2.342   4.224  12.455  1.00  0.00     0.010 C 
BRANCH  42  44
HETATM   44  C15 UNL     1      -0.433   5.859  12.118  1.00  0.00     0.031 C 
BRANCH  44  45
HETATM   45  C16 UNL     1       0.085   6.475  10.834  1.00  0.00    -0.027 C 
HETATM   46  C17 UNL     1       1.372   6.679  10.491  1.00  0.00     0.006 C 
BRANCH  46  47
HETATM   47  C18 UNL     1       1.905   7.287   9.211  1.00  0.00     0.068 C 
HETATM   48  C19 UNL     1       0.819   8.156   8.566  1.00  0.00     0.050 C 
HETATM   49  C20 UNL     1       2.452   6.294   8.182  1.00  0.00     0.050 C 
BRANCH  47  50
HETATM   50  O3  UNL     1       2.998   8.140   9.570  1.00  0.00    -0.387 OA
HETATM   51  H30 UNL     1       2.686   8.756  10.254  1.00  0.00     0.211 HD
ENDBRANCH  47  50
ENDBRANCH  46  47
ENDBRANCH  44  45
ENDBRANCH  42  44
ENDBRANCH  12  42
TORSDOF 13
ENDMDL
MODEL 2
REMARK minimizedAffinity -8.99553776
REMARK CNNscore 0.392093182
REMARK CNNaffinity 7.04185247
REMARK  13 active torsions:
REMARK  status: ('A' for Active; 'I' for Inactive)
REMARK    1  A    between atoms: O1_2  and  C2_3 
REMARK    2  A    between atoms: C12_14  and  C13_15 
REMARK    3  A    between atoms: C13_15  and  C15_17 
REMARK    4  A    between atoms: C15_17  and  C16_18 
REMARK    5  A    between atoms: C17_19  and  C18_20 
REMARK    6  A    between atoms: C18_20  and  O3_23 
REMARK    7  A    between atoms: C28_31  and  O4_32 
REMARK    8  A    between atoms: O4_32  and  C29_33 
REMARK    9  A    between atoms: C30_35  and  C31_36 
REMARK   10  A    between atoms: C31_36  and  O6_37 
REMARK   11  A    between atoms: C32_38  and  O7_39 
REMARK   12  A    between atoms: C33_40  and  O8_41 
REMARK   13  A    between atoms: C34_42  and  O9_43 
ROOT
HETATM    1  C2  UNL     1      -2.515  11.710  14.985  1.00  0.00     0.270 C 
HETATM    2  O2  UNL     1      -2.394  12.207  16.343  1.00  0.00    -0.344 OA
HETATM    3  C3  UNL     1      -1.189  11.647  16.917  1.00  0.00     0.095 C 
HETATM    4  C4  UNL     1      -1.633  10.432  17.736  1.00  0.00     0.008 C 
HETATM    5  C5  UNL     1      -2.073   9.303  17.155  1.00  0.00    -0.021 C 
HETATM    6  C6  UNL     1      -2.328   9.287  15.669  1.00  0.00     0.030 C 
HETATM    7  C7  UNL     1      -1.561  10.447  14.890  1.00  0.00     0.024 C 
HETATM    8  C8  UNL     1      -1.113  10.138  13.430  1.00  0.00     0.016 C 
HETATM    9  C9  UNL     1      -1.261   8.713  12.867  1.00  0.00     0.011 C 
HETATM   10  C10 UNL     1      -1.298   7.625  13.931  1.00  0.00    -0.032 C 
HETATM   11  C11 UNL     1       0.053   7.565  14.681  1.00  0.00     0.016 C 
HETATM   12  C12 UNL     1      -1.693   6.214  13.406  1.00  0.00    -0.002 C 
HETATM   13  C21 UNL     1      -2.124   5.488  14.705  1.00  0.00     0.006 C 
HETATM   14  C22 UNL     1      -2.490   6.600  15.725  1.00  0.00     0.011 C 
HETATM   15  C23 UNL     1      -2.479   7.918  14.916  1.00  0.00    -0.029 C 
HETATM   16  C24 UNL     1      -3.896   8.007  14.225  1.00  0.00     0.016 C 
HETATM   17  C25 UNL     1      -0.410  11.129  15.704  1.00  0.00     0.039 C 
HETATM   18  C26 UNL     1       0.897  10.461  16.125  1.00  0.00     0.011 C 
HETATM   19  C27 UNL     1       1.769  11.473  16.892  1.00  0.00     0.033 C 
HETATM   20  C28 UNL     1       1.045  12.120  18.095  1.00  0.00     0.136 C 
HETATM   21  C35 UNL     1      -0.354  12.714  17.711  1.00  0.00     0.014 C 
HETATM   22  C36 UNL     1      -0.129  13.997  16.862  1.00  0.00     0.021 C 
HETATM   23  C37 UNL     1      -1.122  13.201  18.965  1.00  0.00     0.021 C 
ENDROOT
BRANCH  20  24
HETATM   24  O4  UNL     1       0.909  11.090  19.082  1.00  0.00    -0.352 OA
BRANCH  24  25
HETATM   25  C29 UNL     1       2.100  10.851  19.847  1.00  0.00     0.292 C 
HETATM   26  O5  UNL     1       1.923   9.684  20.645  1.00  0.00    -0.348 OA
HETATM   27  C30 UNL     1       3.079   9.326  21.419  1.00  0.00     0.179 C 
HETATM   28  C32 UNL     1       4.075  10.484  21.664  1.00  0.00     0.180 C 
HETATM   29  C33 UNL     1       3.356  11.829  21.851  1.00  0.00     0.183 C 
HETATM   30  C34 UNL     1       2.305  12.084  20.756  1.00  0.00     0.204 C 
BRANCH  27  31
HETATM   31  C31 UNL     1       2.566   8.721  22.734  1.00  0.00     0.198 C 
BRANCH  31  32
HETATM   32  O6  UNL     1       1.591   7.710  22.499  1.00  0.00    -0.398 OA
HETATM   33  H48 UNL     1       0.734   8.159  22.387  1.00  0.00     0.209 HD
ENDBRANCH  31  32
ENDBRANCH  27  31
BRANCH  28  34
HETATM   34  O7  UNL     1       4.957  10.568  20.528  1.00  0.00    -0.390 OA
HETATM   35  H50 UNL     1       5.515  11.362  20.627  1.00  0.00     0.210 HD
ENDBRANCH  28  34
BRANCH  29  36
HETATM   36  O8  UNL     1       2.730  11.909  23.136  1.00  0.00    -0.390 OA
HETATM   37  H52 UNL     1       3.413  11.769  23.820  1.00  0.00     0.210 HD
ENDBRANCH  29  36
BRANCH  30  38
HETATM   38  O9  UNL     1       2.715  13.220  19.970  1.00  0.00    -0.388 OA
HETATM   39  H54 UNL     1       2.269  13.998  20.355  1.00  0.00     0.210 HD
ENDBRANCH  30  38
ENDBRANCH  24  25
ENDBRANCH  20  24
BRANCH   1  40
HETATM   40  O1  UNL     1      -2.131  12.732  14.058  1.00  0.00    -0.365 OA
HETATM   41  C1  UNL     1      -2.778  13.967  14.336  1.00  0.00     0.204 C 
ENDBRANCH   1  40
BRANCH  12  42
HETATM   42  C13 UNL     1      -0.832   5.408  12.387  1.00  0.00    -0.010 C 
HETATM   43  C14 UNL     1      -0.758   6.211  11.068  1.00  0.00     0.010 C 
BRANCH  42  44
HETATM   44  C15 UNL     1      -1.240   3.946  12.103  1.00  0.00     0.031 C 
BRANCH  44  45
HETATM   45  C16 UNL     1      -2.588   3.688  11.459  1.00  0.00    -0.027 C 
HETATM   46  C17 UNL     1      -3.635   3.035  12.000  1.00  0.00     0.006 C 
BRANCH  46  47
HETATM   47  C18 UNL     1      -4.988   2.773  11.372  1.00  0.00     0.068 C 
HETATM   48  C19 UNL     1      -6.046   3.651  12.051  1.00  0.00     0.050 C 
HETATM   49  C20 UNL     1      -5.448   1.313  11.374  1.00  0.00     0.050 C 
BRANCH  47  50
HETATM   50  O3  UNL     1      -4.901   3.168   9.998  1.00  0.00    -0.387 OA
HETATM   51  H30 UNL     1      -4.572   4.083   9.969  1.00  0.00     0.211 HD
ENDBRANCH  47  50
ENDBRANCH  46  47
ENDBRANCH  44  45
ENDBRANCH  42  44
ENDBRANCH  12  42
TORSDOF 13
ENDMDL
MODEL 3
REMARK minimizedAffinity -8.42970848
REMARK CNNscore 0.334745795
REMARK CNNaffinity 6.37489367
REMARK  13 active torsions:
REMARK  status: ('A' for Active; 'I' for Inactive)
REMARK    1  A    between atoms: O1_2  and  C2_3 
REMARK    2  A    between atoms: C12_14  and  C13_15 
REMARK    3  A    between atoms: C13_15  and  C15_17 
REMARK    4  A    between atoms: C15_17  and  C16_18 
REMARK    5  A    between atoms: C17_19  and  C18_20 
REMARK    6  A    between atoms: C18_20  and  O3_23 
REMARK    7  A    between atoms: C28_31  and  O4_32 
REMARK    8  A    between atoms: O4_32  and  C29_33 
REMARK    9  A    between atoms: C30_35  and  C31_36 
REMARK   10  A    between atoms: C31_36  and  O6_37 
REMARK   11  A    between atoms: C32_38  and  O7_39 
REMARK   12  A    between atoms: C33_40  and  O8_41 
REMARK   13  A    between atoms: C34_42  and  O9_43 
ROOT
HETATM    1  C2  UNL     1      -0.317  14.568  17.613  1.00  0.00     0.270 C 
HETATM    2  O2  UNL     1      -0.915  13.986  16.426  1.00  0.00    -0.344 OA
HETATM    3  C3  UNL     1      -1.303  12.628  16.741  1.00  0.00     0.095 C 
HETATM    4  C4  UNL     1      -0.173  11.732  16.229  1.00  0.00     0.008 C 
HETATM    5  C5  UNL     1       1.033  11.696  16.821  1.00  0.00    -0.021 C 
HETATM    6  C6  UNL     1       1.358  12.700  17.897  1.00  0.00     0.030 C 
HETATM    7  C7  UNL     1       0.062  13.351  18.558  1.00  0.00     0.024 C 
HETATM    8  C8  UNL     1       0.166  13.762  20.058  1.00  0.00     0.016 C 
HETATM    9  C9  UNL     1       1.413  13.377  20.873  1.00  0.00     0.011 C 
HETATM   10  C10 UNL     1       2.165  12.170  20.329  1.00  0.00    -0.032 C 
HETATM   11  C11 UNL     1       1.281  10.903  20.423  1.00  0.00     0.016 C 
HETATM   12  C12 UNL     1       3.552  11.915  20.986  1.00  0.00    -0.002 C 
HETATM   13  C21 UNL     1       4.249  11.008  19.941  1.00  0.00     0.006 C 
HETATM   14  C22 UNL     1       3.521  11.255  18.593  1.00  0.00     0.011 C 
HETATM   15  C23 UNL     1       2.583  12.459  18.848  1.00  0.00    -0.029 C 
HETATM   16  C24 UNL     1       3.480  13.745  18.664  1.00  0.00     0.016 C 
HETATM   17  C25 UNL     1      -1.272  12.582  18.272  1.00  0.00     0.039 C 
HETATM   18  C26 UNL     1      -1.626  11.192  18.795  1.00  0.00     0.011 C 
HETATM   19  C27 UNL     1      -3.033  10.801  18.306  1.00  0.00     0.033 C 
HETATM   20  C28 UNL     1      -3.197  10.892  16.772  1.00  0.00     0.136 C 
HETATM   21  C35 UNL     1      -2.732  12.274  16.194  1.00  0.00     0.014 C 
HETATM   22  C36 UNL     1      -3.774  13.354  16.601  1.00  0.00     0.021 C 
HETATM   23  C37 UNL     1      -2.750  12.271  14.645  1.00  0.00     0.021 C 
ENDROOT
BRANCH  20  24
HETATM   24  O4  UNL     1      -2.421   9.821  16.221  1.00  0.00    -0.352 OA
BRANCH  24  25
HETATM   25  C29 UNL     1      -3.173   8.627  15.957  1.00  0.00     0.292 C 
HETATM   26  O5  UNL     1      -2.277   7.549  15.708  1.00  0.00    -0.348 OA
HETATM   27  C30 UNL     1      -2.928   6.289  15.477  1.00  0.00     0.179 C 
HETATM   28  C32 UNL     1      -4.405   6.401  15.030  1.00  0.00     0.180 C 
HETATM   29  C33 UNL     1      -4.639   7.616  14.120  1.00  0.00     0.183 C 
HETATM   30  C34 UNL     1      -4.027   8.903  14.699  1.00  0.00     0.204 C 
BRANCH  27  31
HETATM   31  C31 UNL     1      -2.075   5.524  14.456  1.00  0.00     0.198 C 
BRANCH  31  32
HETATM   32  O6  UNL     1      -2.876   4.689  13.625  1.00  0.00    -0.398 OA
HETATM   33  H48 UNL     1      -3.021   3.857  14.110  1.00  0.00     0.209 HD
ENDBRANCH  31  32
ENDBRANCH  27  31
BRANCH  28  34
HETATM   34  O7  UNL     1      -5.226   6.522  16.208  1.00  0.00    -0.390 OA
HETATM   35  H50 UNL     1      -6.143   6.701  15.929  1.00  0.00     0.210 HD
ENDBRANCH  28  34
BRANCH  29  36
HETATM   36  O8  UNL     1      -4.113   7.391  12.807  1.00  0.00    -0.390 OA
HETATM   37  H52 UNL     1      -4.527   6.585  12.444  1.00  0.00     0.210 HD
ENDBRANCH  29  36
BRANCH  30  38
HETATM   38  O9  UNL     1      -5.089   9.826  15.010  1.00  0.00    -0.388 OA
HETATM   39  H54 UNL     1      -5.183  10.412  14.235  1.00  0.00     0.210 HD
ENDBRANCH  30  38
ENDBRANCH  24  25
ENDBRANCH  20  24
BRANCH   1  40
HETATM   40  O1  UNL     1      -1.251  15.453  18.243  1.00  0.00    -0.365 OA
HETATM   41  C1  UNL     1      -2.140  14.755  19.105  1.00  0.00     0.204 C 
ENDBRANCH   1  40
BRANCH  12  42
HETATM   42  C13 UNL     1       3.734  11.547  22.489  1.00  0.00    -0.010 C 
HETATM   43  C14 UNL     1       3.162  12.700  23.346  1.00  0.00     0.010 C 
BRANCH  42  44
HETATM   44  C15 UNL     1       5.153  11.175  22.970  1.00  0.00     0.031 C 
BRANCH  44  45
HETATM   45  C16 UNL     1       6.182  12.280  23.096  1.00  0.00    -0.027 C 
HETATM   46  C17 UNL     1       7.485  12.220  22.754  1.00  0.00     0.006 C 
BRANCH  46  47
HETATM   47  C18 UNL     1       8.524  13.316  22.869  1.00  0.00     0.068 C 
HETATM   48  C19 UNL     1       7.850  14.614  23.327  1.00  0.00     0.050 C 
HETATM   49  C20 UNL     1       9.352  13.579  21.608  1.00  0.00     0.050 C 
BRANCH  47  50
HETATM   50  O3  UNL     1       9.451  12.916  23.885  1.00  0.00    -0.387 OA
HETATM   51  H30 UNL     1       8.944  12.704  24.688  1.00  0.00     0.211 HD
ENDBRANCH  47  50
ENDBRANCH  46  47
ENDBRANCH  44  45
ENDBRANCH  42  44
ENDBRANCH  12  42
TORSDOF 13
ENDMDL
MODEL 4
REMARK minimizedAffinity -7.73680639
REMARK CNNscore 0.323564559
REMARK CNNaffinity 7.17682409
REMARK  13 active torsions:
REMARK  status: ('A' for Active; 'I' for Inactive)
REMARK    1  A    between atoms: O1_2  and  C2_3 
REMARK    2  A    between atoms: C12_14  and  C13_15 
REMARK    3  A    between atoms: C13_15  and  C15_17 
REMARK    4  A    between atoms: C15_17  and  C16_18 
REMARK    5  A    between atoms: C17_19  and  C18_20 
REMARK    6  A    between atoms: C18_20  and  O3_23 
REMARK    7  A    between atoms: C28_31  and  O4_32 
REMARK    8  A    between atoms: O4_32  and  C29_33 
REMARK    9  A    between atoms: C30_35  and  C31_36 
REMARK   10  A    between atoms: C31_36  and  O6_37 
REMARK   11  A    between atoms: C32_38  and  O7_39 
REMARK   12  A    between atoms: C33_40  and  O8_41 
REMARK   13  A    between atoms: C34_42  and  O9_43 
ROOT
HETATM    1  C2  UNL     1      -1.166   7.055  11.244  1.00  0.00     0.270 C 
HETATM    2  O2  UNL     1       0.007   7.909  11.283  1.00  0.00    -0.344 OA
HETATM    3  C3  UNL     1       0.468   7.973  12.654  1.00  0.00     0.095 C 
HETATM    4  C4  UNL     1      -0.107   9.266  13.237  1.00  0.00     0.008 C 
HETATM    5  C5  UNL     1      -1.416   9.410  13.501  1.00  0.00    -0.021 C 
HETATM    6  C6  UNL     1      -2.384   8.352  13.035  1.00  0.00     0.030 C 
HETATM    7  C7  UNL     1      -1.686   6.951  12.739  1.00  0.00     0.024 C 
HETATM    8  C8  UNL     1      -2.538   5.671  12.992  1.00  0.00     0.016 C 
HETATM    9  C9  UNL     1      -3.917   5.789  13.666  1.00  0.00     0.011 C 
HETATM   10  C10 UNL     1      -4.086   7.036  14.523  1.00  0.00    -0.032 C 
HETATM   11  C11 UNL     1      -3.113   6.994  15.725  1.00  0.00     0.016 C 
HETATM   12  C12 UNL     1      -5.541   7.299  15.010  1.00  0.00    -0.002 C 
HETATM   13  C21 UNL     1      -5.495   8.802  15.386  1.00  0.00     0.006 C 
HETATM   14  C22 UNL     1      -4.298   9.410  14.607  1.00  0.00     0.011 C 
HETATM   15  C23 UNL     1      -3.834   8.300  13.635  1.00  0.00    -0.029 C 
HETATM   16  C24 UNL     1      -4.782   8.411  12.378  1.00  0.00     0.016 C 
HETATM   17  C25 UNL     1      -0.246   6.801  13.336  1.00  0.00     0.039 C 
HETATM   18  C26 UNL     1       0.096   6.729  14.822  1.00  0.00     0.011 C 
HETATM   19  C27 UNL     1       1.618   6.563  14.993  1.00  0.00     0.033 C 
HETATM   20  C28 UNL     1       2.439   7.655  14.270  1.00  0.00     0.136 C 
HETATM   21  C35 UNL     1       2.027   7.827  12.767  1.00  0.00     0.014 C 
HETATM   22  C36 UNL     1       2.536   6.592  11.971  1.00  0.00     0.021 C 
HETATM   23  C37 UNL     1       2.746   9.037  12.121  1.00  0.00     0.021 C 
ENDROOT
BRANCH  20  24
HETATM   24  O4  UNL     1       2.225   8.868  15.001  1.00  0.00    -0.352 OA
BRANCH  24  25
HETATM   25  C29 UNL     1       3.431   9.504  15.449  1.00  0.00     0.292 C 
HETATM   26  O5  UNL     1       3.527  10.801  14.868  1.00  0.00    -0.348 OA
HETATM   27  C30 UNL     1       4.680  11.546  15.289  1.00  0.00     0.179 C 
HETATM   28  C32 UNL     1       5.837  10.682  15.844  1.00  0.00     0.180 C 
HETATM   29  C33 UNL     1       5.961   9.344  15.101  1.00  0.00     0.183 C 
HETATM   30  C34 UNL     1       4.608   8.625  14.968  1.00  0.00     0.204 C 
BRANCH  27  31
HETATM   31  C31 UNL     1       5.123  12.400  14.093  1.00  0.00     0.198 C 
BRANCH  31  32
HETATM   32  O6  UNL     1       5.050  13.792  14.388  1.00  0.00    -0.398 OA
HETATM   33  H48 UNL     1       4.130  14.070  14.231  1.00  0.00     0.209 HD
ENDBRANCH  31  32
ENDBRANCH  27  31
BRANCH  28  34
HETATM   34  O7  UNL     1       5.585  10.432  17.240  1.00  0.00    -0.390 OA
HETATM   35  H50 UNL     1       6.252   9.800  17.567  1.00  0.00     0.210 HD
ENDBRANCH  28  34
BRANCH  29  36
HETATM   36  O8  UNL     1       6.532   9.522  13.800  1.00  0.00    -0.390 OA
HETATM   37  H52 UNL     1       7.400   9.958  13.902  1.00  0.00     0.210 HD
ENDBRANCH  29  36
BRANCH  30  38
HETATM   38  O9  UNL     1       4.654   7.398  15.724  1.00  0.00    -0.388 OA
HETATM   39  H54 UNL     1       4.907   6.695  15.095  1.00  0.00     0.210 HD
ENDBRANCH  30  38
ENDBRANCH  24  25
ENDBRANCH  20  24
BRANCH   1  40
HETATM   40  O1  UNL     1      -0.814   5.771  10.717  1.00  0.00    -0.365 OA
HETATM   41  C1  UNL     1       0.372   5.263  11.314  1.00  0.00     0.204 C 
ENDBRANCH   1  40
BRANCH  12  42
HETATM   42  C13 UNL     1      -6.309   6.343  15.971  1.00  0.00    -0.010 C 
HETATM   43  C14 UNL     1      -6.803   5.126  15.156  1.00  0.00     0.010 C 
BRANCH  42  44
HETATM   44  C15 UNL     1      -7.467   6.939  16.800  1.00  0.00     0.031 C 
BRANCH  44  45
HETATM   45  C16 UNL     1      -8.579   7.663  16.067  1.00  0.00    -0.027 C 
HETATM   46  C17 UNL     1      -9.647   7.110  15.459  1.00  0.00     0.006 C 
BRANCH  46  47
HETATM   47  C18 UNL     1     -10.767   7.819  14.727  1.00  0.00     0.068 C 
HETATM   48  C19 UNL     1     -10.886   7.258  13.306  1.00  0.00     0.050 C 
HETATM   49  C20 UNL     1     -10.662   9.346  14.675  1.00  0.00     0.050 C 
BRANCH  47  50
HETATM   50  O3  UNL     1     -11.982   7.522  15.424  1.00  0.00    -0.387 OA
HETATM   51  H30 UNL     1     -12.053   6.555  15.506  1.00  0.00     0.211 HD
ENDBRANCH  47  50
ENDBRANCH  46  47
ENDBRANCH  44  45
ENDBRANCH  42  44
ENDBRANCH  12  42
TORSDOF 13
ENDMDL
MODEL 5
REMARK minimizedAffinity -8.22251129
REMARK CNNscore 0.2835747
REMARK CNNaffinity 5.98735666
REMARK  13 active torsions:
REMARK  status: ('A' for Active; 'I' for Inactive)
REMARK    1  A    between atoms: O1_2  and  C2_3 
REMARK    2  A    between atoms: C12_14  and  C13_15 
REMARK    3  A    between atoms: C13_15  and  C15_17 
REMARK    4  A    between atoms: C15_17  and  C16_18 
REMARK    5  A    between atoms: C17_19  and  C18_20 
REMARK    6  A    between atoms: C18_20  and  O3_23 
REMARK    7  A    between atoms: C28_31  and  O4_32 
REMARK    8  A    between atoms: O4_32  and  C29_33 
REMARK    9  A    between atoms: C30_35  and  C31_36 
REMARK   10  A    between atoms: C31_36  and  O6_37 
REMARK   11  A    between atoms: C32_38  and  O7_39 
REMARK   12  A    between atoms: C33_40  and  O8_41 
REMARK   13  A    between atoms: C34_42  and  O9_43 
ROOT
HETATM    1  C2  UNL     1       0.076  14.495  18.018  1.00  0.00     0.270 C 
HETATM    2  O2  UNL     1      -0.453  14.059  16.740  1.00  0.00    -0.344 OA
HETATM    3  C3  UNL     1      -0.651  12.626  16.803  1.00  0.00     0.095 C 
HETATM    4  C4  UNL     1       0.584  11.996  16.154  1.00  0.00     0.008 C 
HETATM    5  C5  UNL     1       1.790  12.018  16.744  1.00  0.00    -0.021 C 
HETATM    6  C6  UNL     1       1.990  12.850  17.985  1.00  0.00     0.030 C 
HETATM    7  C7  UNL     1       0.627  13.192  18.736  1.00  0.00     0.024 C 
HETATM    8  C8  UNL     1       0.694  13.341  20.286  1.00  0.00     0.016 C 
HETATM    9  C9  UNL     1       1.992  12.988  21.035  1.00  0.00     0.011 C 
HETATM   10  C10 UNL     1       2.892  12.010  20.293  1.00  0.00    -0.032 C 
HETATM   11  C11 UNL     1       2.188  10.639  20.151  1.00  0.00     0.016 C 
HETATM   12  C12 UNL     1       4.309  11.832  20.912  1.00  0.00    -0.002 C 
HETATM   13  C21 UNL     1       5.109  11.227  19.730  1.00  0.00     0.006 C 
HETATM   14  C22 UNL     1       4.337  11.609  18.439  1.00  0.00     0.011 C 
HETATM   15  C23 UNL     1       3.250  12.611  18.893  1.00  0.00    -0.029 C 
HETATM   16  C24 UNL     1       3.962  14.018  18.951  1.00  0.00     0.016 C 
HETATM   17  C25 UNL     1      -0.594  12.314  18.303  1.00  0.00     0.039 C 
HETATM   18  C26 UNL     1      -0.752  10.818  18.567  1.00  0.00     0.011 C 
HETATM   19  C27 UNL     1      -2.099  10.334  17.999  1.00  0.00     0.033 C 
HETATM   20  C28 UNL     1      -2.293  10.673  16.504  1.00  0.00     0.136 C 
HETATM   21  C35 UNL     1      -2.025  12.185  16.186  1.00  0.00     0.014 C 
HETATM   22  C36 UNL     1      -3.198  13.026  16.766  1.00  0.00     0.021 C 
HETATM   23  C37 UNL     1      -2.062  12.456  14.661  1.00  0.00     0.021 C 
ENDROOT
BRANCH  20  24
HETATM   24  O4  UNL     1      -1.387   9.832  15.781  1.00  0.00    -0.352 OA
BRANCH  24  25
HETATM   25  C29 UNL     1      -2.028   8.799  15.017  1.00  0.00     0.292 C 
HETATM   26  O5  UNL     1      -3.391   9.151  14.797  1.00  0.00    -0.348 OA
HETATM   27  C30 UNL     1      -4.117   8.203  13.998  1.00  0.00     0.179 C 
HETATM   28  C32 UNL     1      -3.499   6.786  13.960  1.00  0.00     0.180 C 
HETATM   29  C33 UNL     1      -2.867   6.399  15.306  1.00  0.00     0.183 C 
HETATM   30  C34 UNL     1      -1.948   7.504  15.856  1.00  0.00     0.204 C 
BRANCH  27  31
HETATM   31  C31 UNL     1      -5.560   8.188  14.522  1.00  0.00     0.198 C 
BRANCH  31  32
HETATM   32  O6  UNL     1      -5.602   8.322  15.940  1.00  0.00    -0.398 OA
HETATM   33  H48 UNL     1      -5.469   7.434  16.316  1.00  0.00     0.209 HD
ENDBRANCH  31  32
ENDBRANCH  27  31
BRANCH  28  34
HETATM   34  O7  UNL     1      -2.488   6.761  12.933  1.00  0.00    -0.390 OA
HETATM   35  H50 UNL     1      -2.022   5.905  12.978  1.00  0.00     0.210 HD
ENDBRANCH  28  34
BRANCH  29  36
HETATM   36  O8  UNL     1      -3.869   6.088  16.280  1.00  0.00    -0.390 OA
HETATM   37  H52 UNL     1      -4.429   5.371  15.928  1.00  0.00     0.210 HD
ENDBRANCH  29  36
BRANCH  30  38
HETATM   38  O9  UNL     1      -0.593   7.013  15.886  1.00  0.00    -0.388 OA
HETATM   39  H54 UNL     1      -0.445   6.665  16.786  1.00  0.00     0.210 HD
ENDBRANCH  30  38
ENDBRANCH  24  25
ENDBRANCH  20  24
BRANCH   1  40
HETATM   40  O1  UNL     1      -0.960  15.120  18.784  1.00  0.00    -0.365 OA
HETATM   41  C1  UNL     1      -1.694  14.174  19.549  1.00  0.00     0.204 C 
ENDBRANCH   1  40
BRANCH  12  42
HETATM   42  C13 UNL     1       4.557  11.231  22.327  1.00  0.00    -0.010 C 
HETATM   43  C14 UNL     1       3.398  11.667  23.252  1.00  0.00     0.010 C 
BRANCH  42  44
HETATM   44  C15 UNL     1       5.917  11.518  23.000  1.00  0.00     0.031 C 
BRANCH  44  45
HETATM   45  C16 UNL     1       6.435  12.943  22.996  1.00  0.00    -0.027 C 
HETATM   46  C17 UNL     1       7.678  13.356  23.311  1.00  0.00     0.006 C 
BRANCH  46  47
HETATM   47  C18 UNL     1       8.212  14.774  23.306  1.00  0.00     0.068 C 
HETATM   48  C19 UNL     1       7.049  15.759  23.468  1.00  0.00     0.050 C 
HETATM   49  C20 UNL     1       9.053  15.161  22.087  1.00  0.00     0.050 C 
BRANCH  47  50
HETATM   50  O3  UNL     1       9.068  14.907  24.447  1.00  0.00    -0.387 OA
HETATM   51  H30 UNL     1       8.567  14.628  25.232  1.00  0.00     0.211 HD
ENDBRANCH  47  50
ENDBRANCH  46  47
ENDBRANCH  44  45
ENDBRANCH  42  44
ENDBRANCH  12  42
TORSDOF 13
ENDMDL
MODEL 6
REMARK minimizedAffinity -7.47995567
REMARK CNNscore 0.25788492
REMARK CNNaffinity 6.05627823
REMARK  13 active torsions:
REMARK  status: ('A' for Active; 'I' for Inactive)
REMARK    1  A    between atoms: O1_2  and  C2_3 
REMARK    2  A    between atoms: C12_14  and  C13_15 
REMARK    3  A    between atoms: C13_15  and  C15_17 
REMARK    4  A    between atoms: C15_17  and  C16_18 
REMARK    5  A    between atoms: C17_19  and  C18_20 
REMARK    6  A    between atoms: C18_20  and  O3_23 
REMARK    7  A    between atoms: C28_31  and  O4_32 
REMARK    8  A    between atoms: O4_32  and  C29_33 
REMARK    9  A    between atoms: C30_35  and  C31_36 
REMARK   10  A    between atoms: C31_36  and  O6_37 
REMARK   11  A    between atoms: C32_38  and  O7_39 
REMARK   12  A    between atoms: C33_40  and  O8_41 
REMARK   13  A    between atoms: C34_42  and  O9_43 
ROOT
HETATM    1  C2  UNL     1     -16.282 -11.322  27.617  1.00  0.00     0.270 C 
HETATM    2  O2  UNL     1     -15.878 -11.969  26.383  1.00  0.00    -0.344 OA
HETATM    3  C3  UNL     1     -14.432 -11.991  26.342  1.00  0.00     0.095 C 
HETATM    4  C4  UNL     1     -14.012 -10.794  25.485  1.00  0.00     0.008 C 
HETATM    5  C5  UNL     1     -14.141  -9.527  25.916  1.00  0.00    -0.021 C 
HETATM    6  C6  UNL     1     -14.897  -9.255  27.191  1.00  0.00     0.030 C 
HETATM    7  C7  UNL     1     -15.009 -10.532  28.138  1.00  0.00     0.024 C 
HETATM    8  C8  UNL     1     -15.050 -10.269  29.674  1.00  0.00     0.016 C 
HETATM    9  C9  UNL     1     -14.808  -8.849  30.215  1.00  0.00     0.011 C 
HETATM   10  C10 UNL     1     -14.009  -7.953  29.279  1.00  0.00    -0.032 C 
HETATM   11  C11 UNL     1     -12.575  -8.508  29.105  1.00  0.00     0.016 C 
HETATM   12  C12 UNL     1     -13.965  -6.453  29.692  1.00  0.00    -0.002 C 
HETATM   13  C21 UNL     1     -13.555  -5.760  28.369  1.00  0.00     0.006 C 
HETATM   14  C22 UNL     1     -13.932  -6.741  27.226  1.00  0.00     0.011 C 
HETATM   15  C23 UNL     1     -14.752  -7.863  27.905  1.00  0.00    -0.029 C 
HETATM   16  C24 UNL     1     -16.229  -7.316  27.998  1.00  0.00     0.016 C 
HETATM   17  C25 UNL     1     -14.019 -11.692  27.787  1.00  0.00     0.039 C 
HETATM   18  C26 UNL     1     -12.500 -11.639  27.933  1.00  0.00     0.011 C 
HETATM   19  C27 UNL     1     -11.893 -12.988  27.501  1.00  0.00     0.033 C 
HETATM   20  C28 UNL     1     -12.315 -13.423  26.079  1.00  0.00     0.136 C 
HETATM   21  C35 UNL     1     -13.869 -13.377  25.868  1.00  0.00     0.014 C 
HETATM   22  C36 UNL     1     -14.510 -14.547  26.666  1.00  0.00     0.021 C 
HETATM   23  C37 UNL     1     -14.244 -13.655  24.391  1.00  0.00     0.021 C 
ENDROOT
BRANCH  20  24
HETATM   24  O4  UNL     1     -11.650 -12.535  25.173  1.00  0.00    -0.352 OA
BRANCH  24  25
HETATM   25  C29 UNL     1     -10.342 -12.973  24.777  1.00  0.00     0.292 C 
HETATM   26  O5  UNL     1      -9.582 -11.853  24.333  1.00  0.00    -0.348 OA
HETATM   27  C30 UNL     1      -8.234 -12.174  23.955  1.00  0.00     0.179 C 
HETATM   28  C32 UNL     1      -8.002 -13.662  23.600  1.00  0.00     0.180 C 
HETATM   29  C33 UNL     1      -9.215 -14.277  22.886  1.00  0.00     0.183 C 
HETATM   30  C34 UNL     1     -10.536 -13.971  23.614  1.00  0.00     0.204 C 
BRANCH  27  31
HETATM   31  C31 UNL     1      -7.859 -11.241  22.795  1.00  0.00     0.198 C 
BRANCH  31  32
HETATM   32  O6  UNL     1      -6.471 -10.920  22.810  1.00  0.00    -0.398 OA
HETATM   33  H48 UNL     1      -6.356 -10.177  23.429  1.00  0.00     0.209 HD
ENDBRANCH  31  32
ENDBRANCH  27  31
BRANCH  28  34
HETATM   34  O7  UNL     1      -7.750 -14.384  24.821  1.00  0.00    -0.390 OA
HETATM   35  H50 UNL     1      -7.712 -15.336  24.615  1.00  0.00     0.210 HD
ENDBRANCH  28  34
BRANCH  29  36
HETATM   36  O8  UNL     1      -9.305 -13.822  21.531  1.00  0.00    -0.390 OA
HETATM   37  H52 UNL     1      -8.471 -14.043  21.076  1.00  0.00     0.210 HD
ENDBRANCH  29  36
BRANCH  30  38
HETATM   38  O9  UNL     1     -11.095 -15.206  24.104  1.00  0.00    -0.388 OA
HETATM   39  H54 UNL     1     -11.726 -15.513  23.426  1.00  0.00     0.210 HD
ENDBRANCH  30  38
ENDBRANCH  24  25
ENDBRANCH  20  24
BRANCH   1  40
HETATM   40  O1  UNL     1     -16.713 -12.307  28.562  1.00  0.00    -0.365 OA
HETATM   41  C1  UNL     1     -18.131 -12.368  28.651  1.00  0.00     0.204 C 
ENDBRANCH   1  40
BRANCH  12  42
HETATM   42  C13 UNL     1     -13.297  -5.945  31.005  1.00  0.00    -0.010 C 
HETATM   43  C14 UNL     1     -12.557  -4.623  30.695  1.00  0.00     0.010 C 
BRANCH  42  44
HETATM   44  C15 UNL     1     -12.364  -6.918  31.758  1.00  0.00     0.031 C 
BRANCH  44  45
HETATM   45  C16 UNL     1     -12.956  -7.772  32.861  1.00  0.00    -0.027 C 
HETATM   46  C17 UNL     1     -14.232  -7.769  33.296  1.00  0.00     0.006 C 
BRANCH  46  47
HETATM   47  C18 UNL     1     -14.839  -8.619  34.392  1.00  0.00     0.068 C 
HETATM   48  C19 UNL     1     -13.742  -9.462  35.053  1.00  0.00     0.050 C 
HETATM   49  C20 UNL     1     -16.000  -9.522  33.965  1.00  0.00     0.050 C 
BRANCH  47  50
HETATM   50  O3  UNL     1     -15.364  -7.725  35.379  1.00  0.00    -0.387 OA
HETATM   51  H30 UNL     1     -14.654  -7.113  35.639  1.00  0.00     0.211 HD
ENDBRANCH  47  50
ENDBRANCH  46  47
ENDBRANCH  44  45
ENDBRANCH  42  44
ENDBRANCH  12  42
TORSDOF 13
ENDMDL
MODEL 7
REMARK minimizedAffinity -9.10654736
REMARK CNNscore 0.227532402
REMARK CNNaffinity 6.65141058
REMARK  13 active torsions:
REMARK  status: ('A' for Active; 'I' for Inactive)
REMARK    1  A    between atoms: O1_2  and  C2_3 
REMARK    2  A    between atoms: C12_14  and  C13_15 
REMARK    3  A    between atoms: C13_15  and  C15_17 
REMARK    4  A    between atoms: C15_17  and  C16_18 
REMARK    5  A    between atoms: C17_19  and  C18_20 
REMARK    6  A    between atoms: C18_20  and  O3_23 
REMARK    7  A    between atoms: C28_31  and  O4_32 
REMARK    8  A    between atoms: O4_32  and  C29_33 
REMARK    9  A    between atoms: C30_35  and  C31_36 
REMARK   10  A    between atoms: C31_36  and  O6_37 
REMARK   11  A    between atoms: C32_38  and  O7_39 
REMARK   12  A    between atoms: C33_40  and  O8_41 
REMARK   13  A    between atoms: C34_42  and  O9_43 
ROOT
HETATM    1  C2  UNL     1       3.135   7.800   9.965  1.00  0.00     0.270 C 
HETATM    2  O2  UNL     1       4.242   8.729  10.087  1.00  0.00    -0.344 OA
HETATM    3  C3  UNL     1       4.726   8.672  11.450  1.00  0.00     0.095 C 
HETATM    4  C4  UNL     1       4.071   9.844  12.184  1.00  0.00     0.008 C 
HETATM    5  C5  UNL     1       2.760   9.858  12.479  1.00  0.00    -0.021 C 
HETATM    6  C6  UNL     1       1.862   8.790  11.908  1.00  0.00     0.030 C 
HETATM    7  C7  UNL     1       2.655   7.488  11.445  1.00  0.00     0.024 C 
HETATM    8  C8  UNL     1       1.904   6.127  11.560  1.00  0.00     0.016 C 
HETATM    9  C9  UNL     1       0.535   6.064  12.260  1.00  0.00     0.011 C 
HETATM   10  C10 UNL     1       0.293   7.190  13.256  1.00  0.00    -0.032 C 
HETATM   11  C11 UNL     1       1.291   7.086  14.434  1.00  0.00     0.016 C 
HETATM   12  C12 UNL     1      -1.167   7.287  13.788  1.00  0.00    -0.002 C 
HETATM   13  C21 UNL     1      -1.223   8.736  14.333  1.00  0.00     0.006 C 
HETATM   14  C22 UNL     1      -0.090   9.517  13.614  1.00  0.00     0.011 C 
HETATM   15  C23 UNL     1       0.433   8.562  12.516  1.00  0.00    -0.029 C 
HETATM   16  C24 UNL     1      -0.546   8.743  11.291  1.00  0.00     0.016 C 
HETATM   17  C25 UNL     1       4.114   7.380  12.003  1.00  0.00     0.039 C 
HETATM   18  C26 UNL     1       4.492   7.166  13.466  1.00  0.00     0.011 C 
HETATM   19  C27 UNL     1       6.025   7.096  13.598  1.00  0.00     0.033 C 
HETATM   20  C28 UNL     1       6.749   8.322  12.995  1.00  0.00     0.136 C 
HETATM   21  C35 UNL     1       6.293   8.632  11.526  1.00  0.00     0.014 C 
HETATM   22  C36 UNL     1       6.875   7.537  10.588  1.00  0.00     0.021 C 
HETATM   23  C37 UNL     1       6.909   9.958  11.014  1.00  0.00     0.021 C 
ENDROOT
BRANCH  20  24
HETATM   24  O4  UNL     1       6.461   9.425  13.862  1.00  0.00    -0.352 OA
BRANCH  24  25
HETATM   25  C29 UNL     1       7.602   9.919  14.580  1.00  0.00     0.292 C 
HETATM   26  O5  UNL     1       8.776   9.717  13.799  1.00  0.00    -0.348 OA
HETATM   27  C30 UNL     1       9.976  10.220  14.408  1.00  0.00     0.179 C 
HETATM   28  C32 UNL     1       9.892  10.402  15.942  1.00  0.00     0.180 C 
HETATM   29  C33 UNL     1       9.043   9.307  16.604  1.00  0.00     0.183 C 
HETATM   30  C34 UNL     1       7.695   9.105  15.890  1.00  0.00     0.204 C 
BRANCH  27  31
HETATM   31  C31 UNL     1      11.115   9.274  14.003  1.00  0.00     0.198 C 
BRANCH  31  32
HETATM   32  O6  UNL     1      10.622   7.989  13.636  1.00  0.00    -0.398 OA
HETATM   33  H48 UNL     1      10.508   7.481  14.458  1.00  0.00     0.209 HD
ENDBRANCH  31  32
ENDBRANCH  27  31
BRANCH  28  34
HETATM   34  O7  UNL     1       9.306  11.690  16.213  1.00  0.00    -0.390 OA
HETATM   35  H50 UNL     1       9.152  11.764  17.173  1.00  0.00     0.210 HD
ENDBRANCH  28  34
BRANCH  29  36
HETATM   36  O8  UNL     1       9.746   8.061  16.650  1.00  0.00    -0.390 OA
HETATM   37  H52 UNL     1      10.587   8.199  17.125  1.00  0.00     0.210 HD
ENDBRANCH  29  36
BRANCH  30  38
HETATM   38  O9  UNL     1       6.631   9.480  16.787  1.00  0.00    -0.388 OA
HETATM   39  H54 UNL     1       6.338   8.660  17.227  1.00  0.00     0.210 HD
ENDBRANCH  30  38
ENDBRANCH  24  25
ENDBRANCH  20  24
BRANCH   1  40
HETATM   40  O1  UNL     1       3.568   6.614   9.290  1.00  0.00    -0.365 OA
HETATM   41  C1  UNL     1       2.751   6.318   8.166  1.00  0.00     0.204 C 
ENDBRANCH   1  40
BRANCH  12  42
HETATM   42  C13 UNL     1      -1.843   6.173  14.643  1.00  0.00    -0.010 C 
HETATM   43  C14 UNL     1      -0.861   4.985  14.760  1.00  0.00     0.010 C 
BRANCH  42  44
HETATM   44  C15 UNL     1      -3.236   5.676  14.201  1.00  0.00     0.031 C 
BRANCH  44  45
HETATM   45  C16 UNL     1      -3.314   4.456  13.306  1.00  0.00    -0.027 C 
HETATM   46  C17 UNL     1      -4.126   4.276  12.245  1.00  0.00     0.006 C 
BRANCH  46  47
HETATM   47  C18 UNL     1      -4.211   3.065  11.339  1.00  0.00     0.068 C 
HETATM   48  C19 UNL     1      -5.667   2.592  11.254  1.00  0.00     0.050 C 
HETATM   49  C20 UNL     1      -3.305   1.890  11.716  1.00  0.00     0.050 C 
BRANCH  47  50
HETATM   50  O3  UNL     1      -3.805   3.486  10.032  1.00  0.00    -0.387 OA
HETATM   51  H30 UNL     1      -4.341   4.259   9.785  1.00  0.00     0.211 HD
ENDBRANCH  47  50
ENDBRANCH  46  47
ENDBRANCH  44  45
ENDBRANCH  42  44
ENDBRANCH  12  42
TORSDOF 13
ENDMDL
MODEL 8
REMARK minimizedAffinity -8.31695366
REMARK CNNscore 0.219071254
REMARK CNNaffinity 6.09584284
REMARK  13 active torsions:
REMARK  status: ('A' for Active; 'I' for Inactive)
REMARK    1  A    between atoms: O1_2  and  C2_3 
REMARK    2  A    between atoms: C12_14  and  C13_15 
REMARK    3  A    between atoms: C13_15  and  C15_17 
REMARK    4  A    between atoms: C15_17  and  C16_18 
REMARK    5  A    between atoms: C17_19  and  C18_20 
REMARK    6  A    between atoms: C18_20  and  O3_23 
REMARK    7  A    between atoms: C28_31  and  O4_32 
REMARK    8  A    between atoms: O4_32  and  C29_33 
REMARK    9  A    between atoms: C30_35  and  C31_36 
REMARK   10  A    between atoms: C31_36  and  O6_37 
REMARK   11  A    between atoms: C32_38  and  O7_39 
REMARK   12  A    between atoms: C33_40  and  O8_41 
REMARK   13  A    between atoms: C34_42  and  O9_43 
ROOT
HETATM    1  C2  UNL     1      -1.964  11.259  17.130  1.00  0.00     0.270 C 
HETATM    2  O2  UNL     1      -1.956  10.982  15.705  1.00  0.00    -0.344 OA
HETATM    3  C3  UNL     1      -0.798  10.165  15.415  1.00  0.00     0.095 C 
HETATM    4  C4  UNL     1       0.286  11.124  14.916  1.00  0.00     0.008 C 
HETATM    5  C5  UNL     1       0.903  11.991  15.736  1.00  0.00    -0.021 C 
HETATM    6  C6  UNL     1       0.389  12.173  17.141  1.00  0.00     0.030 C 
HETATM    7  C7  UNL     1      -0.497  10.949  17.647  1.00  0.00     0.024 C 
HETATM    8  C8  UNL     1      -0.451  10.628  19.172  1.00  0.00     0.016 C 
HETATM    9  C9  UNL     1       0.551  11.363  20.080  1.00  0.00     0.011 C 
HETATM   10  C10 UNL     1       1.768  11.910  19.349  1.00  0.00    -0.032 C 
HETATM   11  C11 UNL     1       2.611  10.749  18.769  1.00  0.00     0.016 C 
HETATM   12  C12 UNL     1       2.664  12.862  20.196  1.00  0.00    -0.002 C 
HETATM   13  C21 UNL     1       3.467  13.614  19.105  1.00  0.00     0.006 C 
HETATM   14  C22 UNL     1       2.643  13.495  17.795  1.00  0.00     0.011 C 
HETATM   15  C23 UNL     1       1.288  12.880  18.218  1.00  0.00    -0.029 C 
HETATM   16  C24 UNL     1       0.411  14.089  18.726  1.00  0.00     0.016 C 
HETATM   17  C25 UNL     1      -0.360   9.646  16.789  1.00  0.00     0.039 C 
HETATM   18  C26 UNL     1       0.892   8.779  16.684  1.00  0.00     0.011 C 
HETATM   19  C27 UNL     1       0.612   7.581  15.757  1.00  0.00     0.033 C 
HETATM   20  C28 UNL     1       0.086   7.993  14.363  1.00  0.00     0.136 C 
HETATM   21  C35 UNL     1      -1.133   8.977  14.444  1.00  0.00     0.014 C 
HETATM   22  C36 UNL     1      -2.377   8.184  14.934  1.00  0.00     0.021 C 
HETATM   23  C37 UNL     1      -1.527   9.501  13.040  1.00  0.00     0.021 C 
ENDROOT
BRANCH  20  24
HETATM   24  O4  UNL     1       1.189   8.601  13.681  1.00  0.00    -0.352 OA
BRANCH  24  25
HETATM   25  C29 UNL     1       1.791   7.765  12.681  1.00  0.00     0.292 C 
HETATM   26  O5  UNL     1       1.575   8.337  11.394  1.00  0.00    -0.348 OA
HETATM   27  C30 UNL     1       2.181   7.601  10.319  1.00  0.00     0.179 C 
HETATM   28  C32 UNL     1       2.489   6.121  10.646  1.00  0.00     0.180 C 
HETATM   29  C33 UNL     1       1.418   5.499  11.554  1.00  0.00     0.183 C 
HETATM   30  C34 UNL     1       1.096   6.388  12.768  1.00  0.00     0.204 C 
BRANCH  27  31
HETATM   31  C31 UNL     1       1.255   7.741   9.103  1.00  0.00     0.198 C 
BRANCH  31  32
HETATM   32  O6  UNL     1       0.431   8.899   9.205  1.00  0.00    -0.398 OA
HETATM   33  H48 UNL     1      -0.340   8.655   9.748  1.00  0.00     0.209 HD
ENDBRANCH  31  32
ENDBRANCH  27  31
BRANCH  28  34
HETATM   34  O7  UNL     1       3.768   6.060  11.306  1.00  0.00    -0.390 OA
HETATM   35  H50 UNL     1       3.917   5.145  11.609  1.00  0.00     0.210 HD
ENDBRANCH  28  34
BRANCH  29  36
HETATM   36  O8  UNL     1       0.212   5.234  10.829  1.00  0.00    -0.390 OA
HETATM   37  H52 UNL     1       0.426   4.651  10.077  1.00  0.00     0.210 HD
ENDBRANCH  29  36
BRANCH  30  38
HETATM   38  O9  UNL     1       1.499   5.701  13.970  1.00  0.00    -0.388 OA
HETATM   39  H54 UNL     1       0.708   5.238  14.302  1.00  0.00     0.210 HD
ENDBRANCH  30  38
ENDBRANCH  24  25
ENDBRANCH  20  24
BRANCH   1  40
HETATM   40  O1  UNL     1      -2.937  10.433  17.779  1.00  0.00    -0.365 OA
HETATM   41  C1  UNL     1      -3.791  11.191  18.625  1.00  0.00     0.204 C 
ENDBRANCH   1  40
BRANCH  12  42
HETATM   42  C13 UNL     1       3.438  12.403  21.468  1.00  0.00    -0.010 C 
HETATM   43  C14 UNL     1       2.604  11.312  22.178  1.00  0.00     0.010 C 
BRANCH  42  44
HETATM   44  C15 UNL     1       3.869  13.490  22.475  1.00  0.00     0.031 C 
BRANCH  44  45
HETATM   45  C16 UNL     1       5.347  13.787  22.625  1.00  0.00    -0.027 C 
HETATM   46  C17 UNL     1       6.368  12.914  22.507  1.00  0.00     0.006 C 
BRANCH  46  47
HETATM   47  C18 UNL     1       7.849  13.196  22.648  1.00  0.00     0.068 C 
HETATM   48  C19 UNL     1       8.557  11.949  23.190  1.00  0.00     0.050 C 
HETATM   49  C20 UNL     1       8.214  14.412  23.503  1.00  0.00     0.050 C 
BRANCH  47  50
HETATM   50  O3  UNL     1       8.357  13.458  21.335  1.00  0.00    -0.387 OA
HETATM   51  H30 UNL     1       8.103  12.716  20.760  1.00  0.00     0.211 HD
ENDBRANCH  47  50
ENDBRANCH  46  47
ENDBRANCH  44  45
ENDBRANCH  42  44
ENDBRANCH  12  42
TORSDOF 13
ENDMDL
MODEL 9
REMARK minimizedAffinity -9.1848259
REMARK CNNscore 0.188166365
REMARK CNNaffinity 6.37535334
REMARK  13 active torsions:
REMARK  status: ('A' for Active; 'I' for Inactive)
REMARK    1  A    between atoms: O1_2  and  C2_3 
REMARK    2  A    between atoms: C12_14  and  C13_15 
REMARK    3  A    between atoms: C13_15  and  C15_17 
REMARK    4  A    between atoms: C15_17  and  C16_18 
REMARK    5  A    between atoms: C17_19  and  C18_20 
REMARK    6  A    between atoms: C18_20  and  O3_23 
REMARK    7  A    between atoms: C28_31  and  O4_32 
REMARK    8  A    between atoms: O4_32  and  C29_33 
REMARK    9  A    between atoms: C30_35  and  C31_36 
REMARK   10  A    between atoms: C31_36  and  O6_37 
REMARK   11  A    between atoms: C32_38  and  O7_39 
REMARK   12  A    between atoms: C33_40  and  O8_41 
REMARK   13  A    between atoms: C34_42  and  O9_43 
ROOT
HETATM    1  C2  UNL     1       2.974   7.788  10.147  1.00  0.00     0.270 C 
HETATM    2  O2  UNL     1       4.090   8.705  10.283  1.00  0.00    -0.344 OA
HETATM    3  C3  UNL     1       4.552   8.646  11.653  1.00  0.00     0.095 C 
HETATM    4  C4  UNL     1       3.899   9.827  12.375  1.00  0.00     0.008 C 
HETATM    5  C5  UNL     1       2.584   9.855  12.651  1.00  0.00    -0.021 C 
HETATM    6  C6  UNL     1       1.684   8.796  12.068  1.00  0.00     0.030 C 
HETATM    7  C7  UNL     1       2.470   7.484  11.620  1.00  0.00     0.024 C 
HETATM    8  C8  UNL     1       1.702   6.132  11.727  1.00  0.00     0.016 C 
HETATM    9  C9  UNL     1       0.323   6.085  12.407  1.00  0.00     0.011 C 
HETATM   10  C10 UNL     1       0.078   7.215  13.397  1.00  0.00    -0.032 C 
HETATM   11  C11 UNL     1       1.058   7.103  14.589  1.00  0.00     0.016 C 
HETATM   12  C12 UNL     1      -1.389   7.329  13.907  1.00  0.00    -0.002 C 
HETATM   13  C21 UNL     1      -1.437   8.780  14.448  1.00  0.00     0.006 C 
HETATM   14  C22 UNL     1      -0.286   9.547  13.744  1.00  0.00     0.011 C 
HETATM   15  C23 UNL     1       0.243   8.584  12.655  1.00  0.00    -0.029 C 
HETATM   16  C24 UNL     1      -0.716   8.773  11.416  1.00  0.00     0.016 C 
HETATM   17  C25 UNL     1       3.919   7.362  12.200  1.00  0.00     0.039 C 
HETATM   18  C26 UNL     1       4.273   7.148  13.669  1.00  0.00     0.011 C 
HETATM   19  C27 UNL     1       5.803   7.062  13.823  1.00  0.00     0.033 C 
HETATM   20  C28 UNL     1       6.549   8.278  13.228  1.00  0.00     0.136 C 
HETATM   21  C35 UNL     1       6.118   8.589  11.753  1.00  0.00     0.014 C 
HETATM   22  C36 UNL     1       6.702   7.486  10.825  1.00  0.00     0.021 C 
HETATM   23  C37 UNL     1       6.755   9.907  11.246  1.00  0.00     0.021 C 
ENDROOT
BRANCH  20  24
HETATM   24  O4  UNL     1       6.260   9.386  14.089  1.00  0.00    -0.352 OA
BRANCH  24  25
HETATM   25  C29 UNL     1       7.377   9.821  14.879  1.00  0.00     0.292 C 
HETATM   26  O5  UNL     1       8.405  10.305  14.019  1.00  0.00    -0.348 OA
HETATM   27  C30 UNL     1       9.556  10.811  14.713  1.00  0.00     0.179 C 
HETATM   28  C32 UNL     1       9.716  10.291  16.161  1.00  0.00     0.180 C 
HETATM   29  C33 UNL     1       9.261   8.831  16.299  1.00  0.00     0.183 C 
HETATM   30  C34 UNL     1       7.882   8.588  15.660  1.00  0.00     0.204 C 
BRANCH  27  31
HETATM   31  C31 UNL     1      10.781  10.484  13.846  1.00  0.00     0.198 C 
BRANCH  31  32
HETATM   32  O6  UNL     1      10.635   9.229  13.188  1.00  0.00    -0.398 OA
HETATM   33  H48 UNL     1      10.913   8.541  13.818  1.00  0.00     0.209 HD
ENDBRANCH  31  32
ENDBRANCH  27  31
BRANCH  28  34
HETATM   34  O7  UNL     1       8.923  11.123  17.029  1.00  0.00    -0.390 OA
HETATM   35  H50 UNL     1       8.933  10.736  17.924  1.00  0.00     0.210 HD
ENDBRANCH  28  34
BRANCH  29  36
HETATM   36  O8  UNL     1      10.215   7.932  15.723  1.00  0.00    -0.390 OA
HETATM   37  H52 UNL     1      11.077   8.081  16.154  1.00  0.00     0.210 HD
ENDBRANCH  29  36
BRANCH  30  38
HETATM   38  O9  UNL     1       6.943   8.235  16.695  1.00  0.00    -0.388 OA
HETATM   39  H54 UNL     1       6.921   7.260  16.728  1.00  0.00     0.210 HD
ENDBRANCH  30  38
ENDBRANCH  24  25
ENDBRANCH  20  24
BRANCH   1  40
HETATM   40  O1  UNL     1       3.405   6.595   9.481  1.00  0.00    -0.365 OA
HETATM   41  C1  UNL     1       2.702   6.387   8.264  1.00  0.00     0.204 C 
ENDBRANCH   1  40
BRANCH  12  42
HETATM   42  C13 UNL     1      -2.089   6.224  14.754  1.00  0.00    -0.010 C 
HETATM   43  C14 UNL     1      -2.394   5.022  13.831  1.00  0.00     0.010 C 
BRANCH  42  44
HETATM   44  C15 UNL     1      -3.350   6.623  15.550  1.00  0.00     0.031 C 
BRANCH  44  45
HETATM   45  C16 UNL     1      -4.705   6.244  14.988  1.00  0.00    -0.027 C 
HETATM   46  C17 UNL     1      -5.857   6.098  15.672  1.00  0.00     0.006 C 
BRANCH  46  47
HETATM   47  C18 UNL     1      -7.219   5.725  15.124  1.00  0.00     0.068 C 
HETATM   48  C19 UNL     1      -7.050   4.975  13.799  1.00  0.00     0.050 C 
HETATM   49  C20 UNL     1      -8.200   6.886  14.941  1.00  0.00     0.050 C 
BRANCH  47  50
HETATM   50  O3  UNL     1      -7.823   4.830  16.065  1.00  0.00    -0.387 OA
HETATM   51  H30 UNL     1      -7.200   4.102  16.230  1.00  0.00     0.211 HD
ENDBRANCH  47  50
ENDBRANCH  46  47
ENDBRANCH  44  45
ENDBRANCH  42  44
ENDBRANCH  12  42
TORSDOF 13
ENDMDL
