MODEL 1
REMARK minimizedAffinity -7.43709755
REMARK CNNscore 0.75159812
REMARK CNNaffinity 4.43158484
REMARK  12 active torsions:
REMARK  status: ('A' for Active; 'I' for Inactive)
REMARK    1  A    between atoms: C3_3  and  O1_4 
REMARK    2  A    between atoms: O1_4  and  C4_5 
REMARK    3  A    between atoms: C5_7  and  C6_8 
REMARK    4  A    between atoms: C6_8  and  O3_9 
REMARK    5  A    between atoms: C7_10  and  O4_11 
REMARK    6  A    between atoms: C8_12  and  O5_13 
REMARK    7  A    between atoms: C9_14  and  O6_15 
REMARK    8  A    between atoms: C10_16  and  O7_17 
REMARK    9  A    between atoms: C15_22  and  O8_23 
REMARK   10  A    between atoms: C15_22  and  C16_24 
REMARK   11  A    between atoms: C17_25  and  C18_26 
REMARK   12  A    between atoms: C18_26  and  O9_28 
ROOT
HETATM    1  C1  UNL     1       2.398  66.269 -36.844  1.00  0.00     0.016 C 
HETATM    2  C2  UNL     1       3.531  67.257 -37.199  1.00  0.00     0.052 C 
HETATM    3  C3  UNL     1       3.756  67.311 -38.730  1.00  0.00     0.160 C 
HETATM    4  C10 UNL     1       4.970  68.180 -39.134  1.00  0.00     0.148 C 
HETATM    5  C11 UNL     1       6.204  67.970 -38.256  1.00  0.00     0.046 C 
HETATM    6  C12 UNL     1       5.932  68.094 -36.744  1.00  0.00    -0.010 C 
HETATM    7  C13 UNL     1       7.276  67.866 -36.003  1.00  0.00     0.018 C 
HETATM    8  C14 UNL     1       5.509  69.547 -36.406  1.00  0.00     0.018 C 
HETATM    9  C15 UNL     1       4.819  67.049 -36.336  1.00  0.00     0.088 C 
ENDROOT
BRANCH   3  10
HETATM   10  O1  UNL     1       2.514  67.799 -39.279  1.00  0.00    -0.350 OA
BRANCH  10  11
HETATM   11  C4  UNL     1       1.792  66.901 -40.109  1.00  0.00     0.292 C 
HETATM   12  O2  UNL     1       2.004  67.171 -41.496  1.00  0.00    -0.348 OA
HETATM   13  C5  UNL     1       1.561  68.462 -41.958  1.00  0.00     0.179 C 
HETATM   14  C7  UNL     1       0.484  69.118 -41.081  1.00  0.00     0.180 C 
HETATM   15  C8  UNL     1      -0.458  68.022 -40.599  1.00  0.00     0.183 C 
HETATM   16  C9  UNL     1       0.286  66.984 -39.751  1.00  0.00     0.204 C 
BRANCH  13  17
HETATM   17  C6  UNL     1       2.744  69.397 -42.257  1.00  0.00     0.198 C 
BRANCH  17  18
HETATM   18  O3  UNL     1       2.716  69.914 -43.582  1.00  0.00    -0.398 OA
HETATM   19  H10 UNL     1       3.541  70.415 -43.707  1.00  0.00     0.209 HD
ENDBRANCH  17  18
ENDBRANCH  13  17
BRANCH  14  20
HETATM   20  O4  UNL     1      -0.261  70.081 -41.842  1.00  0.00    -0.390 OA
HETATM   21  H12 UNL     1      -1.056  70.260 -41.298  1.00  0.00     0.210 HD
ENDBRANCH  14  20
BRANCH  15  22
HETATM   22  O5  UNL     1      -1.541  68.611 -39.855  1.00  0.00    -0.390 OA
HETATM   23  H14 UNL     1      -2.038  67.868 -39.462  1.00  0.00     0.210 HD
ENDBRANCH  15  22
BRANCH  16  24
HETATM   24  O6  UNL     1      -0.375  65.715 -39.947  1.00  0.00    -0.388 OA
HETATM   25  H16 UNL     1      -0.103  65.387 -40.826  1.00  0.00     0.210 HD
ENDBRANCH  16  24
ENDBRANCH  10  11
ENDBRANCH   3  10
BRANCH   4  26
HETATM   26  O7  UNL     1       5.373  67.884 -40.482  1.00  0.00    -0.393 OA
HETATM   27  H18 UNL     1       5.740  66.986 -40.505  1.00  0.00     0.210 HD
ENDBRANCH   4  26
BRANCH   9  28
HETATM   28  O8  UNL     1       4.405  67.324 -34.983  1.00  0.00    -0.385 OA
HETATM   29  H27 UNL     1       5.189  67.327 -34.413  1.00  0.00     0.211 HD
ENDBRANCH   9  28
BRANCH   9  30
HETATM   30  C16 UNL     1       5.375  65.631 -36.271  1.00  0.00     0.010 C 
HETATM   31  C17 UNL     1       5.295  64.700 -35.300  1.00  0.00     0.003 C 
BRANCH  31  32
HETATM   32  C18 UNL     1       5.885  63.313 -35.360  1.00  0.00     0.136 C 
HETATM   33  C19 UNL     1       7.148  63.222 -34.516  1.00  0.00     0.043 C 
BRANCH  32  34
HETATM   34  O9  UNL     1       4.957  62.345 -34.889  1.00  0.00    -0.392 OA
HETATM   35  H34 UNL     1       4.181  62.395 -35.477  1.00  0.00     0.210 HD
ENDBRANCH  32  34
ENDBRANCH  31  32
ENDBRANCH   9  30
TORSDOF 12
ENDMDL
MODEL 2
REMARK minimizedAffinity -6.6499505
REMARK CNNscore 0.594745755
REMARK CNNaffinity 4.50559282
REMARK  12 active torsions:
REMARK  status: ('A' for Active; 'I' for Inactive)
REMARK    1  A    between atoms: C3_3  and  O1_4 
REMARK    2  A    between atoms: O1_4  and  C4_5 
REMARK    3  A    between atoms: C5_7  and  C6_8 
REMARK    4  A    between atoms: C6_8  and  O3_9 
REMARK    5  A    between atoms: C7_10  and  O4_11 
REMARK    6  A    between atoms: C8_12  and  O5_13 
REMARK    7  A    between atoms: C9_14  and  O6_15 
REMARK    8  A    between atoms: C10_16  and  O7_17 
REMARK    9  A    between atoms: C15_22  and  O8_23 
REMARK   10  A    between atoms: C15_22  and  C16_24 
REMARK   11  A    between atoms: C17_25  and  C18_26 
REMARK   12  A    between atoms: C18_26  and  O9_28 
ROOT
HETATM    1  C1  UNL     1      -2.662  47.705 -22.294  1.00  0.00     0.016 C 
HETATM    2  C2  UNL     1      -2.853  49.227 -22.118  1.00  0.00     0.052 C 
HETATM    3  C3  UNL     1      -4.115  49.531 -21.273  1.00  0.00     0.160 C 
HETATM    4  C10 UNL     1      -4.433  51.042 -21.180  1.00  0.00     0.148 C 
HETATM    5  C11 UNL     1      -4.286  51.790 -22.505  1.00  0.00     0.046 C 
HETATM    6  C12 UNL     1      -2.933  51.567 -23.211  1.00  0.00    -0.010 C 
HETATM    7  C13 UNL     1      -2.943  52.395 -24.523  1.00  0.00     0.018 C 
HETATM    8  C14 UNL     1      -1.789  52.160 -22.349  1.00  0.00     0.018 C 
HETATM    9  C15 UNL     1      -2.736  50.019 -23.462  1.00  0.00     0.088 C 
ENDROOT
BRANCH   3  10
HETATM   10  O1  UNL     1      -3.860  48.935 -19.984  1.00  0.00    -0.350 OA
BRANCH  10  11
HETATM   11  C4  UNL     1      -2.573  49.153 -19.428  1.00  0.00     0.292 C 
HETATM   12  O2  UNL     1      -1.988  47.943 -18.945  1.00  0.00    -0.348 OA
HETATM   13  C5  UNL     1      -2.693  47.288 -17.873  1.00  0.00     0.179 C 
HETATM   14  C7  UNL     1      -3.619  48.209 -17.064  1.00  0.00     0.180 C 
HETATM   15  C8  UNL     1      -2.928  49.561 -16.924  1.00  0.00     0.183 C 
HETATM   16  C9  UNL     1      -2.686  50.205 -18.293  1.00  0.00     0.204 C 
BRANCH  13  17
HETATM   17  C6  UNL     1      -3.391  46.004 -18.350  1.00  0.00     0.198 C 
BRANCH  17  18
HETATM   18  O3  UNL     1      -4.611  45.753 -17.663  1.00  0.00    -0.398 OA
HETATM   19  H10 UNL     1      -4.930  44.884 -17.964  1.00  0.00     0.209 HD
ENDBRANCH  17  18
ENDBRANCH  13  17
BRANCH  14  20
HETATM   20  O4  UNL     1      -3.853  47.660 -15.759  1.00  0.00    -0.390 OA
HETATM   21  H12 UNL     1      -4.231  48.403 -15.245  1.00  0.00     0.210 HD
ENDBRANCH  14  20
BRANCH  15  22
HETATM   22  O5  UNL     1      -3.721  50.421 -16.085  1.00  0.00    -0.390 OA
HETATM   23  H14 UNL     1      -3.307  51.305 -16.132  1.00  0.00     0.210 HD
ENDBRANCH  15  22
BRANCH  16  24
HETATM   24  O6  UNL     1      -1.486  51.001 -18.188  1.00  0.00    -0.388 OA
HETATM   25  H16 UNL     1      -0.733  50.380 -18.199  1.00  0.00     0.210 HD
ENDBRANCH  16  24
ENDBRANCH  10  11
ENDBRANCH   3  10
BRANCH   4  26
HETATM   26  O7  UNL     1      -5.789  51.244 -20.746  1.00  0.00    -0.393 OA
HETATM   27  H18 UNL     1      -6.387  50.946 -21.449  1.00  0.00     0.210 HD
ENDBRANCH   4  26
BRANCH   9  28
HETATM   28  O8  UNL     1      -1.383  49.795 -23.907  1.00  0.00    -0.385 OA
HETATM   29  H27 UNL     1      -1.213  50.357 -24.677  1.00  0.00     0.211 HD
ENDBRANCH   9  28
BRANCH   9  30
HETATM   30  C16 UNL     1      -3.592  49.524 -24.622  1.00  0.00     0.010 C 
HETATM   31  C17 UNL     1      -3.258  48.827 -25.726  1.00  0.00     0.003 C 
BRANCH  31  32
HETATM   32  C18 UNL     1      -4.209  48.382 -26.808  1.00  0.00     0.136 C 
HETATM   33  C19 UNL     1      -5.571  48.035 -26.226  1.00  0.00     0.043 C 
BRANCH  32  34
HETATM   34  O9  UNL     1      -4.382  49.400 -27.785  1.00  0.00    -0.392 OA
HETATM   35  H34 UNL     1      -3.503  49.566 -28.171  1.00  0.00     0.210 HD
ENDBRANCH  32  34
ENDBRANCH  31  32
ENDBRANCH   9  30
TORSDOF 12
ENDMDL
MODEL 3
REMARK minimizedAffinity -8.63437653
REMARK CNNscore 0.49560076
REMARK CNNaffinity 4.47092628
REMARK  12 active torsions:
REMARK  status: ('A' for Active; 'I' for Inactive)
REMARK    1  A    between atoms: C3_3  and  O1_4 
REMARK    2  A    between atoms: O1_4  and  C4_5 
REMARK    3  A    between atoms: C5_7  and  C6_8 
REMARK    4  A    between atoms: C6_8  and  O3_9 
REMARK    5  A    between atoms: C7_10  and  O4_11 
REMARK    6  A    between atoms: C8_12  and  O5_13 
REMARK    7  A    between atoms: C9_14  and  O6_15 
REMARK    8  A    between atoms: C10_16  and  O7_17 
REMARK    9  A    between atoms: C15_22  and  O8_23 
REMARK   10  A    between atoms: C15_22  and  C16_24 
REMARK   11  A    between atoms: C17_25  and  C18_26 
REMARK   12  A    between atoms: C18_26  and  O9_28 
ROOT
HETATM    1  C1  UNL     1       1.905  66.011 -36.182  1.00  0.00     0.016 C 
HETATM    2  C2  UNL     1       3.267  66.664 -36.501  1.00  0.00     0.052 C 
HETATM    3  C3  UNL     1       4.118  66.824 -35.217  1.00  0.00     0.160 C 
HETATM    4  C10 UNL     1       5.436  67.598 -35.454  1.00  0.00     0.148 C 
HETATM    5  C11 UNL     1       5.280  68.831 -36.344  1.00  0.00     0.046 C 
HETATM    6  C12 UNL     1       4.566  68.559 -37.683  1.00  0.00    -0.010 C 
HETATM    7  C13 UNL     1       4.499  69.899 -38.462  1.00  0.00     0.018 C 
HETATM    8  C14 UNL     1       5.431  67.611 -38.553  1.00  0.00     0.018 C 
HETATM    9  C15 UNL     1       3.140  67.946 -37.387  1.00  0.00     0.088 C 
ENDROOT
BRANCH   3  10
HETATM   10  O1  UNL     1       4.338  65.480 -34.739  1.00  0.00    -0.350 OA
BRANCH  10  11
HETATM   11  C4  UNL     1       4.990  65.353 -33.484  1.00  0.00     0.292 C 
HETATM   12  O2  UNL     1       6.243  64.677 -33.601  1.00  0.00    -0.348 OA
HETATM   13  C5  UNL     1       6.181  63.316 -34.070  1.00  0.00     0.179 C 
HETATM   14  C7  UNL     1       4.821  62.633 -33.863  1.00  0.00     0.180 C 
HETATM   15  C8  UNL     1       4.265  63.093 -32.521  1.00  0.00     0.183 C 
HETATM   16  C9  UNL     1       4.048  64.610 -32.501  1.00  0.00     0.204 C 
BRANCH  13  17
HETATM   17  C6  UNL     1       6.708  63.185 -35.507  1.00  0.00     0.198 C 
BRANCH  17  18
HETATM   18  O3  UNL     1       5.664  63.051 -36.466  1.00  0.00    -0.398 OA
HETATM   19  H10 UNL     1       6.090  62.884 -37.325  1.00  0.00     0.209 HD
ENDBRANCH  17  18
ENDBRANCH  13  17
BRANCH  14  20
HETATM   20  O4  UNL     1       4.977  61.206 -33.846  1.00  0.00    -0.390 OA
HETATM   21  H12 UNL     1       4.135  60.872 -33.473  1.00  0.00     0.210 HD
ENDBRANCH  14  20
BRANCH  15  22
HETATM   22  O5  UNL     1       3.036  62.395 -32.245  1.00  0.00    -0.390 OA
HETATM   23  H14 UNL     1       2.657  62.814 -31.448  1.00  0.00     0.210 HD
ENDBRANCH  15  22
BRANCH  16  24
HETATM   24  O6  UNL     1       4.246  65.055 -31.141  1.00  0.00    -0.388 OA
HETATM   25  H16 UNL     1       5.209  65.057 -30.982  1.00  0.00     0.210 HD
ENDBRANCH  16  24
ENDBRANCH  10  11
ENDBRANCH   3  10
BRANCH   4  26
HETATM   26  O7  UNL     1       5.978  68.060 -34.206  1.00  0.00    -0.393 OA
HETATM   27  H18 UNL     1       5.392  68.747 -33.849  1.00  0.00     0.210 HD
ENDBRANCH   4  26
BRANCH   9  28
HETATM   28  O8  UNL     1       2.574  67.483 -38.629  1.00  0.00    -0.385 OA
HETATM   29  H27 UNL     1       2.579  68.214 -39.265  1.00  0.00     0.211 HD
ENDBRANCH   9  28
BRANCH   9  30
HETATM   30  C16 UNL     1       2.158  69.011 -36.910  1.00  0.00     0.010 C 
HETATM   31  C17 UNL     1       1.070  68.912 -36.122  1.00  0.00     0.003 C 
BRANCH  31  32
HETATM   32  C18 UNL     1       0.176  70.055 -35.708  1.00  0.00     0.136 C 
HETATM   33  C19 UNL     1      -1.071  70.113 -36.578  1.00  0.00     0.043 C 
BRANCH  32  34
HETATM   34  O9  UNL     1      -0.226  69.920 -34.351  1.00  0.00    -0.392 OA
HETATM   35  H34 UNL     1       0.589  69.933 -33.817  1.00  0.00     0.210 HD
ENDBRANCH  32  34
ENDBRANCH  31  32
ENDBRANCH   9  30
TORSDOF 12
ENDMDL
MODEL 4
REMARK minimizedAffinity -6.84021902
REMARK CNNscore 0.472201288
REMARK CNNaffinity 4.61427546
REMARK  12 active torsions:
REMARK  status: ('A' for Active; 'I' for Inactive)
REMARK    1  A    between atoms: C3_3  and  O1_4 
REMARK    2  A    between atoms: O1_4  and  C4_5 
REMARK    3  A    between atoms: C5_7  and  C6_8 
REMARK    4  A    between atoms: C6_8  and  O3_9 
REMARK    5  A    between atoms: C7_10  and  O4_11 
REMARK    6  A    between atoms: C8_12  and  O5_13 
REMARK    7  A    between atoms: C9_14  and  O6_15 
REMARK    8  A    between atoms: C10_16  and  O7_17 
REMARK    9  A    between atoms: C15_22  and  O8_23 
REMARK   10  A    between atoms: C15_22  and  C16_24 
REMARK   11  A    between atoms: C17_25  and  C18_26 
REMARK   12  A    between atoms: C18_26  and  O9_28 
ROOT
HETATM    1  C1  UNL     1     -10.764  45.928 -32.364  1.00  0.00     0.016 C 
HETATM    2  C2  UNL     1      -9.459  46.536 -31.806  1.00  0.00     0.052 C 
HETATM    3  C3  UNL     1      -9.727  47.916 -31.155  1.00  0.00     0.160 C 
HETATM    4  C10 UNL     1      -8.434  48.633 -30.701  1.00  0.00     0.148 C 
HETATM    5  C11 UNL     1      -7.291  48.551 -31.712  1.00  0.00     0.046 C 
HETATM    6  C12 UNL     1      -6.972  47.121 -32.192  1.00  0.00    -0.010 C 
HETATM    7  C13 UNL     1      -5.793  47.212 -33.196  1.00  0.00     0.018 C 
HETATM    8  C14 UNL     1      -6.446  46.276 -31.004  1.00  0.00     0.018 C 
HETATM    9  C15 UNL     1      -8.276  46.493 -32.827  1.00  0.00     0.088 C 
ENDROOT
BRANCH   3  10
HETATM   10  O1  UNL     1     -10.630  47.649 -30.061  1.00  0.00    -0.350 OA
BRANCH  10  11
HETATM   11  C4  UNL     1     -10.106  46.904 -28.973  1.00  0.00     0.292 C 
HETATM   12  O2  UNL     1     -10.997  45.869 -28.557  1.00  0.00    -0.348 OA
HETATM   13  C5  UNL     1     -12.278  46.305 -28.060  1.00  0.00     0.179 C 
HETATM   14  C7  UNL     1     -12.304  47.753 -27.552  1.00  0.00     0.180 C 
HETATM   15  C8  UNL     1     -10.982  48.025 -26.843  1.00  0.00     0.183 C 
HETATM   16  C9  UNL     1      -9.797  47.873 -27.802  1.00  0.00     0.204 C 
BRANCH  13  17
HETATM   17  C6  UNL     1     -13.409  45.996 -29.053  1.00  0.00     0.198 C 
BRANCH  17  18
HETATM   18  O3  UNL     1     -14.676  45.858 -28.419  1.00  0.00    -0.398 OA
HETATM   19  H10 UNL     1     -15.306  45.577 -29.105  1.00  0.00     0.209 HD
ENDBRANCH  17  18
ENDBRANCH  13  17
BRANCH  14  20
HETATM   20  O4  UNL     1     -13.384  47.938 -26.625  1.00  0.00    -0.390 OA
HETATM   21  H12 UNL     1     -13.181  48.786 -26.178  1.00  0.00     0.210 HD
ENDBRANCH  14  20
BRANCH  15  22
HETATM   22  O5  UNL     1     -11.009  49.343 -26.264  1.00  0.00    -0.390 OA
HETATM   23  H14 UNL     1     -10.104  49.516 -25.939  1.00  0.00     0.210 HD
ENDBRANCH  15  22
BRANCH  16  24
HETATM   24  O6  UNL     1      -8.669  47.418 -27.023  1.00  0.00    -0.388 OA
HETATM   25  H16 UNL     1      -8.814  46.470 -26.842  1.00  0.00     0.210 HD
ENDBRANCH  16  24
ENDBRANCH  10  11
ENDBRANCH   3  10
BRANCH   4  26
HETATM   26  O7  UNL     1      -8.686  50.032 -30.482  1.00  0.00    -0.393 OA
HETATM   27  H18 UNL     1      -8.870  50.451 -31.339  1.00  0.00     0.210 HD
ENDBRANCH   4  26
BRANCH   9  28
HETATM   28  O8  UNL     1      -8.041  45.090 -33.062  1.00  0.00    -0.385 OA
HETATM   29  H27 UNL     1      -7.240  44.995 -33.598  1.00  0.00     0.211 HD
ENDBRANCH   9  28
BRANCH   9  30
HETATM   30  C16 UNL     1      -8.553  47.057 -34.216  1.00  0.00     0.010 C 
HETATM   31  C17 UNL     1      -8.746  46.434 -35.395  1.00  0.00     0.003 C 
BRANCH  31  32
HETATM   32  C18 UNL     1      -9.026  47.112 -36.714  1.00  0.00     0.136 C 
HETATM   33  C19 UNL     1     -10.500  47.009 -37.075  1.00  0.00     0.043 C 
BRANCH  32  34
HETATM   34  O9  UNL     1      -8.668  48.487 -36.665  1.00  0.00    -0.392 OA
HETATM   35  H34 UNL     1      -7.712  48.518 -36.479  1.00  0.00     0.210 HD
ENDBRANCH  32  34
ENDBRANCH  31  32
ENDBRANCH   9  30
TORSDOF 12
ENDMDL
MODEL 5
REMARK minimizedAffinity -6.43922758
REMARK CNNscore 0.395009965
REMARK CNNaffinity 4.71585226
REMARK  12 active torsions:
REMARK  status: ('A' for Active; 'I' for Inactive)
REMARK    1  A    between atoms: C3_3  and  O1_4 
REMARK    2  A    between atoms: O1_4  and  C4_5 
REMARK    3  A    between atoms: C5_7  and  C6_8 
REMARK    4  A    between atoms: C6_8  and  O3_9 
REMARK    5  A    between atoms: C7_10  and  O4_11 
REMARK    6  A    between atoms: C8_12  and  O5_13 
REMARK    7  A    between atoms: C9_14  and  O6_15 
REMARK    8  A    between atoms: C10_16  and  O7_17 
REMARK    9  A    between atoms: C15_22  and  O8_23 
REMARK   10  A    between atoms: C15_22  and  C16_24 
REMARK   11  A    between atoms: C17_25  and  C18_26 
REMARK   12  A    between atoms: C18_26  and  O9_28 
ROOT
HETATM    1  C1  UNL     1      -4.250  43.643 -32.813  1.00  0.00     0.016 C 
HETATM    2  C2  UNL     1      -5.775  43.410 -32.872  1.00  0.00     0.052 C 
HETATM    3  C3  UNL     1      -6.431  43.691 -31.498  1.00  0.00     0.160 C 
HETATM    4  C10 UNL     1      -7.937  43.341 -31.461  1.00  0.00     0.148 C 
HETATM    5  C11 UNL     1      -8.283  42.015 -32.138  1.00  0.00     0.046 C 
HETATM    6  C12 UNL     1      -7.732  41.875 -33.571  1.00  0.00    -0.010 C 
HETATM    7  C13 UNL     1      -8.177  40.490 -34.113  1.00  0.00     0.018 C 
HETATM    8  C14 UNL     1      -8.405  42.922 -34.495  1.00  0.00     0.018 C 
HETATM    9  C15 UNL     1      -6.162  42.047 -33.535  1.00  0.00     0.088 C 
ENDROOT
BRANCH   3  10
HETATM   10  O1  UNL     1      -6.176  45.088 -31.236  1.00  0.00    -0.350 OA
BRANCH  10  11
HETATM   11  C4  UNL     1      -7.163  46.006 -31.679  1.00  0.00     0.292 C 
HETATM   12  O2  UNL     1      -6.701  46.799 -32.773  1.00  0.00    -0.348 OA
HETATM   13  C5  UNL     1      -5.571  47.650 -32.499  1.00  0.00     0.179 C 
HETATM   14  C7  UNL     1      -5.375  47.989 -31.014  1.00  0.00     0.180 C 
HETATM   15  C8  UNL     1      -6.753  48.182 -30.392  1.00  0.00     0.183 C 
HETATM   16  C9  UNL     1      -7.589  46.901 -30.487  1.00  0.00     0.204 C 
BRANCH  13  17
HETATM   17  C6  UNL     1      -4.290  47.131 -33.170  1.00  0.00     0.198 C 
BRANCH  17  18
HETATM   18  O3  UNL     1      -3.284  48.131 -33.284  1.00  0.00    -0.398 OA
HETATM   19  H10 UNL     1      -2.555  47.741 -33.797  1.00  0.00     0.209 HD
ENDBRANCH  17  18
ENDBRANCH  13  17
BRANCH  14  20
HETATM   20  O4  UNL     1      -4.619  49.201 -30.873  1.00  0.00    -0.390 OA
HETATM   21  H12 UNL     1      -4.753  49.466 -29.940  1.00  0.00     0.210 HD
ENDBRANCH  14  20
BRANCH  15  22
HETATM   22  O5  UNL     1      -6.609  48.601 -29.022  1.00  0.00    -0.390 OA
HETATM   23  H14 UNL     1      -7.506  48.584 -28.636  1.00  0.00     0.210 HD
ENDBRANCH  15  22
BRANCH  16  24
HETATM   24  O6  UNL     1      -8.974  47.298 -30.592  1.00  0.00    -0.388 OA
HETATM   25  H16 UNL     1      -9.109  47.612 -31.506  1.00  0.00     0.210 HD
ENDBRANCH  16  24
ENDBRANCH  10  11
ENDBRANCH   3  10
BRANCH   4  26
HETATM   26  O7  UNL     1      -8.395  43.238 -30.102  1.00  0.00    -0.393 OA
HETATM   27  H18 UNL     1      -7.987  42.456 -29.696  1.00  0.00     0.210 HD
ENDBRANCH   4  26
BRANCH   9  28
HETATM   28  O8  UNL     1      -5.680  42.145 -34.891  1.00  0.00    -0.385 OA
HETATM   29  H27 UNL     1      -5.994  41.375 -35.388  1.00  0.00     0.211 HD
ENDBRANCH   9  28
BRANCH   9  30
HETATM   30  C16 UNL     1      -5.472  40.802 -32.988  1.00  0.00     0.010 C 
HETATM   31  C17 UNL     1      -4.603  39.953 -33.570  1.00  0.00     0.003 C 
BRANCH  31  32
HETATM   32  C18 UNL     1      -3.974  38.749 -32.912  1.00  0.00     0.136 C 
HETATM   33  C19 UNL     1      -3.056  38.018 -33.880  1.00  0.00     0.043 C 
BRANCH  32  34
HETATM   34  O9  UNL     1      -3.216  39.131 -31.772  1.00  0.00    -0.392 OA
HETATM   35  H34 UNL     1      -3.839  39.552 -31.153  1.00  0.00     0.210 HD
ENDBRANCH  32  34
ENDBRANCH  31  32
ENDBRANCH   9  30
TORSDOF 12
ENDMDL
MODEL 6
REMARK minimizedAffinity -6.59505749
REMARK CNNscore 0.342469156
REMARK CNNaffinity 4.25435209
REMARK  12 active torsions:
REMARK  status: ('A' for Active; 'I' for Inactive)
REMARK    1  A    between atoms: C3_3  and  O1_4 
REMARK    2  A    between atoms: O1_4  and  C4_5 
REMARK    3  A    between atoms: C5_7  and  C6_8 
REMARK    4  A    between atoms: C6_8  and  O3_9 
REMARK    5  A    between atoms: C7_10  and  O4_11 
REMARK    6  A    between atoms: C8_12  and  O5_13 
REMARK    7  A    between atoms: C9_14  and  O6_15 
REMARK    8  A    between atoms: C10_16  and  O7_17 
REMARK    9  A    between atoms: C15_22  and  O8_23 
REMARK   10  A    between atoms: C15_22  and  C16_24 
REMARK   11  A    between atoms: C17_25  and  C18_26 
REMARK   12  A    between atoms: C18_26  and  O9_28 
ROOT
HETATM    1  C1  UNL     1      -7.208  45.105 -28.857  1.00  0.00     0.016 C 
HETATM    2  C2  UNL     1      -8.053  46.036 -29.754  1.00  0.00     0.052 C 
HETATM    3  C3  UNL     1      -9.547  45.629 -29.720  1.00  0.00     0.160 C 
HETATM    4  C10 UNL     1     -10.420  46.440 -30.706  1.00  0.00     0.148 C 
HETATM    5  C11 UNL     1      -9.783  46.636 -32.082  1.00  0.00     0.046 C 
HETATM    6  C12 UNL     1      -8.349  47.202 -32.040  1.00  0.00    -0.010 C 
HETATM    7  C13 UNL     1      -7.857  47.348 -33.505  1.00  0.00     0.018 C 
HETATM    8  C14 UNL     1      -8.371  48.639 -31.460  1.00  0.00     0.018 C 
HETATM    9  C15 UNL     1      -7.442  46.235 -31.180  1.00  0.00     0.088 C 
ENDROOT
BRANCH   3  10
HETATM   10  O1  UNL     1      -9.954  45.797 -28.346  1.00  0.00    -0.350 OA
BRANCH  10  11
HETATM   11  C4  UNL     1      -9.231  46.751 -27.582  1.00  0.00     0.292 C 
HETATM   12  O2  UNL     1      -9.081  46.342 -26.222  1.00  0.00    -0.348 OA
HETATM   13  C5  UNL     1     -10.304  46.193 -25.474  1.00  0.00     0.179 C 
HETATM   14  C7  UNL     1     -11.495  46.982 -26.037  1.00  0.00     0.180 C 
HETATM   15  C8  UNL     1     -10.972  48.319 -26.548  1.00  0.00     0.183 C 
HETATM   16  C9  UNL     1      -9.951  48.121 -27.674  1.00  0.00     0.204 C 
BRANCH  13  17
HETATM   17  C6  UNL     1     -10.632  44.715 -25.208  1.00  0.00     0.198 C 
BRANCH  17  18
HETATM   18  O3  UNL     1      -9.958  43.833 -26.098  1.00  0.00    -0.398 OA
HETATM   19  H10 UNL     1     -10.294  42.938 -25.916  1.00  0.00     0.209 HD
ENDBRANCH  17  18
ENDBRANCH  13  17
BRANCH  14  20
HETATM   20  O4  UNL     1     -12.468  47.217 -25.008  1.00  0.00    -0.390 OA
HETATM   21  H12 UNL     1     -13.050  47.914 -25.377  1.00  0.00     0.210 HD
ENDBRANCH  14  20
BRANCH  15  22
HETATM   22  O5  UNL     1     -12.076  49.129 -26.993  1.00  0.00    -0.390 OA
HETATM   23  H14 UNL     1     -11.683  49.911 -27.426  1.00  0.00     0.210 HD
ENDBRANCH  15  22
BRANCH  16  24
HETATM   24  O6  UNL     1      -9.014  49.217 -27.603  1.00  0.00    -0.388 OA
HETATM   25  H16 UNL     1      -8.419  49.032 -26.851  1.00  0.00     0.210 HD
ENDBRANCH  16  24
ENDBRANCH  10  11
ENDBRANCH   3  10
BRANCH   4  26
HETATM   26  O7  UNL     1     -11.676  45.776 -30.928  1.00  0.00    -0.393 OA
HETATM   27  H18 UNL     1     -11.509  44.955 -31.420  1.00  0.00     0.210 HD
ENDBRANCH   4  26
BRANCH   9  28
HETATM   28  O8  UNL     1      -6.173  46.879 -30.952  1.00  0.00    -0.385 OA
HETATM   29  H27 UNL     1      -5.797  47.136 -31.807  1.00  0.00     0.211 HD
ENDBRANCH   9  28
BRANCH   9  30
HETATM   30  C16 UNL     1      -7.080  44.970 -31.949  1.00  0.00     0.010 C 
HETATM   31  C17 UNL     1      -5.996  44.173 -31.870  1.00  0.00     0.003 C 
BRANCH  31  32
HETATM   32  C18 UNL     1      -5.757  42.928 -32.688  1.00  0.00     0.136 C 
HETATM   33  C19 UNL     1      -4.298  42.826 -33.108  1.00  0.00     0.043 C 
BRANCH  32  34
HETATM   34  O9  UNL     1      -6.096  41.762 -31.949  1.00  0.00    -0.392 OA
HETATM   35  H34 UNL     1      -7.044  41.835 -31.736  1.00  0.00     0.210 HD
ENDBRANCH  32  34
ENDBRANCH  31  32
ENDBRANCH   9  30
TORSDOF 12
ENDMDL
MODEL 7
REMARK minimizedAffinity -7.01056814
REMARK CNNscore 0.32440722
REMARK CNNaffinity 4.10778666
REMARK  12 active torsions:
REMARK  status: ('A' for Active; 'I' for Inactive)
REMARK    1  A    between atoms: C3_3  and  O1_4 
REMARK    2  A    between atoms: O1_4  and  C4_5 
REMARK    3  A    between atoms: C5_7  and  C6_8 
REMARK    4  A    between atoms: C6_8  and  O3_9 
REMARK    5  A    between atoms: C7_10  and  O4_11 
REMARK    6  A    between atoms: C8_12  and  O5_13 
REMARK    7  A    between atoms: C9_14  and  O6_15 
REMARK    8  A    between atoms: C10_16  and  O7_17 
REMARK    9  A    between atoms: C15_22  and  O8_23 
REMARK   10  A    between atoms: C15_22  and  C16_24 
REMARK   11  A    between atoms: C17_25  and  C18_26 
REMARK   12  A    between atoms: C18_26  and  O9_28 
ROOT
HETATM    1  C1  UNL     1      -4.398  48.376 -25.822  1.00  0.00     0.016 C 
HETATM    2  C2  UNL     1      -4.799  48.593 -24.347  1.00  0.00     0.052 C 
HETATM    3  C3  UNL     1      -6.176  49.296 -24.246  1.00  0.00     0.160 C 
HETATM    4  C10 UNL     1      -6.565  49.662 -22.796  1.00  0.00     0.148 C 
HETATM    5  C11 UNL     1      -5.419  50.256 -21.976  1.00  0.00     0.046 C 
HETATM    6  C12 UNL     1      -4.128  49.414 -21.991  1.00  0.00    -0.010 C 
HETATM    7  C13 UNL     1      -3.078  50.144 -21.113  1.00  0.00     0.018 C 
HETATM    8  C14 UNL     1      -4.384  48.053 -21.294  1.00  0.00     0.018 C 
HETATM    9  C15 UNL     1      -3.657  49.226 -23.488  1.00  0.00     0.088 C 
ENDROOT
BRANCH   3  10
HETATM   10  O1  UNL     1      -7.112  48.385 -24.862  1.00  0.00    -0.350 OA
BRANCH  10  11
HETATM   11  C4  UNL     1      -8.488  48.699 -24.718  1.00  0.00     0.292 C 
HETATM   12  O2  UNL     1      -9.251  47.569 -24.293  1.00  0.00    -0.348 OA
HETATM   13  C5  UNL     1      -9.270  46.448 -25.198  1.00  0.00     0.179 C 
HETATM   14  C7  UNL     1      -8.950  46.803 -26.658  1.00  0.00     0.180 C 
HETATM   15  C8  UNL     1      -9.592  48.151 -26.964  1.00  0.00     0.183 C 
HETATM   16  C9  UNL     1      -9.022  49.254 -26.065  1.00  0.00     0.204 C 
BRANCH  13  17
HETATM   17  C6  UNL     1      -8.434  45.273 -24.668  1.00  0.00     0.198 C 
BRANCH  17  18
HETATM   18  O3  UNL     1      -7.564  45.651 -23.607  1.00  0.00    -0.398 OA
HETATM   19  H10 UNL     1      -7.017  44.873 -23.401  1.00  0.00     0.209 HD
ENDBRANCH  17  18
ENDBRANCH  13  17
BRANCH  14  20
HETATM   20  O4  UNL     1      -9.490  45.811 -27.543  1.00  0.00    -0.390 OA
HETATM   21  H12 UNL     1      -9.459  46.230 -28.428  1.00  0.00     0.210 HD
ENDBRANCH  14  20
BRANCH  15  22
HETATM   22  O5  UNL     1      -9.399  48.472 -28.354  1.00  0.00    -0.390 OA
HETATM   23  H14 UNL     1      -9.709  49.391 -28.468  1.00  0.00     0.210 HD
ENDBRANCH  15  22
BRANCH  16  24
HETATM   24  O6  UNL     1     -10.071  50.225 -25.858  1.00  0.00    -0.388 OA
HETATM   25  H16 UNL     1     -10.692  49.837 -25.213  1.00  0.00     0.210 HD
ENDBRANCH  16  24
ENDBRANCH  10  11
ENDBRANCH   3  10
BRANCH   4  26
HETATM   26  O7  UNL     1      -7.620  50.640 -22.790  1.00  0.00    -0.393 OA
HETATM   27  H18 UNL     1      -7.268  51.477 -23.132  1.00  0.00     0.210 HD
ENDBRANCH   4  26
BRANCH   9  28
HETATM   28  O8  UNL     1      -2.592  48.254 -23.515  1.00  0.00    -0.385 OA
HETATM   29  H27 UNL     1      -1.897  48.537 -22.901  1.00  0.00     0.211 HD
ENDBRANCH   9  28
BRANCH   9  30
HETATM   30  C16 UNL     1      -3.012  50.494 -24.037  1.00  0.00     0.010 C 
HETATM   31  C17 UNL     1      -1.801  50.693 -24.594  1.00  0.00     0.003 C 
BRANCH  31  32
HETATM   32  C18 UNL     1      -1.278  52.009 -25.116  1.00  0.00     0.136 C 
HETATM   33  C19 UNL     1      -1.349  52.058 -26.634  1.00  0.00     0.043 C 
BRANCH  32  34
HETATM   34  O9  UNL     1      -2.028  53.097 -24.593  1.00  0.00    -0.392 OA
HETATM   35  H34 UNL     1      -1.924  53.066 -23.624  1.00  0.00     0.210 HD
ENDBRANCH  32  34
ENDBRANCH  31  32
ENDBRANCH   9  30
TORSDOF 12
ENDMDL
MODEL 8
REMARK minimizedAffinity -7.13295317
REMARK CNNscore 0.286312193
REMARK CNNaffinity 4.19805098
REMARK  12 active torsions:
REMARK  status: ('A' for Active; 'I' for Inactive)
REMARK    1  A    between atoms: C3_3  and  O1_4 
REMARK    2  A    between atoms: O1_4  and  C4_5 
REMARK    3  A    between atoms: C5_7  and  C6_8 
REMARK    4  A    between atoms: C6_8  and  O3_9 
REMARK    5  A    between atoms: C7_10  and  O4_11 
REMARK    6  A    between atoms: C8_12  and  O5_13 
REMARK    7  A    between atoms: C9_14  and  O6_15 
REMARK    8  A    between atoms: C10_16  and  O7_17 
REMARK    9  A    between atoms: C15_22  and  O8_23 
REMARK   10  A    between atoms: C15_22  and  C16_24 
REMARK   11  A    between atoms: C17_25  and  C18_26 
REMARK   12  A    between atoms: C18_26  and  O9_28 
ROOT
HETATM    1  C1  UNL     1      -4.501  52.028 -22.345  1.00  0.00     0.016 C 
HETATM    2  C2  UNL     1      -4.341  50.655 -23.032  1.00  0.00     0.052 C 
HETATM    3  C3  UNL     1      -3.894  49.577 -22.015  1.00  0.00     0.160 C 
HETATM    4  C10 UNL     1      -3.584  48.212 -22.673  1.00  0.00     0.148 C 
HETATM    5  C11 UNL     1      -2.785  48.317 -23.973  1.00  0.00     0.046 C 
HETATM    6  C12 UNL     1      -3.385  49.290 -25.007  1.00  0.00    -0.010 C 
HETATM    7  C13 UNL     1      -2.469  49.272 -26.259  1.00  0.00     0.018 C 
HETATM    8  C14 UNL     1      -4.761  48.761 -25.487  1.00  0.00     0.018 C 
HETATM    9  C15 UNL     1      -3.504  50.724 -24.351  1.00  0.00     0.088 C 
ENDROOT
BRANCH   3  10
HETATM   10  O1  UNL     1      -4.963  49.500 -21.049  1.00  0.00    -0.350 OA
BRANCH  10  11
HETATM   11  C4  UNL     1      -6.232  49.979 -21.469  1.00  0.00     0.292 C 
HETATM   12  O2  UNL     1      -7.158  50.058 -20.385  1.00  0.00    -0.348 OA
HETATM   13  C5  UNL     1      -7.482  48.809 -19.744  1.00  0.00     0.179 C 
HETATM   14  C7  UNL     1      -7.238  47.566 -20.611  1.00  0.00     0.180 C 
HETATM   15  C8  UNL     1      -7.629  47.910 -22.044  1.00  0.00     0.183 C 
HETATM   16  C9  UNL     1      -6.771  49.055 -22.593  1.00  0.00     0.204 C 
BRANCH  13  17
HETATM   17  C6  UNL     1      -6.847  48.703 -18.348  1.00  0.00     0.198 C 
BRANCH  17  18
HETATM   18  O3  UNL     1      -7.813  48.661 -17.305  1.00  0.00    -0.398 OA
HETATM   19  H10 UNL     1      -7.323  48.686 -16.465  1.00  0.00     0.209 HD
ENDBRANCH  17  18
ENDBRANCH  13  17
BRANCH  14  20
HETATM   20  O4  UNL     1      -8.044  46.470 -20.152  1.00  0.00    -0.390 OA
HETATM   21  H12 UNL     1      -8.015  45.822 -20.885  1.00  0.00     0.210 HD
ENDBRANCH  14  20
BRANCH  15  22
HETATM   22  O5  UNL     1      -7.509  46.737 -22.870  1.00  0.00    -0.390 OA
HETATM   23  H14 UNL     1      -7.642  47.037 -23.790  1.00  0.00     0.210 HD
ENDBRANCH  15  22
BRANCH  16  24
HETATM   24  O6  UNL     1      -7.584  49.788 -23.535  1.00  0.00    -0.388 OA
HETATM   25  H16 UNL     1      -8.206  50.328 -23.011  1.00  0.00     0.210 HD
ENDBRANCH  16  24
ENDBRANCH  10  11
ENDBRANCH   3  10
BRANCH   4  26
HETATM   26  O7  UNL     1      -2.810  47.389 -21.784  1.00  0.00    -0.393 OA
HETATM   27  H18 UNL     1      -1.928  47.781 -21.688  1.00  0.00     0.210 HD
ENDBRANCH   4  26
BRANCH   9  28
HETATM   28  O8  UNL     1      -4.270  51.569 -25.233  1.00  0.00    -0.385 OA
HETATM   29  H27 UNL     1      -3.861  51.555 -26.111  1.00  0.00     0.211 HD
ENDBRANCH   9  28
BRANCH   9  30
HETATM   30  C16 UNL     1      -2.148  51.416 -24.264  1.00  0.00     0.010 C 
HETATM   31  C17 UNL     1      -1.678  52.509 -24.897  1.00  0.00     0.003 C 
BRANCH  31  32
HETATM   32  C18 UNL     1      -0.306  53.109 -24.715  1.00  0.00     0.136 C 
HETATM   33  C19 UNL     1       0.762  52.228 -25.345  1.00  0.00     0.043 C 
BRANCH  32  34
HETATM   34  O9  UNL     1      -0.233  54.400 -25.307  1.00  0.00    -0.392 OA
HETATM   35  H34 UNL     1      -0.894  54.952 -24.852  1.00  0.00     0.210 HD
ENDBRANCH  32  34
ENDBRANCH  31  32
ENDBRANCH   9  30
TORSDOF 12
ENDMDL
MODEL 9
REMARK minimizedAffinity -8.22314072
REMARK CNNscore 0.277026623
REMARK CNNaffinity 4.7140708
REMARK  12 active torsions:
REMARK  status: ('A' for Active; 'I' for Inactive)
REMARK    1  A    between atoms: C3_3  and  O1_4 
REMARK    2  A    between atoms: O1_4  and  C4_5 
REMARK    3  A    between atoms: C5_7  and  C6_8 
REMARK    4  A    between atoms: C6_8  and  O3_9 
REMARK    5  A    between atoms: C7_10  and  O4_11 
REMARK    6  A    between atoms: C8_12  and  O5_13 
REMARK    7  A    between atoms: C9_14  and  O6_15 
REMARK    8  A    between atoms: C10_16  and  O7_17 
REMARK    9  A    between atoms: C15_22  and  O8_23 
REMARK   10  A    between atoms: C15_22  and  C16_24 
REMARK   11  A    between atoms: C17_25  and  C18_26 
REMARK   12  A    between atoms: C18_26  and  O9_28 
ROOT
HETATM    1  C1  UNL     1      -1.217  50.742 -22.535  1.00  0.00     0.016 C 
HETATM    2  C2  UNL     1      -2.487  50.323 -23.305  1.00  0.00     0.052 C 
HETATM    3  C3  UNL     1      -3.288  51.565 -23.767  1.00  0.00     0.160 C 
HETATM    4  C10 UNL     1      -4.641  51.205 -24.424  1.00  0.00     0.148 C 
HETATM    5  C11 UNL     1      -5.416  50.110 -23.690  1.00  0.00     0.046 C 
HETATM    6  C12 UNL     1      -4.597  48.835 -23.410  1.00  0.00    -0.010 C 
HETATM    7  C13 UNL     1      -5.524  47.830 -22.676  1.00  0.00     0.018 C 
HETATM    8  C14 UNL     1      -4.217  48.153 -24.749  1.00  0.00     0.018 C 
HETATM    9  C15 UNL     1      -3.318  49.223 -22.566  1.00  0.00     0.088 C 
ENDROOT
BRANCH   3  10
HETATM   10  O1  UNL     1      -2.405  52.275 -24.661  1.00  0.00    -0.350 OA
BRANCH  10  11
HETATM   11  C4  UNL     1      -1.818  51.515 -25.706  1.00  0.00     0.292 C 
HETATM   12  O2  UNL     1      -0.393  51.496 -25.615  1.00  0.00    -0.348 OA
HETATM   13  C5  UNL     1       0.262  52.773 -25.740  1.00  0.00     0.179 C 
HETATM   14  C7  UNL     1      -0.565  53.844 -26.466  1.00  0.00     0.180 C 
HETATM   15  C8  UNL     1      -1.319  53.164 -27.603  1.00  0.00     0.183 C 
HETATM   16  C9  UNL     1      -2.279  52.095 -27.069  1.00  0.00     0.204 C 
BRANCH  13  17
HETATM   17  C6  UNL     1       0.825  53.258 -24.395  1.00  0.00     0.198 C 
BRANCH  17  18
HETATM   18  O3  UNL     1       1.124  54.650 -24.393  1.00  0.00    -0.398 OA
HETATM   19  H10 UNL     1       1.555  54.844 -23.543  1.00  0.00     0.209 HD
ENDBRANCH  17  18
ENDBRANCH  13  17
BRANCH  14  20
HETATM   20  O4  UNL     1       0.295  54.856 -27.009  1.00  0.00    -0.390 OA
HETATM   21  H12 UNL     1      -0.270  55.343 -27.644  1.00  0.00     0.210 HD
ENDBRANCH  14  20
BRANCH  15  22
HETATM   22  O5  UNL     1      -2.028  54.154 -28.370  1.00  0.00    -0.390 OA
HETATM   23  H14 UNL     1      -2.592  53.660 -28.997  1.00  0.00     0.210 HD
ENDBRANCH  15  22
BRANCH  16  24
HETATM   24  O6  UNL     1      -2.377  51.064 -28.076  1.00  0.00    -0.388 OA
HETATM   25  H16 UNL     1      -1.554  50.540 -28.025  1.00  0.00     0.210 HD
ENDBRANCH  16  24
ENDBRANCH  10  11
ENDBRANCH   3  10
BRANCH   4  26
HETATM   26  O7  UNL     1      -5.502  52.356 -24.466  1.00  0.00    -0.393 OA
HETATM   27  H18 UNL     1      -5.762  52.582 -23.558  1.00  0.00     0.210 HD
ENDBRANCH   4  26
BRANCH   9  28
HETATM   28  O8  UNL     1      -2.444  48.078 -22.505  1.00  0.00    -0.385 OA
HETATM   29  H27 UNL     1      -2.945  47.323 -22.162  1.00  0.00     0.211 HD
ENDBRANCH   9  28
BRANCH   9  30
HETATM   30  C16 UNL     1      -3.668  49.497 -21.108  1.00  0.00     0.010 C 
HETATM   31  C17 UNL     1      -2.920  49.993 -20.103  1.00  0.00     0.003 C 
BRANCH  31  32
HETATM   32  C18 UNL     1      -3.391  50.231 -18.689  1.00  0.00     0.136 C 
HETATM   33  C19 UNL     1      -2.866  49.153 -17.753  1.00  0.00     0.043 C 
BRANCH  32  34
HETATM   34  O9  UNL     1      -2.950  51.496 -18.213  1.00  0.00    -0.392 OA
HETATM   35  H34 UNL     1      -3.340  52.165 -18.804  1.00  0.00     0.210 HD
ENDBRANCH  32  34
ENDBRANCH  31  32
ENDBRANCH   9  30
TORSDOF 12
ENDMDL
