MODEL 1
REMARK minimizedAffinity -6.55809546
REMARK CNNscore 0.537817299
REMARK CNNaffinity 6.7761445
REMARK  9 active torsions:
REMARK  status: ('A' for Active; 'I' for Inactive)
REMARK    1  A    between atoms: C2_2  and  O2_4 
REMARK    2  A    between atoms: O2_4  and  C3_5 
REMARK    3  A    between atoms: C3_5  and  C4_6 
REMARK    4  A    between atoms: C4_6  and  C5_7 
REMARK    5  A    between atoms: C5_7  and  C6_8 
REMARK    6  A    between atoms: C20_22  and  C21_23 
REMARK    7  A    between atoms: C21_23  and  C23_25 
REMARK    8  A    between atoms: C23_25  and  C24_26 
REMARK    9  A    between atoms: C24_26  and  C25_27 
ROOT
HETATM    1  C6  UNL     1       4.270  56.322  -5.682  1.00  0.00     0.023 C 
HETATM    2  C7  UNL     1       5.807  56.222  -5.873  1.00  0.00    -0.073 C 
HETATM    3  C8  UNL     1       6.783  57.084  -5.479  1.00  0.00    -0.085 C 
HETATM    4  C9  UNL     1       8.258  56.767  -5.605  1.00  0.00     0.043 C 
HETATM    5  C10 UNL     1       6.571  58.468  -4.919  1.00  0.00     0.043 C 
HETATM    6  C11 UNL     1       6.140  54.979  -6.696  1.00  0.00     0.035 C 
HETATM    7  C12 UNL     1       5.482  55.064  -8.081  1.00  0.00     0.010 C 
HETATM    8  C13 UNL     1       3.959  55.269  -7.965  1.00  0.00     0.003 C 
HETATM    9  C14 UNL     1       3.579  56.541  -7.098  1.00  0.00    -0.032 C 
HETATM   10  C15 UNL     1       4.077  57.888  -7.680  1.00  0.00     0.016 C 
HETATM   11  C16 UNL     1       2.027  56.638  -6.982  1.00  0.00     0.011 C 
HETATM   12  C17 UNL     1       1.224  56.401  -8.287  1.00  0.00     0.011 C 
HETATM   13  C18 UNL     1       1.614  55.083  -8.990  1.00  0.00    -0.032 C 
HETATM   14  C19 UNL     1       1.175  53.916  -8.044  1.00  0.00     0.016 C 
HETATM   15  C20 UNL     1       1.057  54.764 -10.422  1.00  0.00    -0.002 C 
HETATM   16  C29 UNL     1       2.099  53.709 -10.935  1.00  0.00     0.006 C 
HETATM   17  C30 UNL     1       3.362  53.826 -10.059  1.00  0.00     0.011 C 
HETATM   18  C31 UNL     1       3.169  55.147  -9.298  1.00  0.00    -0.032 C 
HETATM   19  C32 UNL     1       3.579  56.267 -10.309  1.00  0.00     0.016 C 
ENDROOT
BRANCH  15  20
HETATM   20  C21 UNL     1      -0.411  54.253 -10.623  1.00  0.00    -0.014 C 
HETATM   21  C22 UNL     1      -1.408  55.331 -10.153  1.00  0.00     0.010 C 
BRANCH  20  22
HETATM   22  C23 UNL     1      -0.683  52.926  -9.874  1.00  0.00     0.008 C 
BRANCH  22  23
HETATM   23  C24 UNL     1      -1.986  52.880  -9.055  1.00  0.00     0.028 C 
BRANCH  23  24
HETATM   24  C25 UNL     1      -2.947  51.799  -9.460  1.00  0.00    -0.025 C 
HETATM   25  C26 UNL     1      -3.866  51.829 -10.447  1.00  0.00    -0.091 C 
HETATM   26  C27 UNL     1      -4.743  50.633 -10.712  1.00  0.00     0.042 C 
HETATM   27  C28 UNL     1      -4.134  52.998 -11.355  1.00  0.00     0.042 C 
ENDBRANCH  23  24
ENDBRANCH  22  23
ENDBRANCH  20  22
ENDBRANCH  15  20
BRANCH   1  28
HETATM   28  C5  UNL     1       3.711  57.193  -4.528  1.00  0.00     0.012 C 
BRANCH  28  29
HETATM   29  C4  UNL     1       2.840  56.397  -3.547  1.00  0.00     0.028 C 
BRANCH  29  30
HETATM   30  C3  UNL     1       1.726  57.260  -2.961  1.00  0.00     0.178 C 
BRANCH  30  31
HETATM   31  O2  UNL     1       0.451  56.657  -3.230  1.00  0.00    -0.322 OA
BRANCH  31  32
HETATM   32  C2  UNL     1      -0.438  57.433  -3.908  1.00  0.00     0.254 C 
HETATM   33  C1  UNL     1      -0.925  58.541  -3.024  1.00  0.00     0.126 C 
HETATM   34  O1  UNL     1      -0.798  57.266  -5.065  1.00  0.00    -0.266 OA
ENDBRANCH  31  32
ENDBRANCH  30  31
ENDBRANCH  29  30
ENDBRANCH  28  29
ENDBRANCH   1  28
TORSDOF 9
ENDMDL
MODEL 2
REMARK minimizedAffinity -6.92183447
REMARK CNNscore 0.43009159
REMARK CNNaffinity 6.86953497
REMARK  9 active torsions:
REMARK  status: ('A' for Active; 'I' for Inactive)
REMARK    1  A    between atoms: C2_2  and  O2_4 
REMARK    2  A    between atoms: O2_4  and  C3_5 
REMARK    3  A    between atoms: C3_5  and  C4_6 
REMARK    4  A    between atoms: C4_6  and  C5_7 
REMARK    5  A    between atoms: C5_7  and  C6_8 
REMARK    6  A    between atoms: C20_22  and  C21_23 
REMARK    7  A    between atoms: C21_23  and  C23_25 
REMARK    8  A    between atoms: C23_25  and  C24_26 
REMARK    9  A    between atoms: C24_26  and  C25_27 
ROOT
HETATM    1  C6  UNL     1      -0.630  52.618 -11.070  1.00  0.00     0.023 C 
HETATM    2  C7  UNL     1      -2.000  52.182 -10.482  1.00  0.00    -0.073 C 
HETATM    3  C8  UNL     1      -3.230  52.196 -11.062  1.00  0.00    -0.085 C 
HETATM    4  C9  UNL     1      -4.453  51.590 -10.407  1.00  0.00     0.043 C 
HETATM    5  C10 UNL     1      -3.583  52.838 -12.381  1.00  0.00     0.043 C 
HETATM    6  C11 UNL     1      -1.821  51.772  -9.022  1.00  0.00     0.035 C 
HETATM    7  C12 UNL     1      -1.291  52.953  -8.196  1.00  0.00     0.010 C 
HETATM    8  C13 UNL     1       0.020  53.504  -8.788  1.00  0.00     0.003 C 
HETATM    9  C14 UNL     1      -0.125  53.921 -10.311  1.00  0.00    -0.032 C 
HETATM   10  C15 UNL     1      -1.141  55.061 -10.572  1.00  0.00     0.016 C 
HETATM   11  C16 UNL     1       1.258  54.408 -10.843  1.00  0.00     0.011 C 
HETATM   12  C17 UNL     1       2.053  55.364  -9.917  1.00  0.00     0.011 C 
HETATM   13  C18 UNL     1       2.212  54.805  -8.487  1.00  0.00    -0.032 C 
HETATM   14  C19 UNL     1       3.111  53.528  -8.595  1.00  0.00     0.016 C 
HETATM   15  C20 UNL     1       2.813  55.710  -7.354  1.00  0.00    -0.002 C 
HETATM   16  C29 UNL     1       2.274  54.995  -6.065  1.00  0.00     0.006 C 
HETATM   17  C30 UNL     1       1.096  54.092  -6.481  1.00  0.00     0.011 C 
HETATM   18  C31 UNL     1       0.757  54.553  -7.907  1.00  0.00    -0.032 C 
HETATM   19  C32 UNL     1      -0.098  55.850  -7.729  1.00  0.00     0.016 C 
ENDROOT
BRANCH  15  20
HETATM   20  C21 UNL     1       4.356  55.965  -7.256  1.00  0.00    -0.014 C 
HETATM   21  C22 UNL     1       4.619  57.307  -6.545  1.00  0.00     0.010 C 
BRANCH  20  22
HETATM   22  C23 UNL     1       5.045  55.963  -8.642  1.00  0.00     0.008 C 
BRANCH  22  23
HETATM   23  C24 UNL     1       6.503  55.471  -8.659  1.00  0.00     0.028 C 
BRANCH  23  24
HETATM   24  C25 UNL     1       6.701  54.105  -9.253  1.00  0.00    -0.025 C 
HETATM   25  C26 UNL     1       6.683  52.913  -8.622  1.00  0.00    -0.091 C 
HETATM   26  C27 UNL     1       6.895  51.636  -9.394  1.00  0.00     0.042 C 
HETATM   27  C28 UNL     1       6.475  52.708  -7.147  1.00  0.00     0.042 C 
ENDBRANCH  23  24
ENDBRANCH  22  23
ENDBRANCH  20  22
ENDBRANCH  15  20
BRANCH   1  28
HETATM   28  C5  UNL     1      -0.442  52.630 -12.609  1.00  0.00     0.012 C 
BRANCH  28  29
HETATM   29  C4  UNL     1       0.318  51.401 -13.127  1.00  0.00     0.028 C 
BRANCH  29  30
HETATM   30  C3  UNL     1       1.776  51.734 -13.434  1.00  0.00     0.178 C 
BRANCH  30  31
HETATM   31  O2  UNL     1       2.126  51.233 -14.733  1.00  0.00    -0.322 OA
BRANCH  31  32
HETATM   32  C2  UNL     1       2.386  52.176 -15.679  1.00  0.00     0.254 C 
HETATM   33  C1  UNL     1       3.866  52.378 -15.804  1.00  0.00     0.126 C 
HETATM   34  O1  UNL     1       1.550  52.779 -16.337  1.00  0.00    -0.266 OA
ENDBRANCH  31  32
ENDBRANCH  30  31
ENDBRANCH  29  30
ENDBRANCH  28  29
ENDBRANCH   1  28
TORSDOF 9
ENDMDL
MODEL 3
REMARK minimizedAffinity -7.78364182
REMARK CNNscore 0.418985486
REMARK CNNaffinity 6.98926115
REMARK  9 active torsions:
REMARK  status: ('A' for Active; 'I' for Inactive)
REMARK    1  A    between atoms: C2_2  and  O2_4 
REMARK    2  A    between atoms: O2_4  and  C3_5 
REMARK    3  A    between atoms: C3_5  and  C4_6 
REMARK    4  A    between atoms: C4_6  and  C5_7 
REMARK    5  A    between atoms: C5_7  and  C6_8 
REMARK    6  A    between atoms: C20_22  and  C21_23 
REMARK    7  A    between atoms: C21_23  and  C23_25 
REMARK    8  A    between atoms: C23_25  and  C24_26 
REMARK    9  A    between atoms: C24_26  and  C25_27 
ROOT
HETATM    1  C6  UNL     1      -2.116  50.447 -22.272  1.00  0.00     0.023 C 
HETATM    2  C7  UNL     1      -2.785  49.423 -23.227  1.00  0.00    -0.073 C 
HETATM    3  C8  UNL     1      -3.495  49.643 -24.366  1.00  0.00    -0.085 C 
HETATM    4  C9  UNL     1      -3.955  48.523 -25.277  1.00  0.00     0.043 C 
HETATM    5  C10 UNL     1      -3.971  50.982 -24.871  1.00  0.00     0.043 C 
HETATM    6  C11 UNL     1      -2.617  48.013 -22.663  1.00  0.00     0.035 C 
HETATM    7  C12 UNL     1      -3.289  47.905 -21.287  1.00  0.00     0.010 C 
HETATM    8  C13 UNL     1      -2.743  48.968 -20.314  1.00  0.00     0.003 C 
HETATM    9  C14 UNL     1      -2.884  50.442 -20.878  1.00  0.00    -0.032 C 
HETATM   10  C15 UNL     1      -4.343  50.901 -21.124  1.00  0.00     0.016 C 
HETATM   11  C16 UNL     1      -2.253  51.443 -19.861  1.00  0.00     0.011 C 
HETATM   12  C17 UNL     1      -2.604  51.217 -18.368  1.00  0.00     0.011 C 
HETATM   13  C18 UNL     1      -2.333  49.768 -17.910  1.00  0.00    -0.032 C 
HETATM   14  C19 UNL     1      -0.786  49.549 -17.986  1.00  0.00     0.016 C 
HETATM   15  C20 UNL     1      -2.808  49.293 -16.491  1.00  0.00    -0.002 C 
HETATM   16  C29 UNL     1      -2.852  47.736 -16.682  1.00  0.00     0.006 C 
HETATM   17  C30 UNL     1      -2.877  47.444 -18.196  1.00  0.00     0.011 C 
HETATM   18  C31 UNL     1      -3.193  48.806 -18.834  1.00  0.00    -0.032 C 
HETATM   19  C32 UNL     1      -4.739  48.982 -18.685  1.00  0.00     0.016 C 
ENDROOT
BRANCH  15  20
HETATM   20  C21 UNL     1      -2.011  49.683 -15.200  1.00  0.00    -0.014 C 
HETATM   21  C22 UNL     1      -1.489  48.410 -14.505  1.00  0.00     0.010 C 
BRANCH  20  22
HETATM   22  C23 UNL     1      -2.862  50.509 -14.206  1.00  0.00     0.008 C 
BRANCH  22  23
HETATM   23  C24 UNL     1      -2.124  51.656 -13.491  1.00  0.00     0.028 C 
BRANCH  23  24
HETATM   24  C25 UNL     1      -2.145  51.580 -11.991  1.00  0.00    -0.025 C 
HETATM   25  C26 UNL     1      -2.931  52.264 -11.134  1.00  0.00    -0.091 C 
HETATM   26  C27 UNL     1      -2.812  52.046  -9.648  1.00  0.00     0.042 C 
HETATM   27  C28 UNL     1      -3.963  53.287 -11.522  1.00  0.00     0.042 C 
ENDBRANCH  23  24
ENDBRANCH  22  23
ENDBRANCH  20  22
ENDBRANCH  15  20
BRANCH   1  28
HETATM   28  C5  UNL     1      -1.737  51.848 -22.818  1.00  0.00     0.012 C 
BRANCH  28  29
HETATM   29  C4  UNL     1      -0.453  51.834 -23.658  1.00  0.00     0.028 C 
BRANCH  29  30
HETATM   30  C3  UNL     1       0.467  52.995 -23.291  1.00  0.00     0.178 C 
BRANCH  30  31
HETATM   31  O2  UNL     1       1.058  52.759 -22.004  1.00  0.00    -0.322 OA
BRANCH  31  32
HETATM   32  C2  UNL     1       1.325  53.870 -21.265  1.00  0.00     0.254 C 
HETATM   33  C1  UNL     1       0.532  53.838 -19.992  1.00  0.00     0.126 C 
HETATM   34  O1  UNL     1       2.091  54.770 -21.576  1.00  0.00    -0.266 OA
ENDBRANCH  31  32
ENDBRANCH  30  31
ENDBRANCH  29  30
ENDBRANCH  28  29
ENDBRANCH   1  28
TORSDOF 9
ENDMDL
MODEL 4
REMARK minimizedAffinity -6.88682413
REMARK CNNscore 0.366889387
REMARK CNNaffinity 6.26006508
REMARK  9 active torsions:
REMARK  status: ('A' for Active; 'I' for Inactive)
REMARK    1  A    between atoms: C2_2  and  O2_4 
REMARK    2  A    between atoms: O2_4  and  C3_5 
REMARK    3  A    between atoms: C3_5  and  C4_6 
REMARK    4  A    between atoms: C4_6  and  C5_7 
REMARK    5  A    between atoms: C5_7  and  C6_8 
REMARK    6  A    between atoms: C20_22  and  C21_23 
REMARK    7  A    between atoms: C21_23  and  C23_25 
REMARK    8  A    between atoms: C23_25  and  C24_26 
REMARK    9  A    between atoms: C24_26  and  C25_27 
ROOT
HETATM    1  C6  UNL     1      -0.701  53.580  -8.272  1.00  0.00     0.023 C 
HETATM    2  C7  UNL     1      -1.746  53.786  -9.402  1.00  0.00    -0.073 C 
HETATM    3  C8  UNL     1      -2.812  53.013  -9.740  1.00  0.00    -0.085 C 
HETATM    4  C9  UNL     1      -3.834  53.433 -10.776  1.00  0.00     0.043 C 
HETATM    5  C10 UNL     1      -3.119  51.638  -9.202  1.00  0.00     0.043 C 
HETATM    6  C11 UNL     1      -1.374  55.020 -10.222  1.00  0.00     0.035 C 
HETATM    7  C12 UNL     1       0.009  54.837 -10.865  1.00  0.00     0.010 C 
HETATM    8  C13 UNL     1       1.081  54.525  -9.804  1.00  0.00     0.003 C 
HETATM    9  C14 UNL     1       0.716  53.260  -8.920  1.00  0.00    -0.032 C 
HETATM   10  C15 UNL     1       0.601  51.933  -9.711  1.00  0.00     0.016 C 
HETATM   11  C16 UNL     1       1.820  53.054  -7.838  1.00  0.00     0.011 C 
HETATM   12  C17 UNL     1       3.288  53.184  -8.321  1.00  0.00     0.011 C 
HETATM   13  C18 UNL     1       3.544  54.501  -9.085  1.00  0.00    -0.032 C 
HETATM   14  C19 UNL     1       3.367  55.666  -8.055  1.00  0.00     0.016 C 
HETATM   15  C20 UNL     1       4.913  54.726  -9.821  1.00  0.00    -0.002 C 
HETATM   16  C29 UNL     1       4.528  55.836 -10.861  1.00  0.00     0.006 C 
HETATM   17  C30 UNL     1       2.992  55.844 -11.000  1.00  0.00     0.011 C 
HETATM   18  C31 UNL     1       2.548  54.540 -10.319  1.00  0.00    -0.032 C 
HETATM   19  C32 UNL     1       2.793  53.418 -11.379  1.00  0.00     0.016 C 
ENDROOT
BRANCH  15  20
HETATM   20  C21 UNL     1       6.203  55.120  -9.025  1.00  0.00    -0.014 C 
HETATM   21  C22 UNL     1       7.025  53.857  -8.703  1.00  0.00     0.010 C 
BRANCH  20  22
HETATM   22  C23 UNL     1       5.882  55.883  -7.717  1.00  0.00     0.008 C 
BRANCH  22  23
HETATM   23  C24 UNL     1       6.634  55.401  -6.463  1.00  0.00     0.028 C 
BRANCH  23  24
HETATM   24  C25 UNL     1       7.873  56.185  -6.131  1.00  0.00    -0.025 C 
HETATM   25  C26 UNL     1       8.898  55.822  -5.333  1.00  0.00    -0.091 C 
HETATM   26  C27 UNL     1      10.068  56.748  -5.125  1.00  0.00     0.042 C 
HETATM   27  C28 UNL     1       9.001  54.526  -4.576  1.00  0.00     0.042 C 
ENDBRANCH  23  24
ENDBRANCH  22  23
ENDBRANCH  20  22
ENDBRANCH  15  20
BRANCH   1  28
HETATM   28  C5  UNL     1      -1.082  52.713  -7.045  1.00  0.00     0.012 C 
BRANCH  28  29
HETATM   29  C4  UNL     1      -1.523  53.549  -5.835  1.00  0.00     0.028 C 
BRANCH  29  30
HETATM   30  C3  UNL     1      -0.407  54.475  -5.359  1.00  0.00     0.178 C 
BRANCH  30  31
HETATM   31  O2  UNL     1      -0.712  55.830  -5.722  1.00  0.00    -0.322 OA
BRANCH  31  32
HETATM   32  C2  UNL     1       0.015  56.789  -5.086  1.00  0.00     0.254 C 
HETATM   33  C1  UNL     1      -0.737  57.289  -3.889  1.00  0.00     0.126 C 
HETATM   34  O1  UNL     1       1.116  57.196  -5.426  1.00  0.00    -0.266 OA
ENDBRANCH  31  32
ENDBRANCH  30  31
ENDBRANCH  29  30
ENDBRANCH  28  29
ENDBRANCH   1  28
TORSDOF 9
ENDMDL
MODEL 5
REMARK minimizedAffinity -6.37858868
REMARK CNNscore 0.326670945
REMARK CNNaffinity 6.72947741
REMARK  9 active torsions:
REMARK  status: ('A' for Active; 'I' for Inactive)
REMARK    1  A    between atoms: C2_2  and  O2_4 
REMARK    2  A    between atoms: O2_4  and  C3_5 
REMARK    3  A    between atoms: C3_5  and  C4_6 
REMARK    4  A    between atoms: C4_6  and  C5_7 
REMARK    5  A    between atoms: C5_7  and  C6_8 
REMARK    6  A    between atoms: C20_22  and  C21_23 
REMARK    7  A    between atoms: C21_23  and  C23_25 
REMARK    8  A    between atoms: C23_25  and  C24_26 
REMARK    9  A    between atoms: C24_26  and  C25_27 
ROOT
HETATM    1  C6  UNL     1       4.244  56.565  -7.179  1.00  0.00     0.023 C 
HETATM    2  C7  UNL     1       3.776  57.624  -6.145  1.00  0.00    -0.073 C 
HETATM    3  C8  UNL     1       4.252  57.878  -4.896  1.00  0.00    -0.085 C 
HETATM    4  C9  UNL     1       3.788  59.056  -4.065  1.00  0.00     0.043 C 
HETATM    5  C10 UNL     1       5.244  57.035  -4.136  1.00  0.00     0.043 C 
HETATM    6  C11 UNL     1       2.563  58.372  -6.693  1.00  0.00     0.035 C 
HETATM    7  C12 UNL     1       1.404  57.396  -6.947  1.00  0.00     0.010 C 
HETATM    8  C13 UNL     1       1.832  56.254  -7.888  1.00  0.00     0.003 C 
HETATM    9  C14 UNL     1       3.104  55.470  -7.358  1.00  0.00    -0.032 C 
HETATM   10  C15 UNL     1       2.898  54.753  -6.000  1.00  0.00     0.016 C 
HETATM   11  C16 UNL     1       3.502  54.376  -8.397  1.00  0.00     0.011 C 
HETATM   12  C17 UNL     1       2.342  53.534  -8.986  1.00  0.00     0.011 C 
HETATM   13  C18 UNL     1       1.207  54.410  -9.560  1.00  0.00    -0.032 C 
HETATM   14  C19 UNL     1       1.800  55.174 -10.790  1.00  0.00     0.016 C 
HETATM   15  C20 UNL     1      -0.139  53.746 -10.020  1.00  0.00    -0.002 C 
HETATM   16  C29 UNL     1      -1.122  54.967  -9.970  1.00  0.00     0.006 C 
HETATM   17  C30 UNL     1      -0.478  56.060  -9.094  1.00  0.00     0.011 C 
HETATM   18  C31 UNL     1       0.679  55.337  -8.385  1.00  0.00    -0.032 C 
HETATM   19  C32 UNL     1       0.016  54.561  -7.202  1.00  0.00     0.016 C 
ENDROOT
BRANCH  15  20
HETATM   20  C21 UNL     1      -0.241  52.993 -11.391  1.00  0.00    -0.014 C 
HETATM   21  C22 UNL     1      -1.702  52.573 -11.648  1.00  0.00     0.010 C 
BRANCH  20  22
HETATM   22  C23 UNL     1       0.679  51.751 -11.454  1.00  0.00     0.008 C 
BRANCH  22  23
HETATM   23  C24 UNL     1       0.846  51.117 -12.847  1.00  0.00     0.028 C 
BRANCH  23  24
HETATM   24  C25 UNL     1       2.017  51.629 -13.637  1.00  0.00    -0.025 C 
HETATM   25  C26 UNL     1       2.175  51.643 -14.976  1.00  0.00    -0.091 C 
HETATM   26  C27 UNL     1       3.428  52.212 -15.592  1.00  0.00     0.042 C 
HETATM   27  C28 UNL     1       1.187  51.113 -15.978  1.00  0.00     0.042 C 
ENDBRANCH  23  24
ENDBRANCH  22  23
ENDBRANCH  20  22
ENDBRANCH  15  20
BRANCH   1  28
HETATM   28  C5  UNL     1       5.689  56.011  -7.087  1.00  0.00     0.012 C 
BRANCH  28  29
HETATM   29  C4  UNL     1       6.233  55.535  -8.441  1.00  0.00     0.028 C 
BRANCH  29  30
HETATM   30  C3  UNL     1       7.080  54.275  -8.291  1.00  0.00     0.178 C 
BRANCH  30  31
HETATM   31  O2  UNL     1       6.966  53.469  -9.474  1.00  0.00    -0.322 OA
BRANCH  31  32
HETATM   32  C2  UNL     1       6.448  52.224  -9.292  1.00  0.00     0.254 C 
HETATM   33  C1  UNL     1       7.350  51.420  -8.404  1.00  0.00     0.126 C 
HETATM   34  O1  UNL     1       5.405  51.805  -9.774  1.00  0.00    -0.266 OA
ENDBRANCH  31  32
ENDBRANCH  30  31
ENDBRANCH  29  30
ENDBRANCH  28  29
ENDBRANCH   1  28
TORSDOF 9
ENDMDL
MODEL 6
REMARK minimizedAffinity -8.69691467
REMARK CNNscore 0.321287632
REMARK CNNaffinity 7.04460478
REMARK  9 active torsions:
REMARK  status: ('A' for Active; 'I' for Inactive)
REMARK    1  A    between atoms: C2_2  and  O2_4 
REMARK    2  A    between atoms: O2_4  and  C3_5 
REMARK    3  A    between atoms: C3_5  and  C4_6 
REMARK    4  A    between atoms: C4_6  and  C5_7 
REMARK    5  A    between atoms: C5_7  and  C6_8 
REMARK    6  A    between atoms: C20_22  and  C21_23 
REMARK    7  A    between atoms: C21_23  and  C23_25 
REMARK    8  A    between atoms: C23_25  and  C24_26 
REMARK    9  A    between atoms: C24_26  and  C25_27 
ROOT
HETATM    1  C6  UNL     1      -1.364  50.252 -24.798  1.00  0.00     0.023 C 
HETATM    2  C7  UNL     1      -2.314  50.017 -26.002  1.00  0.00    -0.073 C 
HETATM    3  C8  UNL     1      -2.641  50.859 -27.019  1.00  0.00    -0.085 C 
HETATM    4  C9  UNL     1      -3.468  50.424 -28.211  1.00  0.00     0.043 C 
HETATM    5  C10 UNL     1      -2.293  52.324 -27.105  1.00  0.00     0.043 C 
HETATM    6  C11 UNL     1      -2.968  48.642 -25.876  1.00  0.00     0.035 C 
HETATM    7  C12 UNL     1      -3.792  48.559 -24.584  1.00  0.00     0.010 C 
HETATM    8  C13 UNL     1      -2.929  48.885 -23.349  1.00  0.00     0.003 C 
HETATM    9  C14 UNL     1      -2.219  50.299 -23.457  1.00  0.00    -0.032 C 
HETATM   10  C15 UNL     1      -3.191  51.502 -23.541  1.00  0.00     0.016 C 
HETATM   11  C16 UNL     1      -1.323  50.520 -22.200  1.00  0.00     0.011 C 
HETATM   12  C17 UNL     1      -1.951  50.142 -20.834  1.00  0.00     0.011 C 
HETATM   13  C18 UNL     1      -2.522  48.708 -20.822  1.00  0.00    -0.032 C 
HETATM   14  C19 UNL     1      -1.307  47.733 -20.977  1.00  0.00     0.016 C 
HETATM   15  C20 UNL     1      -3.371  48.213 -19.598  1.00  0.00    -0.002 C 
HETATM   16  C29 UNL     1      -4.170  47.022 -20.234  1.00  0.00     0.006 C 
HETATM   17  C30 UNL     1      -4.122  47.183 -21.767  1.00  0.00     0.011 C 
HETATM   18  C31 UNL     1      -3.607  48.615 -21.976  1.00  0.00    -0.032 C 
HETATM   19  C32 UNL     1      -4.853  49.536 -21.763  1.00  0.00     0.016 C 
ENDROOT
BRANCH  15  20
HETATM   20  C21 UNL     1      -2.683  47.780 -18.259  1.00  0.00    -0.014 C 
HETATM   21  C22 UNL     1      -3.709  47.082 -17.345  1.00  0.00     0.010 C 
BRANCH  20  22
HETATM   22  C23 UNL     1      -2.044  48.974 -17.510  1.00  0.00     0.008 C 
BRANCH  22  23
HETATM   23  C24 UNL     1      -0.505  49.029 -17.535  1.00  0.00     0.028 C 
BRANCH  23  24
HETATM   24  C25 UNL     1       0.075  50.415 -17.580  1.00  0.00    -0.025 C 
HETATM   25  C26 UNL     1       0.759  51.062 -16.615  1.00  0.00    -0.091 C 
HETATM   26  C27 UNL     1       1.276  52.458 -16.850  1.00  0.00     0.042 C 
HETATM   27  C28 UNL     1       1.071  50.516 -15.249  1.00  0.00     0.042 C 
ENDBRANCH  23  24
ENDBRANCH  22  23
ENDBRANCH  20  22
ENDBRANCH  15  20
BRANCH   1  28
HETATM   28  C5  UNL     1      -0.253  51.327 -24.915  1.00  0.00     0.012 C 
BRANCH  28  29
HETATM   29  C4  UNL     1      -0.531  52.570 -24.059  1.00  0.00     0.028 C 
BRANCH  29  30
HETATM   30  C3  UNL     1       0.763  53.254 -23.629  1.00  0.00     0.178 C 
BRANCH  30  31
HETATM   31  O2  UNL     1       1.067  52.908 -22.269  1.00  0.00    -0.322 OA
BRANCH  31  32
HETATM   32  C2  UNL     1       1.287  53.956 -21.429  1.00  0.00     0.254 C 
HETATM   33  C1  UNL     1       0.445  53.807 -20.197  1.00  0.00     0.126 C 
HETATM   34  O1  UNL     1       2.051  54.888 -21.632  1.00  0.00    -0.266 OA
ENDBRANCH  31  32
ENDBRANCH  30  31
ENDBRANCH  29  30
ENDBRANCH  28  29
ENDBRANCH   1  28
TORSDOF 9
ENDMDL
MODEL 7
REMARK minimizedAffinity -7.41399193
REMARK CNNscore 0.285479963
REMARK CNNaffinity 5.80646276
REMARK  9 active torsions:
REMARK  status: ('A' for Active; 'I' for Inactive)
REMARK    1  A    between atoms: C2_2  and  O2_4 
REMARK    2  A    between atoms: O2_4  and  C3_5 
REMARK    3  A    between atoms: C3_5  and  C4_6 
REMARK    4  A    between atoms: C4_6  and  C5_7 
REMARK    5  A    between atoms: C5_7  and  C6_8 
REMARK    6  A    between atoms: C20_22  and  C21_23 
REMARK    7  A    between atoms: C21_23  and  C23_25 
REMARK    8  A    between atoms: C23_25  and  C24_26 
REMARK    9  A    between atoms: C24_26  and  C25_27 
ROOT
HETATM    1  C6  UNL     1       7.028  64.594 -34.763  1.00  0.00     0.023 C 
HETATM    2  C7  UNL     1       5.749  64.208 -33.973  1.00  0.00    -0.073 C 
HETATM    3  C8  UNL     1       5.213  62.978 -33.748  1.00  0.00    -0.085 C 
HETATM    4  C9  UNL     1       4.038  62.751 -32.821  1.00  0.00     0.043 C 
HETATM    5  C10 UNL     1       5.647  61.688 -34.399  1.00  0.00     0.043 C 
HETATM    6  C11 UNL     1       5.044  65.475 -33.493  1.00  0.00     0.035 C 
HETATM    7  C12 UNL     1       4.631  66.343 -34.690  1.00  0.00     0.010 C 
HETATM    8  C13 UNL     1       5.843  66.679 -35.580  1.00  0.00     0.003 C 
HETATM    9  C14 UNL     1       6.611  65.385 -36.079  1.00  0.00    -0.032 C 
HETATM   10  C15 UNL     1       5.767  64.438 -36.969  1.00  0.00     0.016 C 
HETATM   11  C16 UNL     1       7.853  65.817 -36.919  1.00  0.00     0.011 C 
HETATM   12  C17 UNL     1       7.623  66.950 -37.952  1.00  0.00     0.011 C 
HETATM   13  C18 UNL     1       6.957  68.195 -37.325  1.00  0.00    -0.032 C 
HETATM   14  C19 UNL     1       7.982  68.796 -36.308  1.00  0.00     0.016 C 
HETATM   15  C20 UNL     1       6.464  69.367 -38.247  1.00  0.00    -0.002 C 
HETATM   16  C29 UNL     1       5.413  70.071 -37.319  1.00  0.00     0.006 C 
HETATM   17  C30 UNL     1       5.023  69.079 -36.205  1.00  0.00     0.011 C 
HETATM   18  C31 UNL     1       5.577  67.731 -36.693  1.00  0.00    -0.032 C 
HETATM   19  C32 UNL     1       4.535  67.211 -37.735  1.00  0.00     0.016 C 
ENDROOT
BRANCH  15  20
HETATM   20  C21 UNL     1       7.475  70.403 -38.845  1.00  0.00    -0.014 C 
HETATM   21  C22 UNL     1       7.088  71.827 -38.399  1.00  0.00     0.010 C 
BRANCH  20  22
HETATM   22  C23 UNL     1       7.543  70.340 -40.390  1.00  0.00     0.008 C 
BRANCH  22  23
HETATM   23  C24 UNL     1       7.624  68.926 -40.995  1.00  0.00     0.028 C 
BRANCH  23  24
HETATM   24  C25 UNL     1       9.013  68.465 -41.336  1.00  0.00    -0.025 C 
HETATM   25  C26 UNL     1       9.465  67.988 -42.514  1.00  0.00    -0.091 C 
HETATM   26  C27 UNL     1      10.907  67.580 -42.669  1.00  0.00     0.042 C 
HETATM   27  C28 UNL     1       8.638  67.799 -43.756  1.00  0.00     0.042 C 
ENDBRANCH  23  24
ENDBRANCH  22  23
ENDBRANCH  20  22
ENDBRANCH  15  20
BRANCH   1  28
HETATM   28  C5  UNL     1       8.146  63.536 -34.949  1.00  0.00     0.012 C 
BRANCH  28  29
HETATM   29  C4  UNL     1       9.351  63.772 -34.029  1.00  0.00     0.028 C 
BRANCH  29  30
HETATM   30  C3  UNL     1      10.415  62.694 -34.213  1.00  0.00     0.178 C 
BRANCH  30  31
HETATM   31  O2  UNL     1      11.125  62.496 -32.981  1.00  0.00    -0.322 OA
BRANCH  31  32
HETATM   32  C2  UNL     1      10.452  61.815 -32.014  1.00  0.00     0.254 C 
HETATM   33  C1  UNL     1      11.383  61.469 -30.891  1.00  0.00     0.126 C 
HETATM   34  O1  UNL     1       9.266  61.519 -32.041  1.00  0.00    -0.266 OA
ENDBRANCH  31  32
ENDBRANCH  30  31
ENDBRANCH  29  30
ENDBRANCH  28  29
ENDBRANCH   1  28
TORSDOF 9
ENDMDL
MODEL 8
REMARK minimizedAffinity -8.33848
REMARK CNNscore 0.215319961
REMARK CNNaffinity 6.49181747
REMARK  9 active torsions:
REMARK  status: ('A' for Active; 'I' for Inactive)
REMARK    1  A    between atoms: C2_2  and  O2_4 
REMARK    2  A    between atoms: O2_4  and  C3_5 
REMARK    3  A    between atoms: C3_5  and  C4_6 
REMARK    4  A    between atoms: C4_6  and  C5_7 
REMARK    5  A    between atoms: C5_7  and  C6_8 
REMARK    6  A    between atoms: C20_22  and  C21_23 
REMARK    7  A    between atoms: C21_23  and  C23_25 
REMARK    8  A    between atoms: C23_25  and  C24_26 
REMARK    9  A    between atoms: C24_26  and  C25_27 
ROOT
HETATM    1  C6  UNL     1      -5.730  48.405 -22.699  1.00  0.00     0.023 C 
HETATM    2  C7  UNL     1      -6.056  47.371 -21.589  1.00  0.00    -0.073 C 
HETATM    3  C8  UNL     1      -7.254  47.065 -21.022  1.00  0.00    -0.085 C 
HETATM    4  C9  UNL     1      -7.433  45.914 -20.053  1.00  0.00     0.043 C 
HETATM    5  C10 UNL     1      -8.546  47.819 -21.213  1.00  0.00     0.043 C 
HETATM    6  C11 UNL     1      -4.763  46.726 -21.096  1.00  0.00     0.035 C 
HETATM    7  C12 UNL     1      -3.825  47.791 -20.508  1.00  0.00     0.010 C 
HETATM    8  C13 UNL     1      -3.541  48.909 -21.528  1.00  0.00     0.003 C 
HETATM    9  C14 UNL     1      -4.866  49.587 -22.076  1.00  0.00    -0.032 C 
HETATM   10  C15 UNL     1      -5.719  50.298 -20.997  1.00  0.00     0.016 C 
HETATM   11  C16 UNL     1      -4.489  50.660 -23.144  1.00  0.00     0.011 C 
HETATM   12  C17 UNL     1      -3.306  51.597 -22.787  1.00  0.00     0.011 C 
HETATM   13  C18 UNL     1      -2.042  50.818 -22.362  1.00  0.00    -0.032 C 
HETATM   14  C19 UNL     1      -1.550  50.027 -23.620  1.00  0.00     0.016 C 
HETATM   15  C20 UNL     1      -0.807  51.589 -21.776  1.00  0.00    -0.002 C 
HETATM   16  C29 UNL     1      -0.066  50.446 -20.998  1.00  0.00     0.006 C 
HETATM   17  C30 UNL     1      -1.069  49.296 -20.777  1.00  0.00     0.011 C 
HETATM   18  C31 UNL     1      -2.433  49.918 -21.115  1.00  0.00    -0.032 C 
HETATM   19  C32 UNL     1      -2.843  50.727 -19.841  1.00  0.00     0.016 C 
ENDROOT
BRANCH  15  20
HETATM   20  C21 UNL     1       0.180  52.366 -22.714  1.00  0.00    -0.014 C 
HETATM   21  C22 UNL     1       0.998  53.378 -21.888  1.00  0.00     0.010 C 
BRANCH  20  22
HETATM   22  C23 UNL     1      -0.551  53.099 -23.864  1.00  0.00     0.008 C 
BRANCH  22  23
HETATM   23  C24 UNL     1       0.359  53.779 -24.903  1.00  0.00     0.028 C 
BRANCH  23  24
HETATM   24  C25 UNL     1       0.239  53.235 -26.299  1.00  0.00    -0.025 C 
HETATM   25  C26 UNL     1       0.953  52.244 -26.870  1.00  0.00    -0.091 C 
HETATM   26  C27 UNL     1       0.681  51.827 -28.292  1.00  0.00     0.042 C 
HETATM   27  C28 UNL     1       2.061  51.472 -26.208  1.00  0.00     0.042 C 
ENDBRANCH  23  24
ENDBRANCH  22  23
ENDBRANCH  20  22
ENDBRANCH  15  20
BRANCH   1  28
HETATM   28  C5  UNL     1      -6.855  48.846 -23.671  1.00  0.00     0.012 C 
BRANCH  28  29
HETATM   29  C4  UNL     1      -6.782  48.136 -25.030  1.00  0.00     0.028 C 
BRANCH  29  30
HETATM   30  C3  UNL     1      -5.360  48.131 -25.583  1.00  0.00     0.178 C 
BRANCH  30  31
HETATM   31  O2  UNL     1      -5.395  47.983 -27.011  1.00  0.00    -0.322 OA
BRANCH  31  32
HETATM   32  C2  UNL     1      -4.297  48.434 -27.678  1.00  0.00     0.254 C 
HETATM   33  C1  UNL     1      -3.137  48.546 -26.734  1.00  0.00     0.126 C 
HETATM   34  O1  UNL     1      -4.246  48.712 -28.867  1.00  0.00    -0.266 OA
ENDBRANCH  31  32
ENDBRANCH  30  31
ENDBRANCH  29  30
ENDBRANCH  28  29
ENDBRANCH   1  28
TORSDOF 9
ENDMDL
MODEL 9
REMARK minimizedAffinity -8.11377811
REMARK CNNscore 0.201100275
REMARK CNNaffinity 6.55226326
REMARK  9 active torsions:
REMARK  status: ('A' for Active; 'I' for Inactive)
REMARK    1  A    between atoms: C2_2  and  O2_4 
REMARK    2  A    between atoms: O2_4  and  C3_5 
REMARK    3  A    between atoms: C3_5  and  C4_6 
REMARK    4  A    between atoms: C4_6  and  C5_7 
REMARK    5  A    between atoms: C5_7  and  C6_8 
REMARK    6  A    between atoms: C20_22  and  C21_23 
REMARK    7  A    between atoms: C21_23  and  C23_25 
REMARK    8  A    between atoms: C23_25  and  C24_26 
REMARK    9  A    between atoms: C24_26  and  C25_27 
ROOT
HETATM    1  C6  UNL     1      -0.324  51.879 -24.029  1.00  0.00     0.023 C 
HETATM    2  C7  UNL     1      -0.192  51.828 -25.575  1.00  0.00    -0.073 C 
HETATM    3  C8  UNL     1       0.136  52.822 -26.444  1.00  0.00    -0.085 C 
HETATM    4  C9  UNL     1       0.376  52.575 -27.919  1.00  0.00     0.043 C 
HETATM    5  C10 UNL     1       0.261  54.287 -26.111  1.00  0.00     0.043 C 
HETATM    6  C11 UNL     1      -0.581  50.439 -26.076  1.00  0.00     0.035 C 
HETATM    7  C12 UNL     1      -2.037  50.124 -25.702  1.00  0.00     0.010 C 
HETATM    8  C13 UNL     1      -2.265  50.258 -24.184  1.00  0.00     0.003 C 
HETATM    9  C14 UNL     1      -1.852  51.683 -23.627  1.00  0.00    -0.032 C 
HETATM   10  C15 UNL     1      -2.665  52.864 -24.214  1.00  0.00     0.016 C 
HETATM   11  C16 UNL     1      -2.057  51.710 -22.081  1.00  0.00     0.011 C 
HETATM   12  C17 UNL     1      -3.379  51.096 -21.553  1.00  0.00     0.011 C 
HETATM   13  C18 UNL     1      -3.624  49.669 -22.088  1.00  0.00    -0.032 C 
HETATM   14  C19 UNL     1      -2.503  48.759 -21.485  1.00  0.00     0.016 C 
HETATM   15  C20 UNL     1      -4.999  48.959 -21.826  1.00  0.00    -0.002 C 
HETATM   16  C29 UNL     1      -5.011  47.875 -22.960  1.00  0.00     0.006 C 
HETATM   17  C30 UNL     1      -3.977  48.291 -24.025  1.00  0.00     0.011 C 
HETATM   18  C31 UNL     1      -3.642  49.748 -23.673  1.00  0.00    -0.032 C 
HETATM   19  C32 UNL     1      -4.818  50.595 -24.260  1.00  0.00     0.016 C 
ENDROOT
BRANCH  15  20
HETATM   20  C21 UNL     1      -5.328  48.323 -20.433  1.00  0.00    -0.014 C 
HETATM   21  C22 UNL     1      -5.651  46.826 -20.605  1.00  0.00     0.010 C 
BRANCH  20  22
HETATM   22  C23 UNL     1      -6.505  49.034 -19.721  1.00  0.00     0.008 C 
BRANCH  22  23
HETATM   23  C24 UNL     1      -7.480  48.112 -18.966  1.00  0.00     0.028 C 
BRANCH  23  24
HETATM   24  C25 UNL     1      -8.904  48.176 -19.442  1.00  0.00    -0.025 C 
HETATM   25  C26 UNL     1     -10.032  48.104 -18.706  1.00  0.00    -0.091 C 
HETATM   26  C27 UNL     1     -11.383  48.197 -19.366  1.00  0.00     0.042 C 
HETATM   27  C28 UNL     1     -10.091  47.920 -17.214  1.00  0.00     0.042 C 
ENDBRANCH  23  24
ENDBRANCH  22  23
ENDBRANCH  20  22
ENDBRANCH  15  20
BRANCH   1  28
HETATM   28  C5  UNL     1       0.433  52.980 -23.245  1.00  0.00     0.012 C 
BRANCH  28  29
HETATM   29  C4  UNL     1       1.017  52.475 -21.918  1.00  0.00     0.028 C 
BRANCH  29  30
HETATM   30  C3  UNL     1       1.427  53.631 -21.011  1.00  0.00     0.178 C 
BRANCH  30  31
HETATM   31  O2  UNL     1       0.354  53.948 -20.111  1.00  0.00    -0.322 OA
BRANCH  31  32
HETATM   32  C2  UNL     1       0.090  53.015 -19.156  1.00  0.00     0.254 C 
HETATM   33  C1  UNL     1       1.307  52.797 -18.307  1.00  0.00     0.126 C 
HETATM   34  O1  UNL     1      -0.973  52.432 -18.998  1.00  0.00    -0.266 OA
ENDBRANCH  31  32
ENDBRANCH  30  31
ENDBRANCH  29  30
ENDBRANCH  28  29
ENDBRANCH   1  28
TORSDOF 9
ENDMDL
