MODEL 1
REMARK minimizedAffinity -9.84506035
REMARK CNNscore 0.726059079
REMARK CNNaffinity 8.00160122
REMARK  9 active torsions:
REMARK  status: ('A' for Active; 'I' for Inactive)
REMARK    1  A    between atoms: C3_3  and  O1_4 
REMARK    2  A    between atoms: N1_14  and  O2_16 
REMARK    3  A    between atoms: O2_16  and  C13_17 
REMARK    4  A    between atoms: C13_17  and  C14_18 
REMARK       I    between atoms: C14_18  and  N2_20 
REMARK    5  A    between atoms: N2_20  and  C15_21 
REMARK    6  A    between atoms: C15_21  and  C16_22 
REMARK    7  A    between atoms: C15_21  and  C18_26 
REMARK    8  A    between atoms: C16_22  and  C17_23 
REMARK    9  A    between atoms: C17_23  and  O5_25 
ROOT
HETATM    1  C1  UNL     1      -9.791   7.239  13.759  1.00  0.00     0.015 C 
HETATM    2  C2  UNL     1      -8.868   6.619  14.216  1.00  0.00    -0.078 C 
HETATM    3  C3  UNL     1      -7.734   5.847  14.752  1.00  0.00     0.128 C 
HETATM    4  C4  UNL     1      -7.330   6.305  16.156  1.00  0.00     0.052 C 
HETATM    5  C5  UNL     1      -5.848   5.946  16.293  1.00  0.00     0.010 C 
HETATM    6  C6  UNL     1      -5.374   5.416  14.920  1.00  0.00     0.002 C 
HETATM    7  C7  UNL     1      -3.891   5.764  14.645  1.00  0.00    -0.004 C 
HETATM    8  C8  UNL     1      -3.259   4.779  13.631  1.00  0.00     0.010 C 
HETATM    9  C9  UNL     1      -2.149   5.371  12.767  1.00  0.00     0.035 C 
HETATM   10  C10 UNL     1      -1.359   6.373  13.555  1.00  0.00    -0.069 C 
HETATM   11  C11 UNL     1      -0.065   6.152  13.846  1.00  0.00     0.030 C 
HETATM   12  C12 UNL     1       0.715   7.092  14.689  1.00  0.00     0.032 C 
HETATM   13  N1  UNL     1       2.005   6.914  14.754  1.00  0.00    -0.271 N 
ATOM     14  H1  UNL     1       2.508   6.175  14.263  1.00  0.00     0.194 HD
HETATM   15  C25 UNL     1      -0.022   8.214  15.397  1.00  0.00     0.060 C 
HETATM   16  C26 UNL     1      -1.535   8.000  15.423  1.00  0.00     0.020 C 
HETATM   17  C27 UNL     1      -2.137   7.588  14.048  1.00  0.00    -0.016 C 
HETATM   18  C28 UNL     1      -1.935   8.741  13.041  1.00  0.00     0.020 C 
HETATM   19  C29 UNL     1      -3.672   7.256  14.269  1.00  0.00     0.002 C 
HETATM   20  C30 UNL     1      -4.631   7.657  13.130  1.00  0.00     0.007 C 
HETATM   21  C31 UNL     1      -6.093   7.435  13.528  1.00  0.00     0.014 C 
HETATM   22  C32 UNL     1      -6.422   5.970  13.913  1.00  0.00     0.003 C 
HETATM   23  C33 UNL     1      -6.517   5.121  12.630  1.00  0.00     0.020 C 
ENDROOT
BRANCH   3  24
HETATM   24  O1  UNL     1      -8.123   4.472  14.845  1.00  0.00    -0.377 OA
HETATM   25  H2  UNL     1      -9.037   4.452  15.174  1.00  0.00     0.211 HD
ENDBRANCH   3  24
BRANCH  13  26
HETATM   26  O2  UNL     1       2.616   7.867  15.585  1.00  0.00    -0.271 OA
BRANCH  26  27
HETATM   27  C13 UNL     1       3.876   8.208  15.026  1.00  0.00     0.303 C 
BRANCH  27  28
HETATM   28  C14 UNL     1       3.774   8.543  13.540  1.00  0.00     0.244 C 
HETATM   29  O3  UNL     1       3.032   9.402  13.075  1.00  0.00    -0.271 OA
HETATM   30  N2  UNL     1       4.625   7.783  12.749  1.00  0.00    -0.354 N 
HETATM   31  H16 UNL     1       4.911   6.891  13.140  1.00  0.00     0.162 HD
BRANCH  30  32
HETATM   32  C15 UNL     1       4.598   7.885  11.291  1.00  0.00     0.098 C 
BRANCH  32  33
HETATM   33  C16 UNL     1       5.241   9.182  10.774  1.00  0.00     0.135 C 
BRANCH  33  34
HETATM   34  C17 UNL     1       6.739   9.264  10.832  1.00  0.00     0.141 C 
HETATM   35  O4  UNL     1       7.426  10.088  10.249  1.00  0.00    -0.650 OA
BRANCH  34  36
HETATM   36  O5  UNL     1       7.326   8.296  11.561  1.00  0.00    -0.776 OA
HETATM   37  H20 UNL     1       8.286   8.449  11.412  1.00  0.00     0.167 HD
ENDBRANCH  34  36
ENDBRANCH  33  34
ENDBRANCH  32  33
BRANCH  32  38
HETATM   38  C18 UNL     1       3.196   7.565  10.696  1.00  0.00     0.014 C 
HETATM   39  C19 UNL     1       2.577   6.231  11.133  1.00  0.00     0.033 C 
HETATM   40  C20 UNL     1       1.248   5.979  10.432  1.00  0.00     0.169 C 
HETATM   41  O6  UNL     1       1.391   6.024   9.018  1.00  0.00    -0.381 OA
HETATM   42  C21 UNL     1       1.895   7.261   8.496  1.00  0.00     0.054 C 
HETATM   43  C22 UNL     1       2.111   7.024   6.993  1.00  0.00     0.045 C 
HETATM   44  C23 UNL     1       0.864   8.386   8.659  1.00  0.00     0.045 C 
HETATM   45  C24 UNL     1       3.245   7.604   9.153  1.00  0.00     0.044 C 
ENDBRANCH  32  38
ENDBRANCH  30  32
ENDBRANCH  27  28
ENDBRANCH  26  27
ENDBRANCH  13  26
TORSDOF 9
ENDMDL
MODEL 2
REMARK minimizedAffinity -7.38710928
REMARK CNNscore 0.68185401
REMARK CNNaffinity 6.88290548
REMARK  9 active torsions:
REMARK  status: ('A' for Active; 'I' for Inactive)
REMARK    1  A    between atoms: C3_3  and  O1_4 
REMARK    2  A    between atoms: N1_14  and  O2_16 
REMARK    3  A    between atoms: O2_16  and  C13_17 
REMARK    4  A    between atoms: C13_17  and  C14_18 
REMARK       I    between atoms: C14_18  and  N2_20 
REMARK    5  A    between atoms: N2_20  and  C15_21 
REMARK    6  A    between atoms: C15_21  and  C16_22 
REMARK    7  A    between atoms: C15_21  and  C18_26 
REMARK    8  A    between atoms: C16_22  and  C17_23 
REMARK    9  A    between atoms: C17_23  and  O5_25 
ROOT
HETATM    1  C1  UNL     1     -12.407   2.928  29.990  1.00  0.00     0.015 C 
HETATM    2  C2  UNL     1     -12.797   2.513  28.931  1.00  0.00    -0.078 C 
HETATM    3  C3  UNL     1     -13.301   2.006  27.644  1.00  0.00     0.128 C 
HETATM    4  C4  UNL     1     -12.184   1.822  26.614  1.00  0.00     0.052 C 
HETATM    5  C5  UNL     1     -12.859   1.960  25.247  1.00  0.00     0.010 C 
HETATM    6  C6  UNL     1     -14.331   2.364  25.500  1.00  0.00     0.002 C 
HETATM    7  C7  UNL     1     -14.883   3.273  24.376  1.00  0.00    -0.004 C 
HETATM    8  C8  UNL     1     -16.426   3.188  24.287  1.00  0.00     0.010 C 
HETATM    9  C9  UNL     1     -17.114   4.458  23.794  1.00  0.00     0.035 C 
HETATM   10  C10 UNL     1     -16.260   5.142  22.769  1.00  0.00    -0.069 C 
HETATM   11  C11 UNL     1     -16.673   5.253  21.494  1.00  0.00     0.030 C 
HETATM   12  C12 UNL     1     -15.813   5.857  20.446  1.00  0.00     0.032 C 
HETATM   13  N1  UNL     1     -16.361   6.112  19.291  1.00  0.00    -0.271 N 
ATOM     14  H1  UNL     1     -17.338   5.925  19.064  1.00  0.00     0.194 HD
HETATM   15  C25 UNL     1     -14.367   6.168  20.785  1.00  0.00     0.060 C 
HETATM   16  C26 UNL     1     -13.902   5.478  22.067  1.00  0.00     0.020 C 
HETATM   17  C27 UNL     1     -14.896   5.619  23.256  1.00  0.00    -0.016 C 
HETATM   18  C28 UNL     1     -15.009   7.109  23.646  1.00  0.00     0.020 C 
HETATM   19  C29 UNL     1     -14.353   4.732  24.453  1.00  0.00     0.002 C 
HETATM   20  C30 UNL     1     -14.565   5.293  25.873  1.00  0.00     0.007 C 
HETATM   21  C31 UNL     1     -13.858   4.433  26.924  1.00  0.00     0.014 C 
HETATM   22  C32 UNL     1     -14.324   2.954  26.938  1.00  0.00     0.003 C 
HETATM   23  C33 UNL     1     -15.703   2.867  27.621  1.00  0.00     0.020 C 
ENDROOT
BRANCH   3  24
HETATM   24  O1  UNL     1     -13.899   0.724  27.861  1.00  0.00    -0.377 OA
HETATM   25  H2  UNL     1     -13.331   0.241  28.484  1.00  0.00     0.211 HD
ENDBRANCH   3  24
BRANCH  13  26
HETATM   26  O2  UNL     1     -15.437   6.676  18.396  1.00  0.00    -0.271 OA
BRANCH  26  27
HETATM   27  C13 UNL     1     -16.096   7.689  17.650  1.00  0.00     0.303 C 
BRANCH  27  28
HETATM   28  C14 UNL     1     -16.415   7.239  16.226  1.00  0.00     0.244 C 
HETATM   29  O3  UNL     1     -17.375   7.637  15.575  1.00  0.00    -0.271 OA
HETATM   30  N2  UNL     1     -15.493   6.333  15.720  1.00  0.00    -0.354 N 
HETATM   31  H16 UNL     1     -14.973   5.800  16.411  1.00  0.00     0.162 HD
BRANCH  30  32
HETATM   32  C15 UNL     1     -15.683   5.708  14.413  1.00  0.00     0.098 C 
BRANCH  32  33
HETATM   33  C16 UNL     1     -16.322   6.657  13.387  1.00  0.00     0.135 C 
BRANCH  33  34
HETATM   34  C17 UNL     1     -15.438   7.152  12.279  1.00  0.00     0.141 C 
HETATM   35  O4  UNL     1     -15.824   7.582  11.204  1.00  0.00    -0.650 OA
BRANCH  34  36
HETATM   36  O5  UNL     1     -14.119   7.045  12.526  1.00  0.00    -0.776 OA
HETATM   37  H20 UNL     1     -13.706   7.321  11.676  1.00  0.00     0.167 HD
ENDBRANCH  34  36
ENDBRANCH  33  34
ENDBRANCH  32  33
BRANCH  32  38
HETATM   38  C18 UNL     1     -16.350   4.305  14.513  1.00  0.00     0.014 C 
HETATM   39  C19 UNL     1     -17.496   4.185  15.526  1.00  0.00     0.033 C 
HETATM   40  C20 UNL     1     -18.022   2.758  15.604  1.00  0.00     0.169 C 
HETATM   41  O6  UNL     1     -16.983   1.838  15.915  1.00  0.00    -0.381 OA
HETATM   42  C21 UNL     1     -15.891   1.817  14.986  1.00  0.00     0.054 C 
HETATM   43  C22 UNL     1     -14.836   0.883  15.600  1.00  0.00     0.045 C 
HETATM   44  C23 UNL     1     -16.328   1.223  13.640  1.00  0.00     0.045 C 
HETATM   45  C24 UNL     1     -15.292   3.227  14.837  1.00  0.00     0.044 C 
ENDBRANCH  32  38
ENDBRANCH  30  32
ENDBRANCH  27  28
ENDBRANCH  26  27
ENDBRANCH  13  26
TORSDOF 9
ENDMDL
MODEL 3
REMARK minimizedAffinity -10.4546652
REMARK CNNscore 0.440823644
REMARK CNNaffinity 7.27567863
REMARK  9 active torsions:
REMARK  status: ('A' for Active; 'I' for Inactive)
REMARK    1  A    between atoms: C3_3  and  O1_4 
REMARK    2  A    between atoms: N1_14  and  O2_16 
REMARK    3  A    between atoms: O2_16  and  C13_17 
REMARK    4  A    between atoms: C13_17  and  C14_18 
REMARK       I    between atoms: C14_18  and  N2_20 
REMARK    5  A    between atoms: N2_20  and  C15_21 
REMARK    6  A    between atoms: C15_21  and  C16_22 
REMARK    7  A    between atoms: C15_21  and  C18_26 
REMARK    8  A    between atoms: C16_22  and  C17_23 
REMARK    9  A    between atoms: C17_23  and  O5_25 
ROOT
HETATM    1  C1  UNL     1      -9.173   5.877  11.920  1.00  0.00     0.015 C 
HETATM    2  C2  UNL     1      -8.473   5.720  12.885  1.00  0.00    -0.078 C 
HETATM    3  C3  UNL     1      -7.599   5.511  14.051  1.00  0.00     0.128 C 
HETATM    4  C4  UNL     1      -8.050   6.324  15.268  1.00  0.00     0.052 C 
HETATM    5  C5  UNL     1      -6.785   6.549  16.101  1.00  0.00     0.010 C 
HETATM    6  C6  UNL     1      -5.594   5.989  15.290  1.00  0.00     0.002 C 
HETATM    7  C7  UNL     1      -4.294   6.790  15.543  1.00  0.00    -0.004 C 
HETATM    8  C8  UNL     1      -3.037   5.934  15.249  1.00  0.00     0.010 C 
HETATM    9  C9  UNL     1      -1.821   6.719  14.769  1.00  0.00     0.035 C 
HETATM   10  C10 UNL     1      -1.774   8.060  15.439  1.00  0.00    -0.069 C 
HETATM   11  C11 UNL     1      -0.775   8.372  16.283  1.00  0.00     0.030 C 
HETATM   12  C12 UNL     1      -0.749   9.661  17.017  1.00  0.00     0.032 C 
HETATM   13  N1  UNL     1       0.346   9.971  17.653  1.00  0.00    -0.271 N 
ATOM     14  H1  UNL     1       1.182   9.386  17.675  1.00  0.00     0.194 HD
HETATM   15  C25 UNL     1      -1.976  10.552  16.962  1.00  0.00     0.060 C 
HETATM   16  C26 UNL     1      -3.212   9.820  16.441  1.00  0.00     0.020 C 
HETATM   17  C27 UNL     1      -2.954   8.984  15.154  1.00  0.00    -0.016 C 
HETATM   18  C28 UNL     1      -2.564   9.936  14.002  1.00  0.00     0.020 C 
HETATM   19  C29 UNL     1      -4.276   8.169  14.829  1.00  0.00     0.002 C 
HETATM   20  C30 UNL     1      -4.622   7.993  13.337  1.00  0.00     0.007 C 
HETATM   21  C31 UNL     1      -5.994   7.338  13.156  1.00  0.00     0.014 C 
HETATM   22  C32 UNL     1      -6.115   5.945  13.825  1.00  0.00     0.003 C 
HETATM   23  C33 UNL     1      -5.372   4.905  12.963  1.00  0.00     0.020 C 
ENDROOT
BRANCH   3  24
HETATM   24  O1  UNL     1      -7.650   4.128  14.418  1.00  0.00    -0.377 OA
HETATM   25  H2  UNL     1      -8.574   3.841  14.335  1.00  0.00     0.211 HD
ENDBRANCH   3  24
BRANCH  13  26
HETATM   26  O2  UNL     1       0.233  11.210  18.303  1.00  0.00    -0.271 OA
BRANCH  26  27
HETATM   27  C13 UNL     1       0.474  11.014  19.688  1.00  0.00     0.303 C 
BRANCH  27  28
HETATM   28  C14 UNL     1       1.906  10.557  19.964  1.00  0.00     0.244 C 
HETATM   29  O3  UNL     1       2.563   9.851  19.206  1.00  0.00    -0.271 OA
HETATM   30  N2  UNL     1       2.410  11.037  21.165  1.00  0.00    -0.354 N 
HETATM   31  H16 UNL     1       1.719  11.285  21.866  1.00  0.00     0.162 HD
BRANCH  30  32
HETATM   32  C15 UNL     1       3.725  10.626  21.653  1.00  0.00     0.098 C 
BRANCH  32  33
HETATM   33  C16 UNL     1       3.665   9.972  23.043  1.00  0.00     0.135 C 
BRANCH  33  34
HETATM   34  C17 UNL     1       2.612   8.924  23.254  1.00  0.00     0.141 C 
HETATM   35  O4  UNL     1       2.082   8.658  24.321  1.00  0.00    -0.650 OA
BRANCH  34  36
HETATM   36  O5  UNL     1       2.298   8.216  22.152  1.00  0.00    -0.776 OA
HETATM   37  H20 UNL     1       1.677   7.532  22.492  1.00  0.00     0.167 HD
ENDBRANCH  34  36
ENDBRANCH  33  34
ENDBRANCH  32  33
BRANCH  32  38
HETATM   38  C18 UNL     1       4.796  11.745  21.499  1.00  0.00     0.014 C 
HETATM   39  C19 UNL     1       5.423  11.878  20.105  1.00  0.00     0.033 C 
HETATM   40  C20 UNL     1       6.512  12.942  20.085  1.00  0.00     0.169 C 
HETATM   41  O6  UNL     1       7.513  12.679  21.060  1.00  0.00    -0.381 OA
HETATM   42  C21 UNL     1       7.042  12.607  22.412  1.00  0.00     0.054 C 
HETATM   43  C22 UNL     1       8.249  12.164  23.253  1.00  0.00     0.045 C 
HETATM   44  C23 UNL     1       6.595  13.989  22.910  1.00  0.00     0.045 C 
HETATM   45  C24 UNL     1       5.928  11.552  22.532  1.00  0.00     0.044 C 
ENDBRANCH  32  38
ENDBRANCH  30  32
ENDBRANCH  27  28
ENDBRANCH  26  27
ENDBRANCH  13  26
TORSDOF 9
ENDMDL
MODEL 4
REMARK minimizedAffinity -8.84551334
REMARK CNNscore 0.419597983
REMARK CNNaffinity 7.04393435
REMARK  9 active torsions:
REMARK  status: ('A' for Active; 'I' for Inactive)
REMARK    1  A    between atoms: C3_3  and  O1_4 
REMARK    2  A    between atoms: N1_14  and  O2_16 
REMARK    3  A    between atoms: O2_16  and  C13_17 
REMARK    4  A    between atoms: C13_17  and  C14_18 
REMARK       I    between atoms: C14_18  and  N2_20 
REMARK    5  A    between atoms: N2_20  and  C15_21 
REMARK    6  A    between atoms: C15_21  and  C16_22 
REMARK    7  A    between atoms: C15_21  and  C18_26 
REMARK    8  A    between atoms: C16_22  and  C17_23 
REMARK    9  A    between atoms: C17_23  and  O5_25 
ROOT
HETATM    1  C1  UNL     1       1.300   7.646  15.558  1.00  0.00     0.015 C 
HETATM    2  C2  UNL     1       0.439   7.682  14.719  1.00  0.00    -0.078 C 
HETATM    3  C3  UNL     1      -0.613   7.699  13.690  1.00  0.00     0.128 C 
HETATM    4  C4  UNL     1      -1.275   9.073  13.556  1.00  0.00     0.052 C 
HETATM    5  C5  UNL     1      -2.682   8.800  13.018  1.00  0.00     0.010 C 
HETATM    6  C6  UNL     1      -2.870   7.265  12.979  1.00  0.00     0.002 C 
HETATM    7  C7  UNL     1      -4.338   6.855  13.244  1.00  0.00    -0.004 C 
HETATM    8  C8  UNL     1      -4.654   5.466  12.637  1.00  0.00     0.010 C 
HETATM    9  C9  UNL     1      -5.718   4.665  13.383  1.00  0.00     0.035 C 
HETATM   10  C10 UNL     1      -6.764   5.587  13.937  1.00  0.00    -0.069 C 
HETATM   11  C11 UNL     1      -8.030   5.537  13.490  1.00  0.00     0.030 C 
HETATM   12  C12 UNL     1      -9.063   6.489  13.968  1.00  0.00     0.032 C 
HETATM   13  N1  UNL     1     -10.302   6.248  13.643  1.00  0.00    -0.271 N 
ATOM     14  H1  UNL     1     -10.604   5.449  13.086  1.00  0.00     0.194 HD
HETATM   15  C25 UNL     1      -8.626   7.663  14.825  1.00  0.00     0.060 C 
HETATM   16  C26 UNL     1      -7.117   7.897  14.777  1.00  0.00     0.020 C 
HETATM   17  C27 UNL     1      -6.272   6.602  14.963  1.00  0.00    -0.016 C 
HETATM   18  C28 UNL     1      -6.524   6.033  16.376  1.00  0.00     0.020 C 
HETATM   19  C29 UNL     1      -4.748   6.979  14.738  1.00  0.00     0.002 C 
HETATM   20  C30 UNL     1      -3.723   6.246  15.627  1.00  0.00     0.007 C 
HETATM   21  C31 UNL     1      -2.313   6.810  15.432  1.00  0.00     0.014 C 
HETATM   22  C32 UNL     1      -1.801   6.724  13.971  1.00  0.00     0.003 C 
HETATM   23  C33 UNL     1      -1.392   5.269  13.665  1.00  0.00     0.020 C 
ENDROOT
BRANCH   3  24
HETATM   24  O1  UNL     1      -0.018   7.386  12.425  1.00  0.00    -0.377 OA
HETATM   25  H2  UNL     1       0.833   7.853  12.383  1.00  0.00     0.211 HD
ENDBRANCH   3  24
BRANCH  13  26
HETATM   26  O2  UNL     1     -11.170   7.225  14.156  1.00  0.00    -0.271 OA
BRANCH  26  27
HETATM   27  C13 UNL     1     -11.789   7.893  13.066  1.00  0.00     0.303 C 
BRANCH  27  28
HETATM   28  C14 UNL     1     -13.284   8.108  13.298  1.00  0.00     0.244 C 
HETATM   29  O3  UNL     1     -13.767   9.122  13.789  1.00  0.00    -0.271 OA
HETATM   30  N2  UNL     1     -14.061   7.036  12.879  1.00  0.00    -0.354 N 
HETATM   31  H16 UNL     1     -13.588   6.139  12.835  1.00  0.00     0.162 HD
BRANCH  30  32
HETATM   32  C15 UNL     1     -15.504   7.009  13.111  1.00  0.00     0.098 C 
BRANCH  32  33
HETATM   33  C16 UNL     1     -16.174   8.366  12.841  1.00  0.00     0.135 C 
BRANCH  33  34
HETATM   34  C17 UNL     1     -16.695   8.599  11.453  1.00  0.00     0.141 C 
HETATM   35  O4  UNL     1     -16.253   9.415  10.659  1.00  0.00    -0.650 OA
BRANCH  34  36
HETATM   36  O5  UNL     1     -17.768   7.856  11.125  1.00  0.00    -0.776 OA
HETATM   37  H20 UNL     1     -18.022   8.201  10.239  1.00  0.00     0.167 HD
ENDBRANCH  34  36
ENDBRANCH  33  34
ENDBRANCH  32  33
BRANCH  32  38
HETATM   38  C18 UNL     1     -15.878   6.352  14.472  1.00  0.00     0.014 C 
HETATM   39  C19 UNL     1     -15.858   4.817  14.495  1.00  0.00     0.033 C 
HETATM   40  C20 UNL     1     -16.318   4.277  15.843  1.00  0.00     0.169 C 
HETATM   41  O6  UNL     1     -17.609   4.766  16.186  1.00  0.00    -0.381 OA
HETATM   42  C21 UNL     1     -17.718   6.193  16.264  1.00  0.00     0.054 C 
HETATM   43  C22 UNL     1     -19.210   6.488  16.486  1.00  0.00     0.045 C 
HETATM   44  C23 UNL     1     -16.939   6.738  17.469  1.00  0.00     0.045 C 
HETATM   45  C24 UNL     1     -17.269   6.834  14.938  1.00  0.00     0.044 C 
ENDBRANCH  32  38
ENDBRANCH  30  32
ENDBRANCH  27  28
ENDBRANCH  26  27
ENDBRANCH  13  26
TORSDOF 9
ENDMDL
MODEL 5
REMARK minimizedAffinity -8.56217861
REMARK CNNscore 0.347076237
REMARK CNNaffinity 6.9576931
REMARK  9 active torsions:
REMARK  status: ('A' for Active; 'I' for Inactive)
REMARK    1  A    between atoms: C3_3  and  O1_4 
REMARK    2  A    between atoms: N1_14  and  O2_16 
REMARK    3  A    between atoms: O2_16  and  C13_17 
REMARK    4  A    between atoms: C13_17  and  C14_18 
REMARK       I    between atoms: C14_18  and  N2_20 
REMARK    5  A    between atoms: N2_20  and  C15_21 
REMARK    6  A    between atoms: C15_21  and  C16_22 
REMARK    7  A    between atoms: C15_21  and  C18_26 
REMARK    8  A    between atoms: C16_22  and  C17_23 
REMARK    9  A    between atoms: C17_23  and  O5_25 
ROOT
HETATM    1  C1  UNL     1       1.170   7.700  15.754  1.00  0.00     0.015 C 
HETATM    2  C2  UNL     1       0.318   7.750  14.906  1.00  0.00    -0.078 C 
HETATM    3  C3  UNL     1      -0.721   7.783  13.865  1.00  0.00     0.128 C 
HETATM    4  C4  UNL     1      -1.384   9.158  13.747  1.00  0.00     0.052 C 
HETATM    5  C5  UNL     1      -2.784   8.892  13.188  1.00  0.00     0.010 C 
HETATM    6  C6  UNL     1      -2.969   7.358  13.121  1.00  0.00     0.002 C 
HETATM    7  C7  UNL     1      -4.439   6.941  13.361  1.00  0.00    -0.004 C 
HETATM    8  C8  UNL     1      -4.747   5.562  12.727  1.00  0.00     0.010 C 
HETATM    9  C9  UNL     1      -5.818   4.747  13.446  1.00  0.00     0.035 C 
HETATM   10  C10 UNL     1      -6.871   5.658  14.004  1.00  0.00    -0.069 C 
HETATM   11  C11 UNL     1      -8.132   5.614  13.541  1.00  0.00     0.030 C 
HETATM   12  C12 UNL     1      -9.172   6.557  14.023  1.00  0.00     0.032 C 
HETATM   13  N1  UNL     1     -10.407   6.319  13.679  1.00  0.00    -0.271 N 
ATOM     14  H1  UNL     1     -10.701   5.529  13.105  1.00  0.00     0.194 HD
HETATM   15  C25 UNL     1      -8.747   7.716  14.905  1.00  0.00     0.060 C 
HETATM   16  C26 UNL     1      -7.238   7.952  14.879  1.00  0.00     0.020 C 
HETATM   17  C27 UNL     1      -6.393   6.657  15.052  1.00  0.00    -0.016 C 
HETATM   18  C28 UNL     1      -6.661   6.062  16.453  1.00  0.00     0.020 C 
HETATM   19  C29 UNL     1      -4.867   7.039  14.852  1.00  0.00     0.002 C 
HETATM   20  C30 UNL     1      -3.852   6.292  15.740  1.00  0.00     0.007 C 
HETATM   21  C31 UNL     1      -2.440   6.861  15.571  1.00  0.00     0.014 C 
HETATM   22  C32 UNL     1      -1.911   6.801  14.115  1.00  0.00     0.003 C 
HETATM   23  C33 UNL     1      -1.496   5.353  13.789  1.00  0.00     0.020 C 
ENDROOT
BRANCH   3  24
HETATM   24  O1  UNL     1      -0.112   7.493  12.602  1.00  0.00    -0.377 OA
HETATM   25  H2  UNL     1       0.740   7.961  12.578  1.00  0.00     0.211 HD
ENDBRANCH   3  24
BRANCH  13  26
HETATM   26  O2  UNL     1     -11.282   7.286  14.199  1.00  0.00    -0.271 OA
BRANCH  26  27
HETATM   27  C13 UNL     1     -11.384   8.349  13.262  1.00  0.00     0.303 C 
BRANCH  27  28
HETATM   28  C14 UNL     1     -12.339   9.443  13.736  1.00  0.00     0.244 C 
HETATM   29  O3  UNL     1     -12.275   9.988  14.833  1.00  0.00    -0.271 OA
HETATM   30  N2  UNL     1     -13.293   9.783  12.787  1.00  0.00    -0.354 N 
HETATM   31  H16 UNL     1     -13.501   9.070  12.095  1.00  0.00     0.162 HD
BRANCH  30  32
HETATM   32  C15 UNL     1     -14.359  10.736  13.091  1.00  0.00     0.098 C 
BRANCH  32  33
HETATM   33  C16 UNL     1     -15.695  10.367  12.425  1.00  0.00     0.135 C 
BRANCH  33  34
HETATM   34  C17 UNL     1     -15.805   8.984  11.851  1.00  0.00     0.141 C 
HETATM   35  O4  UNL     1     -16.075   8.718  10.691  1.00  0.00    -0.650 OA
BRANCH  34  36
HETATM   36  O5  UNL     1     -15.631   7.991  12.744  1.00  0.00    -0.776 OA
HETATM   37  H20 UNL     1     -15.827   7.180  12.224  1.00  0.00     0.167 HD
ENDBRANCH  34  36
ENDBRANCH  33  34
ENDBRANCH  32  33
BRANCH  32  38
HETATM   38  C18 UNL     1     -13.913  12.214  12.891  1.00  0.00     0.014 C 
HETATM   39  C19 UNL     1     -13.650  13.008  14.177  1.00  0.00     0.033 C 
HETATM   40  C20 UNL     1     -13.302  14.459  13.873  1.00  0.00     0.169 C 
HETATM   41  O6  UNL     1     -14.317  15.085  13.098  1.00  0.00    -0.381 OA
HETATM   42  C21 UNL     1     -14.591  14.462  11.836  1.00  0.00     0.054 C 
HETATM   43  C22 UNL     1     -15.808  15.202  11.259  1.00  0.00     0.045 C 
HETATM   44  C23 UNL     1     -13.416  14.646  10.867  1.00  0.00     0.045 C 
HETATM   45  C24 UNL     1     -14.953  12.980  12.043  1.00  0.00     0.044 C 
ENDBRANCH  32  38
ENDBRANCH  30  32
ENDBRANCH  27  28
ENDBRANCH  26  27
ENDBRANCH  13  26
TORSDOF 9
ENDMDL
MODEL 6
REMARK minimizedAffinity -8.64722538
REMARK CNNscore 0.333047032
REMARK CNNaffinity 5.79372168
REMARK  9 active torsions:
REMARK  status: ('A' for Active; 'I' for Inactive)
REMARK    1  A    between atoms: C3_3  and  O1_4 
REMARK    2  A    between atoms: N1_14  and  O2_16 
REMARK    3  A    between atoms: O2_16  and  C13_17 
REMARK    4  A    between atoms: C13_17  and  C14_18 
REMARK       I    between atoms: C14_18  and  N2_20 
REMARK    5  A    between atoms: N2_20  and  C15_21 
REMARK    6  A    between atoms: C15_21  and  C16_22 
REMARK    7  A    between atoms: C15_21  and  C18_26 
REMARK    8  A    between atoms: C16_22  and  C17_23 
REMARK    9  A    between atoms: C17_23  and  O5_25 
ROOT
HETATM    1  C1  UNL     1       3.055   8.385   8.061  1.00  0.00     0.015 C 
HETATM    2  C2  UNL     1       3.078   8.123   9.234  1.00  0.00    -0.078 C 
HETATM    3  C3  UNL     1       3.125   7.781  10.666  1.00  0.00     0.128 C 
HETATM    4  C4  UNL     1       2.310   8.753  11.523  1.00  0.00     0.052 C 
HETATM    5  C5  UNL     1       2.954   8.715  12.911  1.00  0.00     0.010 C 
HETATM    6  C6  UNL     1       4.220   7.832  12.807  1.00  0.00     0.002 C 
HETATM    7  C7  UNL     1       5.337   8.306  13.767  1.00  0.00    -0.004 C 
HETATM    8  C8  UNL     1       6.311   7.153  14.113  1.00  0.00     0.010 C 
HETATM    9  C9  UNL     1       7.744   7.588  14.406  1.00  0.00     0.035 C 
HETATM   10  C10 UNL     1       7.748   8.916  15.103  1.00  0.00    -0.069 C 
HETATM   11  C11 UNL     1       8.191   9.027  16.367  1.00  0.00     0.030 C 
HETATM   12  C12 UNL     1       8.134  10.314  17.103  1.00  0.00     0.032 C 
HETATM   13  N1  UNL     1       8.765  10.386  18.242  1.00  0.00    -0.271 N 
ATOM     14  H1  UNL     1       9.294   9.619  18.654  1.00  0.00     0.194 HD
HETATM   15  C25 UNL     1       7.376  11.472  16.480  1.00  0.00     0.060 C 
HETATM   16  C26 UNL     1       6.469  11.032  15.332  1.00  0.00     0.020 C 
HETATM   17  C27 UNL     1       7.159  10.079  14.313  1.00  0.00    -0.016 C 
HETATM   18  C28 UNL     1       8.313  10.834  13.617  1.00  0.00     0.020 C 
HETATM   19  C29 UNL     1       6.059   9.593  13.279  1.00  0.00     0.002 C 
HETATM   20  C30 UNL     1       6.522   9.413  11.819  1.00  0.00     0.007 C 
HETATM   21  C31 UNL     1       5.343   9.102  10.894  1.00  0.00     0.014 C 
HETATM   22  C32 UNL     1       4.558   7.825  11.289  1.00  0.00     0.003 C 
HETATM   23  C33 UNL     1       5.370   6.584  10.868  1.00  0.00     0.020 C 
ENDROOT
BRANCH   3  24
HETATM   24  O1  UNL     1       2.560   6.477  10.842  1.00  0.00    -0.377 OA
HETATM   25  H2  UNL     1       1.781   6.420  10.264  1.00  0.00     0.211 HD
ENDBRANCH   3  24
BRANCH  13  26
HETATM   26  O2  UNL     1       8.625  11.654  18.829  1.00  0.00    -0.271 OA
BRANCH  26  27
HETATM   27  C13 UNL     1       7.359  12.182  18.462  1.00  0.00     0.303 C 
BRANCH  27  28
HETATM   28  C14 UNL     1       6.493  12.498  19.681  1.00  0.00     0.244 C 
HETATM   29  O3  UNL     1       5.268  12.459  19.686  1.00  0.00    -0.271 OA
HETATM   30  N2  UNL     1       7.236  12.825  20.807  1.00  0.00    -0.354 N 
HETATM   31  H16 UNL     1       8.170  13.181  20.632  1.00  0.00     0.162 HD
BRANCH  30  32
HETATM   32  C15 UNL     1       6.587  13.260  22.043  1.00  0.00     0.098 C 
BRANCH  32  33
HETATM   33  C16 UNL     1       7.406  12.913  23.298  1.00  0.00     0.135 C 
BRANCH  33  34
HETATM   34  C17 UNL     1       8.653  12.104  23.090  1.00  0.00     0.141 C 
HETATM   35  O4  UNL     1       8.758  10.903  23.284  1.00  0.00    -0.650 OA
BRANCH  34  36
HETATM   36  O5  UNL     1       9.726  12.818  22.703  1.00  0.00    -0.776 OA
HETATM   37  H20 UNL     1      10.454  12.155  22.708  1.00  0.00     0.167 HD
ENDBRANCH  34  36
ENDBRANCH  33  34
ENDBRANCH  32  33
BRANCH  32  38
HETATM   38  C18 UNL     1       5.087  12.850  22.105  1.00  0.00     0.014 C 
HETATM   39  C19 UNL     1       4.141  13.885  22.731  1.00  0.00     0.033 C 
HETATM   40  C20 UNL     1       2.717  13.354  22.819  1.00  0.00     0.169 C 
HETATM   41  O6  UNL     1       2.662  12.128  23.538  1.00  0.00    -0.381 OA
HETATM   42  C21 UNL     1       3.457  11.067  22.993  1.00  0.00     0.054 C 
HETATM   43  C22 UNL     1       3.369   9.914  24.005  1.00  0.00     0.045 C 
HETATM   44  C23 UNL     1       2.875  10.576  21.660  1.00  0.00     0.045 C 
HETATM   45  C24 UNL     1       4.924  11.514  22.862  1.00  0.00     0.044 C 
ENDBRANCH  32  38
ENDBRANCH  30  32
ENDBRANCH  27  28
ENDBRANCH  26  27
ENDBRANCH  13  26
TORSDOF 9
ENDMDL
MODEL 7
REMARK minimizedAffinity -8.7938261
REMARK CNNscore 0.311788142
REMARK CNNaffinity 6.14297867
REMARK  9 active torsions:
REMARK  status: ('A' for Active; 'I' for Inactive)
REMARK    1  A    between atoms: C3_3  and  O1_4 
REMARK    2  A    between atoms: N1_14  and  O2_16 
REMARK    3  A    between atoms: O2_16  and  C13_17 
REMARK    4  A    between atoms: C13_17  and  C14_18 
REMARK       I    between atoms: C14_18  and  N2_20 
REMARK    5  A    between atoms: N2_20  and  C15_21 
REMARK    6  A    between atoms: C15_21  and  C16_22 
REMARK    7  A    between atoms: C15_21  and  C18_26 
REMARK    8  A    between atoms: C16_22  and  C17_23 
REMARK    9  A    between atoms: C17_23  and  O5_25 
ROOT
HETATM    1  C1  UNL     1       1.871   7.129   7.038  1.00  0.00     0.015 C 
HETATM    2  C2  UNL     1       1.969   6.984   8.228  1.00  0.00    -0.078 C 
HETATM    3  C3  UNL     1       2.108   6.788   9.680  1.00  0.00     0.128 C 
HETATM    4  C4  UNL     1       1.257   7.773  10.486  1.00  0.00     0.052 C 
HETATM    5  C5  UNL     1       1.964   7.919  11.835  1.00  0.00     0.010 C 
HETATM    6  C6  UNL     1       3.291   7.129  11.747  1.00  0.00     0.002 C 
HETATM    7  C7  UNL     1       4.409   7.778  12.598  1.00  0.00    -0.004 C 
HETATM    8  C8  UNL     1       5.488   6.742  12.998  1.00  0.00     0.010 C 
HETATM    9  C9  UNL     1       6.893   7.310  13.173  1.00  0.00     0.035 C 
HETATM   10  C10 UNL     1       6.821   8.696  13.742  1.00  0.00    -0.069 C 
HETATM   11  C11 UNL     1       7.311   8.963  14.965  1.00  0.00     0.030 C 
HETATM   12  C12 UNL     1       7.183  10.307  15.580  1.00  0.00     0.032 C 
HETATM   13  N1  UNL     1       7.857  10.538  16.672  1.00  0.00    -0.271 N 
ATOM     14  H1  UNL     1       8.465   9.856  17.126  1.00  0.00     0.194 HD
HETATM   15  C25 UNL     1       6.306  11.338  14.893  1.00  0.00     0.060 C 
HETATM   16  C26 UNL     1       5.386  10.721  13.841  1.00  0.00     0.020 C 
HETATM   17  C27 UNL     1       6.104   9.729  12.879  1.00  0.00    -0.016 C 
HETATM   18  C28 UNL     1       7.160  10.498  12.056  1.00  0.00     0.020 C 
HETATM   19  C29 UNL     1       5.001   9.062  11.955  1.00  0.00     0.002 C 
HETATM   20  C30 UNL     1       5.411   8.778  10.496  1.00  0.00     0.007 C 
HETATM   21  C31 UNL     1       4.220   8.290   9.667  1.00  0.00     0.014 C 
HETATM   22  C32 UNL     1       3.559   7.001  10.220  1.00  0.00     0.003 C 
HETATM   23  C33 UNL     1       4.449   5.791   9.875  1.00  0.00     0.020 C 
ENDROOT
BRANCH   3  24
HETATM   24  O1  UNL     1       1.659   5.468  10.007  1.00  0.00    -0.377 OA
HETATM   25  H2  UNL     1       0.862   5.295   9.479  1.00  0.00     0.211 HD
ENDBRANCH   3  24
BRANCH  13  26
HETATM   26  O2  UNL     1       7.642  11.842  17.145  1.00  0.00    -0.271 OA
BRANCH  26  27
HETATM   27  C13 UNL     1       8.219  11.951  18.438  1.00  0.00     0.303 C 
BRANCH  27  28
HETATM   28  C14 UNL     1       7.391  12.840  19.364  1.00  0.00     0.244 C 
HETATM   29  O3  UNL     1       6.897  13.913  19.032  1.00  0.00    -0.271 OA
HETATM   30  N2  UNL     1       7.232  12.306  20.635  1.00  0.00    -0.354 N 
HETATM   31  H16 UNL     1       7.941  11.641  20.927  1.00  0.00     0.162 HD
BRANCH  30  32
HETATM   32  C15 UNL     1       6.558  13.056  21.694  1.00  0.00     0.098 C 
BRANCH  32  33
HETATM   33  C16 UNL     1       7.378  13.117  22.993  1.00  0.00     0.135 C 
BRANCH  33  34
HETATM   34  C17 UNL     1       8.758  12.527  22.951  1.00  0.00     0.141 C 
HETATM   35  O4  UNL     1       9.762  13.103  22.563  1.00  0.00    -0.650 OA
BRANCH  34  36
HETATM   36  O5  UNL     1       8.829  11.240  23.337  1.00  0.00    -0.776 OA
HETATM   37  H20 UNL     1       9.766  11.000  23.159  1.00  0.00     0.167 HD
ENDBRANCH  34  36
ENDBRANCH  33  34
ENDBRANCH  32  33
BRANCH  32  38
HETATM   38  C18 UNL     1       5.073  12.628  21.876  1.00  0.00     0.014 C 
HETATM   39  C19 UNL     1       4.307  13.349  22.994  1.00  0.00     0.033 C 
HETATM   40  C20 UNL     1       2.893  12.800  23.141  1.00  0.00     0.169 C 
HETATM   41  O6  UNL     1       2.902  11.396  23.367  1.00  0.00    -0.381 OA
HETATM   42  C21 UNL     1       3.533  10.619  22.341  1.00  0.00     0.054 C 
HETATM   43  C22 UNL     1       3.564   9.176  22.867  1.00  0.00     0.045 C 
HETATM   44  C23 UNL     1       2.702  10.638  21.050  1.00  0.00     0.045 C 
HETATM   45  C24 UNL     1       4.976  11.106  22.115  1.00  0.00     0.044 C 
ENDBRANCH  32  38
ENDBRANCH  30  32
ENDBRANCH  27  28
ENDBRANCH  26  27
ENDBRANCH  13  26
TORSDOF 9
ENDMDL
MODEL 8
REMARK minimizedAffinity -7.47616863
REMARK CNNscore 0.27538541
REMARK CNNaffinity 5.28995752
REMARK  9 active torsions:
REMARK  status: ('A' for Active; 'I' for Inactive)
REMARK    1  A    between atoms: C3_3  and  O1_4 
REMARK    2  A    between atoms: N1_14  and  O2_16 
REMARK    3  A    between atoms: O2_16  and  C13_17 
REMARK    4  A    between atoms: C13_17  and  C14_18 
REMARK       I    between atoms: C14_18  and  N2_20 
REMARK    5  A    between atoms: N2_20  and  C15_21 
REMARK    6  A    between atoms: C15_21  and  C16_22 
REMARK    7  A    between atoms: C15_21  and  C18_26 
REMARK    8  A    between atoms: C16_22  and  C17_23 
REMARK    9  A    between atoms: C17_23  and  O5_25 
ROOT
HETATM    1  C1  UNL     1       2.086   8.088   9.233  1.00  0.00     0.015 C 
HETATM    2  C2  UNL     1       2.528   7.890  10.334  1.00  0.00    -0.078 C 
HETATM    3  C3  UNL     1       3.085   7.629  11.671  1.00  0.00     0.128 C 
HETATM    4  C4  UNL     1       2.590   8.634  12.715  1.00  0.00     0.052 C 
HETATM    5  C5  UNL     1       3.681   8.681  13.787  1.00  0.00     0.010 C 
HETATM    6  C6  UNL     1       4.859   7.813  13.285  1.00  0.00     0.002 C 
HETATM    7  C7  UNL     1       6.225   8.355  13.768  1.00  0.00    -0.004 C 
HETATM    8  C8  UNL     1       7.296   7.237  13.802  1.00  0.00     0.010 C 
HETATM    9  C9  UNL     1       8.726   7.708  13.552  1.00  0.00     0.035 C 
HETATM   10  C10 UNL     1       8.931   9.072  14.140  1.00  0.00    -0.069 C 
HETATM   11  C11 UNL     1       9.785   9.259  15.161  1.00  0.00     0.030 C 
HETATM   12  C12 UNL     1       9.947  10.584  15.810  1.00  0.00     0.032 C 
HETATM   13  N1  UNL     1      10.934  10.728  16.649  1.00  0.00    -0.271 N 
ATOM     14  H1  UNL     1      11.600   9.991  16.884  1.00  0.00     0.194 HD
HETATM   15  C25 UNL     1       8.981  11.695  15.441  1.00  0.00     0.060 C 
HETATM   16  C26 UNL     1       7.743  11.179  14.707  1.00  0.00     0.020 C 
HETATM   17  C27 UNL     1       8.063  10.182  13.556  1.00  0.00    -0.016 C 
HETATM   18  C28 UNL     1       8.874  10.914  12.464  1.00  0.00     0.020 C 
HETATM   19  C29 UNL     1       6.687   9.623  12.998  1.00  0.00     0.002 C 
HETATM   20  C30 UNL     1       6.615   9.371  11.479  1.00  0.00     0.007 C 
HETATM   21  C31 UNL     1       5.197   8.992  11.043  1.00  0.00     0.014 C 
HETATM   22  C32 UNL     1       4.643   7.728  11.748  1.00  0.00     0.003 C 
HETATM   23  C33 UNL     1       5.296   6.477  11.127  1.00  0.00     0.020 C 
ENDROOT
BRANCH   3  24
HETATM   24  O1  UNL     1       2.661   6.329  12.095  1.00  0.00    -0.377 OA
HETATM   25  H2  UNL     1       1.731   6.228  11.832  1.00  0.00     0.211 HD
ENDBRANCH   3  24
BRANCH  13  26
HETATM   26  O2  UNL     1      10.968  12.024  17.188  1.00  0.00    -0.271 OA
BRANCH  26  27
HETATM   27  C13 UNL     1      12.180  12.645  16.788  1.00  0.00     0.303 C 
BRANCH  27  28
HETATM   28  C14 UNL     1      13.343  12.284  17.710  1.00  0.00     0.244 C 
HETATM   29  O3  UNL     1      13.362  11.302  18.444  1.00  0.00    -0.271 OA
HETATM   30  N2  UNL     1      14.403  13.176  17.627  1.00  0.00    -0.354 N 
HETATM   31  H16 UNL     1      14.171  14.109  17.300  1.00  0.00     0.162 HD
BRANCH  30  32
HETATM   32  C15 UNL     1      15.564  13.058  18.507  1.00  0.00     0.098 C 
BRANCH  32  33
HETATM   33  C16 UNL     1      15.447  13.931  19.767  1.00  0.00     0.135 C 
BRANCH  33  34
HETATM   34  C17 UNL     1      15.632  13.241  21.087  1.00  0.00     0.141 C 
HETATM   35  O4  UNL     1      15.060  12.222  21.439  1.00  0.00    -0.650 OA
BRANCH  34  36
HETATM   36  O5  UNL     1      16.471  13.867  21.934  1.00  0.00    -0.776 OA
HETATM   37  H20 UNL     1      16.398  13.337  22.760  1.00  0.00     0.167 HD
ENDBRANCH  34  36
ENDBRANCH  33  34
ENDBRANCH  32  33
BRANCH  32  38
HETATM   38  C18 UNL     1      16.911  13.193  17.739  1.00  0.00     0.014 C 
HETATM   39  C19 UNL     1      17.101  12.233  16.557  1.00  0.00     0.033 C 
HETATM   40  C20 UNL     1      18.480  12.391  15.929  1.00  0.00     0.169 C 
HETATM   41  O6  UNL     1      19.512  12.210  16.890  1.00  0.00    -0.381 OA
HETATM   42  C21 UNL     1      19.470  13.110  18.005  1.00  0.00     0.054 C 
HETATM   43  C22 UNL     1      20.565  12.632  18.972  1.00  0.00     0.045 C 
HETATM   44  C23 UNL     1      19.812  14.541  17.568  1.00  0.00     0.045 C 
HETATM   45  C24 UNL     1      18.103  13.024  18.707  1.00  0.00     0.044 C 
ENDBRANCH  32  38
ENDBRANCH  30  32
ENDBRANCH  27  28
ENDBRANCH  26  27
ENDBRANCH  13  26
TORSDOF 9
ENDMDL
MODEL 9
REMARK minimizedAffinity -7.19114876
REMARK CNNscore 0.248953253
REMARK CNNaffinity 6.30488729
REMARK  9 active torsions:
REMARK  status: ('A' for Active; 'I' for Inactive)
REMARK    1  A    between atoms: C3_3  and  O1_4 
REMARK    2  A    between atoms: N1_14  and  O2_16 
REMARK    3  A    between atoms: O2_16  and  C13_17 
REMARK    4  A    between atoms: C13_17  and  C14_18 
REMARK       I    between atoms: C14_18  and  N2_20 
REMARK    5  A    between atoms: N2_20  and  C15_21 
REMARK    6  A    between atoms: C15_21  and  C16_22 
REMARK    7  A    between atoms: C15_21  and  C18_26 
REMARK    8  A    between atoms: C16_22  and  C17_23 
REMARK    9  A    between atoms: C17_23  and  O5_25 
ROOT
HETATM    1  C1  UNL     1     -16.897   2.179  30.131  1.00  0.00     0.015 C 
HETATM    2  C2  UNL     1     -15.944   2.419  29.438  1.00  0.00    -0.078 C 
HETATM    3  C3  UNL     1     -14.783   2.690  28.575  1.00  0.00     0.128 C 
HETATM    4  C4  UNL     1     -14.120   4.032  28.895  1.00  0.00     0.052 C 
HETATM    5  C5  UNL     1     -13.441   4.474  27.597  1.00  0.00     0.010 C 
HETATM    6  C6  UNL     1     -13.836   3.457  26.501  1.00  0.00     0.002 C 
HETATM    7  C7  UNL     1     -13.939   4.118  25.106  1.00  0.00    -0.004 C 
HETATM    8  C8  UNL     1     -13.734   3.082  23.973  1.00  0.00     0.010 C 
HETATM    9  C9  UNL     1     -14.478   3.390  22.677  1.00  0.00     0.035 C 
HETATM   10  C10 UNL     1     -14.526   4.872  22.449  1.00  0.00    -0.069 C 
HETATM   11  C11 UNL     1     -13.890   5.426  21.402  1.00  0.00     0.030 C 
HETATM   12  C12 UNL     1     -13.858   6.896  21.199  1.00  0.00     0.032 C 
HETATM   13  N1  UNL     1     -13.400   7.337  20.061  1.00  0.00    -0.271 N 
ATOM     14  H1  UNL     1     -13.066   6.739  19.306  1.00  0.00     0.194 HD
HETATM   15  C25 UNL     1     -14.384   7.792  22.305  1.00  0.00     0.060 C 
HETATM   16  C26 UNL     1     -14.546   7.054  23.634  1.00  0.00     0.020 C 
HETATM   17  C27 UNL     1     -15.267   5.681  23.508  1.00  0.00    -0.016 C 
HETATM   18  C28 UNL     1     -16.715   5.913  23.023  1.00  0.00     0.020 C 
HETATM   19  C29 UNL     1     -15.222   4.976  24.928  1.00  0.00     0.002 C 
HETATM   20  C30 UNL     1     -16.464   4.151  25.322  1.00  0.00     0.007 C 
HETATM   21  C31 UNL     1     -16.370   3.659  26.770  1.00  0.00     0.014 C 
HETATM   22  C32 UNL     1     -15.124   2.781  27.052  1.00  0.00     0.003 C 
HETATM   23  C33 UNL     1     -15.354   1.376  26.463  1.00  0.00     0.020 C 
ENDROOT
BRANCH   3  24
HETATM   24  O1  UNL     1     -13.805   1.667  28.792  1.00  0.00    -0.377 OA
HETATM   25  H2  UNL     1     -13.780   1.489  29.747  1.00  0.00     0.211 HD
ENDBRANCH   3  24
BRANCH  13  26
HETATM   26  O2  UNL     1     -13.423   8.740  20.005  1.00  0.00    -0.271 OA
BRANCH  26  27
HETATM   27  C13 UNL     1     -12.088   9.207  19.882  1.00  0.00     0.303 C 
BRANCH  27  28
HETATM   28  C14 UNL     1     -11.753   9.620  18.450  1.00  0.00     0.244 C 
HETATM   29  O3  UNL     1     -12.203  10.617  17.895  1.00  0.00    -0.271 OA
HETATM   30  N2  UNL     1     -10.864   8.756  17.827  1.00  0.00    -0.354 N 
HETATM   31  H16 UNL     1     -10.834   7.811  18.196  1.00  0.00     0.162 HD
BRANCH  30  32
HETATM   32  C15 UNL     1     -10.502   8.924  16.421  1.00  0.00     0.098 C 
BRANCH  32  33
HETATM   33  C16 UNL     1     -11.648   8.556  15.464  1.00  0.00     0.135 C 
BRANCH  33  34
HETATM   34  C17 UNL     1     -11.818   9.421  14.248  1.00  0.00     0.141 C 
HETATM   35  O4  UNL     1     -11.719  10.638  14.226  1.00  0.00    -0.650 OA
BRANCH  34  36
HETATM   36  O5  UNL     1     -12.154   8.753  13.128  1.00  0.00    -0.776 OA
HETATM   37  H20 UNL     1     -12.312   9.471  12.474  1.00  0.00     0.167 HD
ENDBRANCH  34  36
ENDBRANCH  33  34
ENDBRANCH  32  33
BRANCH  32  38
HETATM   38  C18 UNL     1      -9.128   8.280  16.076  1.00  0.00     0.014 C 
HETATM   39  C19 UNL     1      -8.120   9.200  15.374  1.00  0.00     0.033 C 
HETATM   40  C20 UNL     1      -6.845   8.451  15.009  1.00  0.00     0.169 C 
HETATM   41  O6  UNL     1      -7.124   7.311  14.206  1.00  0.00    -0.381 OA
HETATM   42  C21 UNL     1      -8.002   6.347  14.802  1.00  0.00     0.054 C 
HETATM   43  C22 UNL     1      -8.280   5.302  13.710  1.00  0.00     0.045 C 
HETATM   44  C23 UNL     1      -7.319   5.637  15.979  1.00  0.00     0.045 C 
HETATM   45  C24 UNL     1      -9.327   7.016  15.210  1.00  0.00     0.044 C 
ENDBRANCH  32  38
ENDBRANCH  30  32
ENDBRANCH  27  28
ENDBRANCH  26  27
ENDBRANCH  13  26
TORSDOF 9
ENDMDL
