MODEL 1
REMARK minimizedAffinity -7.0796237
REMARK CNNscore 0.555197358
REMARK CNNaffinity 6.3353076
REMARK  14 active torsions:
REMARK  status: ('A' for Active; 'I' for Inactive)
REMARK    1  A    between atoms: C2_2  and  C3_3 
REMARK    2  A    between atoms: C2_2  and  C26_30 
REMARK    3  A    between atoms: C4_4  and  C5_5 
REMARK    4  A    between atoms: C6_6  and  C7_7 
REMARK    5  A    between atoms: C6_6  and  C9_9 
REMARK    6  A    between atoms: C13_13  and  C14_14 
REMARK    7  A    between atoms: C14_14  and  C15_15 
REMARK    8  A    between atoms: C15_15  and  C16_16 
REMARK    9  A    between atoms: C16_16  and  O1_17 
REMARK   10  A    between atoms: C18_19  and  C20_21 
REMARK   11  A    between atoms: C23_25  and  O3_27 
REMARK   12  A    between atoms: C25_28  and  O4_29 
REMARK   13  A    between atoms: C26_30  and  C27_31 
REMARK   14  A    between atoms: C27_31  and  C28_32 
ROOT
HETATM    1  C9  UNL     1      -8.547  47.584 -29.621  1.00  0.00     0.044 C 
HETATM    2  C10 UNL     1      -8.445  48.021 -28.160  1.00  0.00     0.013 C 
HETATM    3  C11 UNL     1      -9.771  47.580 -27.541  1.00  0.00     0.017 C 
HETATM    4  C12 UNL     1     -10.318  46.375 -28.394  1.00  0.00     0.024 C 
HETATM    5  C13 UNL     1     -10.540  45.154 -27.381  1.00  0.00     0.029 C 
HETATM    6  C17 UNL     1     -11.625  44.201 -27.890  1.00  0.00    -0.066 C 
HETATM    7  C18 UNL     1     -11.497  42.973 -28.440  1.00  0.00    -0.021 C 
HETATM    8  C19 UNL     1     -12.630  42.065 -28.829  1.00  0.00     0.052 C 
HETATM    9  C21 UNL     1     -12.987  44.883 -27.791  1.00  0.00     0.038 C 
HETATM   10  C22 UNL     1     -12.905  46.391 -28.103  1.00  0.00     0.042 C 
HETATM   11  C23 UNL     1     -11.749  46.735 -29.073  1.00  0.00     0.065 C 
HETATM   12  C24 UNL     1     -11.965  48.173 -29.575  1.00  0.00     0.047 C 
HETATM   13  C25 UNL     1      -9.203  46.191 -29.487  1.00  0.00     0.138 C 
ENDROOT
BRANCH   5  14
HETATM   14  C14 UNL     1      -9.310  44.532 -26.662  1.00  0.00     0.012 C 
BRANCH  14  15
HETATM   15  C15 UNL     1      -9.602  43.926 -25.275  1.00  0.00     0.027 C 
BRANCH  15  16
HETATM   16  C16 UNL     1      -8.428  43.217 -24.610  1.00  0.00     0.164 C 
BRANCH  16  17
HETATM   17  O1  UNL     1      -7.424  42.884 -25.556  1.00  0.00    -0.401 OA
HETATM   18  H23 UNL     1      -7.845  42.362 -26.259  1.00  0.00     0.209 HD
ENDBRANCH  16  17
ENDBRANCH  15  16
ENDBRANCH  14  15
ENDBRANCH   5  14
BRANCH  11  19
HETATM   19  O3  UNL     1     -11.984  45.907 -30.231  1.00  0.00    -0.389 OA
HETATM   20  H35 UNL     1     -11.468  46.253 -30.977  1.00  0.00     0.210 HD
ENDBRANCH  11  19
BRANCH  13  21
HETATM   21  O4  UNL     1      -8.193  45.268 -29.099  1.00  0.00    -0.394 OA
HETATM   22  H37 UNL     1      -8.500  44.385 -29.405  1.00  0.00     0.210 HD
ENDBRANCH  13  21
BRANCH   1  23
HETATM   23  C6  UNL     1      -7.272  47.643 -30.467  1.00  0.00    -0.074 C 
HETATM   24  C5  UNL     1      -6.038  47.701 -29.917  1.00  0.00     0.003 C 
BRANCH  24  25
HETATM   25  C4  UNL     1      -5.704  47.769 -28.504  1.00  0.00     0.001 C 
HETATM   26  C3  UNL     1      -4.563  48.324 -28.067  1.00  0.00     0.006 C 
BRANCH  26  27
HETATM   27  C2  UNL     1      -4.111  48.459 -26.687  1.00  0.00    -0.067 C 
HETATM   28  C1  UNL     1      -5.017  48.348 -25.697  1.00  0.00     0.019 C 
BRANCH  27  29
HETATM   29  C26 UNL     1      -2.661  48.747 -26.342  1.00  0.00     0.041 C 
BRANCH  29  30
HETATM   30  C27 UNL     1      -2.154  50.096 -26.880  1.00  0.00     0.032 C 
BRANCH  30  31
HETATM   31  C28 UNL     1      -0.971  50.649 -26.133  1.00  0.00    -0.024 C 
HETATM   32  C29 UNL     1       0.093  51.304 -26.639  1.00  0.00    -0.091 C 
HETATM   33  C30 UNL     1       0.286  51.654 -28.089  1.00  0.00     0.042 C 
HETATM   34  C31 UNL     1       1.210  51.770 -25.740  1.00  0.00     0.042 C 
ENDBRANCH  30  31
ENDBRANCH  29  30
ENDBRANCH  27  29
ENDBRANCH  26  27
ENDBRANCH  24  25
BRANCH  23  35
HETATM   35  C7  UNL     1      -7.480  47.618 -31.980  1.00  0.00     0.030 C 
HETATM   36  C8  UNL     1      -8.904  47.768 -32.513  1.00  0.00     0.010 C 
ENDBRANCH  23  35
ENDBRANCH   1  23
BRANCH   7  37
HETATM   37  C20 UNL     1     -10.176  42.377 -28.776  1.00  0.00     0.265 C 
HETATM   38  O2  UNL     1      -9.765  42.279 -29.926  1.00  0.00    -0.302 OA
ENDBRANCH   7  37
TORSDOF 14
ENDMDL
MODEL 2
REMARK minimizedAffinity -6.1013732
REMARK CNNscore 0.536180317
REMARK CNNaffinity 7.14707565
REMARK  14 active torsions:
REMARK  status: ('A' for Active; 'I' for Inactive)
REMARK    1  A    between atoms: C2_2  and  C3_3 
REMARK    2  A    between atoms: C2_2  and  C26_30 
REMARK    3  A    between atoms: C4_4  and  C5_5 
REMARK    4  A    between atoms: C6_6  and  C7_7 
REMARK    5  A    between atoms: C6_6  and  C9_9 
REMARK    6  A    between atoms: C13_13  and  C14_14 
REMARK    7  A    between atoms: C14_14  and  C15_15 
REMARK    8  A    between atoms: C15_15  and  C16_16 
REMARK    9  A    between atoms: C16_16  and  O1_17 
REMARK   10  A    between atoms: C18_19  and  C20_21 
REMARK   11  A    between atoms: C23_25  and  O3_27 
REMARK   12  A    between atoms: C25_28  and  O4_29 
REMARK   13  A    between atoms: C26_30  and  C27_31 
REMARK   14  A    between atoms: C27_31  and  C28_32 
ROOT
HETATM    1  C9  UNL     1       2.295  52.889 -10.557  1.00  0.00     0.044 C 
HETATM    2  C10 UNL     1       2.987  54.122 -11.137  1.00  0.00     0.013 C 
HETATM    3  C11 UNL     1       2.241  55.301 -10.514  1.00  0.00     0.017 C 
HETATM    4  C12 UNL     1       1.617  54.807  -9.155  1.00  0.00     0.024 C 
HETATM    5  C13 UNL     1       2.164  55.787  -8.011  1.00  0.00     0.029 C 
HETATM    6  C17 UNL     1       1.193  55.857  -6.830  1.00  0.00    -0.066 C 
HETATM    7  C18 UNL     1       1.295  55.300  -5.603  1.00  0.00    -0.021 C 
HETATM    8  C19 UNL     1       0.331  55.500  -4.467  1.00  0.00     0.052 C 
HETATM    9  C21 UNL     1      -0.065  56.612  -7.251  1.00  0.00     0.038 C 
HETATM   10  C22 UNL     1      -0.457  56.316  -8.713  1.00  0.00     0.042 C 
HETATM   11  C23 UNL     1      -0.003  54.911  -9.177  1.00  0.00     0.065 C 
HETATM   12  C24 UNL     1      -0.726  54.593 -10.498  1.00  0.00     0.047 C 
HETATM   13  C25 UNL     1       2.088  53.308  -9.084  1.00  0.00     0.138 C 
ENDROOT
BRANCH   5  14
HETATM   14  C14 UNL     1       3.687  55.812  -7.698  1.00  0.00     0.012 C 
BRANCH  14  15
HETATM   15  C15 UNL     1       4.311  57.218  -7.609  1.00  0.00     0.027 C 
BRANCH  15  16
HETATM   16  C16 UNL     1       5.291  57.428  -6.459  1.00  0.00     0.164 C 
BRANCH  16  17
HETATM   17  O1  UNL     1       6.507  56.734  -6.686  1.00  0.00    -0.401 OA
HETATM   18  H23 UNL     1       6.288  55.801  -6.844  1.00  0.00     0.209 HD
ENDBRANCH  16  17
ENDBRANCH  15  16
ENDBRANCH  14  15
ENDBRANCH   5  14
BRANCH  11  19
HETATM   19  O3  UNL     1      -0.583  54.003  -8.218  1.00  0.00    -0.389 OA
HETATM   20  H35 UNL     1      -0.570  53.104  -8.585  1.00  0.00     0.210 HD
ENDBRANCH  11  19
BRANCH  13  21
HETATM   21  O4  UNL     1       3.327  53.147  -8.405  1.00  0.00    -0.394 OA
HETATM   22  H37 UNL     1       3.102  53.020  -7.456  1.00  0.00     0.210 HD
ENDBRANCH  13  21
BRANCH   1  23
HETATM   23  C6  UNL     1       2.969  51.531 -10.775  1.00  0.00    -0.074 C 
HETATM   24  C5  UNL     1       3.063  50.956 -11.996  1.00  0.00     0.003 C 
BRANCH  24  25
HETATM   25  C4  UNL     1       2.531  51.459 -13.251  1.00  0.00     0.001 C 
HETATM   26  C3  UNL     1       3.317  51.713 -14.308  1.00  0.00     0.006 C 
BRANCH  26  27
HETATM   27  C2  UNL     1       2.914  52.212 -15.618  1.00  0.00    -0.067 C 
HETATM   28  C1  UNL     1       3.866  52.654 -16.462  1.00  0.00     0.019 C 
BRANCH  27  29
HETATM   29  C26 UNL     1       1.457  52.272 -16.042  1.00  0.00     0.041 C 
BRANCH  29  30
HETATM   30  C27 UNL     1       0.891  50.916 -16.497  1.00  0.00     0.032 C 
BRANCH  30  31
HETATM   31  C28 UNL     1      -0.066  51.007 -17.655  1.00  0.00    -0.024 C 
HETATM   32  C29 UNL     1      -0.018  51.855 -18.701  1.00  0.00    -0.091 C 
HETATM   33  C30 UNL     1       1.061  52.876 -18.940  1.00  0.00     0.042 C 
HETATM   34  C31 UNL     1      -1.082  51.824 -19.768  1.00  0.00     0.042 C 
ENDBRANCH  30  31
ENDBRANCH  29  30
ENDBRANCH  27  29
ENDBRANCH  26  27
ENDBRANCH  24  25
BRANCH  23  35
HETATM   35  C7  UNL     1       3.542  50.867  -9.525  1.00  0.00     0.030 C 
HETATM   36  C8  UNL     1       4.922  50.219  -9.623  1.00  0.00     0.010 C 
ENDBRANCH  23  35
ENDBRANCH   1  23
BRANCH   7  37
HETATM   37  C20 UNL     1       2.388  54.359  -5.236  1.00  0.00     0.265 C 
HETATM   38  O2  UNL     1       3.234  54.622  -4.391  1.00  0.00    -0.302 OA
ENDBRANCH   7  37
TORSDOF 14
ENDMDL
MODEL 3
REMARK minimizedAffinity -6.09005356
REMARK CNNscore 0.535870612
REMARK CNNaffinity 6.18692732
REMARK  14 active torsions:
REMARK  status: ('A' for Active; 'I' for Inactive)
REMARK    1  A    between atoms: C2_2  and  C3_3 
REMARK    2  A    between atoms: C2_2  and  C26_30 
REMARK    3  A    between atoms: C4_4  and  C5_5 
REMARK    4  A    between atoms: C6_6  and  C7_7 
REMARK    5  A    between atoms: C6_6  and  C9_9 
REMARK    6  A    between atoms: C13_13  and  C14_14 
REMARK    7  A    between atoms: C14_14  and  C15_15 
REMARK    8  A    between atoms: C15_15  and  C16_16 
REMARK    9  A    between atoms: C16_16  and  O1_17 
REMARK   10  A    between atoms: C18_19  and  C20_21 
REMARK   11  A    between atoms: C23_25  and  O3_27 
REMARK   12  A    between atoms: C25_28  and  O4_29 
REMARK   13  A    between atoms: C26_30  and  C27_31 
REMARK   14  A    between atoms: C27_31  and  C28_32 
ROOT
HETATM    1  C9  UNL     1       2.913  57.341  -5.831  1.00  0.00     0.044 C 
HETATM    2  C10 UNL     1       3.308  57.843  -7.219  1.00  0.00     0.013 C 
HETATM    3  C11 UNL     1       4.835  57.783  -7.221  1.00  0.00     0.017 C 
HETATM    4  C12 UNL     1       5.271  56.690  -6.174  1.00  0.00     0.024 C 
HETATM    5  C13 UNL     1       6.185  55.635  -6.960  1.00  0.00     0.029 C 
HETATM    6  C17 UNL     1       7.169  54.941  -6.016  1.00  0.00    -0.066 C 
HETATM    7  C18 UNL     1       7.141  53.683  -5.522  1.00  0.00    -0.021 C 
HETATM    8  C19 UNL     1       8.206  53.053  -4.668  1.00  0.00     0.052 C 
HETATM    9  C21 UNL     1       8.235  55.939  -5.570  1.00  0.00     0.038 C 
HETATM   10  C22 UNL     1       7.657  57.356  -5.375  1.00  0.00     0.042 C 
HETATM   11  C23 UNL     1       6.161  57.338  -4.980  1.00  0.00     0.065 C 
HETATM   12  C24 UNL     1       5.786  58.746  -4.487  1.00  0.00     0.047 C 
HETATM   13  C25 UNL     1       3.893  56.162  -5.632  1.00  0.00     0.138 C 
ENDROOT
BRANCH   5  14
HETATM   14  C14 UNL     1       5.554  54.784  -8.099  1.00  0.00     0.012 C 
BRANCH  14  15
HETATM   15  C15 UNL     1       6.555  54.231  -9.132  1.00  0.00     0.027 C 
BRANCH  15  16
HETATM   16  C16 UNL     1       6.351  52.772  -9.525  1.00  0.00     0.164 C 
BRANCH  16  17
HETATM   17  O1  UNL     1       7.443  51.968  -9.108  1.00  0.00    -0.401 OA
HETATM   18  H23 UNL     1       8.252  52.360  -9.475  1.00  0.00     0.209 HD
ENDBRANCH  16  17
ENDBRANCH  15  16
ENDBRANCH  14  15
ENDBRANCH   5  14
BRANCH  11  19
HETATM   19  O3  UNL     1       6.103  56.512  -3.799  1.00  0.00    -0.389 OA
HETATM   20  H35 UNL     1       5.260  56.668  -3.344  1.00  0.00     0.210 HD
ENDBRANCH  11  19
BRANCH  13  21
HETATM   21  O4  UNL     1       3.395  55.052  -6.367  1.00  0.00    -0.394 OA
HETATM   22  H37 UNL     1       3.763  54.250  -5.929  1.00  0.00     0.210 HD
ENDBRANCH  13  21
BRANCH   1  23
HETATM   23  C6  UNL     1       1.433  57.027  -5.587  1.00  0.00    -0.074 C 
HETATM   24  C5  UNL     1       0.595  56.662  -6.584  1.00  0.00     0.003 C 
BRANCH  24  25
HETATM   25  C4  UNL     1       0.903  56.554  -8.000  1.00  0.00     0.001 C 
HETATM   26  C3  UNL     1       1.168  55.376  -8.585  1.00  0.00     0.006 C 
BRANCH  26  27
HETATM   27  C2  UNL     1       1.486  55.129  -9.986  1.00  0.00    -0.067 C 
HETATM   28  C1  UNL     1       2.625  55.641 -10.490  1.00  0.00     0.019 C 
BRANCH  27  29
HETATM   29  C26 UNL     1       0.560  54.338 -10.893  1.00  0.00     0.041 C 
BRANCH  29  30
HETATM   30  C27 UNL     1      -0.924  54.444 -10.503  1.00  0.00     0.032 C 
BRANCH  30  31
HETATM   31  C28 UNL     1      -1.604  53.115 -10.309  1.00  0.00    -0.024 C 
HETATM   32  C29 UNL     1      -2.927  52.857 -10.306  1.00  0.00    -0.091 C 
HETATM   33  C30 UNL     1      -4.009  53.874 -10.547  1.00  0.00     0.042 C 
HETATM   34  C31 UNL     1      -3.438  51.459 -10.070  1.00  0.00     0.042 C 
ENDBRANCH  30  31
ENDBRANCH  29  30
ENDBRANCH  27  29
ENDBRANCH  26  27
ENDBRANCH  24  25
BRANCH  23  35
HETATM   35  C7  UNL     1       0.963  57.140  -4.139  1.00  0.00     0.030 C 
HETATM   36  C8  UNL     1      -0.540  57.114  -3.866  1.00  0.00     0.010 C 
ENDBRANCH  23  35
ENDBRANCH   1  23
BRANCH   7  37
HETATM   37  C20 UNL     1       5.994  52.761  -5.738  1.00  0.00     0.265 C 
HETATM   38  O2  UNL     1       6.104  51.688  -6.320  1.00  0.00    -0.302 OA
ENDBRANCH   7  37
TORSDOF 14
ENDMDL
MODEL 4
REMARK minimizedAffinity -6.38516903
REMARK CNNscore 0.491998374
REMARK CNNaffinity 6.34856272
REMARK  14 active torsions:
REMARK  status: ('A' for Active; 'I' for Inactive)
REMARK    1  A    between atoms: C2_2  and  C3_3 
REMARK    2  A    between atoms: C2_2  and  C26_30 
REMARK    3  A    between atoms: C4_4  and  C5_5 
REMARK    4  A    between atoms: C6_6  and  C7_7 
REMARK    5  A    between atoms: C6_6  and  C9_9 
REMARK    6  A    between atoms: C13_13  and  C14_14 
REMARK    7  A    between atoms: C14_14  and  C15_15 
REMARK    8  A    between atoms: C15_15  and  C16_16 
REMARK    9  A    between atoms: C16_16  and  O1_17 
REMARK   10  A    between atoms: C18_19  and  C20_21 
REMARK   11  A    between atoms: C23_25  and  O3_27 
REMARK   12  A    between atoms: C25_28  and  O4_29 
REMARK   13  A    between atoms: C26_30  and  C27_31 
REMARK   14  A    between atoms: C27_31  and  C28_32 
ROOT
HETATM    1  C9  UNL     1      -9.610  47.796 -29.284  1.00  0.00     0.044 C 
HETATM    2  C10 UNL     1      -9.520  48.882 -30.356  1.00  0.00     0.013 C 
HETATM    3  C11 UNL     1      -8.185  48.615 -31.050  1.00  0.00     0.017 C 
HETATM    4  C12 UNL     1      -7.843  47.090 -30.859  1.00  0.00     0.024 C 
HETATM    5  C13 UNL     1      -7.633  46.476 -32.324  1.00  0.00     0.029 C 
HETATM    6  C17 UNL     1      -6.701  45.263 -32.289  1.00  0.00    -0.066 C 
HETATM    7  C18 UNL     1      -7.000  43.950 -32.405  1.00  0.00    -0.021 C 
HETATM    8  C19 UNL     1      -6.002  42.826 -32.451  1.00  0.00     0.052 C 
HETATM    9  C21 UNL     1      -5.278  45.724 -31.985  1.00  0.00     0.038 C 
HETATM   10  C22 UNL     1      -5.250  46.901 -30.989  1.00  0.00     0.042 C 
HETATM   11  C23 UNL     1      -6.463  46.894 -30.027  1.00  0.00     0.065 C 
HETATM   12  C24 UNL     1      -6.165  47.881 -28.885  1.00  0.00     0.047 C 
HETATM   13  C25 UNL     1      -9.078  46.560 -30.042  1.00  0.00     0.138 C 
ENDROOT
BRANCH   5  14
HETATM   14  C14 UNL     1      -8.836  46.436 -33.309  1.00  0.00     0.012 C 
BRANCH  14  15
HETATM   15  C15 UNL     1     -10.224  46.372 -32.642  1.00  0.00     0.027 C 
BRANCH  15  16
HETATM   16  C16 UNL     1     -11.346  45.823 -33.517  1.00  0.00     0.164 C 
BRANCH  16  17
HETATM   17  O1  UNL     1     -11.739  44.526 -33.096  1.00  0.00    -0.401 OA
HETATM   18  H23 UNL     1     -10.944  43.967 -33.087  1.00  0.00     0.209 HD
ENDBRANCH  16  17
ENDBRANCH  15  16
ENDBRANCH  14  15
ENDBRANCH   5  14
BRANCH  11  19
HETATM   19  O3  UNL     1      -6.427  45.594 -29.402  1.00  0.00    -0.389 OA
HETATM   20  H35 UNL     1      -6.982  45.611 -28.606  1.00  0.00     0.210 HD
ENDBRANCH  11  19
BRANCH  13  21
HETATM   21  O4  UNL     1     -10.124  46.072 -30.872  1.00  0.00    -0.394 OA
HETATM   22  H37 UNL     1      -9.934  45.117 -31.017  1.00  0.00     0.210 HD
ENDBRANCH  13  21
BRANCH   1  23
HETATM   23  C6  UNL     1     -10.955  47.615 -28.572  1.00  0.00    -0.074 C 
HETATM   24  C5  UNL     1     -11.044  47.282 -27.264  1.00  0.00     0.003 C 
BRANCH  24  25
HETATM   25  C4  UNL     1      -9.951  46.998 -26.350  1.00  0.00     0.001 C 
HETATM   26  C3  UNL     1      -9.505  47.905 -25.468  1.00  0.00     0.006 C 
BRANCH  26  27
HETATM   27  C2  UNL     1      -8.427  47.749 -24.499  1.00  0.00    -0.067 C 
HETATM   28  C1  UNL     1      -8.663  48.074 -23.213  1.00  0.00     0.019 C 
BRANCH  27  29
HETATM   29  C26 UNL     1      -7.048  47.260 -24.902  1.00  0.00     0.041 C 
BRANCH  29  30
HETATM   30  C27 UNL     1      -5.906  48.173 -24.427  1.00  0.00     0.032 C 
BRANCH  30  31
HETATM   31  C28 UNL     1      -4.829  48.395 -25.454  1.00  0.00    -0.024 C 
HETATM   32  C29 UNL     1      -3.517  48.618 -25.241  1.00  0.00    -0.091 C 
HETATM   33  C30 UNL     1      -2.850  48.646 -23.893  1.00  0.00     0.042 C 
HETATM   34  C31 UNL     1      -2.577  48.848 -26.397  1.00  0.00     0.042 C 
ENDBRANCH  30  31
ENDBRANCH  29  30
ENDBRANCH  27  29
ENDBRANCH  26  27
ENDBRANCH  24  25
BRANCH  23  35
HETATM   35  C7  UNL     1     -12.195  47.847 -29.432  1.00  0.00     0.030 C 
HETATM   36  C8  UNL     1     -13.327  46.823 -29.355  1.00  0.00     0.010 C 
ENDBRANCH  23  35
ENDBRANCH   1  23
BRANCH   7  37
HETATM   37  C20 UNL     1      -8.398  43.445 -32.458  1.00  0.00     0.265 C 
HETATM   38  O2  UNL     1      -8.922  43.049 -33.492  1.00  0.00    -0.302 OA
ENDBRANCH   7  37
TORSDOF 14
ENDMDL
MODEL 5
REMARK minimizedAffinity -7.25973558
REMARK CNNscore 0.478078485
REMARK CNNaffinity 6.86457777
REMARK  14 active torsions:
REMARK  status: ('A' for Active; 'I' for Inactive)
REMARK    1  A    between atoms: C2_2  and  C3_3 
REMARK    2  A    between atoms: C2_2  and  C26_30 
REMARK    3  A    between atoms: C4_4  and  C5_5 
REMARK    4  A    between atoms: C6_6  and  C7_7 
REMARK    5  A    between atoms: C6_6  and  C9_9 
REMARK    6  A    between atoms: C13_13  and  C14_14 
REMARK    7  A    between atoms: C14_14  and  C15_15 
REMARK    8  A    between atoms: C15_15  and  C16_16 
REMARK    9  A    between atoms: C16_16  and  O1_17 
REMARK   10  A    between atoms: C18_19  and  C20_21 
REMARK   11  A    between atoms: C23_25  and  O3_27 
REMARK   12  A    between atoms: C25_28  and  O4_29 
REMARK   13  A    between atoms: C26_30  and  C27_31 
REMARK   14  A    between atoms: C27_31  and  C28_32 
ROOT
HETATM    1  C9  UNL     1      -0.771  51.974 -11.193  1.00  0.00     0.044 C 
HETATM    2  C10 UNL     1       0.686  51.839 -10.752  1.00  0.00     0.013 C 
HETATM    3  C11 UNL     1       1.198  50.617 -11.513  1.00  0.00     0.017 C 
HETATM    4  C12 UNL     1       0.322  50.462 -12.812  1.00  0.00     0.024 C 
HETATM    5  C13 UNL     1       1.333  50.465 -14.055  1.00  0.00     0.029 C 
HETATM    6  C17 UNL     1       0.751  49.700 -15.246  1.00  0.00    -0.066 C 
HETATM    7  C18 UNL     1       0.234  50.176 -16.400  1.00  0.00    -0.021 C 
HETATM    8  C19 UNL     1      -0.234  49.342 -17.560  1.00  0.00     0.052 C 
HETATM    9  C21 UNL     1       0.724  48.207 -14.926  1.00  0.00     0.038 C 
HETATM   10  C22 UNL     1       0.395  47.937 -13.444  1.00  0.00     0.042 C 
HETATM   11  C23 UNL     1      -0.480  49.050 -12.818  1.00  0.00     0.065 C 
HETATM   12  C24 UNL     1      -1.022  48.526 -11.476  1.00  0.00     0.047 C 
HETATM   13  C25 UNL     1      -0.670  51.677 -12.707  1.00  0.00     0.138 C 
ENDROOT
BRANCH   5  14
HETATM   14  C14 UNL     1       2.163  51.746 -14.354  1.00  0.00     0.012 C 
BRANCH  14  15
HETATM   15  C15 UNL     1       3.477  51.507 -15.124  1.00  0.00     0.027 C 
BRANCH  15  16
HETATM   16  C16 UNL     1       3.925  52.651 -16.026  1.00  0.00     0.164 C 
BRANCH  16  17
HETATM   17  O1  UNL     1       2.813  53.375 -16.530  1.00  0.00    -0.401 OA
HETATM   18  H23 UNL     1       2.225  52.740 -16.971  1.00  0.00     0.209 HD
ENDBRANCH  16  17
ENDBRANCH  15  16
ENDBRANCH  14  15
ENDBRANCH   5  14
BRANCH  11  19
HETATM   19  O3  UNL     1      -1.640  49.129 -13.672  1.00  0.00    -0.389 OA
HETATM   20  H35 UNL     1      -2.346  49.603 -13.204  1.00  0.00     0.210 HD
ENDBRANCH  11  19
BRANCH  13  21
HETATM   21  O4  UNL     1      -0.184  52.848 -13.350  1.00  0.00    -0.394 OA
HETATM   22  H37 UNL     1      -0.499  52.797 -14.281  1.00  0.00     0.210 HD
ENDBRANCH  13  21
BRANCH   1  23
HETATM   23  C6  UNL     1      -1.509  53.262 -10.814  1.00  0.00    -0.074 C 
HETATM   24  C5  UNL     1      -0.866  54.437 -10.626  1.00  0.00     0.003 C 
BRANCH  24  25
HETATM   25  C4  UNL     1       0.565  54.681 -10.691  1.00  0.00     0.001 C 
HETATM   26  C3  UNL     1       1.195  55.467  -9.805  1.00  0.00     0.006 C 
BRANCH  26  27
HETATM   27  C2  UNL     1       2.616  55.790  -9.754  1.00  0.00    -0.067 C 
HETATM   28  C1  UNL     1       3.222  56.216 -10.879  1.00  0.00     0.019 C 
BRANCH  27  29
HETATM   29  C26 UNL     1       3.431  55.633  -8.483  1.00  0.00     0.041 C 
BRANCH  29  30
HETATM   30  C27 UNL     1       4.225  56.893  -8.100  1.00  0.00     0.032 C 
BRANCH  30  31
HETATM   31  C28 UNL     1       5.451  56.618  -7.272  1.00  0.00    -0.024 C 
HETATM   32  C29 UNL     1       6.505  55.840  -7.589  1.00  0.00    -0.091 C 
HETATM   33  C30 UNL     1       6.680  55.108  -8.891  1.00  0.00     0.042 C 
HETATM   34  C31 UNL     1       7.645  55.656  -6.621  1.00  0.00     0.042 C 
ENDBRANCH  30  31
ENDBRANCH  29  30
ENDBRANCH  27  29
ENDBRANCH  26  27
ENDBRANCH  24  25
BRANCH  23  35
HETATM   35  C7  UNL     1      -3.024  53.140 -10.673  1.00  0.00     0.030 C 
HETATM   36  C8  UNL     1      -3.881  53.316 -11.926  1.00  0.00     0.010 C 
ENDBRANCH  23  35
ENDBRANCH   1  23
BRANCH   7  37
HETATM   37  C20 UNL     1       0.019  51.628 -16.646  1.00  0.00     0.265 C 
HETATM   38  O2  UNL     1       0.342  52.179 -17.692  1.00  0.00    -0.302 OA
ENDBRANCH   7  37
TORSDOF 14
ENDMDL
MODEL 6
REMARK minimizedAffinity -6.653965
REMARK CNNscore 0.448254704
REMARK CNNaffinity 6.31749773
REMARK  14 active torsions:
REMARK  status: ('A' for Active; 'I' for Inactive)
REMARK    1  A    between atoms: C2_2  and  C3_3 
REMARK    2  A    between atoms: C2_2  and  C26_30 
REMARK    3  A    between atoms: C4_4  and  C5_5 
REMARK    4  A    between atoms: C6_6  and  C7_7 
REMARK    5  A    between atoms: C6_6  and  C9_9 
REMARK    6  A    between atoms: C13_13  and  C14_14 
REMARK    7  A    between atoms: C14_14  and  C15_15 
REMARK    8  A    between atoms: C15_15  and  C16_16 
REMARK    9  A    between atoms: C16_16  and  O1_17 
REMARK   10  A    between atoms: C18_19  and  C20_21 
REMARK   11  A    between atoms: C23_25  and  O3_27 
REMARK   12  A    between atoms: C25_28  and  O4_29 
REMARK   13  A    between atoms: C26_30  and  C27_31 
REMARK   14  A    between atoms: C27_31  and  C28_32 
ROOT
HETATM    1  C9  UNL     1      -6.264  47.778 -28.185  1.00  0.00     0.044 C 
HETATM    2  C10 UNL     1      -6.888  46.382 -28.163  1.00  0.00     0.013 C 
HETATM    3  C11 UNL     1      -7.631  46.281 -29.494  1.00  0.00     0.017 C 
HETATM    4  C12 UNL     1      -6.932  47.264 -30.507  1.00  0.00     0.024 C 
HETATM    5  C13 UNL     1      -6.500  46.388 -31.778  1.00  0.00     0.029 C 
HETATM    6  C17 UNL     1      -6.427  47.246 -33.043  1.00  0.00    -0.066 C 
HETATM    7  C18 UNL     1      -5.342  47.702 -33.708  1.00  0.00    -0.021 C 
HETATM    8  C19 UNL     1      -5.365  48.466 -35.002  1.00  0.00     0.052 C 
HETATM    9  C21 UNL     1      -7.838  47.652 -33.464  1.00  0.00     0.038 C 
HETATM   10  C22 UNL     1      -8.748  47.927 -32.250  1.00  0.00     0.042 C 
HETATM   11  C23 UNL     1      -7.958  48.416 -31.013  1.00  0.00     0.065 C 
HETATM   12  C24 UNL     1      -8.969  48.975 -29.997  1.00  0.00     0.047 C 
HETATM   13  C25 UNL     1      -5.769  47.878 -29.646  1.00  0.00     0.138 C 
ENDROOT
BRANCH   5  14
HETATM   14  C14 UNL     1      -5.437  45.268 -31.601  1.00  0.00     0.012 C 
BRANCH  14  15
HETATM   15  C15 UNL     1      -5.813  43.907 -32.220  1.00  0.00     0.027 C 
BRANCH  15  16
HETATM   16  C16 UNL     1      -6.697  43.016 -31.354  1.00  0.00     0.164 C 
BRANCH  16  17
HETATM   17  O1  UNL     1      -6.429  41.642 -31.587  1.00  0.00    -0.401 OA
HETATM   18  H23 UNL     1      -6.530  41.481 -32.539  1.00  0.00     0.209 HD
ENDBRANCH  16  17
ENDBRANCH  15  16
ENDBRANCH  14  15
ENDBRANCH   5  14
BRANCH  11  19
HETATM   19  O3  UNL     1      -7.232  49.573 -31.477  1.00  0.00    -0.389 OA
HETATM   20  H35 UNL     1      -6.930  50.086 -30.709  1.00  0.00     0.210 HD
ENDBRANCH  11  19
BRANCH  13  21
HETATM   21  O4  UNL     1      -4.556  47.143 -29.747  1.00  0.00    -0.394 OA
HETATM   22  H37 UNL     1      -4.066  47.531 -30.507  1.00  0.00     0.210 HD
ENDBRANCH  13  21
BRANCH   1  23
HETATM   23  C6  UNL     1      -5.228  48.107 -27.105  1.00  0.00    -0.074 C 
HETATM   24  C5  UNL     1      -5.529  48.103 -25.787  1.00  0.00     0.003 C 
BRANCH  24  25
HETATM   25  C4  UNL     1      -6.825  47.853 -25.178  1.00  0.00     0.001 C 
HETATM   26  C3  UNL     1      -7.050  48.057 -23.871  1.00  0.00     0.006 C 
BRANCH  26  27
HETATM   27  C2  UNL     1      -8.294  47.851 -23.139  1.00  0.00    -0.067 C 
HETATM   28  C1  UNL     1      -9.337  47.292 -23.783  1.00  0.00     0.019 C 
BRANCH  27  29
HETATM   29  C26 UNL     1      -8.452  48.272 -21.690  1.00  0.00     0.041 C 
BRANCH  29  30
HETATM   30  C27 UNL     1      -7.868  47.264 -20.686  1.00  0.00     0.032 C 
BRANCH  30  31
HETATM   31  C28 UNL     1      -8.764  46.975 -19.512  1.00  0.00    -0.024 C 
HETATM   32  C29 UNL     1      -9.049  47.783 -18.472  1.00  0.00    -0.091 C 
HETATM   33  C30 UNL     1      -8.543  49.189 -18.303  1.00  0.00     0.042 C 
HETATM   34  C31 UNL     1      -9.955  47.318 -17.361  1.00  0.00     0.042 C 
ENDBRANCH  30  31
ENDBRANCH  29  30
ENDBRANCH  27  29
ENDBRANCH  26  27
ENDBRANCH  24  25
BRANCH  23  35
HETATM   35  C7  UNL     1      -3.824  48.430 -27.612  1.00  0.00     0.030 C 
HETATM   36  C8  UNL     1      -3.259  49.820 -27.328  1.00  0.00     0.010 C 
ENDBRANCH  23  35
ENDBRANCH   1  23
BRANCH   7  37
HETATM   37  C20 UNL     1      -3.956  47.533 -33.194  1.00  0.00     0.265 C 
HETATM   38  O2  UNL     1      -3.672  46.754 -32.293  1.00  0.00    -0.302 OA
ENDBRANCH   7  37
TORSDOF 14
ENDMDL
MODEL 7
REMARK minimizedAffinity -6.65267563
REMARK CNNscore 0.440349966
REMARK CNNaffinity 6.45202065
REMARK  14 active torsions:
REMARK  status: ('A' for Active; 'I' for Inactive)
REMARK    1  A    between atoms: C2_2  and  C3_3 
REMARK    2  A    between atoms: C2_2  and  C26_30 
REMARK    3  A    between atoms: C4_4  and  C5_5 
REMARK    4  A    between atoms: C6_6  and  C7_7 
REMARK    5  A    between atoms: C6_6  and  C9_9 
REMARK    6  A    between atoms: C13_13  and  C14_14 
REMARK    7  A    between atoms: C14_14  and  C15_15 
REMARK    8  A    between atoms: C15_15  and  C16_16 
REMARK    9  A    between atoms: C16_16  and  O1_17 
REMARK   10  A    between atoms: C18_19  and  C20_21 
REMARK   11  A    between atoms: C23_25  and  O3_27 
REMARK   12  A    between atoms: C25_28  and  O4_29 
REMARK   13  A    between atoms: C26_30  and  C27_31 
REMARK   14  A    between atoms: C27_31  and  C28_32 
ROOT
HETATM    1  C9  UNL     1      -8.187  48.003 -29.172  1.00  0.00     0.044 C 
HETATM    2  C10 UNL     1      -8.982  48.563 -30.351  1.00  0.00     0.013 C 
HETATM    3  C11 UNL     1      -8.022  48.462 -31.536  1.00  0.00     0.017 C 
HETATM    4  C12 UNL     1      -6.998  47.306 -31.223  1.00  0.00     0.024 C 
HETATM    5  C13 UNL     1      -7.087  46.267 -32.440  1.00  0.00     0.029 C 
HETATM    6  C17 UNL     1      -5.774  45.501 -32.612  1.00  0.00    -0.066 C 
HETATM    7  C18 UNL     1      -5.481  44.221 -32.292  1.00  0.00    -0.021 C 
HETATM    8  C19 UNL     1      -4.183  43.520 -32.583  1.00  0.00     0.052 C 
HETATM    9  C21 UNL     1      -4.700  46.446 -33.145  1.00  0.00     0.038 C 
HETATM   10  C22 UNL     1      -4.835  47.866 -32.559  1.00  0.00     0.042 C 
HETATM   11  C23 UNL     1      -5.477  47.869 -31.150  1.00  0.00     0.065 C 
HETATM   12  C24 UNL     1      -5.254  49.261 -30.533  1.00  0.00     0.047 C 
HETATM   13  C25 UNL     1      -7.479  46.790 -29.818  1.00  0.00     0.138 C 
ENDROOT
BRANCH   5  14
HETATM   14  C14 UNL     1      -8.414  45.492 -32.679  1.00  0.00     0.012 C 
BRANCH  14  15
HETATM   15  C15 UNL     1      -8.704  45.134 -34.150  1.00  0.00     0.027 C 
BRANCH  15  16
HETATM   16  C16 UNL     1      -9.085  43.680 -34.407  1.00  0.00     0.164 C 
BRANCH  16  17
HETATM   17  O1  UNL     1      -8.560  43.221 -35.643  1.00  0.00    -0.401 OA
HETATM   18  H23 UNL     1      -8.864  43.830 -36.335  1.00  0.00     0.209 HD
ENDBRANCH  16  17
ENDBRANCH  15  16
ENDBRANCH  14  15
ENDBRANCH   5  14
BRANCH  11  19
HETATM   19  O3  UNL     1      -4.646  46.987 -30.368  1.00  0.00    -0.389 OA
HETATM   20  H35 UNL     1      -4.819  47.143 -29.425  1.00  0.00     0.210 HD
ENDBRANCH  11  19
BRANCH  13  21
HETATM   21  O4  UNL     1      -8.424  45.731 -29.909  1.00  0.00    -0.394 OA
HETATM   22  H37 UNL     1      -7.899  44.899 -29.926  1.00  0.00     0.210 HD
ENDBRANCH  13  21
BRANCH   1  23
HETATM   23  C6  UNL     1      -8.951  47.717 -27.876  1.00  0.00    -0.074 C 
HETATM   24  C5  UNL     1      -8.323  47.439 -26.710  1.00  0.00     0.003 C 
BRANCH  24  25
HETATM   25  C4  UNL     1      -6.893  47.311 -26.487  1.00  0.00     0.001 C 
HETATM   26  C3  UNL     1      -6.105  48.378 -26.283  1.00  0.00     0.006 C 
BRANCH  26  27
HETATM   27  C2  UNL     1      -4.667  48.390 -26.044  1.00  0.00    -0.067 C 
HETATM   28  C1  UNL     1      -3.836  48.332 -27.103  1.00  0.00     0.019 C 
BRANCH  27  29
HETATM   29  C26 UNL     1      -4.085  48.440 -24.643  1.00  0.00     0.041 C 
BRANCH  29  30
HETATM   30  C27 UNL     1      -2.591  48.804 -24.607  1.00  0.00     0.032 C 
BRANCH  30  31
HETATM   31  C28 UNL     1      -2.320  50.260 -24.340  1.00  0.00    -0.024 C 
HETATM   32  C29 UNL     1      -1.483  51.080 -25.006  1.00  0.00    -0.091 C 
HETATM   33  C30 UNL     1      -0.667  50.695 -26.209  1.00  0.00     0.042 C 
HETATM   34  C31 UNL     1      -1.314  52.517 -24.582  1.00  0.00     0.042 C 
ENDBRANCH  30  31
ENDBRANCH  29  30
ENDBRANCH  27  29
ENDBRANCH  26  27
ENDBRANCH  24  25
BRANCH  23  35
HETATM   35  C7  UNL     1     -10.473  47.780 -27.977  1.00  0.00     0.030 C 
HETATM   36  C8  UNL     1     -11.267  46.506 -27.691  1.00  0.00     0.010 C 
ENDBRANCH  23  35
ENDBRANCH   1  23
BRANCH   7  37
HETATM   37  C20 UNL     1      -6.424  43.342 -31.549  1.00  0.00     0.265 C 
HETATM   38  O2  UNL     1      -6.879  42.307 -32.021  1.00  0.00    -0.302 OA
ENDBRANCH   7  37
TORSDOF 14
ENDMDL
MODEL 8
REMARK minimizedAffinity -7.16291046
REMARK CNNscore 0.384806812
REMARK CNNaffinity 6.31579161
REMARK  14 active torsions:
REMARK  status: ('A' for Active; 'I' for Inactive)
REMARK    1  A    between atoms: C2_2  and  C3_3 
REMARK    2  A    between atoms: C2_2  and  C26_30 
REMARK    3  A    between atoms: C4_4  and  C5_5 
REMARK    4  A    between atoms: C6_6  and  C7_7 
REMARK    5  A    between atoms: C6_6  and  C9_9 
REMARK    6  A    between atoms: C13_13  and  C14_14 
REMARK    7  A    between atoms: C14_14  and  C15_15 
REMARK    8  A    between atoms: C15_15  and  C16_16 
REMARK    9  A    between atoms: C16_16  and  O1_17 
REMARK   10  A    between atoms: C18_19  and  C20_21 
REMARK   11  A    between atoms: C23_25  and  O3_27 
REMARK   12  A    between atoms: C25_28  and  O4_29 
REMARK   13  A    between atoms: C26_30  and  C27_31 
REMARK   14  A    between atoms: C27_31  and  C28_32 
ROOT
HETATM    1  C9  UNL     1      -7.306  47.771 -28.171  1.00  0.00     0.044 C 
HETATM    2  C10 UNL     1      -8.473  48.351 -28.969  1.00  0.00     0.013 C 
HETATM    3  C11 UNL     1      -7.982  48.340 -30.416  1.00  0.00     0.017 C 
HETATM    4  C12 UNL     1      -6.889  47.213 -30.541  1.00  0.00     0.024 C 
HETATM    5  C13 UNL     1      -7.372  46.227 -31.707  1.00  0.00     0.029 C 
HETATM    6  C17 UNL     1      -6.185  45.521 -32.365  1.00  0.00    -0.066 C 
HETATM    7  C18 UNL     1      -5.771  44.240 -32.237  1.00  0.00    -0.021 C 
HETATM    8  C19 UNL     1      -4.640  43.605 -32.998  1.00  0.00     0.052 C 
HETATM    9  C21 UNL     1      -5.383  46.531 -33.183  1.00  0.00     0.038 C 
HETATM   10  C22 UNL     1      -5.337  47.917 -32.509  1.00  0.00     0.042 C 
HETATM   11  C23 UNL     1      -5.449  47.832 -30.968  1.00  0.00     0.065 C 
HETATM   12  C24 UNL     1      -5.056  49.202 -30.389  1.00  0.00     0.047 C 
HETATM   13  C25 UNL     1      -6.841  46.616 -29.087  1.00  0.00     0.138 C 
ENDROOT
BRANCH   5  14
HETATM   14  C14 UNL     1      -8.683  45.412 -31.516  1.00  0.00     0.012 C 
BRANCH  14  15
HETATM   15  C15 UNL     1      -9.475  45.137 -32.810  1.00  0.00     0.027 C 
BRANCH  15  16
HETATM   16  C16 UNL     1     -10.977  44.943 -32.629  1.00  0.00     0.164 C 
BRANCH  16  17
HETATM   17  O1  UNL     1     -11.708  46.006 -33.218  1.00  0.00    -0.401 OA
HETATM   18  H23 UNL     1     -11.376  46.837 -32.839  1.00  0.00     0.209 HD
ENDBRANCH  16  17
ENDBRANCH  15  16
ENDBRANCH  14  15
ENDBRANCH   5  14
BRANCH  11  19
HETATM   19  O3  UNL     1      -4.380  46.949 -30.570  1.00  0.00    -0.389 OA
HETATM   20  H35 UNL     1      -4.218  47.057 -29.619  1.00  0.00     0.210 HD
ENDBRANCH  11  19
BRANCH  13  21
HETATM   21  O4  UNL     1      -7.736  45.527 -28.905  1.00  0.00    -0.394 OA
HETATM   22  H37 UNL     1      -7.231  44.717 -29.148  1.00  0.00     0.210 HD
ENDBRANCH  13  21
BRANCH   1  23
HETATM   23  C6  UNL     1      -7.566  47.398 -26.708  1.00  0.00    -0.074 C 
HETATM   24  C5  UNL     1      -6.674  47.657 -25.724  1.00  0.00     0.003 C 
BRANCH  24  25
HETATM   25  C4  UNL     1      -5.356  48.253 -25.863  1.00  0.00     0.001 C 
HETATM   26  C3  UNL     1      -4.517  48.376 -24.823  1.00  0.00     0.006 C 
BRANCH  26  27
HETATM   27  C2  UNL     1      -3.175  48.947 -24.826  1.00  0.00    -0.067 C 
HETATM   28  C1  UNL     1      -2.579  49.200 -23.645  1.00  0.00     0.019 C 
BRANCH  27  29
HETATM   29  C26 UNL     1      -2.449  49.288 -26.114  1.00  0.00     0.041 C 
BRANCH  29  30
HETATM   30  C27 UNL     1      -2.032  50.764 -26.217  1.00  0.00     0.032 C 
BRANCH  30  31
HETATM   31  C28 UNL     1      -0.938  51.026 -27.216  1.00  0.00    -0.024 C 
HETATM   32  C29 UNL     1       0.305  51.490 -26.978  1.00  0.00    -0.091 C 
HETATM   33  C30 UNL     1       0.866  51.805 -25.619  1.00  0.00     0.042 C 
HETATM   34  C31 UNL     1       1.272  51.719 -28.111  1.00  0.00     0.042 C 
ENDBRANCH  30  31
ENDBRANCH  29  30
ENDBRANCH  27  29
ENDBRANCH  26  27
ENDBRANCH  24  25
BRANCH  23  35
HETATM   35  C7  UNL     1      -8.907  46.724 -26.424  1.00  0.00     0.030 C 
HETATM   36  C8  UNL     1      -8.916  45.488 -25.527  1.00  0.00     0.010 C 
ENDBRANCH  23  35
ENDBRANCH   1  23
BRANCH   7  37
HETATM   37  C20 UNL     1      -6.379  43.293 -31.264  1.00  0.00     0.265 C 
HETATM   38  O2  UNL     1      -6.725  42.159 -31.570  1.00  0.00    -0.302 OA
ENDBRANCH   7  37
TORSDOF 14
ENDMDL
MODEL 9
REMARK minimizedAffinity -6.49283552
REMARK CNNscore 0.339359999
REMARK CNNaffinity 6.33228064
REMARK  14 active torsions:
REMARK  status: ('A' for Active; 'I' for Inactive)
REMARK    1  A    between atoms: C2_2  and  C3_3 
REMARK    2  A    between atoms: C2_2  and  C26_30 
REMARK    3  A    between atoms: C4_4  and  C5_5 
REMARK    4  A    between atoms: C6_6  and  C7_7 
REMARK    5  A    between atoms: C6_6  and  C9_9 
REMARK    6  A    between atoms: C13_13  and  C14_14 
REMARK    7  A    between atoms: C14_14  and  C15_15 
REMARK    8  A    between atoms: C15_15  and  C16_16 
REMARK    9  A    between atoms: C16_16  and  O1_17 
REMARK   10  A    between atoms: C18_19  and  C20_21 
REMARK   11  A    between atoms: C23_25  and  O3_27 
REMARK   12  A    between atoms: C25_28  and  O4_29 
REMARK   13  A    between atoms: C26_30  and  C27_31 
REMARK   14  A    between atoms: C27_31  and  C28_32 
ROOT
HETATM    1  C9  UNL     1       1.029  50.903 -14.147  1.00  0.00     0.044 C 
HETATM    2  C10 UNL     1      -0.347  51.348 -14.644  1.00  0.00     0.013 C 
HETATM    3  C11 UNL     1      -1.315  50.839 -13.577  1.00  0.00     0.017 C 
HETATM    4  C12 UNL     1      -0.515  50.710 -12.227  1.00  0.00     0.024 C 
HETATM    5  C13 UNL     1      -1.292  51.596 -11.142  1.00  0.00     0.029 C 
HETATM    6  C17 UNL     1      -1.049  51.074  -9.724  1.00  0.00    -0.066 C 
HETATM    7  C18 UNL     1      -0.272  51.586  -8.743  1.00  0.00    -0.021 C 
HETATM    8  C19 UNL     1      -0.165  51.053  -7.342  1.00  0.00     0.052 C 
HETATM    9  C21 UNL     1      -1.767  49.739  -9.544  1.00  0.00     0.038 C 
HETATM   10  C22 UNL     1      -1.734  48.885 -10.828  1.00  0.00     0.042 C 
HETATM   11  C23 UNL     1      -0.489  49.174 -11.701  1.00  0.00     0.065 C 
HETATM   12  C24 UNL     1      -0.380  48.055 -12.752  1.00  0.00     0.047 C 
HETATM   13  C25 UNL     1       0.925  51.194 -12.633  1.00  0.00     0.138 C 
ENDROOT
BRANCH   5  14
HETATM   14  C14 UNL     1      -1.379  53.135 -11.341  1.00  0.00     0.012 C 
BRANCH  14  15
HETATM   15  C15 UNL     1      -2.596  53.811 -10.680  1.00  0.00     0.027 C 
BRANCH  15  16
HETATM   16  C16 UNL     1      -3.935  53.564 -11.365  1.00  0.00     0.164 C 
BRANCH  16  17
HETATM   17  O1  UNL     1      -4.600  52.442 -10.807  1.00  0.00    -0.401 OA
HETATM   18  H23 UNL     1      -3.992  51.686 -10.858  1.00  0.00     0.209 HD
ENDBRANCH  16  17
ENDBRANCH  15  16
ENDBRANCH  14  15
ENDBRANCH   5  14
BRANCH  11  19
HETATM   19  O3  UNL     1       0.634  48.957 -10.822  1.00  0.00    -0.389 OA
HETATM   20  H35 UNL     1       1.439  48.857 -11.355  1.00  0.00     0.210 HD
ENDBRANCH  11  19
BRANCH  13  21
HETATM   21  O4  UNL     1       1.115  52.590 -12.443  1.00  0.00    -0.394 OA
HETATM   22  H37 UNL     1       1.445  52.697 -11.522  1.00  0.00     0.210 HD
ENDBRANCH  13  21
BRANCH   1  23
HETATM   23  C6  UNL     1       2.258  51.480 -14.855  1.00  0.00    -0.074 C 
HETATM   24  C5  UNL     1       2.189  52.047 -16.081  1.00  0.00     0.003 C 
BRANCH  24  25
HETATM   25  C4  UNL     1       1.018  52.165 -16.934  1.00  0.00     0.001 C 
HETATM   26  C3  UNL     1       1.114  52.455 -18.240  1.00  0.00     0.006 C 
BRANCH  26  27
HETATM   27  C2  UNL     1       0.028  52.597 -19.203  1.00  0.00    -0.067 C 
HETATM   28  C1  UNL     1      -1.186  52.110 -18.883  1.00  0.00     0.019 C 
BRANCH  27  29
HETATM   29  C26 UNL     1       0.235  53.252 -20.557  1.00  0.00     0.041 C 
BRANCH  29  30
HETATM   30  C27 UNL     1      -0.367  52.456 -21.726  1.00  0.00     0.032 C 
BRANCH  30  31
HETATM   31  C28 UNL     1       0.372  52.621 -23.027  1.00  0.00    -0.024 C 
HETATM   32  C29 UNL     1       0.121  52.012 -24.203  1.00  0.00    -0.091 C 
HETATM   33  C30 UNL     1      -1.009  51.053 -24.458  1.00  0.00     0.042 C 
HETATM   34  C31 UNL     1       0.986  52.279 -25.408  1.00  0.00     0.042 C 
ENDBRANCH  30  31
ENDBRANCH  29  30
ENDBRANCH  27  29
ENDBRANCH  26  27
ENDBRANCH  24  25
BRANCH  23  35
HETATM   35  C7  UNL     1       3.572  51.386 -14.083  1.00  0.00     0.030 C 
HETATM   36  C8  UNL     1       4.173  50.001 -13.851  1.00  0.00     0.010 C 
ENDBRANCH  23  35
ENDBRANCH   1  23
BRANCH   7  37
HETATM   37  C20 UNL     1       0.631  52.749  -8.959  1.00  0.00     0.265 C 
HETATM   38  O2  UNL     1       0.613  53.744  -8.246  1.00  0.00    -0.302 OA
ENDBRANCH   7  37
TORSDOF 14
ENDMDL
