MODEL 1
REMARK minimizedAffinity -7.83587313
REMARK CNNscore 0.602548361
REMARK CNNaffinity 6.74096537
REMARK  10 active torsions:
REMARK  status: ('A' for Active; 'I' for Inactive)
REMARK    1  A    between atoms: C19_21  and  O3_22 
REMARK    2  A    between atoms: C19_21  and  C20_23 
REMARK    3  A    between atoms: C20_23  and  C21_25 
REMARK    4  A    between atoms: C21_25  and  O5_26 
REMARK    5  A    between atoms: O5_26  and  C22_27 
REMARK    6  A    between atoms: C22_27  and  C23_29 
REMARK    7  A    between atoms: C23_29  and  C24_30 
REMARK    8  A    between atoms: C24_30  and  C25_31 
REMARK       I    between atoms: C25_31  and  N1_33 
REMARK    9  A    between atoms: N1_33  and  C26_34 
REMARK   10  A    between atoms: C26_34  and  C27_35 
ROOT
HETATM    1  C1  UNL     1      -2.452   7.238  12.652  1.00  0.00     0.021 C 
HETATM    2  C2  UNL     1      -3.307   6.683  13.815  1.00  0.00    -0.009 C 
HETATM    3  C3  UNL     1      -2.852   5.231  14.152  1.00  0.00     0.022 C 
HETATM    4  C4  UNL     1      -3.268   4.196  13.117  1.00  0.00     0.084 C 
HETATM    5  C5  UNL     1      -4.758   4.238  12.906  1.00  0.00     0.149 C 
HETATM    6  O1  UNL     1      -5.410   3.241  12.610  1.00  0.00    -0.293 OA
HETATM    7  C6  UNL     1      -5.431   5.555  12.980  1.00  0.00     0.053 C 
HETATM    8  C7  UNL     1      -4.774   6.669  13.345  1.00  0.00    -0.067 C 
HETATM    9  C8  UNL     1      -5.480   8.003  13.274  1.00  0.00     0.035 C 
HETATM   10  C9  UNL     1      -5.344   8.789  14.572  1.00  0.00     0.010 C 
HETATM   11  C10 UNL     1      -3.872   8.955  14.972  1.00  0.00     0.003 C 
HETATM   12  C11 UNL     1      -3.199   7.558  15.116  1.00  0.00     0.072 C 
HETATM   13  C12 UNL     1      -1.780   7.723  15.693  1.00  0.00     0.133 C 
HETATM   14  O2  UNL     1      -0.783   7.188  15.214  1.00  0.00    -0.297 OA
HETATM   15  C13 UNL     1      -1.652   8.550  16.967  1.00  0.00     0.091 C 
HETATM   16  C14 UNL     1      -2.269   9.936  16.745  1.00  0.00     0.005 C 
HETATM   17  C15 UNL     1      -1.423  10.714  15.700  1.00  0.00     0.019 C 
HETATM   18  C16 UNL     1      -3.739   9.716  16.298  1.00  0.00     0.002 C 
HETATM   19  C17 UNL     1      -4.357  11.104  16.390  1.00  0.00     0.009 C 
HETATM   20  C18 UNL     1      -3.640  11.767  17.580  1.00  0.00     0.047 C 
HETATM   21  C19 UNL     1      -2.502  10.798  18.021  1.00  0.00     0.128 C 
ENDROOT
BRANCH  21  22
HETATM   22  O3  UNL     1      -3.048   9.968  19.049  1.00  0.00    -0.381 OA
HETATM   23  H25 UNL     1      -3.239  10.554  19.814  1.00  0.00     0.211 HD
ENDBRANCH  21  22
BRANCH  21  24
HETATM   24  C20 UNL     1      -1.260  11.568  18.537  1.00  0.00     0.185 C 
HETATM   25  O4  UNL     1      -1.033  12.734  18.195  1.00  0.00    -0.292 OA
BRANCH  24  26
HETATM   26  C21 UNL     1      -0.243  10.839  19.429  1.00  0.00     0.260 C 
BRANCH  26  27
HETATM   27  O5  UNL     1       1.040  10.453  18.958  1.00  0.00    -0.314 OA
BRANCH  27  28
HETATM   28  C22 UNL     1       2.087  11.138  19.493  1.00  0.00     0.259 C 
HETATM   29  O6  UNL     1       3.041  11.560  18.850  1.00  0.00    -0.265 OA
BRANCH  28  30
HETATM   30  C23 UNL     1       1.875  11.338  20.974  1.00  0.00     0.120 C 
BRANCH  30  31
HETATM   31  C24 UNL     1       2.336  10.117  21.765  1.00  0.00     0.112 C 
BRANCH  31  32
HETATM   32  C25 UNL     1       3.797  10.234  22.159  1.00  0.00     0.218 C 
HETATM   33  O7  UNL     1       4.425   9.302  22.649  1.00  0.00    -0.274 OA
HETATM   34  N1  UNL     1       4.328  11.482  21.928  1.00  0.00    -0.357 N 
HETATM   35  H32 UNL     1       3.776  12.154  21.408  1.00  0.00     0.162 HD
BRANCH  34  36
HETATM   36  C26 UNL     1       5.756  11.709  21.962  1.00  0.00     0.161 C 
BRANCH  36  37
HETATM   37  C27 UNL     1       6.053  13.060  22.559  1.00  0.00    -0.038 A 
HETATM   38  C28 UNL     1       5.068  14.046  22.643  1.00  0.00     0.025 A 
HETATM   39  C29 UNL     1       5.411  15.285  23.164  1.00  0.00     0.088 A 
HETATM   40  N2  UNL     1       6.652  15.606  23.591  1.00  0.00    -0.375 N 
HETATM   41  C30 UNL     1       7.592  14.643  23.494  1.00  0.00     0.088 A 
ATOM     42  H2  UNL     1       6.866  16.529  23.969  1.00  0.00     0.164 HD
HETATM   43  C31 UNL     1       7.344  13.372  22.999  1.00  0.00     0.025 A 
ENDBRANCH  36  37
ENDBRANCH  34  36
ENDBRANCH  31  32
ENDBRANCH  30  31
ENDBRANCH  28  30
ENDBRANCH  27  28
ENDBRANCH  26  27
ENDBRANCH  24  26
ENDBRANCH  21  24
TORSDOF 10
ENDMDL
MODEL 2
REMARK minimizedAffinity -7.67124128
REMARK CNNscore 0.392455399
REMARK CNNaffinity 5.72621679
REMARK  10 active torsions:
REMARK  status: ('A' for Active; 'I' for Inactive)
REMARK    1  A    between atoms: C19_21  and  O3_22 
REMARK    2  A    between atoms: C19_21  and  C20_23 
REMARK    3  A    between atoms: C20_23  and  C21_25 
REMARK    4  A    between atoms: C21_25  and  O5_26 
REMARK    5  A    between atoms: O5_26  and  C22_27 
REMARK    6  A    between atoms: C22_27  and  C23_29 
REMARK    7  A    between atoms: C23_29  and  C24_30 
REMARK    8  A    between atoms: C24_30  and  C25_31 
REMARK       I    between atoms: C25_31  and  N1_33 
REMARK    9  A    between atoms: N1_33  and  C26_34 
REMARK   10  A    between atoms: C26_34  and  C27_35 
ROOT
HETATM    1  C1  UNL     1     -10.558  13.959  22.605  1.00  0.00     0.021 C 
HETATM    2  C2  UNL     1      -9.573  12.809  22.295  1.00  0.00    -0.009 C 
HETATM    3  C3  UNL     1      -8.276  12.988  23.141  1.00  0.00     0.022 C 
HETATM    4  C4  UNL     1      -7.379  14.121  22.665  1.00  0.00     0.084 C 
HETATM    5  C5  UNL     1      -7.031  13.937  21.212  1.00  0.00     0.149 C 
HETATM    6  O1  UNL     1      -5.963  14.312  20.736  1.00  0.00    -0.293 OA
HETATM    7  C6  UNL     1      -8.061  13.355  20.321  1.00  0.00     0.053 C 
HETATM    8  C7  UNL     1      -9.227  12.885  20.796  1.00  0.00    -0.067 C 
HETATM    9  C8  UNL     1     -10.291  12.427  19.827  1.00  0.00     0.035 C 
HETATM   10  C9  UNL     1     -10.825  11.043  20.180  1.00  0.00     0.010 C 
HETATM   11  C10 UNL     1     -11.327  10.993  21.629  1.00  0.00     0.003 C 
HETATM   12  C11 UNL     1     -10.181  11.392  22.603  1.00  0.00     0.072 C 
HETATM   13  C12 UNL     1     -10.635  11.163  24.058  1.00  0.00     0.133 C 
HETATM   14  O2  UNL     1     -10.508  11.999  24.951  1.00  0.00    -0.297 OA
HETATM   15  C13 UNL     1     -11.209   9.791  24.387  1.00  0.00     0.091 C 
HETATM   16  C14 UNL     1     -12.376   9.481  23.442  1.00  0.00     0.005 C 
HETATM   17  C15 UNL     1     -13.545  10.461  23.731  1.00  0.00     0.019 C 
HETATM   18  C16 UNL     1     -11.831   9.590  21.993  1.00  0.00     0.002 C 
HETATM   19  C17 UNL     1     -12.941   8.986  21.144  1.00  0.00     0.009 C 
HETATM   20  C18 UNL     1     -13.546   7.880  22.027  1.00  0.00     0.047 C 
HETATM   21  C19 UNL     1     -12.879   8.007  23.430  1.00  0.00     0.128 C 
ENDROOT
BRANCH  21  22
HETATM   22  O3  UNL     1     -11.749   7.130  23.426  1.00  0.00    -0.381 OA
HETATM   23  H25 UNL     1     -12.101   6.216  23.356  1.00  0.00     0.211 HD
ENDBRANCH  21  22
BRANCH  21  24
HETATM   24  C20 UNL     1     -13.861   7.632  24.569  1.00  0.00     0.185 C 
HETATM   25  O4  UNL     1     -14.214   8.459  25.418  1.00  0.00    -0.292 OA
BRANCH  24  26
HETATM   26  C21 UNL     1     -14.345   6.179  24.695  1.00  0.00     0.260 C 
BRANCH  26  27
HETATM   27  O5  UNL     1     -15.000   5.503  23.630  1.00  0.00    -0.314 OA
BRANCH  27  28
HETATM   28  C22 UNL     1     -14.303   4.472  23.080  1.00  0.00     0.259 C 
HETATM   29  O6  UNL     1     -14.523   4.001  21.971  1.00  0.00    -0.265 OA
BRANCH  28  30
HETATM   30  C23 UNL     1     -13.202   4.032  24.013  1.00  0.00     0.120 C 
BRANCH  30  31
HETATM   31  C24 UNL     1     -12.860   2.560  23.806  1.00  0.00     0.112 C 
BRANCH  31  32
HETATM   32  C25 UNL     1     -12.210   1.964  25.041  1.00  0.00     0.218 C 
HETATM   33  O7  UNL     1     -11.148   1.351  24.998  1.00  0.00    -0.274 OA
HETATM   34  N1  UNL     1     -12.935   2.166  26.192  1.00  0.00    -0.357 N 
HETATM   35  H32 UNL     1     -13.735   2.787  26.158  1.00  0.00     0.162 HD
BRANCH  34  36
HETATM   36  C26 UNL     1     -12.353   1.936  27.497  1.00  0.00     0.161 C 
BRANCH  36  37
HETATM   37  C27 UNL     1     -12.787   3.014  28.456  1.00  0.00    -0.038 A 
HETATM   38  C28 UNL     1     -12.375   3.005  29.791  1.00  0.00     0.025 A 
HETATM   39  C29 UNL     1     -12.842   4.000  30.636  1.00  0.00     0.088 A 
HETATM   40  N2  UNL     1     -13.686   4.982  30.253  1.00  0.00    -0.375 N 
HETATM   41  C30 UNL     1     -14.081   4.969  28.962  1.00  0.00     0.088 A 
ATOM     42  H2  UNL     1     -14.009   5.698  30.904  1.00  0.00     0.164 HD
HETATM   43  C31 UNL     1     -13.660   4.025  28.038  1.00  0.00     0.025 A 
ENDBRANCH  36  37
ENDBRANCH  34  36
ENDBRANCH  31  32
ENDBRANCH  30  31
ENDBRANCH  28  30
ENDBRANCH  27  28
ENDBRANCH  26  27
ENDBRANCH  24  26
ENDBRANCH  21  24
TORSDOF 10
ENDMDL
MODEL 3
REMARK minimizedAffinity -8.13825607
REMARK CNNscore 0.363179892
REMARK CNNaffinity 6.74476624
REMARK  10 active torsions:
REMARK  status: ('A' for Active; 'I' for Inactive)
REMARK    1  A    between atoms: C19_21  and  O3_22 
REMARK    2  A    between atoms: C19_21  and  C20_23 
REMARK    3  A    between atoms: C20_23  and  C21_25 
REMARK    4  A    between atoms: C21_25  and  O5_26 
REMARK    5  A    between atoms: O5_26  and  C22_27 
REMARK    6  A    between atoms: C22_27  and  C23_29 
REMARK    7  A    between atoms: C23_29  and  C24_30 
REMARK    8  A    between atoms: C24_30  and  C25_31 
REMARK       I    between atoms: C25_31  and  N1_33 
REMARK    9  A    between atoms: N1_33  and  C26_34 
REMARK   10  A    between atoms: C26_34  and  C27_35 
ROOT
HETATM    1  C1  UNL     1      -0.454   8.499  10.840  1.00  0.00     0.021 C 
HETATM    2  C2  UNL     1       0.050   7.658  12.035  1.00  0.00    -0.009 C 
HETATM    3  C3  UNL     1       1.201   8.419  12.762  1.00  0.00     0.022 C 
HETATM    4  C4  UNL     1       2.513   8.436  11.992  1.00  0.00     0.084 C 
HETATM    5  C5  UNL     1       2.944   7.031  11.663  1.00  0.00     0.149 C 
HETATM    6  O1  UNL     1       4.125   6.706  11.579  1.00  0.00    -0.293 OA
HETATM    7  C6  UNL     1       1.890   6.038  11.352  1.00  0.00     0.053 C 
HETATM    8  C7  UNL     1       0.584   6.328  11.474  1.00  0.00    -0.067 C 
HETATM    9  C8  UNL     1      -0.444   5.320  11.015  1.00  0.00     0.035 C 
HETATM   10  C9  UNL     1      -1.503   5.062  12.080  1.00  0.00     0.010 C 
HETATM   11  C10 UNL     1      -2.164   6.369  12.536  1.00  0.00     0.003 C 
HETATM   12  C11 UNL     1      -1.085   7.350  13.079  1.00  0.00     0.072 C 
HETATM   13  C12 UNL     1      -1.770   8.581  13.703  1.00  0.00     0.133 C 
HETATM   14  O2  UNL     1      -1.448   9.740  13.452  1.00  0.00    -0.297 OA
HETATM   15  C13 UNL     1      -2.859   8.308  14.733  1.00  0.00     0.091 C 
HETATM   16  C14 UNL     1      -3.928   7.394  14.123  1.00  0.00     0.005 C 
HETATM   17  C15 UNL     1      -4.663   8.152  12.984  1.00  0.00     0.019 C 
HETATM   18  C16 UNL     1      -3.205   6.110  13.634  1.00  0.00     0.002 C 
HETATM   19  C17 UNL     1      -4.345   5.149  13.326  1.00  0.00     0.009 C 
HETATM   20  C18 UNL     1      -5.431   5.493  14.362  1.00  0.00     0.047 C 
HETATM   21  C19 UNL     1      -4.948   6.767  15.119  1.00  0.00     0.128 C 
ENDROOT
BRANCH  21  22
HETATM   22  O3  UNL     1      -4.245   6.311  16.278  1.00  0.00    -0.381 OA
HETATM   23  H25 UNL     1      -4.906   5.869  16.853  1.00  0.00     0.211 HD
ENDBRANCH  21  22
BRANCH  21  24
HETATM   24  C20 UNL     1      -6.133   7.682  15.518  1.00  0.00     0.185 C 
HETATM   25  O4  UNL     1      -6.057   8.913  15.433  1.00  0.00    -0.292 OA
BRANCH  24  26
HETATM   26  C21 UNL     1      -7.403   7.049  16.110  1.00  0.00     0.260 C 
BRANCH  26  27
HETATM   27  O5  UNL     1      -8.156   6.067  15.413  1.00  0.00    -0.314 OA
BRANCH  27  28
HETATM   28  C22 UNL     1      -8.960   6.543  14.424  1.00  0.00     0.259 C 
HETATM   29  O6  UNL     1      -8.747   6.398  13.227  1.00  0.00    -0.265 OA
BRANCH  28  30
HETATM   30  C23 UNL     1     -10.165   7.230  15.020  1.00  0.00     0.120 C 
BRANCH  30  31
HETATM   31  C24 UNL     1     -10.032   8.748  14.932  1.00  0.00     0.112 C 
BRANCH  31  32
HETATM   32  C25 UNL     1     -11.373   9.432  15.127  1.00  0.00     0.218 C 
HETATM   33  O7  UNL     1     -11.472  10.607  15.462  1.00  0.00    -0.274 OA
HETATM   34  N1  UNL     1     -12.448   8.601  14.908  1.00  0.00    -0.357 N 
HETATM   35  H32 UNL     1     -12.278   7.682  14.516  1.00  0.00     0.162 HD
BRANCH  34  36
HETATM   36  C26 UNL     1     -13.787   9.128  14.759  1.00  0.00     0.161 C 
BRANCH  36  37
HETATM   37  C27 UNL     1     -14.618   8.199  13.913  1.00  0.00    -0.038 A 
HETATM   38  C28 UNL     1     -15.087   8.589  12.655  1.00  0.00     0.025 A 
HETATM   39  C29 UNL     1     -15.883   7.706  11.941  1.00  0.00     0.088 A 
HETATM   40  N2  UNL     1     -16.247   6.486  12.390  1.00  0.00    -0.375 N 
HETATM   41  C30 UNL     1     -15.793   6.131  13.611  1.00  0.00     0.088 A 
ATOM     42  H2  UNL     1     -16.836   5.864  11.835  1.00  0.00     0.164 HD
HETATM   43  C31 UNL     1     -14.982   6.937  14.394  1.00  0.00     0.025 A 
ENDBRANCH  36  37
ENDBRANCH  34  36
ENDBRANCH  31  32
ENDBRANCH  30  31
ENDBRANCH  28  30
ENDBRANCH  27  28
ENDBRANCH  26  27
ENDBRANCH  24  26
ENDBRANCH  21  24
TORSDOF 10
ENDMDL
MODEL 4
REMARK minimizedAffinity -8.25820732
REMARK CNNscore 0.358631402
REMARK CNNaffinity 6.77124977
REMARK  10 active torsions:
REMARK  status: ('A' for Active; 'I' for Inactive)
REMARK    1  A    between atoms: C19_21  and  O3_22 
REMARK    2  A    between atoms: C19_21  and  C20_23 
REMARK    3  A    between atoms: C20_23  and  C21_25 
REMARK    4  A    between atoms: C21_25  and  O5_26 
REMARK    5  A    between atoms: O5_26  and  C22_27 
REMARK    6  A    between atoms: C22_27  and  C23_29 
REMARK    7  A    between atoms: C23_29  and  C24_30 
REMARK    8  A    between atoms: C24_30  and  C25_31 
REMARK       I    between atoms: C25_31  and  N1_33 
REMARK    9  A    between atoms: N1_33  and  C26_34 
REMARK   10  A    between atoms: C26_34  and  C27_35 
ROOT
HETATM    1  C1  UNL     1      -4.715   3.947  10.078  1.00  0.00     0.021 C 
HETATM    2  C2  UNL     1      -4.496   3.428  11.518  1.00  0.00    -0.009 C 
HETATM    3  C3  UNL     1      -4.495   1.869  11.517  1.00  0.00     0.022 C 
HETATM    4  C4  UNL     1      -5.870   1.249  11.314  1.00  0.00     0.084 C 
HETATM    5  C5  UNL     1      -6.834   1.769  12.347  1.00  0.00     0.149 C 
HETATM    6  O1  UNL     1      -7.764   1.094  12.778  1.00  0.00    -0.293 OA
HETATM    7  C6  UNL     1      -6.689   3.176  12.785  1.00  0.00     0.053 C 
HETATM    8  C7  UNL     1      -5.663   3.943  12.380  1.00  0.00    -0.067 C 
HETATM    9  C8  UNL     1      -5.641   5.407  12.752  1.00  0.00     0.035 C 
HETATM   10  C9  UNL     1      -4.306   5.819  13.362  1.00  0.00     0.010 C 
HETATM   11  C10 UNL     1      -3.136   5.458  12.437  1.00  0.00     0.003 C 
HETATM   12  C11 UNL     1      -3.143   3.930  12.142  1.00  0.00     0.072 C 
HETATM   13  C12 UNL     1      -1.867   3.546  11.368  1.00  0.00     0.133 C 
HETATM   14  O2  UNL     1      -1.870   2.861  10.348  1.00  0.00    -0.297 OA
HETATM   15  C13 UNL     1      -0.542   4.004  11.964  1.00  0.00     0.091 C 
HETATM   16  C14 UNL     1      -0.567   5.523  12.170  1.00  0.00     0.005 C 
HETATM   17  C15 UNL     1      -0.625   6.227  10.787  1.00  0.00     0.019 C 
HETATM   18  C16 UNL     1      -1.791   5.842  13.069  1.00  0.00     0.002 C 
HETATM   19  C17 UNL     1      -1.577   7.296  13.467  1.00  0.00     0.009 C 
HETATM   20  C18 UNL     1      -0.048   7.448  13.569  1.00  0.00     0.047 C 
HETATM   21  C19 UNL     1       0.574   6.117  13.047  1.00  0.00     0.128 C 
ENDROOT
BRANCH  21  22
HETATM   22  O3  UNL     1       0.766   5.281  14.190  1.00  0.00    -0.381 OA
HETATM   23  H25 UNL     1       1.446   5.716  14.748  1.00  0.00     0.211 HD
ENDBRANCH  21  22
BRANCH  21  24
HETATM   24  C20 UNL     1       1.917   6.361  12.312  1.00  0.00     0.185 C 
HETATM   25  O4  UNL     1       2.341   5.573  11.459  1.00  0.00    -0.292 OA
BRANCH  24  26
HETATM   26  C21 UNL     1       2.781   7.569  12.709  1.00  0.00     0.260 C 
BRANCH  26  27
HETATM   27  O5  UNL     1       3.574   8.277  11.768  1.00  0.00    -0.314 OA
BRANCH  27  28
HETATM   28  C22 UNL     1       4.820   8.619  12.194  1.00  0.00     0.259 C 
HETATM   29  O6  UNL     1       5.190   9.766  12.406  1.00  0.00    -0.265 OA
BRANCH  28  30
HETATM   30  C23 UNL     1       5.652   7.378  12.410  1.00  0.00     0.120 C 
BRANCH  30  31
HETATM   31  C24 UNL     1       6.363   7.421  13.760  1.00  0.00     0.112 C 
BRANCH  31  32
HETATM   32  C25 UNL     1       7.689   8.153  13.663  1.00  0.00     0.218 C 
HETATM   33  O7  UNL     1       8.641   7.713  13.027  1.00  0.00    -0.274 OA
HETATM   34  N1  UNL     1       7.715   9.334  14.369  1.00  0.00    -0.357 N 
HETATM   35  H32 UNL     1       6.849   9.681  14.763  1.00  0.00     0.162 HD
BRANCH  34  36
HETATM   36  C26 UNL     1       8.768  10.306  14.168  1.00  0.00     0.161 C 
BRANCH  36  37
HETATM   37  C27 UNL     1       9.565  10.475  15.435  1.00  0.00    -0.038 A 
HETATM   38  C28 UNL     1       9.166   9.868  16.628  1.00  0.00     0.025 A 
HETATM   39  C29 UNL     1       9.916  10.095  17.772  1.00  0.00     0.088 A 
HETATM   40  N2  UNL     1      11.014  10.881  17.811  1.00  0.00    -0.375 N 
HETATM   41  C30 UNL     1      11.379  11.467  16.650  1.00  0.00     0.088 A 
ATOM     42  H2  UNL     1      11.541  11.025  18.673  1.00  0.00     0.164 HD
HETATM   43  C31 UNL     1      10.702  11.291  15.454  1.00  0.00     0.025 A 
ENDBRANCH  36  37
ENDBRANCH  34  36
ENDBRANCH  31  32
ENDBRANCH  30  31
ENDBRANCH  28  30
ENDBRANCH  27  28
ENDBRANCH  26  27
ENDBRANCH  24  26
ENDBRANCH  21  24
TORSDOF 10
ENDMDL
MODEL 5
REMARK minimizedAffinity -7.5427351
REMARK CNNscore 0.344710946
REMARK CNNaffinity 6.03924799
REMARK  10 active torsions:
REMARK  status: ('A' for Active; 'I' for Inactive)
REMARK    1  A    between atoms: C19_21  and  O3_22 
REMARK    2  A    between atoms: C19_21  and  C20_23 
REMARK    3  A    between atoms: C20_23  and  C21_25 
REMARK    4  A    between atoms: C21_25  and  O5_26 
REMARK    5  A    between atoms: O5_26  and  C22_27 
REMARK    6  A    between atoms: C22_27  and  C23_29 
REMARK    7  A    between atoms: C23_29  and  C24_30 
REMARK    8  A    between atoms: C24_30  and  C25_31 
REMARK       I    between atoms: C25_31  and  N1_33 
REMARK    9  A    between atoms: N1_33  and  C26_34 
REMARK   10  A    between atoms: C26_34  and  C27_35 
ROOT
HETATM    1  C1  UNL     1       3.544  11.470  23.170  1.00  0.00     0.021 C 
HETATM    2  C2  UNL     1       4.160  12.384  22.086  1.00  0.00    -0.009 C 
HETATM    3  C3  UNL     1       5.603  11.897  21.751  1.00  0.00     0.022 C 
HETATM    4  C4  UNL     1       6.625  12.199  22.837  1.00  0.00     0.084 C 
HETATM    5  C5  UNL     1       6.632  13.671  23.153  1.00  0.00     0.149 C 
HETATM    6  O1  UNL     1       7.644  14.262  23.519  1.00  0.00    -0.293 OA
HETATM    7  C6  UNL     1       5.343  14.398  23.096  1.00  0.00     0.053 C 
HETATM    8  C7  UNL     1       4.216  13.812  22.659  1.00  0.00    -0.067 C 
HETATM    9  C8  UNL     1       2.908  14.562  22.749  1.00  0.00     0.035 C 
HETATM   10  C9  UNL     1       2.151  14.548  21.426  1.00  0.00     0.010 C 
HETATM   11  C10 UNL     1       1.942  13.116  20.918  1.00  0.00     0.003 C 
HETATM   12  C11 UNL     1       3.316  12.402  20.759  1.00  0.00     0.072 C 
HETATM   13  C12 UNL     1       3.114  11.034  20.078  1.00  0.00     0.133 C 
HETATM   14  O2  UNL     1       3.599   9.986  20.498  1.00  0.00    -0.297 OA
HETATM   15  C13 UNL     1       2.317  11.028  18.780  1.00  0.00     0.091 C 
HETATM   16  C14 UNL     1       0.949  11.681  19.012  1.00  0.00     0.005 C 
HETATM   17  C15 UNL     1       0.114  10.794  19.975  1.00  0.00     0.019 C 
HETATM   18  C16 UNL     1       1.212  13.106  19.568  1.00  0.00     0.002 C 
HETATM   19  C17 UNL     1      -0.150  13.782  19.488  1.00  0.00     0.009 C 
HETATM   20  C18 UNL     1      -0.807  13.178  18.234  1.00  0.00     0.047 C 
HETATM   21  C19 UNL     1       0.131  12.037  17.736  1.00  0.00     0.128 C 
ENDROOT
BRANCH  21  22
HETATM   22  O3  UNL     1       1.007  12.622  16.770  1.00  0.00    -0.381 OA
HETATM   23  H25 UNL     1       0.449  12.888  16.007  1.00  0.00     0.211 HD
ENDBRANCH  21  22
BRANCH  21  24
HETATM   24  C20 UNL     1      -0.671  10.865  17.114  1.00  0.00     0.185 C 
HETATM   25  O4  UNL     1      -1.848  10.649  17.424  1.00  0.00    -0.292 OA
BRANCH  24  26
HETATM   26  C21 UNL     1       0.039   9.899  16.151  1.00  0.00     0.260 C 
BRANCH  26  27
HETATM   27  O5  UNL     1       1.384  10.092  15.738  1.00  0.00    -0.314 OA
BRANCH  27  28
HETATM   28  C22 UNL     1       2.240   9.082  16.053  1.00  0.00     0.259 C 
HETATM   29  O6  UNL     1       2.381   8.618  17.176  1.00  0.00    -0.265 OA
BRANCH  28  30
HETATM   30  C23 UNL     1       2.946   8.595  14.811  1.00  0.00     0.120 C 
BRANCH  30  31
HETATM   31  C24 UNL     1       2.379   9.259  13.559  1.00  0.00     0.112 C 
BRANCH  31  32
HETATM   32  C25 UNL     1       1.968   8.227  12.525  1.00  0.00     0.218 C 
HETATM   33  O7  UNL     1       2.617   7.207  12.316  1.00  0.00    -0.274 OA
HETATM   34  N1  UNL     1       0.818   8.560  11.846  1.00  0.00    -0.357 N 
HETATM   35  H32 UNL     1       0.280   9.356  12.167  1.00  0.00     0.162 HD
BRANCH  34  36
HETATM   36  C26 UNL     1       0.113   7.586  11.041  1.00  0.00     0.161 C 
BRANCH  36  37
HETATM   37  C27 UNL     1       0.854   7.344   9.752  1.00  0.00    -0.038 A 
HETATM   38  C28 UNL     1       1.756   6.285   9.623  1.00  0.00     0.025 A 
HETATM   39  C29 UNL     1       2.441   6.138   8.427  1.00  0.00     0.088 A 
HETATM   40  N2  UNL     1       2.299   6.966   7.369  1.00  0.00    -0.375 N 
HETATM   41  C30 UNL     1       1.430   7.989   7.516  1.00  0.00     0.088 A 
ATOM     42  H2  UNL     1       2.821   6.826   6.504  1.00  0.00     0.164 HD
HETATM   43  C31 UNL     1       0.691   8.212   8.667  1.00  0.00     0.025 A 
ENDBRANCH  36  37
ENDBRANCH  34  36
ENDBRANCH  31  32
ENDBRANCH  30  31
ENDBRANCH  28  30
ENDBRANCH  27  28
ENDBRANCH  26  27
ENDBRANCH  24  26
ENDBRANCH  21  24
TORSDOF 10
ENDMDL
MODEL 6
REMARK minimizedAffinity -9.37292957
REMARK CNNscore 0.314854801
REMARK CNNaffinity 7.21233511
REMARK  10 active torsions:
REMARK  status: ('A' for Active; 'I' for Inactive)
REMARK    1  A    between atoms: C19_21  and  O3_22 
REMARK    2  A    between atoms: C19_21  and  C20_23 
REMARK    3  A    between atoms: C20_23  and  C21_25 
REMARK    4  A    between atoms: C21_25  and  O5_26 
REMARK    5  A    between atoms: O5_26  and  C22_27 
REMARK    6  A    between atoms: C22_27  and  C23_29 
REMARK    7  A    between atoms: C23_29  and  C24_30 
REMARK    8  A    between atoms: C24_30  and  C25_31 
REMARK       I    between atoms: C25_31  and  N1_33 
REMARK    9  A    between atoms: N1_33  and  C26_34 
REMARK   10  A    between atoms: C26_34  and  C27_35 
ROOT
HETATM    1  C1  UNL     1       0.138   8.384  10.484  1.00  0.00     0.021 C 
HETATM    2  C2  UNL     1       0.717   7.718  11.753  1.00  0.00    -0.009 C 
HETATM    3  C3  UNL     1       1.905   8.570  12.296  1.00  0.00     0.022 C 
HETATM    4  C4  UNL     1       3.169   8.474  11.455  1.00  0.00     0.084 C 
HETATM    5  C5  UNL     1       3.587   7.036  11.302  1.00  0.00     0.149 C 
HETATM    6  O1  UNL     1       4.763   6.699  11.194  1.00  0.00    -0.293 OA
HETATM    7  C6  UNL     1       2.522   6.013  11.196  1.00  0.00     0.053 C 
HETATM    8  C7  UNL     1       1.224   6.320  11.354  1.00  0.00    -0.067 C 
HETATM    9  C8  UNL     1       0.176   5.261  11.103  1.00  0.00     0.035 C 
HETATM   10  C9  UNL     1      -0.817   5.158  12.255  1.00  0.00     0.010 C 
HETATM   11  C10 UNL     1      -1.457   6.518  12.562  1.00  0.00     0.003 C 
HETATM   12  C11 UNL     1      -0.352   7.563  12.896  1.00  0.00     0.072 C 
HETATM   13  C12 UNL     1      -1.005   8.872  13.380  1.00  0.00     0.133 C 
HETATM   14  O2  UNL     1      -0.706   9.983  12.950  1.00  0.00    -0.297 OA
HETATM   15  C13 UNL     1      -2.030   8.750  14.501  1.00  0.00     0.091 C 
HETATM   16  C14 UNL     1      -3.128   7.762  14.090  1.00  0.00     0.005 C 
HETATM   17  C15 UNL     1      -3.934   8.354  12.902  1.00  0.00     0.019 C 
HETATM   18  C16 UNL     1      -2.429   6.420  13.745  1.00  0.00     0.002 C 
HETATM   19  C17 UNL     1      -3.580   5.429  13.643  1.00  0.00     0.009 C 
HETATM   20  C18 UNL     1      -4.604   5.918  14.684  1.00  0.00     0.047 C 
HETATM   21  C19 UNL     1      -4.084   7.284  15.224  1.00  0.00     0.128 C 
ENDROOT
BRANCH  21  22
HETATM   22  O3  UNL     1      -3.311   6.994  16.391  1.00  0.00    -0.381 OA
HETATM   23  H25 UNL     1      -3.935   6.639  17.061  1.00  0.00     0.211 HD
ENDBRANCH  21  22
BRANCH  21  24
HETATM   24  C20 UNL     1      -5.248   8.250  15.560  1.00  0.00     0.185 C 
HETATM   25  O4  UNL     1      -5.053   9.453  15.765  1.00  0.00    -0.292 OA
BRANCH  24  26
HETATM   26  C21 UNL     1      -6.668   7.684  15.722  1.00  0.00     0.260 C 
BRANCH  26  27
HETATM   27  O5  UNL     1      -7.704   7.957  14.790  1.00  0.00    -0.314 OA
BRANCH  27  28
HETATM   28  C22 UNL     1      -8.436   6.878  14.401  1.00  0.00     0.259 C 
HETATM   29  O6  UNL     1      -9.433   6.470  14.983  1.00  0.00    -0.265 OA
BRANCH  28  30
HETATM   30  C23 UNL     1      -7.866   6.295  13.130  1.00  0.00     0.120 C 
BRANCH  30  31
HETATM   31  C24 UNL     1      -8.503   4.945  12.811  1.00  0.00     0.112 C 
BRANCH  31  32
HETATM   32  C25 UNL     1      -7.534   3.804  13.064  1.00  0.00     0.218 C 
HETATM   33  O7  UNL     1      -7.334   3.344  14.183  1.00  0.00    -0.274 OA
HETATM   34  N1  UNL     1      -6.901   3.361  11.926  1.00  0.00    -0.357 N 
HETATM   35  H32 UNL     1      -7.216   3.711  11.029  1.00  0.00     0.162 HD
BRANCH  34  36
HETATM   36  C26 UNL     1      -6.174   2.110  11.910  1.00  0.00     0.161 C 
BRANCH  36  37
HETATM   37  C27 UNL     1      -4.767   2.335  11.421  1.00  0.00    -0.038 A 
HETATM   38  C28 UNL     1      -4.459   3.394  10.564  1.00  0.00     0.025 A 
HETATM   39  C29 UNL     1      -3.154   3.526  10.113  1.00  0.00     0.088 A 
HETATM   40  N2  UNL     1      -2.153   2.682  10.444  1.00  0.00    -0.375 N 
HETATM   41  C30 UNL     1      -2.472   1.659  11.265  1.00  0.00     0.088 A 
ATOM     42  H2  UNL     1      -1.204   2.811  10.092  1.00  0.00     0.164 HD
HETATM   43  C31 UNL     1      -3.743   1.451  11.778  1.00  0.00     0.025 A 
ENDBRANCH  36  37
ENDBRANCH  34  36
ENDBRANCH  31  32
ENDBRANCH  30  31
ENDBRANCH  28  30
ENDBRANCH  27  28
ENDBRANCH  26  27
ENDBRANCH  24  26
ENDBRANCH  21  24
TORSDOF 10
ENDMDL
MODEL 7
REMARK minimizedAffinity -7.45503569
REMARK CNNscore 0.287708521
REMARK CNNaffinity 6.58833551
REMARK  10 active torsions:
REMARK  status: ('A' for Active; 'I' for Inactive)
REMARK    1  A    between atoms: C19_21  and  O3_22 
REMARK    2  A    between atoms: C19_21  and  C20_23 
REMARK    3  A    between atoms: C20_23  and  C21_25 
REMARK    4  A    between atoms: C21_25  and  O5_26 
REMARK    5  A    between atoms: O5_26  and  C22_27 
REMARK    6  A    between atoms: C22_27  and  C23_29 
REMARK    7  A    between atoms: C23_29  and  C24_30 
REMARK    8  A    between atoms: C24_30  and  C25_31 
REMARK       I    between atoms: C25_31  and  N1_33 
REMARK    9  A    between atoms: N1_33  and  C26_34 
REMARK   10  A    between atoms: C26_34  and  C27_35 
ROOT
HETATM    1  C1  UNL     1      -1.320   6.002  10.893  1.00  0.00     0.021 C 
HETATM    2  C2  UNL     1      -1.413   5.147  12.178  1.00  0.00    -0.009 C 
HETATM    3  C3  UNL     1      -0.063   4.401  12.408  1.00  0.00     0.022 C 
HETATM    4  C4  UNL     1       0.179   3.248  11.446  1.00  0.00     0.084 C 
HETATM    5  C5  UNL     1      -0.969   2.275  11.497  1.00  0.00     0.149 C 
HETATM    6  O1  UNL     1      -0.822   1.072  11.304  1.00  0.00    -0.293 OA
HETATM    7  C6  UNL     1      -2.330   2.819  11.708  1.00  0.00     0.053 C 
HETATM    8  C7  UNL     1      -2.542   4.120  11.970  1.00  0.00    -0.067 C 
HETATM    9  C8  UNL     1      -3.959   4.640  12.044  1.00  0.00     0.035 C 
HETATM   10  C9  UNL     1      -4.202   5.451  13.311  1.00  0.00     0.010 C 
HETATM   11  C10 UNL     1      -3.181   6.586  13.451  1.00  0.00     0.003 C 
HETATM   12  C11 UNL     1      -1.737   6.006  13.454  1.00  0.00     0.072 C 
HETATM   13  C12 UNL     1      -0.728   7.125  13.779  1.00  0.00     0.133 C 
HETATM   14  O2  UNL     1       0.291   7.334  13.125  1.00  0.00    -0.297 OA
HETATM   15  C13 UNL     1      -1.009   7.958  15.023  1.00  0.00     0.091 C 
HETATM   16  C14 UNL     1      -2.416   8.560  14.933  1.00  0.00     0.005 C 
HETATM   17  C15 UNL     1      -2.462   9.587  13.770  1.00  0.00     0.019 C 
HETATM   18  C16 UNL     1      -3.406   7.379  14.746  1.00  0.00     0.002 C 
HETATM   19  C17 UNL     1      -4.772   8.015  14.965  1.00  0.00     0.009 C 
HETATM   20  C18 UNL     1      -4.525   9.106  16.023  1.00  0.00     0.047 C 
HETATM   21  C19 UNL     1      -2.983   9.181  16.244  1.00  0.00     0.128 C 
ENDROOT
BRANCH  21  22
HETATM   22  O3  UNL     1      -2.685   8.311  17.338  1.00  0.00    -0.381 OA
HETATM   23  H25 UNL     1      -3.109   8.701  18.134  1.00  0.00     0.211 HD
ENDBRANCH  21  22
BRANCH  21  24
HETATM   24  C20 UNL     1      -2.517  10.627  16.548  1.00  0.00     0.185 C 
HETATM   25  O4  UNL     1      -3.039  11.605  16.001  1.00  0.00    -0.292 OA
BRANCH  24  26
HETATM   26  C21 UNL     1      -1.323  10.847  17.491  1.00  0.00     0.260 C 
BRANCH  26  27
HETATM   27  O5  UNL     1      -1.340  11.824  18.522  1.00  0.00    -0.314 OA
BRANCH  27  28
HETATM   28  C22 UNL     1      -0.359  11.702  19.456  1.00  0.00     0.259 C 
HETATM   29  O6  UNL     1      -0.064  10.656  20.019  1.00  0.00    -0.265 OA
BRANCH  28  30
HETATM   30  C23 UNL     1       0.335  13.028  19.656  1.00  0.00     0.120 C 
BRANCH  30  31
HETATM   31  C24 UNL     1       1.377  13.273  18.567  1.00  0.00     0.112 C 
BRANCH  31  32
HETATM   32  C25 UNL     1       2.726  12.698  18.955  1.00  0.00     0.218 C 
HETATM   33  O7  UNL     1       3.786  13.218  18.622  1.00  0.00    -0.274 OA
HETATM   34  N1  UNL     1       2.636  11.540  19.692  1.00  0.00    -0.357 N 
HETATM   35  H32 UNL     1       1.726  11.248  20.026  1.00  0.00     0.162 HD
BRANCH  34  36
HETATM   36  C26 UNL     1       3.783  11.006  20.396  1.00  0.00     0.161 C 
BRANCH  36  37
HETATM   37  C27 UNL     1       3.343  10.344  21.676  1.00  0.00    -0.038 A 
HETATM   38  C28 UNL     1       3.318  11.047  22.883  1.00  0.00     0.025 A 
HETATM   39  C29 UNL     1       2.945  10.373  24.036  1.00  0.00     0.088 A 
HETATM   40  N2  UNL     1       2.610   9.065  24.070  1.00  0.00    -0.375 N 
HETATM   41  C30 UNL     1       2.648   8.400  22.896  1.00  0.00     0.088 A 
ATOM     42  H2  UNL     1       2.340   8.603  24.939  1.00  0.00     0.164 HD
HETATM   43  C31 UNL     1       2.996   8.989  21.690  1.00  0.00     0.025 A 
ENDBRANCH  36  37
ENDBRANCH  34  36
ENDBRANCH  31  32
ENDBRANCH  30  31
ENDBRANCH  28  30
ENDBRANCH  27  28
ENDBRANCH  26  27
ENDBRANCH  24  26
ENDBRANCH  21  24
TORSDOF 10
ENDMDL
MODEL 8
REMARK minimizedAffinity -9.37326717
REMARK CNNscore 0.245194972
REMARK CNNaffinity 6.35246849
REMARK  10 active torsions:
REMARK  status: ('A' for Active; 'I' for Inactive)
REMARK    1  A    between atoms: C19_21  and  O3_22 
REMARK    2  A    between atoms: C19_21  and  C20_23 
REMARK    3  A    between atoms: C20_23  and  C21_25 
REMARK    4  A    between atoms: C21_25  and  O5_26 
REMARK    5  A    between atoms: O5_26  and  C22_27 
REMARK    6  A    between atoms: C22_27  and  C23_29 
REMARK    7  A    between atoms: C23_29  and  C24_30 
REMARK    8  A    between atoms: C24_30  and  C25_31 
REMARK       I    between atoms: C25_31  and  N1_33 
REMARK    9  A    between atoms: N1_33  and  C26_34 
REMARK   10  A    between atoms: C26_34  and  C27_35 
ROOT
HETATM    1  C1  UNL     1      -3.494   6.107  15.179  1.00  0.00     0.021 C 
HETATM    2  C2  UNL     1      -3.870   6.284  13.690  1.00  0.00    -0.009 C 
HETATM    3  C3  UNL     1      -4.793   7.530  13.528  1.00  0.00     0.022 C 
HETATM    4  C4  UNL     1      -6.209   7.322  14.044  1.00  0.00     0.084 C 
HETATM    5  C5  UNL     1      -6.834   6.122  13.384  1.00  0.00     0.149 C 
HETATM    6  O1  UNL     1      -8.039   6.044  13.164  1.00  0.00    -0.293 OA
HETATM    7  C6  UNL     1      -5.959   4.969  13.073  1.00  0.00     0.053 C 
HETATM    8  C7  UNL     1      -4.629   5.018  13.250  1.00  0.00    -0.067 C 
HETATM    9  C8  UNL     1      -3.806   3.769  13.041  1.00  0.00     0.035 C 
HETATM   10  C9  UNL     1      -2.612   4.019  12.127  1.00  0.00     0.010 C 
HETATM   11  C10 UNL     1      -1.750   5.178  12.642  1.00  0.00     0.003 C 
HETATM   12  C11 UNL     1      -2.611   6.468  12.766  1.00  0.00     0.072 C 
HETATM   13  C12 UNL     1      -1.704   7.667  13.106  1.00  0.00     0.133 C 
HETATM   14  O2  UNL     1      -1.941   8.467  14.008  1.00  0.00    -0.297 OA
HETATM   15  C13 UNL     1      -0.488   7.879  12.212  1.00  0.00     0.091 C 
HETATM   16  C14 UNL     1       0.358   6.601  12.182  1.00  0.00     0.005 C 
HETATM   17  C15 UNL     1       0.961   6.351  13.591  1.00  0.00     0.019 C 
HETATM   18  C16 UNL     1      -0.568   5.451  11.701  1.00  0.00     0.002 C 
HETATM   19  C17 UNL     1       0.395   4.308  11.413  1.00  0.00     0.009 C 
HETATM   20  C18 UNL     1       1.672   4.999  10.902  1.00  0.00     0.047 C 
HETATM   21  C19 UNL     1       1.462   6.533  11.086  1.00  0.00     0.128 C 
ENDROOT
BRANCH  21  22
HETATM   22  O3  UNL     1       0.926   7.021   9.854  1.00  0.00    -0.381 OA
HETATM   23  H25 UNL     1       1.627   6.907   9.176  1.00  0.00     0.211 HD
ENDBRANCH  21  22
BRANCH  21  24
HETATM   24  C20 UNL     1       2.788   7.256  11.435  1.00  0.00     0.185 C 
HETATM   25  O4  UNL     1       2.796   8.388  11.930  1.00  0.00    -0.292 OA
BRANCH  24  26
HETATM   26  C21 UNL     1       4.124   6.584  11.082  1.00  0.00     0.260 C 
BRANCH  26  27
HETATM   27  O5  UNL     1       5.136   7.250  10.340  1.00  0.00    -0.314 OA
BRANCH  27  28
HETATM   28  C22 UNL     1       6.375   7.235  10.901  1.00  0.00     0.259 C 
HETATM   29  O6  UNL     1       7.292   6.510  10.536  1.00  0.00    -0.265 OA
BRANCH  28  30
HETATM   30  C23 UNL     1       6.461   8.268  11.998  1.00  0.00     0.120 C 
BRANCH  30  31
HETATM   31  C24 UNL     1       6.644   7.608  13.362  1.00  0.00     0.112 C 
BRANCH  31  32
HETATM   32  C25 UNL     1       8.031   7.867  13.919  1.00  0.00     0.218 C 
HETATM   33  O7  UNL     1       8.965   8.241  13.218  1.00  0.00    -0.274 OA
HETATM   34  N1  UNL     1       8.133   7.623  15.270  1.00  0.00    -0.357 N 
HETATM   35  H32 UNL     1       7.286   7.436  15.793  1.00  0.00     0.162 HD
BRANCH  34  36
HETATM   36  C26 UNL     1       9.274   8.082  16.032  1.00  0.00     0.161 C 
BRANCH  36  37
HETATM   37  C27 UNL     1       8.895   9.282  16.860  1.00  0.00    -0.038 A 
HETATM   38  C28 UNL     1       9.836   9.938  17.658  1.00  0.00     0.025 A 
HETATM   39  C29 UNL     1       9.418  11.011  18.431  1.00  0.00     0.088 A 
HETATM   40  N2  UNL     1       8.146  11.462  18.471  1.00  0.00    -0.375 N 
HETATM   41  C30 UNL     1       7.249  10.810  17.700  1.00  0.00     0.088 A 
ATOM     42  H2  UNL     1       7.876  12.256  19.053  1.00  0.00     0.164 HD
HETATM   43  C31 UNL     1       7.572   9.737  16.885  1.00  0.00     0.025 A 
ENDBRANCH  36  37
ENDBRANCH  34  36
ENDBRANCH  31  32
ENDBRANCH  30  31
ENDBRANCH  28  30
ENDBRANCH  27  28
ENDBRANCH  26  27
ENDBRANCH  24  26
ENDBRANCH  21  24
TORSDOF 10
ENDMDL
MODEL 9
REMARK minimizedAffinity -9.51289654
REMARK CNNscore 0.234557822
REMARK CNNaffinity 6.56310797
REMARK  10 active torsions:
REMARK  status: ('A' for Active; 'I' for Inactive)
REMARK    1  A    between atoms: C19_21  and  O3_22 
REMARK    2  A    between atoms: C19_21  and  C20_23 
REMARK    3  A    between atoms: C20_23  and  C21_25 
REMARK    4  A    between atoms: C21_25  and  O5_26 
REMARK    5  A    between atoms: O5_26  and  C22_27 
REMARK    6  A    between atoms: C22_27  and  C23_29 
REMARK    7  A    between atoms: C23_29  and  C24_30 
REMARK    8  A    between atoms: C24_30  and  C25_31 
REMARK       I    between atoms: C25_31  and  N1_33 
REMARK    9  A    between atoms: N1_33  and  C26_34 
REMARK   10  A    between atoms: C26_34  and  C27_35 
ROOT
HETATM    1  C1  UNL     1      -6.298   5.534  15.781  1.00  0.00     0.021 C 
HETATM    2  C2  UNL     1      -6.404   6.137  14.362  1.00  0.00    -0.009 C 
HETATM    3  C3  UNL     1      -7.136   7.512  14.430  1.00  0.00     0.022 C 
HETATM    4  C4  UNL     1      -8.632   7.404  14.688  1.00  0.00     0.084 C 
HETATM    5  C5  UNL     1      -9.277   6.522  13.653  1.00  0.00     0.149 C 
HETATM    6  O1  UNL     1     -10.431   6.690  13.270  1.00  0.00    -0.293 OA
HETATM    7  C6  UNL     1      -8.504   5.362  13.151  1.00  0.00     0.053 C 
HETATM    8  C7  UNL     1      -7.224   5.158  13.501  1.00  0.00    -0.067 C 
HETATM    9  C8  UNL     1      -6.530   3.889  13.065  1.00  0.00     0.035 C 
HETATM   10  C9  UNL     1      -5.182   4.172  12.412  1.00  0.00     0.010 C 
HETATM   11  C10 UNL     1      -4.285   5.015  13.328  1.00  0.00     0.003 C 
HETATM   12  C11 UNL     1      -4.999   6.350  13.689  1.00  0.00     0.072 C 
HETATM   13  C12 UNL     1      -4.025   7.268  14.454  1.00  0.00     0.133 C 
HETATM   14  O2  UNL     1      -4.311   7.841  15.502  1.00  0.00    -0.297 OA
HETATM   15  C13 UNL     1      -2.664   7.506  13.812  1.00  0.00     0.091 C 
HETATM   16  C14 UNL     1      -1.979   6.161  13.541  1.00  0.00     0.005 C 
HETATM   17  C15 UNL     1      -1.647   5.474  14.893  1.00  0.00     0.019 C 
HETATM   18  C16 UNL     1      -2.943   5.329  12.653  1.00  0.00     0.002 C 
HETATM   19  C17 UNL     1      -2.086   4.160  12.188  1.00  0.00     0.009 C 
HETATM   20  C18 UNL     1      -0.671   4.750  12.050  1.00  0.00     0.047 C 
HETATM   21  C19 UNL     1      -0.727   6.200  12.616  1.00  0.00     0.128 C 
ENDROOT
BRANCH  21  22
HETATM   22  O3  UNL     1      -0.995   7.061  11.507  1.00  0.00    -0.381 OA
HETATM   23  H25 UNL     1      -0.212   7.014  10.917  1.00  0.00     0.211 HD
ENDBRANCH  21  22
BRANCH  21  24
HETATM   24  C20 UNL     1       0.600   6.597  13.313  1.00  0.00     0.185 C 
HETATM   25  O4  UNL     1       0.628   6.950  14.497  1.00  0.00    -0.292 OA
BRANCH  24  26
HETATM   26  C21 UNL     1       1.898   6.630  12.491  1.00  0.00     0.260 C 
BRANCH  26  27
HETATM   27  O5  UNL     1       1.896   6.742  11.075  1.00  0.00    -0.314 OA
BRANCH  27  28
HETATM   28  C22 UNL     1       2.712   5.872  10.421  1.00  0.00     0.259 C 
HETATM   29  O6  UNL     1       2.429   4.707  10.175  1.00  0.00    -0.265 OA
BRANCH  28  30
HETATM   30  C23 UNL     1       3.987   6.568  10.008  1.00  0.00     0.120 C 
BRANCH  30  31
HETATM   31  C24 UNL     1       5.142   6.191  10.931  1.00  0.00     0.112 C 
BRANCH  31  32
HETATM   32  C25 UNL     1       5.473   7.320  11.890  1.00  0.00     0.218 C 
HETATM   33  O7  UNL     1       5.298   8.500  11.607  1.00  0.00    -0.274 OA
HETATM   34  N1  UNL     1       5.998   6.886  13.085  1.00  0.00    -0.357 N 
HETATM   35  H32 UNL     1       5.993   5.892  13.284  1.00  0.00     0.162 HD
BRANCH  34  36
HETATM   36  C26 UNL     1       6.102   7.771  14.226  1.00  0.00     0.161 C 
BRANCH  36  37
HETATM   37  C27 UNL     1       7.549   7.965  14.600  1.00  0.00    -0.038 A 
HETATM   38  C28 UNL     1       8.560   7.905  13.638  1.00  0.00     0.025 A 
HETATM   39  C29 UNL     1       9.877   8.049  14.049  1.00  0.00     0.088 A 
HETATM   40  N2  UNL     1      10.250   8.236  15.333  1.00  0.00    -0.375 N 
HETATM   41  C30 UNL     1       9.260   8.282  16.250  1.00  0.00     0.088 A 
ATOM     42  H2  UNL     1      11.230   8.338  15.597  1.00  0.00     0.164 HD
HETATM   43  C31 UNL     1       7.915   8.161  15.936  1.00  0.00     0.025 A 
ENDBRANCH  36  37
ENDBRANCH  34  36
ENDBRANCH  31  32
ENDBRANCH  30  31
ENDBRANCH  28  30
ENDBRANCH  27  28
ENDBRANCH  26  27
ENDBRANCH  24  26
ENDBRANCH  21  24
TORSDOF 10
ENDMDL
