MODEL 1
REMARK minimizedAffinity -7.4189167
REMARK CNNscore 0.305391729
REMARK CNNaffinity 5.58298492
REMARK  11 active torsions:
REMARK  status: ('A' for Active; 'I' for Inactive)
REMARK    1  A    between atoms: C3_3  and  O1_4 
REMARK    2  A    between atoms: N1_14  and  O2_16 
REMARK    3  A    between atoms: O2_16  and  C13_17 
REMARK    4  A    between atoms: C13_17  and  C14_18 
REMARK       I    between atoms: C14_18  and  N2_20 
REMARK    5  A    between atoms: N2_20  and  C15_21 
REMARK    6  A    between atoms: C15_21  and  C16_22 
REMARK    7  A    between atoms: C15_21  and  C19_27 
REMARK    8  A    between atoms: C16_22  and  O5_24 
REMARK    9  A    between atoms: O5_24  and  C17_25 
REMARK   10  A    between atoms: C19_27  and  O6_28 
REMARK   11  A    between atoms: C19_27  and  C20_29 
ROOT
HETATM    1  C1  UNL     1       6.368  18.940  21.417  1.00  0.00     0.015 C 
HETATM    2  C2  UNL     1       5.530  18.178  21.819  1.00  0.00    -0.078 C 
HETATM    3  C3  UNL     1       4.482  17.254  22.313  1.00  0.00     0.128 C 
HETATM    4  C4  UNL     1       3.569  16.856  21.153  1.00  0.00     0.052 C 
HETATM    5  C5  UNL     1       4.258  15.663  20.489  1.00  0.00     0.010 C 
HETATM    6  C6  UNL     1       5.288  15.115  21.501  1.00  0.00     0.002 C 
HETATM    7  C7  UNL     1       5.285  13.582  21.659  1.00  0.00    -0.004 C 
HETATM    8  C8  UNL     1       5.735  12.876  20.375  1.00  0.00     0.010 C 
HETATM    9  C9  UNL     1       5.399  11.395  20.407  1.00  0.00     0.035 C 
HETATM   10  C10 UNL     1       3.902  11.295  20.382  1.00  0.00    -0.069 C 
HETATM   11  C11 UNL     1       3.284  10.780  19.302  1.00  0.00     0.030 C 
HETATM   12  C12 UNL     1       1.798  10.747  19.186  1.00  0.00     0.032 C 
HETATM   13  N1  UNL     1       1.123  10.183  18.230  1.00  0.00    -0.271 N 
ATOM     14  H1  UNL     1       0.105  10.167  18.182  1.00  0.00     0.194 HD
HETATM   15  C26 UNL     1       0.990  11.414  20.281  1.00  0.00     0.060 C 
HETATM   16  C27 UNL     1       1.803  12.434  21.073  1.00  0.00     0.020 C 
HETATM   17  C28 UNL     1       3.167  11.889  21.577  1.00  0.00    -0.016 C 
HETATM   18  C29 UNL     1       2.896  10.731  22.577  1.00  0.00     0.020 C 
HETATM   19  C30 UNL     1       4.020  12.988  22.354  1.00  0.00     0.002 C 
HETATM   20  C31 UNL     1       3.174  14.070  23.057  1.00  0.00     0.007 C 
HETATM   21  C32 UNL     1       4.038  15.116  23.759  1.00  0.00     0.014 C 
HETATM   22  C33 UNL     1       5.033  15.883  22.830  1.00  0.00     0.003 C 
HETATM   23  C34 UNL     1       6.341  16.052  23.638  1.00  0.00     0.020 C 
ENDROOT
BRANCH   3  24
HETATM   24  O1  UNL     1       3.727  17.940  23.300  1.00  0.00    -0.377 OA
HETATM   25  H2  UNL     1       4.362  18.277  23.955  1.00  0.00     0.211 HD
ENDBRANCH   3  24
BRANCH  13  26
HETATM   26  O2  UNL     1       1.966   9.597  17.272  1.00  0.00    -0.271 OA
BRANCH  26  27
HETATM   27  C13 UNL     1       1.735  10.220  16.020  1.00  0.00     0.303 C 
BRANCH  27  28
HETATM   28  C14 UNL     1       0.736   9.423  15.186  1.00  0.00     0.244 C 
HETATM   29  O3  UNL     1      -0.123   8.683  15.657  1.00  0.00    -0.271 OA
HETATM   30  N2  UNL     1       0.876   9.619  13.824  1.00  0.00    -0.343 N 
HETATM   31  H16 UNL     1       1.774   9.969  13.502  1.00  0.00     0.163 HD
BRANCH  30  32
HETATM   32  C15 UNL     1       0.168   8.753  12.859  1.00  0.00     0.217 C 
BRANCH  32  33
HETATM   33  C16 UNL     1       0.983   8.566  11.568  1.00  0.00     0.284 C 
HETATM   34  O4  UNL     1       0.545   8.764  10.441  1.00  0.00    -0.263 OA
BRANCH  33  35
HETATM   35  O5  UNL     1       2.264   8.173  11.843  1.00  0.00    -0.320 OA
BRANCH  35  36
HETATM   36  C17 UNL     1       2.413   6.853  12.387  1.00  0.00     0.174 C 
HETATM   37  C18 UNL     1       1.667   5.845  11.534  1.00  0.00     0.034 C 
ENDBRANCH  35  36
ENDBRANCH  33  35
ENDBRANCH  32  33
BRANCH  32  38
HETATM   38  C19 UNL     1      -1.256   9.284  12.564  1.00  0.00     0.183 C 
BRANCH  38  39
HETATM   39  O6  UNL     1      -1.550  10.493  13.268  1.00  0.00    -0.388 OA
HETATM   40  H24 UNL     1      -0.824  11.122  13.109  1.00  0.00     0.210 HD
ENDBRANCH  38  39
BRANCH  38  41
HETATM   41  C20 UNL     1      -2.358   8.268  12.810  1.00  0.00    -0.027 A 
HETATM   42  C21 UNL     1      -3.697   8.665  12.951  1.00  0.00     0.010 A 
HETATM   43  C22 UNL     1      -4.696   7.724  13.211  1.00  0.00     0.001 A 
HETATM   44  C23 UNL     1      -4.370   6.375  13.329  1.00  0.00     0.000 A 
HETATM   45  C24 UNL     1      -3.048   5.965  13.182  1.00  0.00     0.001 A 
HETATM   46  C25 UNL     1      -2.047   6.904  12.923  1.00  0.00     0.010 A 
ENDBRANCH  38  41
ENDBRANCH  32  38
ENDBRANCH  30  32
ENDBRANCH  27  28
ENDBRANCH  26  27
ENDBRANCH  13  26
TORSDOF 11
ENDMDL
MODEL 2
REMARK minimizedAffinity -7.39501429
REMARK CNNscore 0.249936491
REMARK CNNaffinity 5.9446559
REMARK  11 active torsions:
REMARK  status: ('A' for Active; 'I' for Inactive)
REMARK    1  A    between atoms: C3_3  and  O1_4 
REMARK    2  A    between atoms: N1_14  and  O2_16 
REMARK    3  A    between atoms: O2_16  and  C13_17 
REMARK    4  A    between atoms: C13_17  and  C14_18 
REMARK       I    between atoms: C14_18  and  N2_20 
REMARK    5  A    between atoms: N2_20  and  C15_21 
REMARK    6  A    between atoms: C15_21  and  C16_22 
REMARK    7  A    between atoms: C15_21  and  C19_27 
REMARK    8  A    between atoms: C16_22  and  O5_24 
REMARK    9  A    between atoms: O5_24  and  C17_25 
REMARK   10  A    between atoms: C19_27  and  O6_28 
REMARK   11  A    between atoms: C19_27  and  C20_29 
ROOT
HETATM    1  C1  UNL     1      -1.507   5.712  13.147  1.00  0.00     0.015 C 
HETATM    2  C2  UNL     1      -2.186   6.338  13.918  1.00  0.00    -0.078 C 
HETATM    3  C3  UNL     1      -3.023   7.092  14.881  1.00  0.00     0.128 C 
HETATM    4  C4  UNL     1      -2.166   7.518  16.073  1.00  0.00     0.052 C 
HETATM    5  C5  UNL     1      -1.521   8.839  15.654  1.00  0.00     0.010 C 
HETATM    6  C6  UNL     1      -2.330   9.376  14.453  1.00  0.00     0.002 C 
HETATM    7  C7  UNL     1      -2.681  10.875  14.530  1.00  0.00    -0.004 C 
HETATM    8  C8  UNL     1      -1.430  11.758  14.455  1.00  0.00     0.010 C 
HETATM    9  C9  UNL     1      -1.729  13.185  14.881  1.00  0.00     0.035 C 
HETATM   10  C10 UNL     1      -2.063  13.135  16.343  1.00  0.00    -0.069 C 
HETATM   11  C11 UNL     1      -1.230  13.698  17.239  1.00  0.00     0.030 C 
HETATM   12  C12 UNL     1      -1.464  13.591  18.707  1.00  0.00     0.032 C 
HETATM   13  N1  UNL     1      -0.771  14.184  19.632  1.00  0.00    -0.271 N 
ATOM     14  H1  UNL     1      -0.960  14.101  20.631  1.00  0.00     0.194 HD
HETATM   15  C26 UNL     1      -2.621  12.732  19.177  1.00  0.00     0.060 C 
HETATM   16  C27 UNL     1      -3.066  11.721  18.125  1.00  0.00     0.020 C 
HETATM   17  C28 UNL     1      -3.308  12.343  16.724  1.00  0.00    -0.016 C 
HETATM   18  C29 UNL     1      -4.484  13.353  16.829  1.00  0.00     0.020 C 
HETATM   19  C30 UNL     1      -3.720  11.259  15.630  1.00  0.00     0.002 C 
HETATM   20  C31 UNL     1      -4.452  10.027  16.200  1.00  0.00     0.007 C 
HETATM   21  C32 UNL     1      -4.795   9.005  15.118  1.00  0.00     0.014 C 
HETATM   22  C33 UNL     1      -3.571   8.448  14.323  1.00  0.00     0.003 C 
HETATM   23  C34 UNL     1      -4.028   8.326  12.850  1.00  0.00     0.020 C 
ENDROOT
BRANCH   3  24
HETATM   24  O1  UNL     1      -4.060   6.230  15.324  1.00  0.00    -0.377 OA
HETATM   25  H2  UNL     1      -4.503   5.890  14.527  1.00  0.00     0.211 HD
ENDBRANCH   3  24
BRANCH  13  26
HETATM   26  O2  UNL     1       0.272  14.953  19.090  1.00  0.00    -0.271 OA
BRANCH  26  27
HETATM   27  C13 UNL     1       1.372  14.101  18.818  1.00  0.00     0.303 C 
BRANCH  27  28
HETATM   28  C14 UNL     1       2.041  13.639  20.110  1.00  0.00     0.244 C 
HETATM   29  O3  UNL     1       1.502  13.660  21.213  1.00  0.00    -0.271 OA
HETATM   30  N2  UNL     1       3.330  13.173  19.926  1.00  0.00    -0.343 N 
HETATM   31  H16 UNL     1       3.810  13.475  19.084  1.00  0.00     0.163 HD
BRANCH  30  32
HETATM   32  C15 UNL     1       4.213  12.916  21.083  1.00  0.00     0.217 C 
BRANCH  32  33
HETATM   33  C16 UNL     1       5.391  13.904  21.120  1.00  0.00     0.284 C 
HETATM   34  O4  UNL     1       6.096  14.175  20.156  1.00  0.00    -0.263 OA
BRANCH  33  35
HETATM   35  O5  UNL     1       5.536  14.457  22.364  1.00  0.00    -0.320 OA
BRANCH  35  36
HETATM   36  C17 UNL     1       6.851  14.382  22.934  1.00  0.00     0.174 C 
HETATM   37  C18 UNL     1       7.270  12.934  23.104  1.00  0.00     0.034 C 
ENDBRANCH  35  36
ENDBRANCH  33  35
ENDBRANCH  32  33
BRANCH  32  38
HETATM   38  C19 UNL     1       4.700  11.447  21.106  1.00  0.00     0.183 C 
BRANCH  38  39
HETATM   39  O6  UNL     1       4.878  10.905  19.795  1.00  0.00    -0.388 OA
HETATM   40  H24 UNL     1       5.428  11.523  19.282  1.00  0.00     0.210 HD
ENDBRANCH  38  39
BRANCH  38  41
HETATM   41  C20 UNL     1       3.824  10.517  21.928  1.00  0.00    -0.027 A 
HETATM   42  C21 UNL     1       3.873  10.519  23.331  1.00  0.00     0.010 A 
HETATM   43  C22 UNL     1       3.088   9.635  24.073  1.00  0.00     0.001 A 
HETATM   44  C23 UNL     1       2.240   8.741  23.424  1.00  0.00     0.000 A 
HETATM   45  C24 UNL     1       2.172   8.734  22.033  1.00  0.00     0.001 A 
HETATM   46  C25 UNL     1       2.958   9.616  21.289  1.00  0.00     0.010 A 
ENDBRANCH  38  41
ENDBRANCH  32  38
ENDBRANCH  30  32
ENDBRANCH  27  28
ENDBRANCH  26  27
ENDBRANCH  13  26
TORSDOF 11
ENDMDL
MODEL 3
REMARK minimizedAffinity -9.61342525
REMARK CNNscore 0.212021083
REMARK CNNaffinity 6.81730127
REMARK  11 active torsions:
REMARK  status: ('A' for Active; 'I' for Inactive)
REMARK    1  A    between atoms: C3_3  and  O1_4 
REMARK    2  A    between atoms: N1_14  and  O2_16 
REMARK    3  A    between atoms: O2_16  and  C13_17 
REMARK    4  A    between atoms: C13_17  and  C14_18 
REMARK       I    between atoms: C14_18  and  N2_20 
REMARK    5  A    between atoms: N2_20  and  C15_21 
REMARK    6  A    between atoms: C15_21  and  C16_22 
REMARK    7  A    between atoms: C15_21  and  C19_27 
REMARK    8  A    between atoms: C16_22  and  O5_24 
REMARK    9  A    between atoms: O5_24  and  C17_25 
REMARK   10  A    between atoms: C19_27  and  O6_28 
REMARK   11  A    between atoms: C19_27  and  C20_29 
ROOT
HETATM    1  C1  UNL     1       5.938   9.826  10.705  1.00  0.00     0.015 C 
HETATM    2  C2  UNL     1       5.340   8.789  10.819  1.00  0.00    -0.078 C 
HETATM    3  C3  UNL     1       4.619   7.503  10.971  1.00  0.00     0.128 C 
HETATM    4  C4  UNL     1       4.108   7.375  12.406  1.00  0.00     0.052 C 
HETATM    5  C5  UNL     1       2.758   8.092  12.419  1.00  0.00     0.010 C 
HETATM    6  C6  UNL     1       2.305   8.230  10.949  1.00  0.00     0.002 C 
HETATM    7  C7  UNL     1       0.831   7.862  10.690  1.00  0.00    -0.004 C 
HETATM    8  C8  UNL     1      -0.130   8.835  11.383  1.00  0.00     0.010 C 
HETATM    9  C9  UNL     1      -1.544   8.283  11.429  1.00  0.00     0.035 C 
HETATM   10  C10 UNL     1      -1.508   7.086  12.334  1.00  0.00    -0.069 C 
HETATM   11  C11 UNL     1      -2.147   7.125  13.519  1.00  0.00     0.030 C 
HETATM   12  C12 UNL     1      -2.062   6.003  14.497  1.00  0.00     0.032 C 
HETATM   13  N1  UNL     1      -2.721   5.916  15.612  1.00  0.00    -0.271 N 
ATOM     14  H1  UNL     1      -2.651   5.129  16.258  1.00  0.00     0.194 HD
HETATM   15  C26 UNL     1      -1.140   4.846  14.165  1.00  0.00     0.060 C 
HETATM   16  C27 UNL     1      -0.076   5.220  13.137  1.00  0.00     0.020 C 
HETATM   17  C28 UNL     1      -0.646   5.918  11.873  1.00  0.00    -0.016 C 
HETATM   18  C29 UNL     1      -1.579   4.917  11.136  1.00  0.00     0.020 C 
HETATM   19  C30 UNL     1       0.489   6.346  10.840  1.00  0.00     0.002 C 
HETATM   20  C31 UNL     1       1.752   5.461  10.880  1.00  0.00     0.007 C 
HETATM   21  C32 UNL     1       2.821   5.932   9.896  1.00  0.00     0.014 C 
HETATM   22  C33 UNL     1       3.316   7.399  10.109  1.00  0.00     0.003 C 
HETATM   23  C34 UNL     1       3.504   8.004   8.698  1.00  0.00     0.020 C 
ENDROOT
BRANCH   3  24
HETATM   24  O1  UNL     1       5.535   6.456  10.695  1.00  0.00    -0.377 OA
HETATM   25  H2  UNL     1       5.923   6.644   9.823  1.00  0.00     0.211 HD
ENDBRANCH   3  24
BRANCH  13  26
HETATM   26  O2  UNL     1      -3.543   7.034  15.821  1.00  0.00    -0.271 OA
BRANCH  26  27
HETATM   27  C13 UNL     1      -4.471   7.125  14.753  1.00  0.00     0.303 C 
BRANCH  27  28
HETATM   28  C14 UNL     1      -5.723   6.300  15.041  1.00  0.00     0.244 C 
HETATM   29  O3  UNL     1      -6.055   5.917  16.159  1.00  0.00    -0.271 OA
HETATM   30  N2  UNL     1      -6.473   6.026  13.912  1.00  0.00    -0.343 N 
HETATM   31  H16 UNL     1      -5.994   6.086  13.019  1.00  0.00     0.163 HD
BRANCH  30  32
HETATM   32  C15 UNL     1      -7.575   5.043  13.958  1.00  0.00     0.217 C 
BRANCH  32  33
HETATM   33  C16 UNL     1      -7.103   3.649  13.513  1.00  0.00     0.284 C 
HETATM   34  O4  UNL     1      -7.744   2.617  13.677  1.00  0.00    -0.263 OA
BRANCH  33  35
HETATM   35  O5  UNL     1      -5.885   3.712  12.891  1.00  0.00    -0.320 OA
BRANCH  35  36
HETATM   36  C17 UNL     1      -5.864   3.319  11.511  1.00  0.00     0.174 C 
HETATM   37  C18 UNL     1      -5.571   1.836  11.390  1.00  0.00     0.034 C 
ENDBRANCH  35  36
ENDBRANCH  33  35
ENDBRANCH  32  33
BRANCH  32  38
HETATM   38  C19 UNL     1      -8.794   5.523  13.133  1.00  0.00     0.183 C 
BRANCH  38  39
HETATM   39  O6  UNL     1      -8.435   5.947  11.816  1.00  0.00    -0.388 OA
HETATM   40  H24 UNL     1      -7.898   5.246  11.406  1.00  0.00     0.210 HD
ENDBRANCH  38  39
BRANCH  38  41
HETATM   41  C20 UNL     1      -9.613   6.606  13.813  1.00  0.00    -0.027 A 
HETATM   42  C21 UNL     1     -10.749   7.155  13.199  1.00  0.00     0.010 A 
HETATM   43  C22 UNL     1     -11.473   8.174  13.820  1.00  0.00     0.001 A 
HETATM   44  C23 UNL     1     -11.074   8.655  15.065  1.00  0.00     0.000 A 
HETATM   45  C24 UNL     1      -9.954   8.114  15.692  1.00  0.00     0.001 A 
HETATM   46  C25 UNL     1      -9.228   7.095  15.072  1.00  0.00     0.010 A 
ENDBRANCH  38  41
ENDBRANCH  32  38
ENDBRANCH  30  32
ENDBRANCH  27  28
ENDBRANCH  26  27
ENDBRANCH  13  26
TORSDOF 11
ENDMDL
MODEL 4
REMARK minimizedAffinity -7.47153091
REMARK CNNscore 0.193613216
REMARK CNNaffinity 6.40621376
REMARK  11 active torsions:
REMARK  status: ('A' for Active; 'I' for Inactive)
REMARK    1  A    between atoms: C3_3  and  O1_4 
REMARK    2  A    between atoms: N1_14  and  O2_16 
REMARK    3  A    between atoms: O2_16  and  C13_17 
REMARK    4  A    between atoms: C13_17  and  C14_18 
REMARK       I    between atoms: C14_18  and  N2_20 
REMARK    5  A    between atoms: N2_20  and  C15_21 
REMARK    6  A    between atoms: C15_21  and  C16_22 
REMARK    7  A    between atoms: C15_21  and  C19_27 
REMARK    8  A    between atoms: C16_22  and  O5_24 
REMARK    9  A    between atoms: O5_24  and  C17_25 
REMARK   10  A    between atoms: C19_27  and  O6_28 
REMARK   11  A    between atoms: C19_27  and  C20_29 
ROOT
HETATM    1  C1  UNL     1      -7.513   3.227  13.683  1.00  0.00     0.015 C 
HETATM    2  C2  UNL     1      -7.405   4.267  14.277  1.00  0.00    -0.078 C 
HETATM    3  C3  UNL     1      -7.279   5.540  15.026  1.00  0.00     0.128 C 
HETATM    4  C4  UNL     1      -6.084   5.453  15.976  1.00  0.00     0.052 C 
HETATM    5  C5  UNL     1      -4.873   5.867  15.139  1.00  0.00     0.010 C 
HETATM    6  C6  UNL     1      -5.414   6.597  13.890  1.00  0.00     0.002 C 
HETATM    7  C7  UNL     1      -4.682   7.907  13.541  1.00  0.00    -0.004 C 
HETATM    8  C8  UNL     1      -3.229   7.654  13.122  1.00  0.00     0.010 C 
HETATM    9  C9  UNL     1      -2.417   8.938  13.123  1.00  0.00     0.035 C 
HETATM   10  C10 UNL     1      -2.320   9.383  14.553  1.00  0.00    -0.069 C 
HETATM   11  C11 UNL     1      -1.130   9.358  15.181  1.00  0.00     0.030 C 
HETATM   12  C12 UNL     1      -0.996   9.696  16.627  1.00  0.00     0.032 C 
HETATM   13  N1  UNL     1       0.120   9.794  17.284  1.00  0.00    -0.271 N 
ATOM     14  H1  UNL     1       0.183  10.037  18.273  1.00  0.00     0.194 HD
HETATM   15  C26 UNL     1      -2.265   9.969  17.409  1.00  0.00     0.060 C 
HETATM   16  C27 UNL     1      -3.505   9.383  16.738  1.00  0.00     0.020 C 
HETATM   17  C28 UNL     1      -3.633   9.749  15.235  1.00  0.00    -0.016 C 
HETATM   18  C29 UNL     1      -3.803  11.288  15.114  1.00  0.00     0.020 C 
HETATM   19  C30 UNL     1      -4.905   9.082  14.545  1.00  0.00     0.002 C 
HETATM   20  C31 UNL     1      -6.083   8.818  15.504  1.00  0.00     0.007 C 
HETATM   21  C32 UNL     1      -7.264   8.149  14.801  1.00  0.00     0.014 C 
HETATM   22  C33 UNL     1      -6.941   6.777  14.127  1.00  0.00     0.003 C 
HETATM   23  C34 UNL     1      -7.722   6.754  12.793  1.00  0.00     0.020 C 
ENDROOT
BRANCH   3  24
HETATM   24  O1  UNL     1      -8.471   5.724  15.774  1.00  0.00    -0.377 OA
HETATM   25  H2  UNL     1      -9.210   5.653  15.147  1.00  0.00     0.211 HD
ENDBRANCH   3  24
BRANCH  13  26
HETATM   26  O2  UNL     1       1.231   9.523  16.469  1.00  0.00    -0.271 OA
BRANCH  26  27
HETATM   27  C13 UNL     1       2.117  10.629  16.525  1.00  0.00     0.303 C 
BRANCH  27  28
HETATM   28  C14 UNL     1       2.324  11.094  17.964  1.00  0.00     0.244 C 
HETATM   29  O3  UNL     1       1.413  11.326  18.753  1.00  0.00    -0.271 OA
HETATM   30  N2  UNL     1       3.656  11.225  18.314  1.00  0.00    -0.343 N 
HETATM   31  H16 UNL     1       4.320  11.331  17.554  1.00  0.00     0.163 HD
BRANCH  30  32
HETATM   32  C15 UNL     1       4.044  11.893  19.573  1.00  0.00     0.217 C 
BRANCH  32  33
HETATM   33  C16 UNL     1       4.265  10.876  20.705  1.00  0.00     0.284 C 
HETATM   34  O4  UNL     1       5.124  10.983  21.571  1.00  0.00    -0.263 OA
BRANCH  33  35
HETATM   35  O5  UNL     1       3.364   9.848  20.631  1.00  0.00    -0.320 OA
BRANCH  35  36
HETATM   36  C17 UNL     1       2.376   9.804  21.672  1.00  0.00     0.174 C 
HETATM   37  C18 UNL     1       2.820   8.868  22.779  1.00  0.00     0.034 C 
ENDBRANCH  35  36
ENDBRANCH  33  35
ENDBRANCH  32  33
BRANCH  32  38
HETATM   38  C19 UNL     1       3.016  12.980  19.975  1.00  0.00     0.183 C 
BRANCH  38  39
HETATM   39  O6  UNL     1       2.803  13.945  18.942  1.00  0.00    -0.388 OA
HETATM   40  H24 UNL     1       2.611  13.468  18.115  1.00  0.00     0.210 HD
ENDBRANCH  38  39
BRANCH  38  41
HETATM   41  C20 UNL     1       3.343  13.689  21.277  1.00  0.00    -0.027 A 
HETATM   42  C21 UNL     1       2.487  13.610  22.386  1.00  0.00     0.010 A 
HETATM   43  C22 UNL     1       2.782  14.295  23.566  1.00  0.00     0.001 A 
HETATM   44  C23 UNL     1       3.939  15.065  23.654  1.00  0.00     0.000 A 
HETATM   45  C24 UNL     1       4.804  15.147  22.566  1.00  0.00     0.001 A 
HETATM   46  C25 UNL     1       4.510  14.463  21.385  1.00  0.00     0.010 A 
ENDBRANCH  38  41
ENDBRANCH  32  38
ENDBRANCH  30  32
ENDBRANCH  27  28
ENDBRANCH  26  27
ENDBRANCH  13  26
TORSDOF 11
ENDMDL
MODEL 5
REMARK minimizedAffinity -7.59673643
REMARK CNNscore 0.172953367
REMARK CNNaffinity 5.66651773
REMARK  11 active torsions:
REMARK  status: ('A' for Active; 'I' for Inactive)
REMARK    1  A    between atoms: C3_3  and  O1_4 
REMARK    2  A    between atoms: N1_14  and  O2_16 
REMARK    3  A    between atoms: O2_16  and  C13_17 
REMARK    4  A    between atoms: C13_17  and  C14_18 
REMARK       I    between atoms: C14_18  and  N2_20 
REMARK    5  A    between atoms: N2_20  and  C15_21 
REMARK    6  A    between atoms: C15_21  and  C16_22 
REMARK    7  A    between atoms: C15_21  and  C19_27 
REMARK    8  A    between atoms: C16_22  and  O5_24 
REMARK    9  A    between atoms: O5_24  and  C17_25 
REMARK   10  A    between atoms: C19_27  and  O6_28 
REMARK   11  A    between atoms: C19_27  and  C20_29 
ROOT
HETATM    1  C1  UNL     1      -0.220   8.259  10.627  1.00  0.00     0.015 C 
HETATM    2  C2  UNL     1      -0.532   8.091  11.776  1.00  0.00    -0.078 C 
HETATM    3  C3  UNL     1      -0.901   7.870  13.194  1.00  0.00     0.128 C 
HETATM    4  C4  UNL     1       0.207   8.410  14.097  1.00  0.00     0.052 C 
HETATM    5  C5  UNL     1      -0.112   9.894  14.284  1.00  0.00     0.010 C 
HETATM    6  C6  UNL     1      -1.589  10.093  13.878  1.00  0.00     0.002 C 
HETATM    7  C7  UNL     1      -2.416  10.953  14.853  1.00  0.00    -0.004 C 
HETATM    8  C8  UNL     1      -1.927  12.405  14.888  1.00  0.00     0.010 C 
HETATM    9  C9  UNL     1      -2.491  13.154  16.083  1.00  0.00     0.035 C 
HETATM   10  C10 UNL     1      -1.887  12.528  17.306  1.00  0.00    -0.069 C 
HETATM   11  C11 UNL     1      -1.019  13.231  18.058  1.00  0.00     0.030 C 
HETATM   12  C12 UNL     1      -0.317  12.624  19.225  1.00  0.00     0.032 C 
HETATM   13  N1  UNL     1       0.455  13.254  20.058  1.00  0.00    -0.271 N 
ATOM     14  H1  UNL     1       0.915  12.814  20.856  1.00  0.00     0.194 HD
HETATM   15  C26 UNL     1      -0.526  11.145  19.484  1.00  0.00     0.060 C 
HETATM   16  C27 UNL     1      -1.020  10.398  18.248  1.00  0.00     0.020 C 
HETATM   17  C28 UNL     1      -2.238  11.067  17.558  1.00  0.00    -0.016 C 
HETATM   18  C29 UNL     1      -3.438  11.043  18.544  1.00  0.00     0.020 C 
HETATM   19  C30 UNL     1      -2.700  10.297  16.241  1.00  0.00     0.002 C 
HETATM   20  C31 UNL     1      -2.395   8.785  16.249  1.00  0.00     0.007 C 
HETATM   21  C32 UNL     1      -2.828   8.101  14.953  1.00  0.00     0.014 C 
HETATM   22  C33 UNL     1      -2.168   8.667  13.655  1.00  0.00     0.003 C 
HETATM   23  C34 UNL     1      -3.273   8.673  12.572  1.00  0.00     0.020 C 
ENDROOT
BRANCH   3  24
HETATM   24  O1  UNL     1      -1.039   6.471  13.394  1.00  0.00    -0.377 OA
HETATM   25  H2  UNL     1      -1.664   6.152  12.720  1.00  0.00     0.211 HD
ENDBRANCH   3  24
BRANCH  13  26
HETATM   26  O2  UNL     1       0.579  14.613  19.729  1.00  0.00    -0.271 OA
BRANCH  26  27
HETATM   27  C13 UNL     1       1.762  15.120  20.324  1.00  0.00     0.303 C 
BRANCH  27  28
HETATM   28  C14 UNL     1       2.330  14.134  21.343  1.00  0.00     0.244 C 
HETATM   29  O3  UNL     1       1.908  14.005  22.488  1.00  0.00    -0.271 OA
HETATM   30  N2  UNL     1       3.376  13.375  20.850  1.00  0.00    -0.343 N 
HETATM   31  H16 UNL     1       3.867  13.744  20.042  1.00  0.00     0.163 HD
BRANCH  30  32
HETATM   32  C15 UNL     1       4.203  12.552  21.755  1.00  0.00     0.217 C 
BRANCH  32  33
HETATM   33  C16 UNL     1       3.357  11.494  22.483  1.00  0.00     0.284 C 
HETATM   34  O4  UNL     1       3.346  11.335  23.698  1.00  0.00    -0.263 OA
BRANCH  33  35
HETATM   35  O5  UNL     1       2.604  10.768  21.601  1.00  0.00    -0.320 OA
BRANCH  35  36
HETATM   36  C17 UNL     1       2.953   9.382  21.468  1.00  0.00     0.174 C 
HETATM   37  C18 UNL     1       2.247   8.558  22.527  1.00  0.00     0.034 C 
ENDBRANCH  35  36
ENDBRANCH  33  35
ENDBRANCH  32  33
BRANCH  32  38
HETATM   38  C19 UNL     1       4.996  13.433  22.752  1.00  0.00     0.183 C 
BRANCH  38  39
HETATM   39  O6  UNL     1       4.729  14.827  22.587  1.00  0.00    -0.388 OA
HETATM   40  H24 UNL     1       3.764  14.955  22.588  1.00  0.00     0.210 HD
ENDBRANCH  38  39
BRANCH  38  41
HETATM   41  C20 UNL     1       6.496  13.194  22.731  1.00  0.00    -0.027 A 
HETATM   42  C21 UNL     1       7.052  12.002  23.223  1.00  0.00     0.010 A 
HETATM   43  C22 UNL     1       8.435  11.810  23.230  1.00  0.00     0.001 A 
HETATM   44  C23 UNL     1       9.280  12.804  22.741  1.00  0.00     0.000 A 
HETATM   45  C24 UNL     1       8.743  13.988  22.242  1.00  0.00     0.001 A 
HETATM   46  C25 UNL     1       7.360  14.182  22.235  1.00  0.00     0.010 A 
ENDBRANCH  38  41
ENDBRANCH  32  38
ENDBRANCH  30  32
ENDBRANCH  27  28
ENDBRANCH  26  27
ENDBRANCH  13  26
TORSDOF 11
ENDMDL
MODEL 6
REMARK minimizedAffinity -8.77078056
REMARK CNNscore 0.168217599
REMARK CNNaffinity 6.97716904
REMARK  11 active torsions:
REMARK  status: ('A' for Active; 'I' for Inactive)
REMARK    1  A    between atoms: C3_3  and  O1_4 
REMARK    2  A    between atoms: N1_14  and  O2_16 
REMARK    3  A    between atoms: O2_16  and  C13_17 
REMARK    4  A    between atoms: C13_17  and  C14_18 
REMARK       I    between atoms: C14_18  and  N2_20 
REMARK    5  A    between atoms: N2_20  and  C15_21 
REMARK    6  A    between atoms: C15_21  and  C16_22 
REMARK    7  A    between atoms: C15_21  and  C19_27 
REMARK    8  A    between atoms: C16_22  and  O5_24 
REMARK    9  A    between atoms: O5_24  and  C17_25 
REMARK   10  A    between atoms: C19_27  and  O6_28 
REMARK   11  A    between atoms: C19_27  and  C20_29 
ROOT
HETATM    1  C1  UNL     1      -9.091   5.466  11.725  1.00  0.00     0.015 C 
HETATM    2  C2  UNL     1      -8.286   5.319  12.606  1.00  0.00    -0.078 C 
HETATM    3  C3  UNL     1      -7.294   5.116  13.688  1.00  0.00     0.128 C 
HETATM    4  C4  UNL     1      -5.944   4.744  13.075  1.00  0.00     0.052 C 
HETATM    5  C5  UNL     1      -5.266   6.076  12.752  1.00  0.00     0.010 C 
HETATM    6  C6  UNL     1      -6.003   7.166  13.563  1.00  0.00     0.002 C 
HETATM    7  C7  UNL     1      -5.080   8.164  14.288  1.00  0.00    -0.004 C 
HETATM    8  C8  UNL     1      -4.284   9.025  13.301  1.00  0.00     0.010 C 
HETATM    9  C9  UNL     1      -3.136   9.745  13.989  1.00  0.00     0.035 C 
HETATM   10  C10 UNL     1      -2.167   8.686  14.426  1.00  0.00    -0.069 C 
HETATM   11  C11 UNL     1      -0.954   8.609  13.845  1.00  0.00     0.030 C 
HETATM   12  C12 UNL     1       0.007   7.518  14.173  1.00  0.00     0.032 C 
HETATM   13  N1  UNL     1       1.227   7.425  13.737  1.00  0.00    -0.271 N 
ATOM     14  H1  UNL     1       1.868   6.671  13.986  1.00  0.00     0.194 HD
HETATM   15  C26 UNL     1      -0.460   6.422  15.110  1.00  0.00     0.060 C 
HETATM   16  C27 UNL     1      -1.981   6.328  15.189  1.00  0.00     0.020 C 
HETATM   17  C28 UNL     1      -2.678   7.688  15.457  1.00  0.00    -0.016 C 
HETATM   18  C29 UNL     1      -2.237   8.202  16.856  1.00  0.00     0.020 C 
HETATM   19  C30 UNL     1      -4.267   7.573  15.483  1.00  0.00     0.002 C 
HETATM   20  C31 UNL     1      -4.797   6.193  15.926  1.00  0.00     0.007 C 
HETATM   21  C32 UNL     1      -6.323   6.124  15.902  1.00  0.00     0.014 C 
HETATM   22  C33 UNL     1      -6.976   6.410  14.511  1.00  0.00     0.003 C 
HETATM   23  C34 UNL     1      -8.248   7.245  14.791  1.00  0.00     0.020 C 
ENDROOT
BRANCH   3  24
HETATM   24  O1  UNL     1      -7.755   4.053  14.507  1.00  0.00    -0.377 OA
HETATM   25  H2  UNL     1      -8.662   4.279  14.777  1.00  0.00     0.211 HD
ENDBRANCH   3  24
BRANCH  13  26
HETATM   26  O2  UNL     1       1.558   8.487  12.880  1.00  0.00    -0.271 OA
BRANCH  26  27
HETATM   27  C13 UNL     1       0.879   8.307  11.648  1.00  0.00     0.303 C 
BRANCH  27  28
HETATM   28  C14 UNL     1       1.863   8.014  10.518  1.00  0.00     0.244 C 
HETATM   29  O3  UNL     1       1.691   8.347   9.349  1.00  0.00    -0.271 OA
HETATM   30  N2  UNL     1       2.994   7.336  10.935  1.00  0.00    -0.343 N 
HETATM   31  H16 UNL     1       2.925   6.826  11.810  1.00  0.00     0.163 HD
BRANCH  30  32
HETATM   32  C15 UNL     1       3.932   6.756   9.952  1.00  0.00     0.217 C 
BRANCH  32  33
HETATM   33  C16 UNL     1       3.437   5.392   9.441  1.00  0.00     0.284 C 
HETATM   34  O4  UNL     1       2.836   4.574  10.128  1.00  0.00    -0.263 OA
BRANCH  33  35
HETATM   35  O5  UNL     1       3.736   5.220   8.117  1.00  0.00    -0.320 OA
BRANCH  35  36
HETATM   36  C17 UNL     1       3.940   3.865   7.690  1.00  0.00     0.174 C 
HETATM   37  C18 UNL     1       3.613   3.722   6.216  1.00  0.00     0.034 C 
ENDBRANCH  35  36
ENDBRANCH  33  35
ENDBRANCH  32  33
BRANCH  32  38
HETATM   38  C19 UNL     1       5.366   6.663  10.528  1.00  0.00     0.183 C 
BRANCH  38  39
HETATM   39  O6  UNL     1       5.509   5.610  11.484  1.00  0.00    -0.388 OA
HETATM   40  H24 UNL     1       5.160   4.791  11.090  1.00  0.00     0.210 HD
ENDBRANCH  38  39
BRANCH  38  41
HETATM   41  C20 UNL     1       5.881   7.964  11.120  1.00  0.00    -0.027 A 
HETATM   42  C21 UNL     1       6.503   7.997  12.378  1.00  0.00     0.010 A 
HETATM   43  C22 UNL     1       6.940   9.205  12.925  1.00  0.00     0.001 A 
HETATM   44  C23 UNL     1       6.765  10.394  12.221  1.00  0.00     0.000 A 
HETATM   45  C24 UNL     1       6.157  10.376  10.968  1.00  0.00     0.001 A 
HETATM   46  C25 UNL     1       5.719   9.170  10.420  1.00  0.00     0.010 A 
ENDBRANCH  38  41
ENDBRANCH  32  38
ENDBRANCH  30  32
ENDBRANCH  27  28
ENDBRANCH  26  27
ENDBRANCH  13  26
TORSDOF 11
ENDMDL
MODEL 7
REMARK minimizedAffinity -8.60734463
REMARK CNNscore 0.167173833
REMARK CNNaffinity 6.56655693
REMARK  11 active torsions:
REMARK  status: ('A' for Active; 'I' for Inactive)
REMARK    1  A    between atoms: C3_3  and  O1_4 
REMARK    2  A    between atoms: N1_14  and  O2_16 
REMARK    3  A    between atoms: O2_16  and  C13_17 
REMARK    4  A    between atoms: C13_17  and  C14_18 
REMARK       I    between atoms: C14_18  and  N2_20 
REMARK    5  A    between atoms: N2_20  and  C15_21 
REMARK    6  A    between atoms: C15_21  and  C16_22 
REMARK    7  A    between atoms: C15_21  and  C19_27 
REMARK    8  A    between atoms: C16_22  and  O5_24 
REMARK    9  A    between atoms: O5_24  and  C17_25 
REMARK   10  A    between atoms: C19_27  and  O6_28 
REMARK   11  A    between atoms: C19_27  and  C20_29 
ROOT
HETATM    1  C1  UNL     1       6.017   9.497  10.615  1.00  0.00     0.015 C 
HETATM    2  C2  UNL     1       5.347   8.532  10.870  1.00  0.00    -0.078 C 
HETATM    3  C3  UNL     1       4.538   7.334  11.197  1.00  0.00     0.128 C 
HETATM    4  C4  UNL     1       4.065   7.422  12.648  1.00  0.00     0.052 C 
HETATM    5  C5  UNL     1       2.773   8.238  12.603  1.00  0.00     0.010 C 
HETATM    6  C6  UNL     1       2.285   8.230  11.137  1.00  0.00     0.002 C 
HETATM    7  C7  UNL     1       0.780   7.948  10.960  1.00  0.00    -0.004 C 
HETATM    8  C8  UNL     1      -0.084   9.070  11.547  1.00  0.00     0.010 C 
HETATM    9  C9  UNL     1      -1.533   8.639  11.693  1.00  0.00     0.035 C 
HETATM   10  C10 UNL     1      -1.557   7.563  12.740  1.00  0.00    -0.069 C 
HETATM   11  C11 UNL     1      -2.153   7.797  13.924  1.00  0.00     0.030 C 
HETATM   12  C12 UNL     1      -2.120   6.799  15.032  1.00  0.00     0.032 C 
HETATM   13  N1  UNL     1      -2.748   6.900  16.164  1.00  0.00    -0.271 N 
ATOM     14  H1  UNL     1      -2.716   6.196  16.901  1.00  0.00     0.194 HD
HETATM   15  C26 UNL     1      -1.297   5.542  14.827  1.00  0.00     0.060 C 
HETATM   16  C27 UNL     1      -0.242   5.704  13.736  1.00  0.00     0.020 C 
HETATM   17  C28 UNL     1      -0.799   6.284  12.409  1.00  0.00    -0.016 C 
HETATM   18  C29 UNL     1      -1.827   5.276  11.823  1.00  0.00     0.020 C 
HETATM   19  C30 UNL     1       0.331   6.493  11.305  1.00  0.00     0.002 C 
HETATM   20  C31 UNL     1       1.526   5.524  11.426  1.00  0.00     0.007 C 
HETATM   21  C32 UNL     1       2.594   5.787  10.367  1.00  0.00     0.014 C 
HETATM   22  C33 UNL     1       3.203   7.226  10.385  1.00  0.00     0.003 C 
HETATM   23  C34 UNL     1       3.391   7.637   8.906  1.00  0.00     0.020 C 
ENDROOT
BRANCH   3  24
HETATM   24  O1  UNL     1       5.365   6.192  11.034  1.00  0.00    -0.377 OA
HETATM   25  H2  UNL     1       5.738   6.242  10.137  1.00  0.00     0.211 HD
ENDBRANCH   3  24
BRANCH  13  26
HETATM   26  O2  UNL     1      -3.478   8.097  16.251  1.00  0.00    -0.271 OA
BRANCH  26  27
HETATM   27  C13 UNL     1      -4.012   8.398  14.972  1.00  0.00     0.303 C 
BRANCH  27  28
HETATM   28  C14 UNL     1      -5.417   7.822  14.815  1.00  0.00     0.244 C 
HETATM   29  O3  UNL     1      -5.889   7.433  13.751  1.00  0.00    -0.271 OA
HETATM   30  N2  UNL     1      -6.124   7.764  16.003  1.00  0.00    -0.343 N 
HETATM   31  H16 UNL     1      -5.813   8.376  16.750  1.00  0.00     0.163 HD
BRANCH  30  32
HETATM   32  C15 UNL     1      -7.571   7.469  16.006  1.00  0.00     0.217 C 
BRANCH  32  33
HETATM   33  C16 UNL     1      -7.856   6.047  15.493  1.00  0.00     0.284 C 
HETATM   34  O4  UNL     1      -7.724   5.031  16.165  1.00  0.00    -0.263 OA
BRANCH  33  35
HETATM   35  O5  UNL     1      -8.297   6.066  14.198  1.00  0.00    -0.320 OA
BRANCH  35  36
HETATM   36  C17 UNL     1      -8.094   4.859  13.448  1.00  0.00     0.174 C 
HETATM   37  C18 UNL     1      -8.401   5.092  11.982  1.00  0.00     0.034 C 
ENDBRANCH  35  36
ENDBRANCH  33  35
ENDBRANCH  32  33
BRANCH  32  38
HETATM   38  C19 UNL     1      -8.366   8.533  15.210  1.00  0.00     0.183 C 
BRANCH  38  39
HETATM   39  O6  UNL     1      -7.739   9.817  15.230  1.00  0.00    -0.388 OA
HETATM   40  H24 UNL     1      -6.807   9.705  14.970  1.00  0.00     0.210 HD
ENDBRANCH  38  39
BRANCH  38  41
HETATM   41  C20 UNL     1      -9.818   8.666  15.635  1.00  0.00    -0.027 A 
HETATM   42  C21 UNL     1     -10.862   8.202  14.821  1.00  0.00     0.010 A 
HETATM   43  C22 UNL     1     -12.194   8.363  15.207  1.00  0.00     0.001 A 
HETATM   44  C23 UNL     1     -12.499   8.986  16.415  1.00  0.00     0.000 A 
HETATM   45  C24 UNL     1     -11.474   9.444  17.239  1.00  0.00     0.001 A 
HETATM   46  C25 UNL     1     -10.142   9.285  16.853  1.00  0.00     0.010 A 
ENDBRANCH  38  41
ENDBRANCH  32  38
ENDBRANCH  30  32
ENDBRANCH  27  28
ENDBRANCH  26  27
ENDBRANCH  13  26
TORSDOF 11
ENDMDL
MODEL 8
REMARK minimizedAffinity -7.23904514
REMARK CNNscore 0.165722355
REMARK CNNaffinity 5.98219633
REMARK  11 active torsions:
REMARK  status: ('A' for Active; 'I' for Inactive)
REMARK    1  A    between atoms: C3_3  and  O1_4 
REMARK    2  A    between atoms: N1_14  and  O2_16 
REMARK    3  A    between atoms: O2_16  and  C13_17 
REMARK    4  A    between atoms: C13_17  and  C14_18 
REMARK       I    between atoms: C14_18  and  N2_20 
REMARK    5  A    between atoms: N2_20  and  C15_21 
REMARK    6  A    between atoms: C15_21  and  C16_22 
REMARK    7  A    between atoms: C15_21  and  C19_27 
REMARK    8  A    between atoms: C16_22  and  O5_24 
REMARK    9  A    between atoms: O5_24  and  C17_25 
REMARK   10  A    between atoms: C19_27  and  O6_28 
REMARK   11  A    between atoms: C19_27  and  C20_29 
ROOT
HETATM    1  C1  UNL     1      -3.950  15.822  22.183  1.00  0.00     0.015 C 
HETATM    2  C2  UNL     1      -3.655  15.725  21.021  1.00  0.00    -0.078 C 
HETATM    3  C3  UNL     1      -3.280  15.624  19.591  1.00  0.00     0.128 C 
HETATM    4  C4  UNL     1      -1.823  15.177  19.479  1.00  0.00     0.052 C 
HETATM    5  C5  UNL     1      -1.863  13.650  19.540  1.00  0.00     0.010 C 
HETATM    6  C6  UNL     1      -3.317  13.224  19.241  1.00  0.00     0.002 C 
HETATM    7  C7  UNL     1      -3.456  12.060  18.240  1.00  0.00    -0.004 C 
HETATM    8  C8  UNL     1      -2.881  10.755  18.800  1.00  0.00     0.010 C 
HETATM    9  C9  UNL     1      -2.694   9.715  17.708  1.00  0.00     0.035 C 
HETATM   10  C10 UNL     1      -1.619  10.236  16.800  1.00  0.00    -0.069 C 
HETATM   11  C11 UNL     1      -0.428   9.609  16.744  1.00  0.00     0.030 C 
HETATM   12  C12 UNL     1       0.704  10.141  15.933  1.00  0.00     0.032 C 
HETATM   13  N1  UNL     1       1.846   9.551  15.746  1.00  0.00    -0.271 N 
ATOM     14  H1  UNL     1       2.601   9.934  15.176  1.00  0.00     0.194 HD
HETATM   15  C26 UNL     1       0.515  11.480  15.249  1.00  0.00     0.060 C 
HETATM   16  C27 UNL     1      -0.601  12.308  15.879  1.00  0.00     0.020 C 
HETATM   17  C28 UNL     1      -1.931  11.530  16.059  1.00  0.00    -0.016 C 
HETATM   18  C29 UNL     1      -2.469  11.140  14.654  1.00  0.00     0.020 C 
HETATM   19  C30 UNL     1      -3.063  12.400  16.767  1.00  0.00     0.002 C 
HETATM   20  C31 UNL     1      -2.941  13.919  16.529  1.00  0.00     0.007 C 
HETATM   21  C32 UNL     1      -4.029  14.709  17.254  1.00  0.00     0.014 C 
HETATM   22  C33 UNL     1      -4.062  14.518  18.804  1.00  0.00     0.003 C 
HETATM   23  C34 UNL     1      -5.555  14.468  19.205  1.00  0.00     0.020 C 
ENDROOT
BRANCH   3  24
HETATM   24  O1  UNL     1      -3.431  16.909  19.010  1.00  0.00    -0.377 OA
HETATM   25  H2  UNL     1      -4.336  17.204  19.209  1.00  0.00     0.211 HD
ENDBRANCH   3  24
BRANCH  13  26
HETATM   26  O2  UNL     1       1.916   8.322  16.420  1.00  0.00    -0.271 OA
BRANCH  26  27
HETATM   27  C13 UNL     1       2.491   7.358  15.554  1.00  0.00     0.303 C 
BRANCH  27  28
HETATM   28  C14 UNL     1       2.092   7.617  14.103  1.00  0.00     0.244 C 
HETATM   29  O3  UNL     1       2.757   8.277  13.311  1.00  0.00    -0.271 OA
HETATM   30  N2  UNL     1       0.895   7.021  13.747  1.00  0.00    -0.343 N 
HETATM   31  H16 UNL     1       0.263   6.778  14.503  1.00  0.00     0.163 HD
BRANCH  30  32
HETATM   32  C15 UNL     1       0.233   7.361  12.471  1.00  0.00     0.217 C 
BRANCH  32  33
HETATM   33  C16 UNL     1      -1.259   7.670  12.678  1.00  0.00     0.284 C 
HETATM   34  O4  UNL     1      -1.823   8.670  12.249  1.00  0.00    -0.263 OA
BRANCH  33  35
HETATM   35  O5  UNL     1      -1.879   6.675  13.384  1.00  0.00    -0.320 OA
BRANCH  35  36
HETATM   36  C17 UNL     1      -3.273   6.479  13.100  1.00  0.00     0.174 C 
HETATM   37  C18 UNL     1      -3.514   5.071  12.591  1.00  0.00     0.034 C 
ENDBRANCH  35  36
ENDBRANCH  33  35
ENDBRANCH  32  33
BRANCH  32  38
HETATM   38  C19 UNL     1       0.444   6.250  11.413  1.00  0.00     0.183 C 
BRANCH  38  39
HETATM   39  O6  UNL     1       1.198   5.145  11.917  1.00  0.00    -0.388 OA
HETATM   40  H24 UNL     1       0.793   4.858  12.754  1.00  0.00     0.210 HD
ENDBRANCH  38  39
BRANCH  38  41
HETATM   41  C20 UNL     1       1.063   6.742  10.116  1.00  0.00    -0.027 A 
HETATM   42  C21 UNL     1       0.511   7.819   9.406  1.00  0.00     0.010 A 
HETATM   43  C22 UNL     1       1.070   8.238   8.197  1.00  0.00     0.001 A 
HETATM   44  C23 UNL     1       2.190   7.588   7.684  1.00  0.00     0.000 A 
HETATM   45  C24 UNL     1       2.755   6.524   8.381  1.00  0.00     0.001 A 
HETATM   46  C25 UNL     1       2.197   6.103   9.590  1.00  0.00     0.010 A 
ENDBRANCH  38  41
ENDBRANCH  32  38
ENDBRANCH  30  32
ENDBRANCH  27  28
ENDBRANCH  26  27
ENDBRANCH  13  26
TORSDOF 11
ENDMDL
MODEL 9
REMARK minimizedAffinity -8.0187397
REMARK CNNscore 0.151285276
REMARK CNNaffinity 6.31938696
REMARK  11 active torsions:
REMARK  status: ('A' for Active; 'I' for Inactive)
REMARK    1  A    between atoms: C3_3  and  O1_4 
REMARK    2  A    between atoms: N1_14  and  O2_16 
REMARK    3  A    between atoms: O2_16  and  C13_17 
REMARK    4  A    between atoms: C13_17  and  C14_18 
REMARK       I    between atoms: C14_18  and  N2_20 
REMARK    5  A    between atoms: N2_20  and  C15_21 
REMARK    6  A    between atoms: C15_21  and  C16_22 
REMARK    7  A    between atoms: C15_21  and  C19_27 
REMARK    8  A    between atoms: C16_22  and  O5_24 
REMARK    9  A    between atoms: O5_24  and  C17_25 
REMARK   10  A    between atoms: C19_27  and  O6_28 
REMARK   11  A    between atoms: C19_27  and  C20_29 
ROOT
HETATM    1  C1  UNL     1      -7.220   3.186  13.322  1.00  0.00     0.015 C 
HETATM    2  C2  UNL     1      -7.174   4.189  13.983  1.00  0.00    -0.078 C 
HETATM    3  C3  UNL     1      -7.124   5.415  14.814  1.00  0.00     0.128 C 
HETATM    4  C4  UNL     1      -5.944   5.325  15.781  1.00  0.00     0.052 C 
HETATM    5  C5  UNL     1      -4.740   5.850  14.998  1.00  0.00     0.010 C 
HETATM    6  C6  UNL     1      -5.295   6.633  13.787  1.00  0.00     0.002 C 
HETATM    7  C7  UNL     1      -4.623   7.997  13.538  1.00  0.00    -0.004 C 
HETATM    8  C8  UNL     1      -3.152   7.842  13.133  1.00  0.00     0.010 C 
HETATM    9  C9  UNL     1      -2.405   9.161  13.233  1.00  0.00     0.035 C 
HETATM   10  C10 UNL     1      -2.355   9.516  14.690  1.00  0.00    -0.069 C 
HETATM   11  C11 UNL     1      -1.176   9.509  15.340  1.00  0.00     0.030 C 
HETATM   12  C12 UNL     1      -1.084   9.758  16.807  1.00  0.00     0.032 C 
HETATM   13  N1  UNL     1       0.014   9.867  17.492  1.00  0.00    -0.271 N 
ATOM     14  H1  UNL     1       0.047  10.049  18.495  1.00  0.00     0.194 HD
HETATM   15  C26 UNL     1      -2.379   9.917  17.579  1.00  0.00     0.060 C 
HETATM   16  C27 UNL     1      -3.576   9.318  16.846  1.00  0.00     0.020 C 
HETATM   17  C28 UNL     1      -3.696   9.773  15.368  1.00  0.00    -0.016 C 
HETATM   18  C29 UNL     1      -3.941  11.307  15.342  1.00  0.00     0.020 C 
HETATM   19  C30 UNL     1      -4.921   9.092  14.610  1.00  0.00     0.002 C 
HETATM   20  C31 UNL     1      -6.102   8.709  15.526  1.00  0.00     0.007 C 
HETATM   21  C32 UNL     1      -7.235   8.031  14.758  1.00  0.00     0.014 C 
HETATM   22  C33 UNL     1      -6.833   6.723  14.004  1.00  0.00     0.003 C 
HETATM   23  C34 UNL     1      -7.588   6.748  12.655  1.00  0.00     0.020 C 
ENDROOT
BRANCH   3  24
HETATM   24  O1  UNL     1      -8.336   5.492  15.548  1.00  0.00    -0.377 OA
HETATM   25  H2  UNL     1      -9.061   5.426  14.902  1.00  0.00     0.211 HD
ENDBRANCH   3  24
BRANCH  13  26
HETATM   26  O2  UNL     1       1.150   9.704  16.684  1.00  0.00    -0.271 OA
BRANCH  26  27
HETATM   27  C13 UNL     1       1.766  10.969  16.504  1.00  0.00     0.303 C 
BRANCH  27  28
HETATM   28  C14 UNL     1       1.763  11.771  17.803  1.00  0.00     0.244 C 
HETATM   29  O3  UNL     1       0.833  12.481  18.173  1.00  0.00    -0.271 OA
HETATM   30  N2  UNL     1       2.917  11.617  18.548  1.00  0.00    -0.343 N 
HETATM   31  H16 UNL     1       3.742  11.293  18.052  1.00  0.00     0.163 HD
BRANCH  30  32
HETATM   32  C15 UNL     1       3.195  12.498  19.701  1.00  0.00     0.217 C 
BRANCH  32  33
HETATM   33  C16 UNL     1       4.634  12.315  20.214  1.00  0.00     0.284 C 
HETATM   34  O4  UNL     1       5.197  13.088  20.979  1.00  0.00    -0.263 OA
BRANCH  33  35
HETATM   35  O5  UNL     1       5.193  11.167  19.722  1.00  0.00    -0.320 OA
BRANCH  35  36
HETATM   36  C17 UNL     1       6.543  11.280  19.248  1.00  0.00     0.174 C 
HETATM   37  C18 UNL     1       6.556  11.708  17.793  1.00  0.00     0.034 C 
ENDBRANCH  35  36
ENDBRANCH  33  35
ENDBRANCH  32  33
BRANCH  32  38
HETATM   38  C19 UNL     1       2.156  12.293  20.831  1.00  0.00     0.183 C 
BRANCH  38  39
HETATM   39  O6  UNL     1       1.998  13.453  21.650  1.00  0.00    -0.388 OA
HETATM   40  H24 UNL     1       1.843  14.218  21.068  1.00  0.00     0.210 HD
ENDBRANCH  38  39
BRANCH  38  41
HETATM   41  C20 UNL     1       2.425  11.081  21.706  1.00  0.00    -0.027 A 
HETATM   42  C21 UNL     1       2.072   9.788  21.292  1.00  0.00     0.010 A 
HETATM   43  C22 UNL     1       2.293   8.688  22.122  1.00  0.00     0.001 A 
HETATM   44  C23 UNL     1       2.874   8.865  23.375  1.00  0.00     0.000 A 
HETATM   45  C24 UNL     1       3.239  10.140  23.798  1.00  0.00     0.001 A 
HETATM   46  C25 UNL     1       3.017  11.242  22.969  1.00  0.00     0.010 A 
ENDBRANCH  38  41
ENDBRANCH  32  38
ENDBRANCH  30  32
ENDBRANCH  27  28
ENDBRANCH  26  27
ENDBRANCH  13  26
TORSDOF 11
ENDMDL
