MODEL 1
REMARK minimizedAffinity -8.43867302
REMARK CNNscore 0.421808958
REMARK CNNaffinity 6.62719345
REMARK  12 active torsions:
REMARK  status: ('A' for Active; 'I' for Inactive)
REMARK    1  A    between atoms: C3_3  and  O1_4 
REMARK    2  A    between atoms: N1_14  and  O2_16 
REMARK    3  A    between atoms: O2_16  and  C13_17 
REMARK    4  A    between atoms: C13_17  and  C14_18 
REMARK       I    between atoms: C14_18  and  N2_20 
REMARK    5  A    between atoms: N2_20  and  C15_21 
REMARK    6  A    between atoms: C15_21  and  C16_22 
REMARK    7  A    between atoms: C15_21  and  C23_33 
REMARK       I    between atoms: C16_22  and  N3_24 
REMARK    8  A    between atoms: N3_24  and  C17_25 
REMARK    9  A    between atoms: C17_25  and  C18_26 
REMARK   10  A    between atoms: C17_25  and  C19_29 
REMARK   11  A    between atoms: C18_26  and  O6_28 
REMARK   12  A    between atoms: C19_29  and  C21_31 
ROOT
HETATM    1  C1  UNL     1      -7.663   6.055  16.253  1.00  0.00     0.015 C 
HETATM    2  C2  UNL     1      -6.576   6.124  15.743  1.00  0.00    -0.078 C 
HETATM    3  C3  UNL     1      -5.230   6.199  15.138  1.00  0.00     0.128 C 
HETATM    4  C4  UNL     1      -4.920   4.930  14.315  1.00  0.00     0.052 C 
HETATM    5  C5  UNL     1      -4.518   5.394  12.914  1.00  0.00     0.010 C 
HETATM    6  C6  UNL     1      -4.056   6.849  13.070  1.00  0.00     0.002 C 
HETATM    7  C7  UNL     1      -2.525   7.031  13.297  1.00  0.00    -0.004 C 
HETATM    8  C8  UNL     1      -1.833   5.979  14.185  1.00  0.00     0.010 C 
HETATM    9  C9  UNL     1      -0.326   6.192  14.279  1.00  0.00     0.035 C 
HETATM   10  C10 UNL     1       0.018   7.595  14.703  1.00  0.00    -0.069 C 
HETATM   11  C11 UNL     1       0.853   7.794  15.738  1.00  0.00     0.030 C 
HETATM   12  C12 UNL     1       1.295   9.160  16.112  1.00  0.00     0.032 C 
HETATM   13  N1  UNL     1       1.807   9.329  17.295  1.00  0.00    -0.271 N 
ATOM     14  H1  UNL     1       1.889   8.586  17.990  1.00  0.00     0.194 HD
HETATM   15  C26 UNL     1       1.106  10.238  15.067  1.00  0.00     0.060 C 
HETATM   16  C27 UNL     1      -0.317  10.119  14.530  1.00  0.00     0.020 C 
HETATM   17  C28 UNL     1      -0.625   8.725  13.895  1.00  0.00    -0.016 C 
HETATM   18  C29 UNL     1       0.008   8.733  12.475  1.00  0.00     0.020 C 
HETATM   19  C30 UNL     1      -2.187   8.480  13.762  1.00  0.00     0.002 C 
HETATM   20  C31 UNL     1      -3.004   8.786  15.038  1.00  0.00     0.007 C 
HETATM   21  C32 UNL     1      -4.510   8.697  14.801  1.00  0.00     0.014 C 
HETATM   22  C33 UNL     1      -5.030   7.402  14.150  1.00  0.00     0.003 C 
HETATM   23  C34 UNL     1      -6.376   7.766  13.444  1.00  0.00     0.020 C 
ENDROOT
BRANCH   3  24
HETATM   24  O1  UNL     1      -4.303   6.269  16.217  1.00  0.00    -0.377 OA
HETATM   25  H2  UNL     1      -4.529   5.558  16.840  1.00  0.00     0.211 HD
ENDBRANCH   3  24
BRANCH  13  26
HETATM   26  O2  UNL     1       2.235  10.647  17.510  1.00  0.00    -0.271 OA
BRANCH  26  27
HETATM   27  C13 UNL     1       1.826  11.051  18.810  1.00  0.00     0.303 C 
BRANCH  27  28
HETATM   28  C14 UNL     1       2.758  10.540  19.909  1.00  0.00     0.244 C 
HETATM   29  O3  UNL     1       2.695   9.414  20.396  1.00  0.00    -0.271 OA
HETATM   30  N2  UNL     1       3.661  11.496  20.353  1.00  0.00    -0.346 N 
HETATM   31  H16 UNL     1       3.977  12.151  19.644  1.00  0.00     0.163 HD
BRANCH  30  32
HETATM   32  C15 UNL     1       4.667  11.150  21.360  1.00  0.00     0.180 C 
BRANCH  32  33
HETATM   33  C16 UNL     1       5.970  11.904  21.001  1.00  0.00     0.241 C 
HETATM   34  O4  UNL     1       6.510  11.789  19.902  1.00  0.00    -0.271 OA
HETATM   35  N3  UNL     1       6.442  12.749  21.986  1.00  0.00    -0.344 N 
HETATM   36  H18 UNL     1       6.115  12.546  22.926  1.00  0.00     0.163 HD
BRANCH  35  37
HETATM   37  C17 UNL     1       7.821  13.265  21.936  1.00  0.00     0.186 C 
BRANCH  37  38
HETATM   38  C18 UNL     1       8.515  12.567  23.110  1.00  0.00     0.163 C 
HETATM   39  O5  UNL     1       9.449  13.022  23.753  1.00  0.00    -0.648 OA
BRANCH  38  40
HETATM   40  O6  UNL     1       8.031  11.336  23.377  1.00  0.00    -0.775 OA
HETATM   41  H20 UNL     1       8.537  11.046  24.167  1.00  0.00     0.167 HD
ENDBRANCH  38  40
ENDBRANCH  37  38
BRANCH  37  42
HETATM   42  C19 UNL     1       7.846  14.810  22.069  1.00  0.00     0.014 C 
HETATM   43  C20 UNL     1       7.744  15.280  23.531  1.00  0.00     0.012 C 
BRANCH  42  44
HETATM   44  C21 UNL     1       9.128  15.433  21.470  1.00  0.00     0.002 C 
HETATM   45  C22 UNL     1       9.557  16.744  22.110  1.00  0.00     0.005 C 
ENDBRANCH  42  44
ENDBRANCH  37  42
ENDBRANCH  35  37
ENDBRANCH  32  33
BRANCH  32  46
HETATM   46  C23 UNL     1       4.125  11.456  22.775  1.00  0.00     0.009 C 
HETATM   47  C24 UNL     1       3.035  12.529  22.762  1.00  0.00     0.012 C 
HETATM   48  C25 UNL     1       3.641  10.216  23.529  1.00  0.00     0.012 C 
ENDBRANCH  32  46
ENDBRANCH  30  32
ENDBRANCH  27  28
ENDBRANCH  26  27
ENDBRANCH  13  26
TORSDOF 12
ENDMDL
MODEL 2
REMARK minimizedAffinity -8.45624542
REMARK CNNscore 0.301029503
REMARK CNNaffinity 6.07509613
REMARK  12 active torsions:
REMARK  status: ('A' for Active; 'I' for Inactive)
REMARK    1  A    between atoms: C3_3  and  O1_4 
REMARK    2  A    between atoms: N1_14  and  O2_16 
REMARK    3  A    between atoms: O2_16  and  C13_17 
REMARK    4  A    between atoms: C13_17  and  C14_18 
REMARK       I    between atoms: C14_18  and  N2_20 
REMARK    5  A    between atoms: N2_20  and  C15_21 
REMARK    6  A    between atoms: C15_21  and  C16_22 
REMARK    7  A    between atoms: C15_21  and  C23_33 
REMARK       I    between atoms: C16_22  and  N3_24 
REMARK    8  A    between atoms: N3_24  and  C17_25 
REMARK    9  A    between atoms: C17_25  and  C18_26 
REMARK   10  A    between atoms: C17_25  and  C19_29 
REMARK   11  A    between atoms: C18_26  and  O6_28 
REMARK   12  A    between atoms: C19_29  and  C21_31 
ROOT
HETATM    1  C1  UNL     1      -0.791   5.203  11.035  1.00  0.00     0.015 C 
HETATM    2  C2  UNL     1       0.330   5.627  10.926  1.00  0.00    -0.078 C 
HETATM    3  C3  UNL     1       1.714   6.129  10.806  1.00  0.00     0.128 C 
HETATM    4  C4  UNL     1       2.406   5.556   9.551  1.00  0.00     0.052 C 
HETATM    5  C5  UNL     1       2.933   6.746   8.748  1.00  0.00     0.010 C 
HETATM    6  C6  UNL     1       3.060   7.903   9.748  1.00  0.00     0.002 C 
HETATM    7  C7  UNL     1       4.463   8.049  10.409  1.00  0.00    -0.004 C 
HETATM    8  C8  UNL     1       5.196   6.738  10.760  1.00  0.00     0.010 C 
HETATM    9  C9  UNL     1       6.592   6.982  11.323  1.00  0.00     0.035 C 
HETATM   10  C10 UNL     1       6.571   7.939  12.485  1.00  0.00    -0.069 C 
HETATM   11  C11 UNL     1       7.165   7.597  13.642  1.00  0.00     0.030 C 
HETATM   12  C12 UNL     1       7.254   8.558  14.769  1.00  0.00     0.032 C 
HETATM   13  N1  UNL     1       7.518   8.084  15.951  1.00  0.00    -0.271 N 
ATOM     14  H1  UNL     1       7.632   7.090  16.152  1.00  0.00     0.194 HD
HETATM   15  C26 UNL     1       7.028  10.015  14.430  1.00  0.00     0.060 C 
HETATM   16  C27 UNL     1       5.768  10.102  13.574  1.00  0.00     0.020 C 
HETATM   17  C28 UNL     1       5.857   9.272  12.254  1.00  0.00    -0.016 C 
HETATM   18  C29 UNL     1       6.702  10.113  11.256  1.00  0.00     0.020 C 
HETATM   19  C30 UNL     1       4.420   9.020  11.628  1.00  0.00     0.002 C 
HETATM   20  C31 UNL     1       3.358   8.505  12.626  1.00  0.00     0.007 C 
HETATM   21  C32 UNL     1       1.962   8.445  12.010  1.00  0.00     0.014 C 
HETATM   22  C33 UNL     1       1.829   7.689  10.675  1.00  0.00     0.003 C 
HETATM   23  C34 UNL     1       0.573   8.276   9.952  1.00  0.00     0.020 C 
ENDROOT
BRANCH   3  24
HETATM   24  O1  UNL     1       2.416   5.663  11.955  1.00  0.00    -0.377 OA
HETATM   25  H2  UNL     1       2.237   4.711  12.037  1.00  0.00     0.211 HD
ENDBRANCH   3  24
BRANCH  13  26
HETATM   26  O2  UNL     1       7.629   9.093  16.919  1.00  0.00    -0.271 OA
BRANCH  26  27
HETATM   27  C13 UNL     1       8.995   9.469  17.027  1.00  0.00     0.303 C 
BRANCH  27  28
HETATM   28  C14 UNL     1       9.245  10.477  18.149  1.00  0.00     0.244 C 
HETATM   29  O3  UNL     1       8.490  10.647  19.103  1.00  0.00    -0.271 OA
HETATM   30  N2  UNL     1      10.393  11.235  17.961  1.00  0.00    -0.346 N 
HETATM   31  H16 UNL     1      11.155  10.754  17.495  1.00  0.00     0.163 HD
BRANCH  30  32
HETATM   32  C15 UNL     1      10.811  12.205  18.977  1.00  0.00     0.180 C 
BRANCH  32  33
HETATM   33  C16 UNL     1      12.266  11.862  19.383  1.00  0.00     0.241 C 
HETATM   34  O4  UNL     1      12.547  11.419  20.495  1.00  0.00    -0.271 OA
HETATM   35  N3  UNL     1      13.204  12.042  18.385  1.00  0.00    -0.344 N 
HETATM   36  H18 UNL     1      12.930  12.676  17.640  1.00  0.00     0.163 HD
BRANCH  35  37
HETATM   37  C17 UNL     1      14.641  12.087  18.705  1.00  0.00     0.186 C 
BRANCH  37  38
HETATM   38  C18 UNL     1      14.728  13.095  19.855  1.00  0.00     0.163 C 
HETATM   39  O5  UNL     1      14.646  14.309  19.742  1.00  0.00    -0.648 OA
BRANCH  38  40
HETATM   40  O6  UNL     1      14.952  12.531  21.061  1.00  0.00    -0.775 OA
HETATM   41  H20 UNL     1      14.935  13.288  21.685  1.00  0.00     0.167 HD
ENDBRANCH  38  40
ENDBRANCH  37  38
BRANCH  37  42
HETATM   42  C19 UNL     1      15.475  12.523  17.473  1.00  0.00     0.014 C 
HETATM   43  C20 UNL     1      16.991  12.422  17.719  1.00  0.00     0.012 C 
BRANCH  42  44
HETATM   44  C21 UNL     1      15.153  11.684  16.214  1.00  0.00     0.002 C 
HETATM   45  C22 UNL     1      16.226  11.716  15.137  1.00  0.00     0.005 C 
ENDBRANCH  42  44
ENDBRANCH  37  42
ENDBRANCH  35  37
ENDBRANCH  32  33
BRANCH  32  46
HETATM   46  C23 UNL     1      10.623  13.643  18.444  1.00  0.00     0.009 C 
HETATM   47  C24 UNL     1       9.341  14.294  18.966  1.00  0.00     0.012 C 
HETATM   48  C25 UNL     1      11.824  14.555  18.700  1.00  0.00     0.012 C 
ENDBRANCH  32  46
ENDBRANCH  30  32
ENDBRANCH  27  28
ENDBRANCH  26  27
ENDBRANCH  13  26
TORSDOF 12
ENDMDL
MODEL 3
REMARK minimizedAffinity -8.6492939
REMARK CNNscore 0.292330503
REMARK CNNaffinity 6.22487116
REMARK  12 active torsions:
REMARK  status: ('A' for Active; 'I' for Inactive)
REMARK    1  A    between atoms: C3_3  and  O1_4 
REMARK    2  A    between atoms: N1_14  and  O2_16 
REMARK    3  A    between atoms: O2_16  and  C13_17 
REMARK    4  A    between atoms: C13_17  and  C14_18 
REMARK       I    between atoms: C14_18  and  N2_20 
REMARK    5  A    between atoms: N2_20  and  C15_21 
REMARK    6  A    between atoms: C15_21  and  C16_22 
REMARK    7  A    between atoms: C15_21  and  C23_33 
REMARK       I    between atoms: C16_22  and  N3_24 
REMARK    8  A    between atoms: N3_24  and  C17_25 
REMARK    9  A    between atoms: C17_25  and  C18_26 
REMARK   10  A    between atoms: C17_25  and  C19_29 
REMARK   11  A    between atoms: C18_26  and  O6_28 
REMARK   12  A    between atoms: C19_29  and  C21_31 
ROOT
HETATM    1  C1  UNL     1      -0.876   5.136  11.199  1.00  0.00     0.015 C 
HETATM    2  C2  UNL     1       0.241   5.537  11.010  1.00  0.00    -0.078 C 
HETATM    3  C3  UNL     1       1.624   6.013  10.792  1.00  0.00     0.128 C 
HETATM    4  C4  UNL     1       2.230   5.391   9.515  1.00  0.00     0.052 C 
HETATM    5  C5  UNL     1       2.725   6.549   8.647  1.00  0.00     0.010 C 
HETATM    6  C6  UNL     1       2.929   7.733   9.602  1.00  0.00     0.002 C 
HETATM    7  C7  UNL     1       4.372   7.874  10.173  1.00  0.00    -0.004 C 
HETATM    8  C8  UNL     1       5.105   6.562  10.518  1.00  0.00     0.010 C 
HETATM    9  C9  UNL     1       6.536   6.799  10.989  1.00  0.00     0.035 C 
HETATM   10  C10 UNL     1       6.600   7.789  12.121  1.00  0.00    -0.069 C 
HETATM   11  C11 UNL     1       7.258   7.472  13.249  1.00  0.00     0.030 C 
HETATM   12  C12 UNL     1       7.429   8.464  14.339  1.00  0.00     0.032 C 
HETATM   13  N1  UNL     1       7.757   8.021  15.517  1.00  0.00    -0.271 N 
ATOM     14  H1  UNL     1       7.868   7.031  15.741  1.00  0.00     0.194 HD
HETATM   15  C26 UNL     1       7.205   9.914  13.970  1.00  0.00     0.060 C 
HETATM   16  C27 UNL     1       5.896   9.997  13.190  1.00  0.00     0.020 C 
HETATM   17  C28 UNL     1       5.893   9.127  11.892  1.00  0.00    -0.016 C 
HETATM   18  C29 UNL     1       6.688   9.924  10.820  1.00  0.00     0.020 C 
HETATM   19  C30 UNL     1       4.417   8.881  11.362  1.00  0.00     0.002 C 
HETATM   20  C31 UNL     1       3.410   8.413  12.437  1.00  0.00     0.007 C 
HETATM   21  C32 UNL     1       1.978   8.358  11.908  1.00  0.00     0.014 C 
HETATM   22  C33 UNL     1       1.753   7.566  10.607  1.00  0.00     0.003 C 
HETATM   23  C34 UNL     1       0.465   8.153   9.944  1.00  0.00     0.020 C 
ENDROOT
BRANCH   3  24
HETATM   24  O1  UNL     1       2.386   5.569  11.910  1.00  0.00    -0.377 OA
HETATM   25  H2  UNL     1       2.199   4.623  12.032  1.00  0.00     0.211 HD
ENDBRANCH   3  24
BRANCH  13  26
HETATM   26  O2  UNL     1       7.942   9.056  16.446  1.00  0.00    -0.271 OA
BRANCH  26  27
HETATM   27  C13 UNL     1       9.336   9.233  16.656  1.00  0.00     0.303 C 
BRANCH  27  28
HETATM   28  C14 UNL     1       9.815  10.639  16.294  1.00  0.00     0.244 C 
HETATM   29  O3  UNL     1       9.065  11.584  16.065  1.00  0.00    -0.271 OA
HETATM   30  N2  UNL     1      11.196  10.740  16.193  1.00  0.00    -0.346 N 
HETATM   31  H16 UNL     1      11.719  10.143  16.826  1.00  0.00     0.163 HD
BRANCH  30  32
HETATM   32  C15 UNL     1      11.823  12.035  15.914  1.00  0.00     0.180 C 
BRANCH  32  33
HETATM   33  C16 UNL     1      11.831  12.846  17.234  1.00  0.00     0.241 C 
HETATM   34  O4  UNL     1      12.533  13.844  17.383  1.00  0.00    -0.271 OA
HETATM   35  N3  UNL     1      10.953  12.393  18.199  1.00  0.00    -0.344 N 
HETATM   36  H18 UNL     1      10.660  11.425  18.099  1.00  0.00     0.163 HD
BRANCH  35  37
HETATM   37  C17 UNL     1      11.082  12.833  19.598  1.00  0.00     0.186 C 
BRANCH  37  38
HETATM   38  C18 UNL     1      12.112  11.867  20.192  1.00  0.00     0.163 C 
HETATM   39  O5  UNL     1      13.137  12.193  20.772  1.00  0.00    -0.648 OA
BRANCH  38  40
HETATM   40  O6  UNL     1      11.821  10.565  19.989  1.00  0.00    -0.775 OA
HETATM   41  H20 UNL     1      12.536  10.084  20.459  1.00  0.00     0.167 HD
ENDBRANCH  38  40
ENDBRANCH  37  38
BRANCH  37  42
HETATM   42  C19 UNL     1       9.718  12.769  20.334  1.00  0.00     0.014 C 
HETATM   43  C20 UNL     1       8.774  11.709  19.739  1.00  0.00     0.012 C 
BRANCH  42  44
HETATM   44  C21 UNL     1       9.873  12.458  21.840  1.00  0.00     0.002 C 
HETATM   45  C22 UNL     1       8.965  13.265  22.754  1.00  0.00     0.005 C 
ENDBRANCH  42  44
ENDBRANCH  37  42
ENDBRANCH  35  37
ENDBRANCH  32  33
BRANCH  32  46
HETATM   46  C23 UNL     1      13.220  11.823  15.291  1.00  0.00     0.009 C 
HETATM   47  C24 UNL     1      13.762  13.093  14.632  1.00  0.00     0.012 C 
HETATM   48  C25 UNL     1      14.249  11.251  16.269  1.00  0.00     0.012 C 
ENDBRANCH  32  46
ENDBRANCH  30  32
ENDBRANCH  27  28
ENDBRANCH  26  27
ENDBRANCH  13  26
TORSDOF 12
ENDMDL
MODEL 4
REMARK minimizedAffinity -7.5808363
REMARK CNNscore 0.261219829
REMARK CNNaffinity 5.98395777
REMARK  12 active torsions:
REMARK  status: ('A' for Active; 'I' for Inactive)
REMARK    1  A    between atoms: C3_3  and  O1_4 
REMARK    2  A    between atoms: N1_14  and  O2_16 
REMARK    3  A    between atoms: O2_16  and  C13_17 
REMARK    4  A    between atoms: C13_17  and  C14_18 
REMARK       I    between atoms: C14_18  and  N2_20 
REMARK    5  A    between atoms: N2_20  and  C15_21 
REMARK    6  A    between atoms: C15_21  and  C16_22 
REMARK    7  A    between atoms: C15_21  and  C23_33 
REMARK       I    between atoms: C16_22  and  N3_24 
REMARK    8  A    between atoms: N3_24  and  C17_25 
REMARK    9  A    between atoms: C17_25  and  C18_26 
REMARK   10  A    between atoms: C17_25  and  C19_29 
REMARK   11  A    between atoms: C18_26  and  O6_28 
REMARK   12  A    between atoms: C19_29  and  C21_31 
ROOT
HETATM    1  C1  UNL     1     -10.597   0.601  -4.390  1.00  0.00     0.015 C 
HETATM    2  C2  UNL     1     -10.791  -0.545  -4.697  1.00  0.00    -0.078 C 
HETATM    3  C3  UNL     1     -11.039  -1.958  -5.051  1.00  0.00     0.128 C 
HETATM    4  C4  UNL     1     -12.381  -2.116  -5.800  1.00  0.00     0.052 C 
HETATM    5  C5  UNL     1     -12.079  -2.847  -7.108  1.00  0.00     0.010 C 
HETATM    6  C6  UNL     1     -10.755  -3.588  -6.879  1.00  0.00     0.002 C 
HETATM    7  C7  UNL     1     -10.902  -5.058  -6.383  1.00  0.00    -0.004 C 
HETATM    8  C8  UNL     1     -12.040  -5.333  -5.379  1.00  0.00     0.010 C 
HETATM    9  C9  UNL     1     -12.157  -6.810  -5.018  1.00  0.00     0.035 C 
HETATM   10  C10 UNL     1     -10.845  -7.380  -4.547  1.00  0.00    -0.069 C 
HETATM   11  C11 UNL     1     -10.788  -8.046  -3.380  1.00  0.00     0.030 C 
HETATM   12  C12 UNL     1      -9.536  -8.709  -2.939  1.00  0.00     0.032 C 
HETATM   13  N1  UNL     1      -9.430  -9.033  -1.684  1.00  0.00    -0.271 N 
ATOM     14  H1  UNL     1     -10.141  -8.825  -0.983  1.00  0.00     0.194 HD
HETATM   15  C26 UNL     1      -8.491  -8.950  -4.007  1.00  0.00     0.060 C 
HETATM   16  C27 UNL     1      -8.320  -7.652  -4.790  1.00  0.00     0.020 C 
HETATM   17  C28 UNL     1      -9.640  -7.155  -5.462  1.00  0.00    -0.016 C 
HETATM   18  C29 UNL     1      -9.834  -8.010  -6.746  1.00  0.00     0.020 C 
HETATM   19  C30 UNL     1      -9.543  -5.625  -5.872  1.00  0.00     0.002 C 
HETATM   20  C31 UNL     1      -9.008  -4.688  -4.764  1.00  0.00     0.007 C 
HETATM   21  C32 UNL     1      -8.777  -3.265  -5.267  1.00  0.00     0.014 C 
HETATM   22  C33 UNL     1      -9.954  -2.590  -5.994  1.00  0.00     0.003 C 
HETATM   23  C34 UNL     1      -9.337  -1.503  -6.932  1.00  0.00     0.020 C 
ENDROOT
BRANCH   3  24
HETATM   24  O1  UNL     1     -11.125  -2.676  -3.824  1.00  0.00    -0.377 OA
HETATM   25  H2  UNL     1     -11.741  -2.192  -3.248  1.00  0.00     0.211 HD
ENDBRANCH   3  24
BRANCH  13  26
HETATM   26  O2  UNL     1      -8.229  -9.700  -1.404  1.00  0.00    -0.271 OA
BRANCH  26  27
HETATM   27  C13 UNL     1      -7.684  -9.167  -0.204  1.00  0.00     0.303 C 
BRANCH  27  28
HETATM   28  C14 UNL     1      -8.283  -9.800   1.051  1.00  0.00     0.244 C 
HETATM   29  O3  UNL     1      -9.240 -10.570   1.045  1.00  0.00    -0.271 OA
HETATM   30  N2  UNL     1      -7.673  -9.377   2.225  1.00  0.00    -0.346 N 
HETATM   31  H16 UNL     1      -6.681  -9.178   2.147  1.00  0.00     0.163 HD
BRANCH  30  32
HETATM   32  C15 UNL     1      -8.088  -9.936   3.514  1.00  0.00     0.180 C 
BRANCH  32  33
HETATM   33  C16 UNL     1      -6.861 -10.653   4.131  1.00  0.00     0.241 C 
HETATM   34  O4  UNL     1      -6.813 -11.875   4.256  1.00  0.00    -0.271 OA
HETATM   35  N3  UNL     1      -5.814  -9.820   4.475  1.00  0.00    -0.344 N 
HETATM   36  H18 UNL     1      -6.063  -8.845   4.614  1.00  0.00     0.163 HD
BRANCH  35  37
HETATM   37  C17 UNL     1      -4.741 -10.291   5.365  1.00  0.00     0.186 C 
BRANCH  37  38
HETATM   38  C18 UNL     1      -4.503  -9.109   6.310  1.00  0.00     0.163 C 
HETATM   39  O5  UNL     1      -5.281  -8.721   7.169  1.00  0.00    -0.648 OA
BRANCH  38  40
HETATM   40  O6  UNL     1      -3.337  -8.464   6.096  1.00  0.00    -0.775 OA
HETATM   41  H20 UNL     1      -3.312  -7.776   6.796  1.00  0.00     0.167 HD
ENDBRANCH  38  40
ENDBRANCH  37  38
BRANCH  37  42
HETATM   42  C19 UNL     1      -3.471 -10.670   4.560  1.00  0.00     0.014 C 
HETATM   43  C20 UNL     1      -3.176 -12.180   4.595  1.00  0.00     0.012 C 
BRANCH  42  44
HETATM   44  C21 UNL     1      -3.565 -10.250   3.075  1.00  0.00     0.002 C 
HETATM   45  C22 UNL     1      -2.240 -10.239   2.331  1.00  0.00     0.005 C 
ENDBRANCH  42  44
ENDBRANCH  37  42
ENDBRANCH  35  37
ENDBRANCH  32  33
BRANCH  32  46
HETATM   46  C23 UNL     1      -8.687  -8.824   4.405  1.00  0.00     0.009 C 
HETATM   47  C24 UNL     1     -10.068  -8.376   3.925  1.00  0.00     0.012 C 
HETATM   48  C25 UNL     1      -8.732  -9.185   5.891  1.00  0.00     0.012 C 
ENDBRANCH  32  46
ENDBRANCH  30  32
ENDBRANCH  27  28
ENDBRANCH  26  27
ENDBRANCH  13  26
TORSDOF 12
ENDMDL
MODEL 5
REMARK minimizedAffinity -8.02096748
REMARK CNNscore 0.235463798
REMARK CNNaffinity 5.80473852
REMARK  12 active torsions:
REMARK  status: ('A' for Active; 'I' for Inactive)
REMARK    1  A    between atoms: C3_3  and  O1_4 
REMARK    2  A    between atoms: N1_14  and  O2_16 
REMARK    3  A    between atoms: O2_16  and  C13_17 
REMARK    4  A    between atoms: C13_17  and  C14_18 
REMARK       I    between atoms: C14_18  and  N2_20 
REMARK    5  A    between atoms: N2_20  and  C15_21 
REMARK    6  A    between atoms: C15_21  and  C16_22 
REMARK    7  A    between atoms: C15_21  and  C23_33 
REMARK       I    between atoms: C16_22  and  N3_24 
REMARK    8  A    between atoms: N3_24  and  C17_25 
REMARK    9  A    between atoms: C17_25  and  C18_26 
REMARK   10  A    between atoms: C17_25  and  C19_29 
REMARK   11  A    between atoms: C18_26  and  O6_28 
REMARK   12  A    between atoms: C19_29  and  C21_31 
ROOT
HETATM    1  C1  UNL     1      -0.772   5.710  11.826  1.00  0.00     0.015 C 
HETATM    2  C2  UNL     1       0.368   5.998  11.574  1.00  0.00    -0.078 C 
HETATM    3  C3  UNL     1       1.776   6.338  11.282  1.00  0.00     0.128 C 
HETATM    4  C4  UNL     1       2.360   5.405  10.199  1.00  0.00     0.052 C 
HETATM    5  C5  UNL     1       2.926   6.301   9.096  1.00  0.00     0.010 C 
HETATM    6  C6  UNL     1       3.186   7.663   9.754  1.00  0.00     0.002 C 
HETATM    7  C7  UNL     1       4.629   7.860  10.309  1.00  0.00    -0.004 C 
HETATM    8  C8  UNL     1       5.285   6.629  10.966  1.00  0.00     0.010 C 
HETATM    9  C9  UNL     1       6.722   6.896  11.401  1.00  0.00     0.035 C 
HETATM   10  C10 UNL     1       6.829   8.119  12.272  1.00  0.00    -0.069 C 
HETATM   11  C11 UNL     1       7.458   8.040  13.458  1.00  0.00     0.030 C 
HETATM   12  C12 UNL     1       7.672   9.249  14.291  1.00  0.00     0.032 C 
HETATM   13  N1  UNL     1       7.964   9.078  15.547  1.00  0.00    -0.271 N 
ATOM     14  H1  UNL     1       8.018   8.164  15.997  1.00  0.00     0.194 HD
HETATM   15  C26 UNL     1       7.532  10.583  13.590  1.00  0.00     0.060 C 
HETATM   16  C27 UNL     1       6.238  10.548  12.782  1.00  0.00     0.020 C 
HETATM   17  C28 UNL     1       6.199   9.400  11.723  1.00  0.00    -0.016 C 
HETATM   18  C29 UNL     1       7.048   9.883  10.513  1.00  0.00     0.020 C 
HETATM   19  C30 UNL     1       4.718   9.113  11.231  1.00  0.00     0.002 C 
HETATM   20  C31 UNL     1       3.675   8.962  12.363  1.00  0.00     0.007 C 
HETATM   21  C32 UNL     1       2.248   8.858  11.829  1.00  0.00     0.014 C 
HETATM   22  C33 UNL     1       1.993   7.796  10.744  1.00  0.00     0.003 C 
HETATM   23  C34 UNL     1       0.746   8.277   9.933  1.00  0.00     0.020 C 
ENDROOT
BRANCH   3  24
HETATM   24  O1  UNL     1       2.502   6.130  12.490  1.00  0.00    -0.377 OA
HETATM   25  H2  UNL     1       2.262   5.249  12.824  1.00  0.00     0.211 HD
ENDBRANCH   3  24
BRANCH  13  26
HETATM   26  O2  UNL     1       8.196  10.290  16.213  1.00  0.00    -0.271 OA
BRANCH  26  27
HETATM   27  C13 UNL     1       9.325  10.132  17.061  1.00  0.00     0.303 C 
BRANCH  27  28
HETATM   28  C14 UNL     1      10.249  11.350  17.051  1.00  0.00     0.244 C 
HETATM   29  O3  UNL     1       9.892  12.487  17.349  1.00  0.00    -0.271 OA
HETATM   30  N2  UNL     1      11.535  11.061  16.616  1.00  0.00    -0.346 N 
HETATM   31  H16 UNL     1      11.873  10.134  16.858  1.00  0.00     0.163 HD
BRANCH  30  32
HETATM   32  C15 UNL     1      12.562  12.105  16.606  1.00  0.00     0.180 C 
BRANCH  32  33
HETATM   33  C16 UNL     1      13.703  11.650  17.549  1.00  0.00     0.241 C 
HETATM   34  O4  UNL     1      13.695  10.552  18.103  1.00  0.00    -0.271 OA
HETATM   35  N3  UNL     1      14.746  12.547  17.673  1.00  0.00    -0.344 N 
HETATM   36  H18 UNL     1      14.522  13.508  17.434  1.00  0.00     0.163 HD
BRANCH  35  37
HETATM   37  C17 UNL     1      15.720  12.419  18.770  1.00  0.00     0.186 C 
BRANCH  37  38
HETATM   38  C18 UNL     1      15.002  13.042  19.971  1.00  0.00     0.163 C 
HETATM   39  O5  UNL     1      14.906  12.536  21.080  1.00  0.00    -0.648 OA
BRANCH  38  40
HETATM   40  O6  UNL     1      14.416  14.228  19.704  1.00  0.00    -0.775 OA
HETATM   41  H20 UNL     1      14.047  14.512  20.568  1.00  0.00     0.167 HD
ENDBRANCH  38  40
ENDBRANCH  37  38
BRANCH  37  42
HETATM   42  C19 UNL     1      17.045  13.149  18.430  1.00  0.00     0.014 C 
HETATM   43  C20 UNL     1      17.672  13.838  19.656  1.00  0.00     0.012 C 
BRANCH  42  44
HETATM   44  C21 UNL     1      18.110  12.197  17.839  1.00  0.00     0.002 C 
HETATM   45  C22 UNL     1      19.152  11.710  18.833  1.00  0.00     0.005 C 
ENDBRANCH  42  44
ENDBRANCH  37  42
ENDBRANCH  35  37
ENDBRANCH  32  33
BRANCH  32  46
HETATM   46  C23 UNL     1      13.013  12.389  15.155  1.00  0.00     0.009 C 
HETATM   47  C24 UNL     1      13.585  13.798  14.989  1.00  0.00     0.012 C 
HETATM   48  C25 UNL     1      13.991  11.351  14.601  1.00  0.00     0.012 C 
ENDBRANCH  32  46
ENDBRANCH  30  32
ENDBRANCH  27  28
ENDBRANCH  26  27
ENDBRANCH  13  26
TORSDOF 12
ENDMDL
MODEL 6
REMARK minimizedAffinity -7.91231346
REMARK CNNscore 0.217888102
REMARK CNNaffinity 5.97142553
REMARK  12 active torsions:
REMARK  status: ('A' for Active; 'I' for Inactive)
REMARK    1  A    between atoms: C3_3  and  O1_4 
REMARK    2  A    between atoms: N1_14  and  O2_16 
REMARK    3  A    between atoms: O2_16  and  C13_17 
REMARK    4  A    between atoms: C13_17  and  C14_18 
REMARK       I    between atoms: C14_18  and  N2_20 
REMARK    5  A    between atoms: N2_20  and  C15_21 
REMARK    6  A    between atoms: C15_21  and  C16_22 
REMARK    7  A    between atoms: C15_21  and  C23_33 
REMARK       I    between atoms: C16_22  and  N3_24 
REMARK    8  A    between atoms: N3_24  and  C17_25 
REMARK    9  A    between atoms: C17_25  and  C18_26 
REMARK   10  A    between atoms: C17_25  and  C19_29 
REMARK   11  A    between atoms: C18_26  and  O6_28 
REMARK   12  A    between atoms: C19_29  and  C21_31 
ROOT
HETATM    1  C1  UNL     1      -2.380   5.427  13.528  1.00  0.00     0.015 C 
HETATM    2  C2  UNL     1      -1.327   5.831  13.110  1.00  0.00    -0.078 C 
HETATM    3  C3  UNL     1      -0.022   6.308  12.607  1.00  0.00     0.128 C 
HETATM    4  C4  UNL     1       0.231   5.817  11.166  1.00  0.00     0.052 C 
HETATM    5  C5  UNL     1       0.544   7.052  10.321  1.00  0.00     0.010 C 
HETATM    6  C6  UNL     1       1.020   8.126  11.309  1.00  0.00     0.002 C 
HETATM    7  C7  UNL     1       2.563   8.188  11.518  1.00  0.00    -0.004 C 
HETATM    8  C8  UNL     1       3.307   6.837  11.541  1.00  0.00     0.010 C 
HETATM    9  C9  UNL     1       4.817   7.004  11.667  1.00  0.00     0.035 C 
HETATM   10  C10 UNL     1       5.193   7.869  12.840  1.00  0.00    -0.069 C 
HETATM   11  C11 UNL     1       6.093   7.426  13.736  1.00  0.00     0.030 C 
HETATM   12  C12 UNL     1       6.562   8.296  14.843  1.00  0.00     0.032 C 
HETATM   13  N1  UNL     1       7.149   7.727  15.854  1.00  0.00    -0.271 N 
ATOM     14  H1  UNL     1       7.272   6.718  15.945  1.00  0.00     0.194 HD
HETATM   15  C26 UNL     1       6.311   9.779  14.685  1.00  0.00     0.060 C 
HETATM   16  C27 UNL     1       4.856   9.961  14.262  1.00  0.00     0.020 C 
HETATM   17  C28 UNL     1       4.504   9.233  12.926  1.00  0.00    -0.016 C 
HETATM   18  C29 UNL     1       5.044  10.128  11.776  1.00  0.00     0.020 C 
HETATM   19  C30 UNL     1       2.935   9.064  12.753  1.00  0.00     0.002 C 
HETATM   20  C31 UNL     1       2.202   8.499  13.992  1.00  0.00     0.007 C 
HETATM   21  C32 UNL     1       0.683   8.518  13.828  1.00  0.00     0.014 C 
HETATM   22  C33 UNL     1       0.118   7.871  12.551  1.00  0.00     0.003 C 
HETATM   23  C34 UNL     1      -1.268   8.541  12.285  1.00  0.00     0.020 C 
ENDROOT
BRANCH   3  24
HETATM   24  O1  UNL     1       0.972   5.740  13.455  1.00  0.00    -0.377 OA
HETATM   25  H2  UNL     1       0.783   4.789  13.524  1.00  0.00     0.211 HD
ENDBRANCH   3  24
BRANCH  13  26
HETATM   26  O2  UNL     1       7.594   8.656  16.806  1.00  0.00    -0.271 OA
BRANCH  26  27
HETATM   27  C13 UNL     1       9.009   8.754  16.718  1.00  0.00     0.303 C 
BRANCH  27  28
HETATM   28  C14 UNL     1       9.522  10.168  16.984  1.00  0.00     0.244 C 
HETATM   29  O3  UNL     1       8.871  11.042  17.552  1.00  0.00    -0.271 OA
HETATM   30  N2  UNL     1      10.791  10.399  16.471  1.00  0.00    -0.346 N 
HETATM   31  H16 UNL     1      11.411   9.594  16.477  1.00  0.00     0.163 HD
BRANCH  30  32
HETATM   32  C15 UNL     1      11.456  11.685  16.694  1.00  0.00     0.180 C 
BRANCH  32  33
HETATM   33  C16 UNL     1      12.543  11.471  17.775  1.00  0.00     0.241 C 
HETATM   34  O4  UNL     1      12.298  10.923  18.849  1.00  0.00    -0.271 OA
HETATM   35  N3  UNL     1      13.809  11.893  17.418  1.00  0.00    -0.344 N 
HETATM   36  H18 UNL     1      13.842  12.581  16.671  1.00  0.00     0.163 HD
BRANCH  35  37
HETATM   37  C17 UNL     1      14.857  12.070  18.436  1.00  0.00     0.186 C 
BRANCH  37  38
HETATM   38  C18 UNL     1      14.203  12.980  19.480  1.00  0.00     0.163 C 
HETATM   39  O5  UNL     1      13.822  14.124  19.284  1.00  0.00    -0.648 OA
BRANCH  38  40
HETATM   40  O6  UNL     1      14.105  12.423  20.706  1.00  0.00    -0.775 OA
HETATM   41  H20 UNL     1      13.633  13.099  21.238  1.00  0.00     0.167 HD
ENDBRANCH  38  40
ENDBRANCH  37  38
BRANCH  37  42
HETATM   42  C19 UNL     1      16.135  12.698  17.821  1.00  0.00     0.014 C 
HETATM   43  C20 UNL     1      15.844  14.005  17.062  1.00  0.00     0.012 C 
BRANCH  42  44
HETATM   44  C21 UNL     1      17.211  13.010  18.887  1.00  0.00     0.002 C 
HETATM   45  C22 UNL     1      17.679  11.808  19.690  1.00  0.00     0.005 C 
ENDBRANCH  42  44
ENDBRANCH  37  42
ENDBRANCH  35  37
ENDBRANCH  32  33
BRANCH  32  46
HETATM   46  C23 UNL     1      11.992  12.243  15.356  1.00  0.00     0.009 C 
HETATM   47  C24 UNL     1      13.128  11.392  14.785  1.00  0.00     0.012 C 
HETATM   48  C25 UNL     1      10.906  12.456  14.300  1.00  0.00     0.012 C 
ENDBRANCH  32  46
ENDBRANCH  30  32
ENDBRANCH  27  28
ENDBRANCH  26  27
ENDBRANCH  13  26
TORSDOF 12
ENDMDL
MODEL 7
REMARK minimizedAffinity -7.6782608
REMARK CNNscore 0.213303715
REMARK CNNaffinity 6.01039505
REMARK  12 active torsions:
REMARK  status: ('A' for Active; 'I' for Inactive)
REMARK    1  A    between atoms: C3_3  and  O1_4 
REMARK    2  A    between atoms: N1_14  and  O2_16 
REMARK    3  A    between atoms: O2_16  and  C13_17 
REMARK    4  A    between atoms: C13_17  and  C14_18 
REMARK       I    between atoms: C14_18  and  N2_20 
REMARK    5  A    between atoms: N2_20  and  C15_21 
REMARK    6  A    between atoms: C15_21  and  C16_22 
REMARK    7  A    between atoms: C15_21  and  C23_33 
REMARK       I    between atoms: C16_22  and  N3_24 
REMARK    8  A    between atoms: N3_24  and  C17_25 
REMARK    9  A    between atoms: C17_25  and  C18_26 
REMARK   10  A    between atoms: C17_25  and  C19_29 
REMARK   11  A    between atoms: C18_26  and  O6_28 
REMARK   12  A    between atoms: C19_29  and  C21_31 
ROOT
HETATM    1  C1  UNL     1      -2.757   5.446  12.363  1.00  0.00     0.015 C 
HETATM    2  C2  UNL     1      -2.994   6.442  12.994  1.00  0.00    -0.078 C 
HETATM    3  C3  UNL     1      -3.267   7.678  13.757  1.00  0.00     0.128 C 
HETATM    4  C4  UNL     1      -4.473   8.440  13.166  1.00  0.00     0.052 C 
HETATM    5  C5  UNL     1      -5.463   8.666  14.310  1.00  0.00     0.010 C 
HETATM    6  C6  UNL     1      -4.641   8.566  15.602  1.00  0.00     0.002 C 
HETATM    7  C7  UNL     1      -4.095   9.923  16.139  1.00  0.00    -0.004 C 
HETATM    8  C8  UNL     1      -3.615  10.937  15.082  1.00  0.00     0.010 C 
HETATM    9  C9  UNL     1      -3.178  12.261  15.698  1.00  0.00     0.035 C 
HETATM   10  C10 UNL     1      -2.160  12.067  16.789  1.00  0.00    -0.069 C 
HETATM   11  C11 UNL     1      -1.006  12.757  16.757  1.00  0.00     0.030 C 
HETATM   12  C12 UNL     1      -0.030  12.667  17.870  1.00  0.00     0.032 C 
HETATM   13  N1  UNL     1       1.187  13.066  17.644  1.00  0.00    -0.271 N 
ATOM     14  H1  UNL     1       1.515  13.401  16.738  1.00  0.00     0.194 HD
HETATM   15  C26 UNL     1      -0.551  12.116  19.179  1.00  0.00     0.060 C 
HETATM   16  C27 UNL     1      -1.330  10.841  18.868  1.00  0.00     0.020 C 
HETATM   17  C28 UNL     1      -2.527  11.070  17.890  1.00  0.00    -0.016 C 
HETATM   18  C29 UNL     1      -3.682  11.677  18.736  1.00  0.00     0.020 C 
HETATM   19  C30 UNL     1      -3.021   9.705  17.248  1.00  0.00     0.002 C 
HETATM   20  C31 UNL     1      -1.897   8.813  16.671  1.00  0.00     0.007 C 
HETATM   21  C32 UNL     1      -2.411   7.446  16.224  1.00  0.00     0.014 C 
HETATM   22  C33 UNL     1      -3.618   7.442  15.269  1.00  0.00     0.003 C 
HETATM   23  C34 UNL     1      -4.335   6.066  15.461  1.00  0.00     0.020 C 
ENDROOT
BRANCH   3  24
HETATM   24  O1  UNL     1      -2.111   8.500  13.627  1.00  0.00    -0.377 OA
HETATM   25  H2  UNL     1      -1.888   8.538  12.682  1.00  0.00     0.211 HD
ENDBRANCH   3  24
BRANCH  13  26
HETATM   26  O2  UNL     1       1.999  12.982  18.785  1.00  0.00    -0.271 OA
BRANCH  26  27
HETATM   27  C13 UNL     1       3.358  12.946  18.373  1.00  0.00     0.303 C 
BRANCH  27  28
HETATM   28  C14 UNL     1       4.223  12.050  19.259  1.00  0.00     0.244 C 
HETATM   29  O3  UNL     1       3.852  10.972  19.718  1.00  0.00    -0.271 OA
HETATM   30  N2  UNL     1       5.465  12.597  19.549  1.00  0.00    -0.346 N 
HETATM   31  H16 UNL     1       5.867  13.167  18.811  1.00  0.00     0.163 HD
BRANCH  30  32
HETATM   32  C15 UNL     1       6.440  11.838  20.336  1.00  0.00     0.180 C 
BRANCH  32  33
HETATM   33  C16 UNL     1       7.509  11.289  19.358  1.00  0.00     0.241 C 
HETATM   34  O4  UNL     1       7.267  10.375  18.572  1.00  0.00    -0.271 OA
HETATM   35  N3  UNL     1       8.725  11.941  19.403  1.00  0.00    -0.344 N 
HETATM   36  H18 UNL     1       8.913  12.452  20.261  1.00  0.00     0.163 HD
BRANCH  35  37
HETATM   37  C17 UNL     1       9.924  11.337  18.798  1.00  0.00     0.186 C 
BRANCH  37  38
HETATM   38  C18 UNL     1      11.005  11.517  19.868  1.00  0.00     0.163 C 
HETATM   39  O5  UNL     1      11.060  12.436  20.672  1.00  0.00    -0.648 OA
BRANCH  38  40
HETATM   40  O6  UNL     1      11.965  10.569  19.841  1.00  0.00    -0.775 OA
HETATM   41  H20 UNL     1      12.545  10.794  20.600  1.00  0.00     0.167 HD
ENDBRANCH  38  40
ENDBRANCH  37  38
BRANCH  37  42
HETATM   42  C19 UNL     1      10.291  12.037  17.464  1.00  0.00     0.014 C 
HETATM   43  C20 UNL     1      11.449  13.038  17.620  1.00  0.00     0.012 C 
BRANCH  42  44
HETATM   44  C21 UNL     1      10.693  11.031  16.360  1.00  0.00     0.002 C 
HETATM   45  C22 UNL     1       9.634   9.991  16.031  1.00  0.00     0.005 C 
ENDBRANCH  42  44
ENDBRANCH  37  42
ENDBRANCH  35  37
ENDBRANCH  32  33
BRANCH  32  46
HETATM   46  C23 UNL     1       7.010  12.723  21.468  1.00  0.00     0.009 C 
HETATM   47  C24 UNL     1       6.732  14.209  21.240  1.00  0.00     0.012 C 
HETATM   48  C25 UNL     1       6.549  12.304  22.866  1.00  0.00     0.012 C 
ENDBRANCH  32  46
ENDBRANCH  30  32
ENDBRANCH  27  28
ENDBRANCH  26  27
ENDBRANCH  13  26
TORSDOF 12
ENDMDL
MODEL 8
REMARK minimizedAffinity -7.98474026
REMARK CNNscore 0.195579305
REMARK CNNaffinity 5.60386133
REMARK  12 active torsions:
REMARK  status: ('A' for Active; 'I' for Inactive)
REMARK    1  A    between atoms: C3_3  and  O1_4 
REMARK    2  A    between atoms: N1_14  and  O2_16 
REMARK    3  A    between atoms: O2_16  and  C13_17 
REMARK    4  A    between atoms: C13_17  and  C14_18 
REMARK       I    between atoms: C14_18  and  N2_20 
REMARK    5  A    between atoms: N2_20  and  C15_21 
REMARK    6  A    between atoms: C15_21  and  C16_22 
REMARK    7  A    between atoms: C15_21  and  C23_33 
REMARK       I    between atoms: C16_22  and  N3_24 
REMARK    8  A    between atoms: N3_24  and  C17_25 
REMARK    9  A    between atoms: C17_25  and  C18_26 
REMARK   10  A    between atoms: C17_25  and  C19_29 
REMARK   11  A    between atoms: C18_26  and  O6_28 
REMARK   12  A    between atoms: C19_29  and  C21_31 
ROOT
HETATM    1  C1  UNL     1      -0.909   5.595  11.244  1.00  0.00     0.015 C 
HETATM    2  C2  UNL     1       0.255   5.882  11.160  1.00  0.00    -0.078 C 
HETATM    3  C3  UNL     1       1.692   6.219  11.075  1.00  0.00     0.128 C 
HETATM    4  C4  UNL     1       2.388   5.404   9.964  1.00  0.00     0.052 C 
HETATM    5  C5  UNL     1       3.089   6.407   9.047  1.00  0.00     0.010 C 
HETATM    6  C6  UNL     1       3.285   7.677   9.886  1.00  0.00     0.002 C 
HETATM    7  C7  UNL     1       4.655   7.773  10.622  1.00  0.00    -0.004 C 
HETATM    8  C8  UNL     1       5.217   6.459  11.201  1.00  0.00     0.010 C 
HETATM    9  C9  UNL     1       6.595   6.638  11.827  1.00  0.00     0.035 C 
HETATM   10  C10 UNL     1       6.613   7.749  12.843  1.00  0.00    -0.069 C 
HETATM   11  C11 UNL     1       7.097   7.519  14.076  1.00  0.00     0.030 C 
HETATM   12  C12 UNL     1       7.225   8.618  15.065  1.00  0.00     0.032 C 
HETATM   13  N1  UNL     1       7.366   8.295  16.316  1.00  0.00    -0.271 N 
ATOM     14  H1  UNL     1       7.357   7.334  16.659  1.00  0.00     0.194 HD
HETATM   15  C26 UNL     1       7.182  10.026  14.514  1.00  0.00     0.060 C 
HETATM   16  C27 UNL     1       5.991  10.117  13.564  1.00  0.00     0.020 C 
HETATM   17  C28 UNL     1       6.065   9.101  12.380  1.00  0.00    -0.016 C 
HETATM   18  C29 UNL     1       7.055   9.700  11.341  1.00  0.00     0.020 C 
HETATM   19  C30 UNL     1       4.648   8.909  11.690  1.00  0.00     0.002 C 
HETATM   20  C31 UNL     1       3.479   8.653  12.669  1.00  0.00     0.007 C 
HETATM   21  C32 UNL     1       2.123   8.647  11.966  1.00  0.00     0.014 C 
HETATM   22  C33 UNL     1       1.986   7.724  10.741  1.00  0.00     0.003 C 
HETATM   23  C34 UNL     1       0.847   8.326   9.854  1.00  0.00     0.020 C 
ENDROOT
BRANCH   3  24
HETATM   24  O1  UNL     1       2.269   5.855  12.325  1.00  0.00    -0.377 OA
HETATM   25  H2  UNL     1       1.982   4.948  12.523  1.00  0.00     0.211 HD
ENDBRANCH   3  24
BRANCH  13  26
HETATM   26  O2  UNL     1       7.531   9.416  17.143  1.00  0.00    -0.271 OA
BRANCH  26  27
HETATM   27  C13 UNL     1       6.729  10.475  16.637  1.00  0.00     0.303 C 
BRANCH  27  28
HETATM   28  C14 UNL     1       6.133  11.346  17.742  1.00  0.00     0.244 C 
HETATM   29  O3  UNL     1       5.308  10.949  18.562  1.00  0.00    -0.271 OA
HETATM   30  N2  UNL     1       6.573  12.662  17.703  1.00  0.00    -0.346 N 
HETATM   31  H16 UNL     1       7.527  12.787  17.378  1.00  0.00     0.163 HD
BRANCH  30  32
HETATM   32  C15 UNL     1       6.145  13.614  18.730  1.00  0.00     0.180 C 
BRANCH  32  33
HETATM   33  C16 UNL     1       7.409  14.082  19.493  1.00  0.00     0.241 C 
HETATM   34  O4  UNL     1       8.076  15.047  19.124  1.00  0.00    -0.271 OA
HETATM   35  N3  UNL     1       7.693  13.366  20.640  1.00  0.00    -0.344 N 
HETATM   36  H18 UNL     1       7.282  12.438  20.685  1.00  0.00     0.163 HD
BRANCH  35  37
HETATM   37  C17 UNL     1       9.017  13.460  21.276  1.00  0.00     0.186 C 
BRANCH  37  38
HETATM   38  C18 UNL     1       9.844  12.387  20.561  1.00  0.00     0.163 C 
HETATM   39  O5  UNL     1       9.390  11.405  19.991  1.00  0.00    -0.648 OA
BRANCH  38  40
HETATM   40  O6  UNL     1      11.177  12.582  20.638  1.00  0.00    -0.775 OA
HETATM   41  H20 UNL     1      11.557  11.851  20.103  1.00  0.00     0.167 HD
ENDBRANCH  38  40
ENDBRANCH  37  38
BRANCH  37  42
HETATM   42  C19 UNL     1       8.923  13.214  22.804  1.00  0.00     0.014 C 
HETATM   43  C20 UNL     1       8.257  14.382  23.552  1.00  0.00     0.012 C 
BRANCH  42  44
HETATM   44  C21 UNL     1       8.132  11.931  23.149  1.00  0.00     0.002 C 
HETATM   45  C22 UNL     1       6.621  12.101  23.166  1.00  0.00     0.005 C 
ENDBRANCH  42  44
ENDBRANCH  37  42
ENDBRANCH  35  37
ENDBRANCH  32  33
BRANCH  32  46
HETATM   46  C23 UNL     1       5.333  14.760  18.085  1.00  0.00     0.009 C 
HETATM   47  C24 UNL     1       4.891  15.808  19.107  1.00  0.00     0.012 C 
HETATM   48  C25 UNL     1       6.047  15.433  16.910  1.00  0.00     0.012 C 
ENDBRANCH  32  46
ENDBRANCH  30  32
ENDBRANCH  27  28
ENDBRANCH  26  27
ENDBRANCH  13  26
TORSDOF 12
ENDMDL
MODEL 9
REMARK minimizedAffinity -8.83203602
REMARK CNNscore 0.194305956
REMARK CNNaffinity 5.71397161
REMARK  12 active torsions:
REMARK  status: ('A' for Active; 'I' for Inactive)
REMARK    1  A    between atoms: C3_3  and  O1_4 
REMARK    2  A    between atoms: N1_14  and  O2_16 
REMARK    3  A    between atoms: O2_16  and  C13_17 
REMARK    4  A    between atoms: C13_17  and  C14_18 
REMARK       I    between atoms: C14_18  and  N2_20 
REMARK    5  A    between atoms: N2_20  and  C15_21 
REMARK    6  A    between atoms: C15_21  and  C16_22 
REMARK    7  A    between atoms: C15_21  and  C23_33 
REMARK       I    between atoms: C16_22  and  N3_24 
REMARK    8  A    between atoms: N3_24  and  C17_25 
REMARK    9  A    between atoms: C17_25  and  C18_26 
REMARK   10  A    between atoms: C17_25  and  C19_29 
REMARK   11  A    between atoms: C18_26  and  O6_28 
REMARK   12  A    between atoms: C19_29  and  C21_31 
ROOT
HETATM    1  C1  UNL     1      -0.774   5.226  11.130  1.00  0.00     0.015 C 
HETATM    2  C2  UNL     1       0.354   5.626  11.010  1.00  0.00    -0.078 C 
HETATM    3  C3  UNL     1       1.747   6.099  10.878  1.00  0.00     0.128 C 
HETATM    4  C4  UNL     1       2.436   5.463   9.651  1.00  0.00     0.052 C 
HETATM    5  C5  UNL     1       2.987   6.610   8.803  1.00  0.00     0.010 C 
HETATM    6  C6  UNL     1       3.128   7.805   9.755  1.00  0.00     0.002 C 
HETATM    7  C7  UNL     1       4.531   7.954  10.418  1.00  0.00    -0.004 C 
HETATM    8  C8  UNL     1       5.240   6.647  10.826  1.00  0.00     0.010 C 
HETATM    9  C9  UNL     1       6.636   6.890  11.387  1.00  0.00     0.035 C 
HETATM   10  C10 UNL     1       6.626   7.894  12.509  1.00  0.00    -0.069 C 
HETATM   11  C11 UNL     1       7.209   7.590  13.682  1.00  0.00     0.030 C 
HETATM   12  C12 UNL     1       7.308   8.596  14.769  1.00  0.00     0.032 C 
HETATM   13  N1  UNL     1       7.558   8.167  15.971  1.00  0.00    -0.271 N 
ATOM     14  H1  UNL     1       7.654   7.180  16.213  1.00  0.00     0.194 HD
HETATM   15  C26 UNL     1       7.109  10.041  14.369  1.00  0.00     0.060 C 
HETATM   16  C27 UNL     1       5.854  10.114  13.503  1.00  0.00     0.020 C 
HETATM   17  C28 UNL     1       5.936   9.229  12.218  1.00  0.00    -0.016 C 
HETATM   18  C29 UNL     1       6.800  10.014  11.192  1.00  0.00     0.020 C 
HETATM   19  C30 UNL     1       4.498   8.976  11.595  1.00  0.00     0.002 C 
HETATM   20  C31 UNL     1       3.422   8.520  12.608  1.00  0.00     0.007 C 
HETATM   21  C32 UNL     1       2.028   8.458  11.987  1.00  0.00     0.014 C 
HETATM   22  C33 UNL     1       1.889   7.650  10.683  1.00  0.00     0.003 C 
HETATM   23  C34 UNL     1       0.648   8.228   9.930  1.00  0.00     0.020 C 
ENDROOT
BRANCH   3  24
HETATM   24  O1  UNL     1       2.435   5.670  12.049  1.00  0.00    -0.377 OA
HETATM   25  H2  UNL     1       2.240   4.725  12.169  1.00  0.00     0.211 HD
ENDBRANCH   3  24
BRANCH  13  26
HETATM   26  O2  UNL     1       7.681   9.213  16.897  1.00  0.00    -0.271 OA
BRANCH  26  27
HETATM   27  C13 UNL     1       9.055   9.367  17.227  1.00  0.00     0.303 C 
BRANCH  27  28
HETATM   28  C14 UNL     1       9.507  10.827  17.219  1.00  0.00     0.244 C 
HETATM   29  O3  UNL     1       9.700  11.482  16.198  1.00  0.00    -0.271 OA
HETATM   30  N2  UNL     1       9.734  11.339  18.489  1.00  0.00    -0.346 N 
HETATM   31  H16 UNL     1       9.131  10.969  19.217  1.00  0.00     0.163 HD
BRANCH  30  32
HETATM   32  C15 UNL     1      10.112  12.744  18.662  1.00  0.00     0.180 C 
BRANCH  32  33
HETATM   33  C16 UNL     1       9.089  13.390  19.629  1.00  0.00     0.241 C 
HETATM   34  O4  UNL     1       8.748  14.567  19.528  1.00  0.00    -0.271 OA
HETATM   35  N3  UNL     1       8.558  12.530  20.570  1.00  0.00    -0.344 N 
HETATM   36  H18 UNL     1       9.109  11.699  20.759  1.00  0.00     0.163 HD
BRANCH  35  37
HETATM   37  C17 UNL     1       7.848  13.053  21.749  1.00  0.00     0.186 C 
BRANCH  37  38
HETATM   38  C18 UNL     1       8.612  12.450  22.932  1.00  0.00     0.163 C 
HETATM   39  O5  UNL     1       8.806  11.257  23.117  1.00  0.00    -0.648 OA
BRANCH  38  40
HETATM   40  O6  UNL     1       9.047  13.363  23.826  1.00  0.00    -0.775 OA
HETATM   41  H20 UNL     1       9.546  12.834  24.485  1.00  0.00     0.167 HD
ENDBRANCH  38  40
ENDBRANCH  37  38
BRANCH  37  42
HETATM   42  C19 UNL     1       6.355  12.637  21.736  1.00  0.00     0.014 C 
HETATM   43  C20 UNL     1       6.023  11.662  20.592  1.00  0.00     0.012 C 
BRANCH  42  44
HETATM   44  C21 UNL     1       5.916  11.967  23.058  1.00  0.00     0.002 C 
HETATM   45  C22 UNL     1       4.520  11.364  23.033  1.00  0.00     0.005 C 
ENDBRANCH  42  44
ENDBRANCH  37  42
ENDBRANCH  35  37
ENDBRANCH  32  33
BRANCH  32  46
HETATM   46  C23 UNL     1      11.581  12.843  19.132  1.00  0.00     0.009 C 
HETATM   47  C24 UNL     1      11.992  11.660  20.010  1.00  0.00     0.012 C 
HETATM   48  C25 UNL     1      12.581  13.029  17.989  1.00  0.00     0.012 C 
ENDBRANCH  32  46
ENDBRANCH  30  32
ENDBRANCH  27  28
ENDBRANCH  26  27
ENDBRANCH  13  26
TORSDOF 12
ENDMDL
