MODEL 1
REMARK minimizedAffinity -8.79472446
REMARK  8 active torsions:
REMARK  status: ('A' for Active; 'I' for Inactive)
REMARK    1  A    between atoms: C12_14  and  C13_15 
REMARK    2  A    between atoms: C13_15  and  C15_17 
REMARK    3  A    between atoms: C15_17  and  C16_18 
REMARK    4  A    between atoms: C16_18  and  C17_19 
REMARK    5  A    between atoms: C26_28  and  C27_29 
REMARK    6  A    between atoms: C27_29  and  C28_30 
REMARK    7  A    between atoms: C28_30  and  C29_31 
REMARK    8  A    between atoms: C29_31  and  O4_33 
ROOT
HETATM    1  C1  UNL     1       5.064   7.241  11.068  1.00  0.00     0.025 C 
HETATM    2  C2  UNL     1       4.133   8.150  11.377  1.00  0.00     0.015 C 
HETATM    3  C3  UNL     1       4.475   9.347  12.182  1.00  0.00     0.289 C 
HETATM    4  O1  UNL     1       5.592   9.738  12.467  1.00  0.00    -0.260 OA
HETATM    5  O2  UNL     1       3.311   9.952  12.537  1.00  0.00    -0.311 OA
HETATM    6  C4  UNL     1       2.192   9.116  12.189  1.00  0.00     0.142 C 
HETATM    7  C5  UNL     1       1.735   8.382  13.445  1.00  0.00     0.039 C 
HETATM    8  C6  UNL     1       0.640   7.324  13.238  1.00  0.00     0.006 C 
HETATM    9  C7  UNL     1       0.855   6.443  11.982  1.00  0.00    -0.027 A 
HETATM   10  C8  UNL     1      -0.274   5.419  11.741  1.00  0.00     0.011 C 
HETATM   11  C9  UNL     1      -1.701   5.955  11.921  1.00  0.00     0.011 C 
HETATM   12  C10 UNL     1      -1.858   6.669  13.272  1.00  0.00    -0.032 C 
HETATM   13  C11 UNL     1      -1.634   5.637  14.424  1.00  0.00     0.016 C 
HETATM   14  C12 UNL     1      -3.208   7.410  13.541  1.00  0.00    -0.002 C 
HETATM   15  C21 UNL     1      -2.783   8.503  14.570  1.00  0.00     0.006 C 
HETATM   16  C22 UNL     1      -1.246   8.605  14.549  1.00  0.00     0.011 C 
HETATM   17  C23 UNL     1      -0.826   7.870  13.267  1.00  0.00    -0.032 C 
HETATM   18  C24 UNL     1      -1.041   8.873  12.088  1.00  0.00     0.016 C 
HETATM   19  C25 UNL     1       2.197   5.779  11.780  1.00  0.00     0.022 A 
HETATM   20  C26 UNL     1       1.846   6.937  10.870  1.00  0.00    -0.021 A 
HETATM   21  C31 UNL     1       2.672   8.219  11.061  1.00  0.00     0.063 C 
ENDROOT
BRANCH  14  22
HETATM   22  C13 UNL     1      -4.467   6.617  14.017  1.00  0.00    -0.014 C 
HETATM   23  C14 UNL     1      -4.378   6.225  15.495  1.00  0.00     0.010 C 
BRANCH  22  24
HETATM   24  C15 UNL     1      -4.656   5.347  13.137  1.00  0.00     0.008 C 
BRANCH  24  25
HETATM   25  C16 UNL     1      -6.096   4.850  12.943  1.00  0.00     0.028 C 
BRANCH  25  26
HETATM   26  C17 UNL     1      -6.190   3.413  12.508  1.00  0.00    -0.025 C 
HETATM   27  C18 UNL     1      -5.404   2.773  11.619  1.00  0.00    -0.091 C 
HETATM   28  C19 UNL     1      -4.283   3.415  10.849  1.00  0.00     0.042 C 
HETATM   29  C20 UNL     1      -5.623   1.315  11.310  1.00  0.00     0.042 C 
ENDBRANCH  25  26
ENDBRANCH  24  25
ENDBRANCH  22  24
ENDBRANCH  14  22
BRANCH  20  30
HETATM   30  C27 UNL     1       1.423   6.721   9.412  1.00  0.00     0.021 C 
BRANCH  30  31
HETATM   31  C28 UNL     1       2.565   6.740   8.401  1.00  0.00     0.112 C 
BRANCH  31  32
HETATM   32  C29 UNL     1       3.164   5.375   8.182  1.00  0.00     0.258 C 
HETATM   33  O3  UNL     1       3.865   4.791   8.996  1.00  0.00    -0.265 OA
BRANCH  32  34
HETATM   34  O4  UNL     1       2.823   4.892   6.955  1.00  0.00    -0.326 OA
HETATM   35  C30 UNL     1       3.719   3.900   6.453  1.00  0.00     0.213 C 
ENDBRANCH  32  34
ENDBRANCH  31  32
ENDBRANCH  30  31
ENDBRANCH  20  30
TORSDOF 8
ENDMDL
MODEL 2
REMARK minimizedAffinity -8.75076485
REMARK  8 active torsions:
REMARK  status: ('A' for Active; 'I' for Inactive)
REMARK    1  A    between atoms: C12_14  and  C13_15 
REMARK    2  A    between atoms: C13_15  and  C15_17 
REMARK    3  A    between atoms: C15_17  and  C16_18 
REMARK    4  A    between atoms: C16_18  and  C17_19 
REMARK    5  A    between atoms: C26_28  and  C27_29 
REMARK    6  A    between atoms: C27_29  and  C28_30 
REMARK    7  A    between atoms: C28_30  and  C29_31 
REMARK    8  A    between atoms: C29_31  and  O4_33 
ROOT
HETATM    1  C1  UNL     1       4.151   7.486  10.007  1.00  0.00     0.025 C 
HETATM    2  C2  UNL     1       3.388   6.513  10.518  1.00  0.00     0.015 C 
HETATM    3  C3  UNL     1       3.173   5.246   9.779  1.00  0.00     0.289 C 
HETATM    4  O1  UNL     1       3.777   4.867   8.792  1.00  0.00    -0.260 OA
HETATM    5  O2  UNL     1       2.184   4.561  10.412  1.00  0.00    -0.311 OA
HETATM    6  C4  UNL     1       1.575   5.389  11.420  1.00  0.00     0.142 C 
HETATM    7  C5  UNL     1       0.280   5.958  10.854  1.00  0.00     0.039 C 
HETATM    8  C6  UNL     1      -0.438   6.991  11.737  1.00  0.00     0.006 C 
HETATM    9  C7  UNL     1       0.518   8.016  12.397  1.00  0.00    -0.027 A 
HETATM   10  C8  UNL     1      -0.195   9.018  13.330  1.00  0.00     0.011 C 
HETATM   11  C9  UNL     1      -1.246   8.412  14.270  1.00  0.00     0.011 C 
HETATM   12  C10 UNL     1      -2.247   7.544  13.494  1.00  0.00    -0.032 C 
HETATM   13  C11 UNL     1      -3.034   8.445  12.489  1.00  0.00     0.016 C 
HETATM   14  C12 UNL     1      -3.287   6.727  14.328  1.00  0.00    -0.002 C 
HETATM   15  C21 UNL     1      -3.618   5.540  13.370  1.00  0.00     0.006 C 
HETATM   16  C22 UNL     1      -2.536   5.500  12.273  1.00  0.00     0.011 C 
HETATM   17  C23 UNL     1      -1.406   6.390  12.810  1.00  0.00    -0.032 C 
HETATM   18  C24 UNL     1      -0.597   5.521  13.825  1.00  0.00     0.016 C 
HETATM   19  C25 UNL     1       1.512   8.748  11.526  1.00  0.00     0.022 A 
HETATM   20  C26 UNL     1       2.051   7.689  12.465  1.00  0.00    -0.021 A 
HETATM   21  C31 UNL     1       2.619   6.426  11.799  1.00  0.00     0.063 C 
ENDROOT
BRANCH  14  22
HETATM   22  C13 UNL     1      -4.580   7.413  14.876  1.00  0.00    -0.014 C 
HETATM   23  C14 UNL     1      -4.260   8.560  15.839  1.00  0.00     0.010 C 
BRANCH  22  24
HETATM   24  C15 UNL     1      -5.482   6.359  15.580  1.00  0.00     0.008 C 
BRANCH  24  25
HETATM   25  C16 UNL     1      -6.873   6.125  14.973  1.00  0.00     0.028 C 
BRANCH  25  26
HETATM   26  C17 UNL     1      -7.081   4.730  14.451  1.00  0.00    -0.025 C 
HETATM   27  C18 UNL     1      -7.667   4.366  13.293  1.00  0.00    -0.091 C 
HETATM   28  C19 UNL     1      -8.274   5.322  12.303  1.00  0.00     0.042 C 
HETATM   29  C20 UNL     1      -7.778   2.913  12.910  1.00  0.00     0.042 C 
ENDBRANCH  25  26
ENDBRANCH  24  25
ENDBRANCH  22  24
ENDBRANCH  14  22
BRANCH  20  30
HETATM   30  C27 UNL     1       2.787   8.054  13.760  1.00  0.00     0.021 C 
BRANCH  30  31
HETATM   31  C28 UNL     1       4.208   8.571  13.570  1.00  0.00     0.112 C 
BRANCH  31  32
HETATM   32  C29 UNL     1       5.206   7.842  14.433  1.00  0.00     0.258 C 
HETATM   33  O3  UNL     1       5.170   7.811  15.655  1.00  0.00    -0.265 OA
BRANCH  32  34
HETATM   34  O4  UNL     1       6.152   7.233  13.663  1.00  0.00    -0.326 OA
HETATM   35  C30 UNL     1       7.457   7.798  13.794  1.00  0.00     0.213 C 
ENDBRANCH  32  34
ENDBRANCH  31  32
ENDBRANCH  30  31
ENDBRANCH  20  30
TORSDOF 8
ENDMDL
MODEL 3
REMARK minimizedAffinity -8.71393776
REMARK  8 active torsions:
REMARK  status: ('A' for Active; 'I' for Inactive)
REMARK    1  A    between atoms: C12_14  and  C13_15 
REMARK    2  A    between atoms: C13_15  and  C15_17 
REMARK    3  A    between atoms: C15_17  and  C16_18 
REMARK    4  A    between atoms: C16_18  and  C17_19 
REMARK    5  A    between atoms: C26_28  and  C27_29 
REMARK    6  A    between atoms: C27_29  and  C28_30 
REMARK    7  A    between atoms: C28_30  and  C29_31 
REMARK    8  A    between atoms: C29_31  and  O4_33 
ROOT
HETATM    1  C1  UNL     1       3.525   7.478  10.109  1.00  0.00     0.025 C 
HETATM    2  C2  UNL     1       2.833   6.521  10.739  1.00  0.00     0.015 C 
HETATM    3  C3  UNL     1       2.720   5.159  10.163  1.00  0.00     0.289 C 
HETATM    4  O1  UNL     1       3.358   4.707   9.231  1.00  0.00    -0.260 OA
HETATM    5  O2  UNL     1       1.780   4.486  10.879  1.00  0.00    -0.311 OA
HETATM    6  C4  UNL     1       1.102   5.385  11.776  1.00  0.00     0.142 C 
HETATM    7  C5  UNL     1      -0.228   5.779  11.145  1.00  0.00     0.039 C 
HETATM    8  C6  UNL     1      -1.027   6.857  11.893  1.00  0.00     0.006 C 
HETATM    9  C7  UNL     1      -0.157   8.026  12.419  1.00  0.00    -0.027 A 
HETATM   10  C8  UNL     1      -0.950   9.079  13.220  1.00  0.00     0.011 C 
HETATM   11  C9  UNL     1      -1.961   8.518  14.230  1.00  0.00     0.011 C 
HETATM   12  C10 UNL     1      -2.888   7.487  13.570  1.00  0.00    -0.032 C 
HETATM   13  C11 UNL     1      -3.731   8.194  12.461  1.00  0.00     0.016 C 
HETATM   14  C12 UNL     1      -3.870   6.704  14.500  1.00  0.00    -0.002 C 
HETATM   15  C21 UNL     1      -4.104   5.385  13.698  1.00  0.00     0.006 C 
HETATM   16  C22 UNL     1      -3.012   5.291  12.614  1.00  0.00     0.011 C 
HETATM   17  C23 UNL     1      -1.957   6.323  13.033  1.00  0.00    -0.032 C 
HETATM   18  C24 UNL     1      -1.094   5.651  14.148  1.00  0.00     0.016 C 
HETATM   19  C25 UNL     1       0.787   8.717  11.463  1.00  0.00     0.022 A 
HETATM   20  C26 UNL     1       1.396   7.826  12.525  1.00  0.00    -0.021 A 
HETATM   21  C31 UNL     1       2.062   6.536  12.022  1.00  0.00     0.063 C 
ENDROOT
BRANCH  14  22
HETATM   22  C13 UNL     1      -5.215   7.354  14.959  1.00  0.00    -0.014 C 
HETATM   23  C14 UNL     1      -4.992   8.645  15.752  1.00  0.00     0.010 C 
BRANCH  22  24
HETATM   24  C15 UNL     1      -6.031   6.338  15.811  1.00  0.00     0.008 C 
BRANCH  24  25
HETATM   25  C16 UNL     1      -7.396   5.910  15.253  1.00  0.00     0.028 C 
BRANCH  25  26
HETATM   26  C17 UNL     1      -7.415   4.511  14.701  1.00  0.00    -0.025 C 
HETATM   27  C18 UNL     1      -7.680   4.133  13.435  1.00  0.00    -0.091 C 
HETATM   28  C19 UNL     1      -8.057   5.071  12.321  1.00  0.00     0.042 C 
HETATM   29  C20 UNL     1      -7.636   2.679  13.041  1.00  0.00     0.042 C 
ENDBRANCH  25  26
ENDBRANCH  24  25
ENDBRANCH  22  24
ENDBRANCH  14  22
BRANCH  20  30
HETATM   30  C27 UNL     1       2.091   8.404  13.764  1.00  0.00     0.021 C 
BRANCH  30  31
HETATM   31  C28 UNL     1       2.352   7.401  14.883  1.00  0.00     0.112 C 
BRANCH  31  32
HETATM   32  C29 UNL     1       1.688   7.796  16.176  1.00  0.00     0.258 C 
HETATM   33  O3  UNL     1       0.539   7.508  16.478  1.00  0.00    -0.265 OA
BRANCH  32  34
HETATM   34  O4  UNL     1       2.541   8.522  16.952  1.00  0.00    -0.326 OA
HETATM   35  C30 UNL     1       2.326   9.932  16.887  1.00  0.00     0.213 C 
ENDBRANCH  32  34
ENDBRANCH  31  32
ENDBRANCH  30  31
ENDBRANCH  20  30
TORSDOF 8
ENDMDL
MODEL 4
REMARK minimizedAffinity -8.56705189
REMARK  8 active torsions:
REMARK  status: ('A' for Active; 'I' for Inactive)
REMARK    1  A    between atoms: C12_14  and  C13_15 
REMARK    2  A    between atoms: C13_15  and  C15_17 
REMARK    3  A    between atoms: C15_17  and  C16_18 
REMARK    4  A    between atoms: C16_18  and  C17_19 
REMARK    5  A    between atoms: C26_28  and  C27_29 
REMARK    6  A    between atoms: C27_29  and  C28_30 
REMARK    7  A    between atoms: C28_30  and  C29_31 
REMARK    8  A    between atoms: C29_31  and  O4_33 
ROOT
HETATM    1  C1  UNL     1       2.247   7.570  14.290  1.00  0.00     0.025 C 
HETATM    2  C2  UNL     1       1.217   8.388  14.050  1.00  0.00     0.015 C 
HETATM    3  C3  UNL     1       1.201   9.770  14.588  1.00  0.00     0.289 C 
HETATM    4  O1  UNL     1       2.133  10.364  15.097  1.00  0.00    -0.260 OA
HETATM    5  O2  UNL     1      -0.047  10.274  14.395  1.00  0.00    -0.311 OA
HETATM    6  C4  UNL     1      -0.935   9.235  13.941  1.00  0.00     0.142 C 
HETATM    7  C5  UNL     1      -1.746   8.744  15.135  1.00  0.00     0.039 C 
HETATM    8  C6  UNL     1      -2.646   7.526  14.874  1.00  0.00     0.006 C 
HETATM    9  C7  UNL     1      -1.972   6.426  14.017  1.00  0.00    -0.027 A 
HETATM   10  C8  UNL     1      -2.896   5.229  13.706  1.00  0.00     0.011 C 
HETATM   11  C9  UNL     1      -4.328   5.591  13.289  1.00  0.00     0.011 C 
HETATM   12  C10 UNL     1      -4.969   6.559  14.294  1.00  0.00    -0.032 C 
HETATM   13  C11 UNL     1      -5.088   5.851  15.681  1.00  0.00     0.016 C 
HETATM   14  C12 UNL     1      -6.370   7.149  13.929  1.00  0.00    -0.002 C 
HETATM   15  C21 UNL     1      -6.379   8.492  14.725  1.00  0.00     0.006 C 
HETATM   16  C22 UNL     1      -4.931   8.796  15.158  1.00  0.00     0.011 C 
HETATM   17  C23 UNL     1      -4.065   7.859  14.304  1.00  0.00    -0.032 C 
HETATM   18  C24 UNL     1      -3.927   8.535  12.902  1.00  0.00     0.016 C 
HETATM   19  C25 UNL     1      -0.606   5.924  14.421  1.00  0.00     0.022 A 
HETATM   20  C26 UNL     1      -0.695   6.791  13.182  1.00  0.00    -0.021 A 
HETATM   21  C31 UNL     1      -0.055   8.184  13.288  1.00  0.00     0.063 C 
ENDROOT
BRANCH  14  22
HETATM   22  C13 UNL     1      -7.669   6.316  14.175  1.00  0.00    -0.014 C 
HETATM   23  C14 UNL     1      -7.774   5.822  15.620  1.00  0.00     0.010 C 
BRANCH  22  24
HETATM   24  C15 UNL     1      -7.720   5.111  13.192  1.00  0.00     0.008 C 
BRANCH  24  25
HETATM   25  C16 UNL     1      -7.360   3.734  13.769  1.00  0.00     0.028 C 
BRANCH  25  26
HETATM   26  C17 UNL     1      -7.316   2.638  12.741  1.00  0.00    -0.025 C 
HETATM   27  C18 UNL     1      -6.270   2.276  11.971  1.00  0.00    -0.091 C 
HETATM   28  C19 UNL     1      -4.928   2.956  11.977  1.00  0.00     0.042 C 
HETATM   29  C20 UNL     1      -6.389   1.133  10.997  1.00  0.00     0.042 C 
ENDBRANCH  25  26
ENDBRANCH  24  25
ENDBRANCH  22  24
ENDBRANCH  14  22
BRANCH  20  30
HETATM   30  C27 UNL     1      -0.590   6.200  11.771  1.00  0.00     0.021 C 
BRANCH  30  31
HETATM   31  C28 UNL     1       0.515   5.165  11.587  1.00  0.00     0.112 C 
BRANCH  31  32
HETATM   32  C29 UNL     1       1.582   5.626  10.629  1.00  0.00     0.258 C 
HETATM   33  O3  UNL     1       2.502   4.926  10.231  1.00  0.00    -0.265 OA
BRANCH  32  34
HETATM   34  O4  UNL     1       1.382   6.928  10.278  1.00  0.00    -0.326 OA
HETATM   35  C30 UNL     1       2.513   7.769  10.502  1.00  0.00     0.213 C 
ENDBRANCH  32  34
ENDBRANCH  31  32
ENDBRANCH  30  31
ENDBRANCH  20  30
TORSDOF 8
ENDMDL
MODEL 5
REMARK minimizedAffinity -8.49803066
REMARK  8 active torsions:
REMARK  status: ('A' for Active; 'I' for Inactive)
REMARK    1  A    between atoms: C12_14  and  C13_15 
REMARK    2  A    between atoms: C13_15  and  C15_17 
REMARK    3  A    between atoms: C15_17  and  C16_18 
REMARK    4  A    between atoms: C16_18  and  C17_19 
REMARK    5  A    between atoms: C26_28  and  C27_29 
REMARK    6  A    between atoms: C27_29  and  C28_30 
REMARK    7  A    between atoms: C28_30  and  C29_31 
REMARK    8  A    between atoms: C29_31  and  O4_33 
ROOT
HETATM    1  C1  UNL     1       4.861   5.926  10.782  1.00  0.00     0.025 C 
HETATM    2  C2  UNL     1       4.280   6.951  11.415  1.00  0.00     0.015 C 
HETATM    3  C3  UNL     1       5.025   7.747  12.419  1.00  0.00     0.289 C 
HETATM    4  O1  UNL     1       6.223   7.712  12.633  1.00  0.00    -0.260 OA
HETATM    5  O2  UNL     1       4.131   8.548  13.058  1.00  0.00    -0.311 OA
HETATM    6  C4  UNL     1       2.789   8.189  12.682  1.00  0.00     0.142 C 
HETATM    7  C5  UNL     1       2.200   7.318  13.785  1.00  0.00     0.039 C 
HETATM    8  C6  UNL     1       0.819   6.712  13.491  1.00  0.00     0.006 C 
HETATM    9  C7  UNL     1       0.674   6.164  12.049  1.00  0.00    -0.027 A 
HETATM   10  C8  UNL     1      -0.731   5.608  11.734  1.00  0.00     0.011 C 
HETATM   11  C9  UNL     1      -1.906   6.466  12.224  1.00  0.00     0.011 C 
HETATM   12  C10 UNL     1      -1.752   6.818  13.711  1.00  0.00    -0.032 C 
HETATM   13  C11 UNL     1      -1.795   5.503  14.554  1.00  0.00     0.016 C 
HETATM   14  C12 UNL     1      -2.785   7.820  14.323  1.00  0.00    -0.002 C 
HETATM   15  C21 UNL     1      -1.980   8.438  15.509  1.00  0.00     0.006 C 
HETATM   16  C22 UNL     1      -0.492   8.094  15.303  1.00  0.00     0.011 C 
HETATM   17  C23 UNL     1      -0.399   7.630  13.843  1.00  0.00    -0.032 C 
HETATM   18  C24 UNL     1      -0.358   8.922  12.966  1.00  0.00     0.016 C 
HETATM   19  C25 UNL     1       1.727   5.218  11.521  1.00  0.00     0.022 A 
HETATM   20  C26 UNL     1       1.703   6.624  10.957  1.00  0.00    -0.021 A 
HETATM   21  C31 UNL     1       2.897   7.518  11.324  1.00  0.00     0.063 C 
ENDROOT
BRANCH  14  22
HETATM   22  C13 UNL     1      -4.198   7.327  14.770  1.00  0.00    -0.014 C 
HETATM   23  C14 UNL     1      -4.118   6.154  15.751  1.00  0.00     0.010 C 
BRANCH  22  24
HETATM   24  C15 UNL     1      -5.038   6.924  13.522  1.00  0.00     0.008 C 
BRANCH  24  25
HETATM   25  C16 UNL     1      -5.908   5.666  13.653  1.00  0.00     0.028 C 
BRANCH  25  26
HETATM   26  C17 UNL     1      -5.521   4.559  12.711  1.00  0.00    -0.025 C 
HETATM   27  C18 UNL     1      -6.186   3.411  12.476  1.00  0.00    -0.091 C 
HETATM   28  C19 UNL     1      -7.456   3.001  13.170  1.00  0.00     0.042 C 
HETATM   29  C20 UNL     1      -5.666   2.410  11.477  1.00  0.00     0.042 C 
ENDBRANCH  25  26
ENDBRANCH  24  25
ENDBRANCH  22  24
ENDBRANCH  14  22
BRANCH  20  30
HETATM   30  C27 UNL     1       1.149   6.925   9.559  1.00  0.00     0.021 C 
BRANCH  30  31
HETATM   31  C28 UNL     1       1.484   8.310   9.018  1.00  0.00     0.112 C 
BRANCH  31  32
HETATM   32  C29 UNL     1       2.521   8.267   7.925  1.00  0.00     0.258 C 
HETATM   33  O3  UNL     1       3.311   9.169   7.687  1.00  0.00    -0.265 OA
BRANCH  32  34
HETATM   34  O4  UNL     1       2.448   7.090   7.241  1.00  0.00    -0.326 OA
HETATM   35  C30 UNL     1       1.611   7.143   6.085  1.00  0.00     0.213 C 
ENDBRANCH  32  34
ENDBRANCH  31  32
ENDBRANCH  30  31
ENDBRANCH  20  30
TORSDOF 8
ENDMDL
MODEL 6
REMARK minimizedAffinity -8.29002571
REMARK  8 active torsions:
REMARK  status: ('A' for Active; 'I' for Inactive)
REMARK    1  A    between atoms: C12_14  and  C13_15 
REMARK    2  A    between atoms: C13_15  and  C15_17 
REMARK    3  A    between atoms: C15_17  and  C16_18 
REMARK    4  A    between atoms: C16_18  and  C17_19 
REMARK    5  A    between atoms: C26_28  and  C27_29 
REMARK    6  A    between atoms: C27_29  and  C28_30 
REMARK    7  A    between atoms: C28_30  and  C29_31 
REMARK    8  A    between atoms: C29_31  and  O4_33 
ROOT
HETATM    1  C1  UNL     1       2.686   7.333  11.784  1.00  0.00     0.025 C 
HETATM    2  C2  UNL     1       1.858   6.306  12.007  1.00  0.00     0.015 C 
HETATM    3  C3  UNL     1       1.786   5.167  11.061  1.00  0.00     0.289 C 
HETATM    4  O1  UNL     1       2.553   4.931  10.146  1.00  0.00    -0.260 OA
HETATM    5  O2  UNL     1       0.712   4.409  11.408  1.00  0.00    -0.311 OA
HETATM    6  C4  UNL     1      -0.068   5.087  12.411  1.00  0.00     0.142 C 
HETATM    7  C5  UNL     1      -1.256   5.753  11.725  1.00  0.00     0.039 C 
HETATM    8  C6  UNL     1      -2.123   6.653  12.618  1.00  0.00     0.006 C 
HETATM    9  C7  UNL     1      -1.305   7.554  13.577  1.00  0.00    -0.027 A 
HETATM   10  C8  UNL     1      -2.176   8.415  14.515  1.00  0.00     0.011 C 
HETATM   11  C9  UNL     1      -3.365   7.691  15.162  1.00  0.00     0.011 C 
HETATM   12  C10 UNL     1      -4.211   6.963  14.106  1.00  0.00    -0.032 C 
HETATM   13  C11 UNL     1      -4.825   8.017  13.129  1.00  0.00     0.016 C 
HETATM   14  C12 UNL     1      -5.368   6.046  14.620  1.00  0.00    -0.002 C 
HETATM   15  C21 UNL     1      -5.519   5.021  13.453  1.00  0.00     0.006 C 
HETATM   16  C22 UNL     1      -4.266   5.129  12.562  1.00  0.00     0.011 C 
HETATM   17  C23 UNL     1      -3.253   5.913  13.409  1.00  0.00    -0.032 C 
HETATM   18  C24 UNL     1      -2.619   4.890  14.405  1.00  0.00     0.016 C 
HETATM   19  C25 UNL     1      -0.185   8.393  13.006  1.00  0.00     0.022 A 
HETATM   20  C26 UNL     1       0.198   7.197  13.853  1.00  0.00    -0.021 A 
HETATM   21  C31 UNL     1       0.885   6.039  13.112  1.00  0.00     0.063 C 
ENDROOT
BRANCH  14  22
HETATM   22  C13 UNL     1      -6.742   6.663  15.037  1.00  0.00    -0.014 C 
HETATM   23  C14 UNL     1      -7.035   6.466  16.528  1.00  0.00     0.010 C 
BRANCH  22  24
HETATM   24  C15 UNL     1      -7.883   6.041  14.181  1.00  0.00     0.008 C 
BRANCH  24  25
HETATM   25  C16 UNL     1      -9.019   6.983  13.756  1.00  0.00     0.028 C 
BRANCH  25  26
HETATM   26  C17 UNL     1     -10.377   6.555  14.241  1.00  0.00    -0.025 C 
HETATM   27  C18 UNL     1     -11.577   6.985  13.805  1.00  0.00    -0.091 C 
HETATM   28  C19 UNL     1     -11.777   8.036  12.748  1.00  0.00     0.042 C 
HETATM   29  C20 UNL     1     -12.851   6.435  14.391  1.00  0.00     0.042 C 
ENDBRANCH  25  26
ENDBRANCH  24  25
ENDBRANCH  22  24
ENDBRANCH  14  22
BRANCH  20  30
HETATM   30  C27 UNL     1       0.699   7.354  15.294  1.00  0.00     0.021 C 
BRANCH  30  31
HETATM   31  C28 UNL     1       1.727   8.460  15.503  1.00  0.00     0.112 C 
BRANCH  31  32
HETATM   32  C29 UNL     1       1.584   9.134  16.843  1.00  0.00     0.258 C 
HETATM   33  O3  UNL     1       2.510   9.337  17.615  1.00  0.00    -0.265 OA
BRANCH  32  34
HETATM   34  O4  UNL     1       0.285   9.475  17.073  1.00  0.00    -0.326 OA
HETATM   35  C30 UNL     1       0.016  10.869  16.923  1.00  0.00     0.213 C 
ENDBRANCH  32  34
ENDBRANCH  31  32
ENDBRANCH  30  31
ENDBRANCH  20  30
TORSDOF 8
ENDMDL
MODEL 7
REMARK minimizedAffinity -8.17022991
REMARK  8 active torsions:
REMARK  status: ('A' for Active; 'I' for Inactive)
REMARK    1  A    between atoms: C12_14  and  C13_15 
REMARK    2  A    between atoms: C13_15  and  C15_17 
REMARK    3  A    between atoms: C15_17  and  C16_18 
REMARK    4  A    between atoms: C16_18  and  C17_19 
REMARK    5  A    between atoms: C26_28  and  C27_29 
REMARK    6  A    between atoms: C27_29  and  C28_30 
REMARK    7  A    between atoms: C28_30  and  C29_31 
REMARK    8  A    between atoms: C29_31  and  O4_33 
ROOT
HETATM    1  C1  UNL     1       1.703   7.032  14.288  1.00  0.00     0.025 C 
HETATM    2  C2  UNL     1       0.714   7.905  14.069  1.00  0.00     0.015 C 
HETATM    3  C3  UNL     1       0.767   9.275  14.637  1.00  0.00     0.289 C 
HETATM    4  O1  UNL     1       1.729   9.811  15.156  1.00  0.00    -0.260 OA
HETATM    5  O2  UNL     1      -0.455   9.843  14.459  1.00  0.00    -0.311 OA
HETATM    6  C4  UNL     1      -1.394   8.860  13.986  1.00  0.00     0.142 C 
HETATM    7  C5  UNL     1      -2.225   8.383  15.172  1.00  0.00     0.039 C 
HETATM    8  C6  UNL     1      -3.185   7.217  14.888  1.00  0.00     0.006 C 
HETATM    9  C7  UNL     1      -2.568   6.103  14.005  1.00  0.00    -0.027 A 
HETATM   10  C8  UNL     1      -3.550   4.961  13.671  1.00  0.00     0.011 C 
HETATM   11  C9  UNL     1      -4.964   5.401  13.267  1.00  0.00     0.011 C 
HETATM   12  C10 UNL     1      -5.554   6.378  14.295  1.00  0.00    -0.032 C 
HETATM   13  C11 UNL     1      -5.704   5.646  15.667  1.00  0.00     0.016 C 
HETATM   14  C12 UNL     1      -6.925   7.044  13.948  1.00  0.00    -0.002 C 
HETATM   15  C21 UNL     1      -6.866   8.368  14.772  1.00  0.00     0.006 C 
HETATM   16  C22 UNL     1      -5.404   8.591  15.207  1.00  0.00     0.011 C 
HETATM   17  C23 UNL     1      -4.587   7.631  14.330  1.00  0.00    -0.032 C 
HETATM   18  C24 UNL     1      -4.419   8.330  12.942  1.00  0.00     0.016 C 
HETATM   19  C25 UNL     1      -1.227   5.527  14.393  1.00  0.00     0.022 A 
HETATM   20  C26 UNL     1      -1.276   6.424  13.174  1.00  0.00    -0.021 A 
HETATM   21  C31 UNL     1      -0.568   7.781  13.307  1.00  0.00     0.063 C 
ENDROOT
BRANCH  14  22
HETATM   22  C13 UNL     1      -8.263   6.271  14.180  1.00  0.00    -0.014 C 
HETATM   23  C14 UNL     1      -8.604   5.342  13.011  1.00  0.00     0.010 C 
BRANCH  22  24
HETATM   24  C15 UNL     1      -9.424   7.281  14.417  1.00  0.00     0.008 C 
BRANCH  24  25
HETATM   25  C16 UNL     1     -10.757   6.976  13.719  1.00  0.00     0.028 C 
BRANCH  25  26
HETATM   26  C17 UNL     1     -11.525   8.205  13.314  1.00  0.00    -0.025 C 
HETATM   27  C18 UNL     1     -12.827   8.284  12.978  1.00  0.00    -0.091 C 
HETATM   28  C19 UNL     1     -13.766   7.111  12.906  1.00  0.00     0.042 C 
HETATM   29  C20 UNL     1     -13.449   9.608  12.614  1.00  0.00     0.042 C 
ENDBRANCH  25  26
ENDBRANCH  24  25
ENDBRANCH  22  24
ENDBRANCH  14  22
BRANCH  20  30
HETATM   30  C27 UNL     1      -1.204   5.858  11.750  1.00  0.00     0.021 C 
BRANCH  30  31
HETATM   31  C28 UNL     1       0.085   6.171  10.998  1.00  0.00     0.112 C 
BRANCH  31  32
HETATM   32  C29 UNL     1       1.108   5.072  11.125  1.00  0.00     0.258 C 
HETATM   33  O3  UNL     1       0.835   3.894  11.308  1.00  0.00    -0.265 OA
BRANCH  32  34
HETATM   34  O4  UNL     1       2.370   5.575  11.018  1.00  0.00    -0.326 OA
HETATM   35  C30 UNL     1       2.621   6.251   9.786  1.00  0.00     0.213 C 
ENDBRANCH  32  34
ENDBRANCH  31  32
ENDBRANCH  30  31
ENDBRANCH  20  30
TORSDOF 8
ENDMDL
MODEL 8
REMARK minimizedAffinity -8.12837219
REMARK  8 active torsions:
REMARK  status: ('A' for Active; 'I' for Inactive)
REMARK    1  A    between atoms: C12_14  and  C13_15 
REMARK    2  A    between atoms: C13_15  and  C15_17 
REMARK    3  A    between atoms: C15_17  and  C16_18 
REMARK    4  A    between atoms: C16_18  and  C17_19 
REMARK    5  A    between atoms: C26_28  and  C27_29 
REMARK    6  A    between atoms: C27_29  and  C28_30 
REMARK    7  A    between atoms: C28_30  and  C29_31 
REMARK    8  A    between atoms: C29_31  and  O4_33 
ROOT
HETATM    1  C1  UNL     1       3.889   7.456   9.529  1.00  0.00     0.025 C 
HETATM    2  C2  UNL     1       3.238   6.479  10.170  1.00  0.00     0.015 C 
HETATM    3  C3  UNL     1       3.010   5.164   9.523  1.00  0.00     0.289 C 
HETATM    4  O1  UNL     1       3.521   4.760   8.495  1.00  0.00    -0.260 OA
HETATM    5  O2  UNL     1       2.134   4.470  10.296  1.00  0.00    -0.311 OA
HETATM    6  C4  UNL     1       1.597   5.324  11.324  1.00  0.00     0.142 C 
HETATM    7  C5  UNL     1       0.219   5.800  10.880  1.00  0.00     0.039 C 
HETATM    8  C6  UNL     1      -0.450   6.846  11.785  1.00  0.00     0.006 C 
HETATM    9  C7  UNL     1       0.518   7.949  12.282  1.00  0.00    -0.027 A 
HETATM   10  C8  UNL     1      -0.139   8.967  13.239  1.00  0.00     0.011 C 
HETATM   11  C9  UNL     1      -1.048   8.365  14.320  1.00  0.00     0.011 C 
HETATM   12  C10 UNL     1      -2.082   7.411  13.705  1.00  0.00    -0.032 C 
HETATM   13  C11 UNL     1      -3.019   8.219  12.751  1.00  0.00     0.016 C 
HETATM   14  C12 UNL     1      -2.980   6.594  14.690  1.00  0.00    -0.002 C 
HETATM   15  C21 UNL     1      -3.352   5.342  13.835  1.00  0.00     0.006 C 
HETATM   16  C22 UNL     1      -2.396   5.291  12.627  1.00  0.00     0.011 C 
HETATM   17  C23 UNL     1      -1.262   6.261  12.988  1.00  0.00    -0.032 C 
HETATM   18  C24 UNL     1      -0.303   5.487  13.948  1.00  0.00     0.016 C 
HETATM   19  C25 UNL     1       1.372   8.677  11.270  1.00  0.00     0.022 A 
HETATM   20  C26 UNL     1       2.064   7.697  12.194  1.00  0.00    -0.021 A 
HETATM   21  C31 UNL     1       2.621   6.426  11.532  1.00  0.00     0.063 C 
ENDROOT
BRANCH  14  22
HETATM   22  C13 UNL     1      -4.239   7.249  15.344  1.00  0.00    -0.014 C 
HETATM   23  C14 UNL     1      -5.516   6.970  14.547  1.00  0.00     0.010 C 
BRANCH  22  24
HETATM   24  C15 UNL     1      -4.022   8.784  15.488  1.00  0.00     0.008 C 
BRANCH  24  25
HETATM   25  C16 UNL     1      -3.134   9.249  16.651  1.00  0.00     0.028 C 
BRANCH  25  26
HETATM   26  C17 UNL     1      -3.682  10.435  17.396  1.00  0.00    -0.025 C 
HETATM   27  C18 UNL     1      -3.067  11.158  18.353  1.00  0.00    -0.091 C 
HETATM   28  C19 UNL     1      -1.692  10.873  18.891  1.00  0.00     0.042 C 
HETATM   29  C20 UNL     1      -3.756  12.338  18.989  1.00  0.00     0.042 C 
ENDBRANCH  25  26
ENDBRANCH  24  25
ENDBRANCH  22  24
ENDBRANCH  14  22
BRANCH  20  30
HETATM   30  C27 UNL     1       2.917   8.166  13.379  1.00  0.00     0.021 C 
BRANCH  30  31
HETATM   31  C28 UNL     1       4.415   7.917  13.233  1.00  0.00     0.112 C 
BRANCH  31  32
HETATM   32  C29 UNL     1       5.153   8.067  14.539  1.00  0.00     0.258 C 
HETATM   33  O3  UNL     1       4.702   7.739  15.627  1.00  0.00    -0.265 OA
BRANCH  32  34
HETATM   34  O4  UNL     1       6.380   8.623  14.335  1.00  0.00    -0.326 OA
HETATM   35  C30 UNL     1       7.276   8.469  15.436  1.00  0.00     0.213 C 
ENDBRANCH  32  34
ENDBRANCH  31  32
ENDBRANCH  30  31
ENDBRANCH  20  30
TORSDOF 8
ENDMDL
MODEL 9
REMARK minimizedAffinity -8.05567646
REMARK  8 active torsions:
REMARK  status: ('A' for Active; 'I' for Inactive)
REMARK    1  A    between atoms: C12_14  and  C13_15 
REMARK    2  A    between atoms: C13_15  and  C15_17 
REMARK    3  A    between atoms: C15_17  and  C16_18 
REMARK    4  A    between atoms: C16_18  and  C17_19 
REMARK    5  A    between atoms: C26_28  and  C27_29 
REMARK    6  A    between atoms: C27_29  and  C28_30 
REMARK    7  A    between atoms: C28_30  and  C29_31 
REMARK    8  A    between atoms: C29_31  and  O4_33 
ROOT
HETATM    1  C1  UNL     1      -9.844   6.663  14.263  1.00  0.00     0.025 C 
HETATM    2  C2  UNL     1      -8.893   6.730  15.202  1.00  0.00     0.015 C 
HETATM    3  C3  UNL     1      -8.991   7.704  16.316  1.00  0.00     0.289 C 
HETATM    4  O1  UNL     1      -9.964   8.370  16.617  1.00  0.00    -0.260 OA
HETATM    5  O2  UNL     1      -7.795   7.712  16.963  1.00  0.00    -0.311 OA
HETATM    6  C4  UNL     1      -6.826   6.947  16.223  1.00  0.00     0.142 C 
HETATM    7  C5  UNL     1      -5.957   7.916  15.429  1.00  0.00     0.039 C 
HETATM    8  C6  UNL     1      -4.957   7.272  14.456  1.00  0.00     0.006 C 
HETATM    9  C7  UNL     1      -5.544   6.083  13.657  1.00  0.00    -0.027 A 
HETATM   10  C8  UNL     1      -4.524   5.399  12.722  1.00  0.00     0.011 C 
HETATM   11  C9  UNL     1      -3.136   5.151  13.329  1.00  0.00     0.011 C 
HETATM   12  C10 UNL     1      -2.567   6.434  13.952  1.00  0.00    -0.032 C 
HETATM   13  C11 UNL     1      -2.365   7.501  12.829  1.00  0.00     0.016 C 
HETATM   14  C12 UNL     1      -1.229   6.312  14.752  1.00  0.00    -0.002 C 
HETATM   15  C21 UNL     1      -1.327   7.516  15.741  1.00  0.00     0.006 C 
HETATM   16  C22 UNL     1      -2.789   8.005  15.751  1.00  0.00     0.011 C 
HETATM   17  C23 UNL     1      -3.582   6.870  15.087  1.00  0.00    -0.032 C 
HETATM   18  C24 UNL     1      -3.801   5.778  16.182  1.00  0.00     0.016 C 
HETATM   19  C25 UNL     1      -6.855   6.272  12.929  1.00  0.00     0.022 A 
HETATM   20  C26 UNL     1      -6.862   5.402  14.169  1.00  0.00    -0.021 A 
HETATM   21  C31 UNL     1      -7.621   5.963  15.382  1.00  0.00     0.063 C 
ENDROOT
BRANCH  14  22
HETATM   22  C13 UNL     1       0.142   6.281  14.003  1.00  0.00    -0.014 C 
HETATM   23  C14 UNL     1       1.102   7.361  14.511  1.00  0.00     0.010 C 
BRANCH  22  24
HETATM   24  C15 UNL     1      -0.086   6.446  12.473  1.00  0.00     0.008 C 
BRANCH  24  25
HETATM   25  C16 UNL     1       0.987   5.854  11.547  1.00  0.00     0.028 C 
BRANCH  25  26
HETATM   26  C17 UNL     1       1.067   6.526  10.204  1.00  0.00    -0.025 C 
HETATM   27  C18 UNL     1       2.027   6.379   9.269  1.00  0.00    -0.091 C 
HETATM   28  C19 UNL     1       3.251   5.519   9.427  1.00  0.00     0.042 C 
HETATM   29  C20 UNL     1       1.944   7.116   7.958  1.00  0.00     0.042 C 
ENDBRANCH  25  26
ENDBRANCH  24  25
ENDBRANCH  22  24
ENDBRANCH  14  22
BRANCH  20  30
HETATM   30  C27 UNL     1      -6.936   3.872  14.084  1.00  0.00     0.021 C 
BRANCH  30  31
HETATM   31  C28 UNL     1      -7.678   3.330  12.866  1.00  0.00     0.112 C 
BRANCH  31  32
HETATM   32  C29 UNL     1      -6.945   2.191  12.207  1.00  0.00     0.258 C 
HETATM   33  O3  UNL     1      -7.184   1.008  12.407  1.00  0.00    -0.265 OA
BRANCH  32  34
HETATM   34  O4  UNL     1      -5.979   2.662  11.368  1.00  0.00    -0.326 OA
HETATM   35  C30 UNL     1      -4.726   1.990  11.493  1.00  0.00     0.213 C 
ENDBRANCH  32  34
ENDBRANCH  31  32
ENDBRANCH  30  31
ENDBRANCH  20  30
TORSDOF 8
ENDMDL
