MODEL 1
REMARK minimizedAffinity -9.20279312
REMARK  6 active torsions:
REMARK  status: ('A' for Active; 'I' for Inactive)
REMARK    1  A    between atoms: C2_2  and  C30_32 
REMARK    2  A    between atoms: C3_3  and  C4_4 
REMARK    3  A    between atoms: C4_4  and  C5_5 
REMARK    4  A    between atoms: C5_5  and  C6_6 
REMARK    5  A    between atoms: C6_6  and  C8_8 
REMARK    6  A    between atoms: C30_32  and  O4_34 
ROOT
HETATM    1  C8  UNL     1      -1.901   6.248  13.335  1.00  0.00    -0.002 C 
HETATM    2  C9  UNL     1      -2.045   5.772  11.860  1.00  0.00     0.007 C 
HETATM    3  C10 UNL     1      -0.652   5.842  11.208  1.00  0.00     0.015 C 
HETATM    4  C11 UNL     1       0.331   6.005  12.382  1.00  0.00    -0.005 C 
HETATM    5  C12 UNL     1       0.601   4.579  12.955  1.00  0.00     0.021 C 
HETATM    6  C13 UNL     1       1.714   6.598  12.145  1.00  0.00    -0.000 C 
HETATM    7  C14 UNL     1       2.362   7.291  13.119  1.00  0.00    -0.060 C 
HETATM    8  C15 UNL     1       1.682   7.537  14.474  1.00  0.00     0.036 C 
HETATM    9  C16 UNL     1       0.230   7.050  14.656  1.00  0.00     0.015 C 
HETATM   10  C17 UNL     1      -0.513   6.960  13.318  1.00  0.00    -0.028 C 
HETATM   11  C18 UNL     1      -0.680   8.400  12.737  1.00  0.00     0.016 C 
HETATM   12  C19 UNL     1       3.779   7.902  12.938  1.00  0.00    -0.014 C 
HETATM   13  C20 UNL     1       3.597   9.415  12.689  1.00  0.00     0.020 C 
HETATM   14  C21 UNL     1       4.642   7.667  14.200  1.00  0.00     0.021 C 
HETATM   15  C22 UNL     1       6.092   8.116  14.098  1.00  0.00     0.080 C 
HETATM   16  C23 UNL     1       6.630   8.364  12.711  1.00  0.00     0.135 C 
HETATM   17  O1  UNL     1       7.642   9.063  12.588  1.00  0.00    -0.297 OA
HETATM   18  C24 UNL     1       5.985   7.682  11.497  1.00  0.00     0.018 C 
HETATM   19  C25 UNL     1       6.061   8.672  10.311  1.00  0.00     0.023 C 
HETATM   20  C26 UNL     1       6.884   6.475  11.155  1.00  0.00     0.023 C 
HETATM   21  C27 UNL     1       4.532   7.175  11.781  1.00  0.00     0.020 C 
HETATM   22  C28 UNL     1       3.657   7.096  10.528  1.00  0.00     0.090 C 
HETATM   23  C29 UNL     1       2.373   6.368  10.822  1.00  0.00     0.157 C 
HETATM   24  O2  UNL     1       1.874   5.629   9.976  1.00  0.00    -0.293 OA
ENDROOT
BRANCH   1  25
HETATM   25  C6  UNL     1      -3.174   7.011  13.821  1.00  0.00    -0.014 C 
HETATM   26  C7  UNL     1      -3.290   7.031  15.349  1.00  0.00     0.010 C 
BRANCH  25  27
HETATM   27  C5  UNL     1      -4.447   6.374  13.197  1.00  0.00     0.008 C 
BRANCH  27  28
HETATM   28  C4  UNL     1      -4.457   4.840  13.220  1.00  0.00     0.028 C 
BRANCH  28  29
HETATM   29  C3  UNL     1      -5.864   4.307  13.252  1.00  0.00    -0.013 C 
HETATM   30  C2  UNL     1      -6.363   3.273  12.543  1.00  0.00     0.008 C 
HETATM   31  C1  UNL     1      -5.607   2.460  11.533  1.00  0.00     0.055 C 
BRANCH  30  32
HETATM   32  C30 UNL     1      -7.781   2.852  12.705  1.00  0.00     0.171 C 
HETATM   33  O3  UNL     1      -8.725   3.608  12.861  1.00  0.00    -0.646 OA
BRANCH  32  34
HETATM   34  O4  UNL     1      -7.967   1.522  12.666  1.00  0.00    -0.773 OA
HETATM   35  H44 UNL     1      -8.934   1.423  12.784  1.00  0.00     0.167 HD
ENDBRANCH  32  34
ENDBRANCH  30  32
ENDBRANCH  28  29
ENDBRANCH  27  28
ENDBRANCH  25  27
ENDBRANCH   1  25
TORSDOF 6
ENDMDL
MODEL 2
REMARK minimizedAffinity -9.14245892
REMARK  6 active torsions:
REMARK  status: ('A' for Active; 'I' for Inactive)
REMARK    1  A    between atoms: C2_2  and  C30_32 
REMARK    2  A    between atoms: C3_3  and  C4_4 
REMARK    3  A    between atoms: C4_4  and  C5_5 
REMARK    4  A    between atoms: C5_5  and  C6_6 
REMARK    5  A    between atoms: C6_6  and  C8_8 
REMARK    6  A    between atoms: C30_32  and  O4_34 
ROOT
HETATM    1  C8  UNL     1      -2.246   7.759  13.865  1.00  0.00    -0.002 C 
HETATM    2  C9  UNL     1      -2.091   7.212  15.313  1.00  0.00     0.007 C 
HETATM    3  C10 UNL     1      -0.599   7.284  15.683  1.00  0.00     0.015 C 
HETATM    4  C11 UNL     1       0.035   8.189  14.612  1.00  0.00    -0.005 C 
HETATM    5  C12 UNL     1      -0.211   9.665  15.056  1.00  0.00     0.021 C 
HETATM    6  C13 UNL     1       1.531   8.111  14.332  1.00  0.00    -0.000 C 
HETATM    7  C14 UNL     1       2.035   8.392  13.101  1.00  0.00    -0.060 C 
HETATM    8  C15 UNL     1       1.091   8.747  11.943  1.00  0.00     0.036 C 
HETATM    9  C16 UNL     1      -0.429   8.690  12.203  1.00  0.00     0.015 C 
HETATM   10  C17 UNL     1      -0.777   7.722  13.339  1.00  0.00    -0.028 C 
HETATM   11  C18 UNL     1      -0.429   6.268  12.887  1.00  0.00     0.016 C 
HETATM   12  C19 UNL     1       3.551   8.346  12.764  1.00  0.00    -0.014 C 
HETATM   13  C20 UNL     1       3.813   7.023  12.011  1.00  0.00     0.020 C 
HETATM   14  C21 UNL     1       3.954   9.552  11.885  1.00  0.00     0.021 C 
HETATM   15  C22 UNL     1       5.441   9.681  11.587  1.00  0.00     0.080 C 
HETATM   16  C23 UNL     1       6.381   8.894  12.466  1.00  0.00     0.135 C 
HETATM   17  O1  UNL     1       7.524   8.671  12.055  1.00  0.00    -0.297 OA
HETATM   18  C24 UNL     1       5.947   8.469  13.875  1.00  0.00     0.018 C 
HETATM   19  C25 UNL     1       6.579   7.086  14.161  1.00  0.00     0.023 C 
HETATM   20  C26 UNL     1       6.589   9.483  14.847  1.00  0.00     0.023 C 
HETATM   21  C27 UNL     1       4.394   8.486  14.070  1.00  0.00     0.020 C 
HETATM   22  C28 UNL     1       3.902   7.511  15.142  1.00  0.00     0.090 C 
HETATM   23  C29 UNL     1       2.451   7.757  15.457  1.00  0.00     0.157 C 
HETATM   24  O2  UNL     1       2.040   7.636  16.609  1.00  0.00    -0.293 OA
ENDROOT
BRANCH   1  25
HETATM   25  C6  UNL     1      -3.381   7.021  13.087  1.00  0.00    -0.014 C 
HETATM   26  C7  UNL     1      -4.739   7.711  13.252  1.00  0.00     0.010 C 
BRANCH  25  27
HETATM   27  C5  UNL     1      -3.473   5.542  13.557  1.00  0.00     0.008 C 
BRANCH  27  28
HETATM   28  C4  UNL     1      -4.031   4.581  12.500  1.00  0.00     0.028 C 
BRANCH  28  29
HETATM   29  C3  UNL     1      -5.422   4.131  12.856  1.00  0.00    -0.013 C 
HETATM   30  C2  UNL     1      -6.087   3.064  12.365  1.00  0.00     0.008 C 
HETATM   31  C1  UNL     1      -5.573   2.120  11.318  1.00  0.00     0.055 C 
BRANCH  30  32
HETATM   32  C30 UNL     1      -7.460   2.739  12.839  1.00  0.00     0.171 C 
HETATM   33  O3  UNL     1      -8.216   3.519  13.391  1.00  0.00    -0.646 OA
BRANCH  32  34
HETATM   34  O4  UNL     1      -7.833   1.468  12.608  1.00  0.00    -0.773 OA
HETATM   35  H44 UNL     1      -8.741   1.428  12.974  1.00  0.00     0.167 HD
ENDBRANCH  32  34
ENDBRANCH  30  32
ENDBRANCH  28  29
ENDBRANCH  27  28
ENDBRANCH  25  27
ENDBRANCH   1  25
TORSDOF 6
ENDMDL
MODEL 3
REMARK minimizedAffinity -9.13815784
REMARK  6 active torsions:
REMARK  status: ('A' for Active; 'I' for Inactive)
REMARK    1  A    between atoms: C2_2  and  C30_32 
REMARK    2  A    between atoms: C3_3  and  C4_4 
REMARK    3  A    between atoms: C4_4  and  C5_5 
REMARK    4  A    between atoms: C5_5  and  C6_6 
REMARK    5  A    between atoms: C6_6  and  C8_8 
REMARK    6  A    between atoms: C30_32  and  O4_34 
ROOT
HETATM    1  C8  UNL     1      -1.708   5.935  12.121  1.00  0.00    -0.002 C 
HETATM    2  C9  UNL     1      -2.127   6.686  13.418  1.00  0.00     0.007 C 
HETATM    3  C10 UNL     1      -1.014   7.695  13.754  1.00  0.00     0.015 C 
HETATM    4  C11 UNL     1      -0.153   7.779  12.481  1.00  0.00    -0.005 C 
HETATM    5  C12 UNL     1      -0.859   8.781  11.516  1.00  0.00     0.021 C 
HETATM    6  C13 UNL     1       1.288   8.266  12.563  1.00  0.00    -0.000 C 
HETATM    7  C14 UNL     1       2.231   7.832  11.686  1.00  0.00    -0.060 C 
HETATM    8  C15 UNL     1       1.871   6.790  10.617  1.00  0.00     0.036 C 
HETATM    9  C16 UNL     1       0.445   6.203  10.629  1.00  0.00     0.015 C 
HETATM   10  C17 UNL     1      -0.186   6.266  12.025  1.00  0.00    -0.028 C 
HETATM   11  C18 UNL     1       0.607   5.318  12.980  1.00  0.00     0.016 C 
HETATM   12  C19 UNL     1       3.711   8.308  11.713  1.00  0.00    -0.014 C 
HETATM   13  C20 UNL     1       4.541   7.188  12.378  1.00  0.00     0.020 C 
HETATM   14  C21 UNL     1       4.225   8.578  10.280  1.00  0.00     0.021 C 
HETATM   15  C22 UNL     1       5.625   9.164  10.184  1.00  0.00     0.080 C 
HETATM   16  C23 UNL     1       6.195   9.775  11.440  1.00  0.00     0.135 C 
HETATM   17  O1  UNL     1       7.418   9.923  11.521  1.00  0.00    -0.297 OA
HETATM   18  C24 UNL     1       5.259  10.283  12.545  1.00  0.00     0.018 C 
HETATM   19  C25 UNL     1       5.949  10.011  13.902  1.00  0.00     0.023 C 
HETATM   20  C26 UNL     1       5.174  11.814  12.365  1.00  0.00     0.023 C 
HETATM   21  C27 UNL     1       3.819   9.676  12.455  1.00  0.00     0.020 C 
HETATM   22  C28 UNL     1       3.094   9.623  13.803  1.00  0.00     0.090 C 
HETATM   23  C29 UNL     1       1.642   9.274  13.610  1.00  0.00     0.157 C 
HETATM   24  O2  UNL     1       0.784   9.789  14.323  1.00  0.00    -0.293 OA
ENDROOT
BRANCH   1  25
HETATM   25  C6  UNL     1      -2.194   4.451  12.130  1.00  0.00    -0.014 C 
HETATM   26  C7  UNL     1      -2.110   3.805  10.744  1.00  0.00     0.010 C 
BRANCH  25  27
HETATM   27  C5  UNL     1      -3.650   4.371  12.670  1.00  0.00     0.008 C 
BRANCH  27  28
HETATM   28  C4  UNL     1      -4.460   3.190  12.120  1.00  0.00     0.028 C 
BRANCH  28  29
HETATM   29  C3  UNL     1      -5.937   3.463  12.195  1.00  0.00    -0.013 C 
HETATM   30  C2  UNL     1      -6.555   4.433  12.902  1.00  0.00     0.008 C 
HETATM   31  C1  UNL     1      -5.876   5.425  13.802  1.00  0.00     0.055 C 
BRANCH  30  32
HETATM   32  C30 UNL     1      -8.034   4.587  12.854  1.00  0.00     0.171 C 
HETATM   33  O3  UNL     1      -8.625   5.622  12.602  1.00  0.00    -0.646 OA
BRANCH  32  34
HETATM   34  O4  UNL     1      -8.711   3.456  13.115  1.00  0.00    -0.773 OA
HETATM   35  H44 UNL     1      -9.649   3.730  13.041  1.00  0.00     0.167 HD
ENDBRANCH  32  34
ENDBRANCH  30  32
ENDBRANCH  28  29
ENDBRANCH  27  28
ENDBRANCH  25  27
ENDBRANCH   1  25
TORSDOF 6
ENDMDL
MODEL 4
REMARK minimizedAffinity -8.89467049
REMARK  6 active torsions:
REMARK  status: ('A' for Active; 'I' for Inactive)
REMARK    1  A    between atoms: C2_2  and  C30_32 
REMARK    2  A    between atoms: C3_3  and  C4_4 
REMARK    3  A    between atoms: C4_4  and  C5_5 
REMARK    4  A    between atoms: C5_5  and  C6_6 
REMARK    5  A    between atoms: C6_6  and  C8_8 
REMARK    6  A    between atoms: C30_32  and  O4_34 
ROOT
HETATM    1  C8  UNL     1      -6.116   7.186  15.151  1.00  0.00    -0.002 C 
HETATM    2  C9  UNL     1      -5.798   8.620  15.665  1.00  0.00     0.007 C 
HETATM    3  C10 UNL     1      -4.410   9.013  15.126  1.00  0.00     0.015 C 
HETATM    4  C11 UNL     1      -4.100   7.977  14.030  1.00  0.00    -0.005 C 
HETATM    5  C12 UNL     1      -4.812   8.460  12.728  1.00  0.00     0.021 C 
HETATM    6  C13 UNL     1      -2.659   7.715  13.611  1.00  0.00    -0.000 C 
HETATM    7  C14 UNL     1      -2.269   6.500  13.143  1.00  0.00    -0.060 C 
HETATM    8  C15 UNL     1      -3.273   5.339  13.076  1.00  0.00     0.036 C 
HETATM    9  C16 UNL     1      -4.693   5.577  13.629  1.00  0.00     0.015 C 
HETATM   10  C17 UNL     1      -4.713   6.680  14.694  1.00  0.00    -0.028 C 
HETATM   11  C18 UNL     1      -3.912   6.190  15.942  1.00  0.00     0.016 C 
HETATM   12  C19 UNL     1      -0.817   6.182  12.686  1.00  0.00    -0.014 C 
HETATM   13  C20 UNL     1      -0.139   5.395  13.828  1.00  0.00     0.020 C 
HETATM   14  C21 UNL     1      -0.824   5.344  11.387  1.00  0.00     0.021 C 
HETATM   15  C22 UNL     1       0.542   5.070  10.774  1.00  0.00     0.080 C 
HETATM   16  C23 UNL     1       1.683   5.939  11.242  1.00  0.00     0.135 C 
HETATM   17  O1  UNL     1       2.838   5.537  11.070  1.00  0.00    -0.297 OA
HETATM   18  C24 UNL     1       1.406   7.329  11.829  1.00  0.00     0.018 C 
HETATM   19  C25 UNL     1       2.450   7.582  12.942  1.00  0.00     0.023 C 
HETATM   20  C26 UNL     1       1.681   8.338  10.694  1.00  0.00     0.023 C 
HETATM   21  C27 UNL     1      -0.070   7.503  12.322  1.00  0.00     0.020 C 
HETATM   22  C28 UNL     1      -0.224   8.540  13.437  1.00  0.00     0.090 C 
HETATM   23  C29 UNL     1      -1.678   8.842  13.684  1.00  0.00     0.157 C 
HETATM   24  O2  UNL     1      -2.031   9.984  13.968  1.00  0.00    -0.293 OA
ENDROOT
BRANCH   1  25
HETATM   25  C6  UNL     1      -6.949   6.372  16.191  1.00  0.00    -0.014 C 
HETATM   26  C7  UNL     1      -7.373   5.003  15.650  1.00  0.00     0.010 C 
BRANCH  25  27
HETATM   27  C5  UNL     1      -8.201   7.187  16.625  1.00  0.00     0.008 C 
BRANCH  27  28
HETATM   28  C4  UNL     1      -8.688   8.195  15.577  1.00  0.00     0.028 C 
BRANCH  28  29
HETATM   29  C3  UNL     1     -10.100   7.898  15.154  1.00  0.00    -0.013 C 
HETATM   30  C2  UNL     1     -10.500   7.105  14.136  1.00  0.00     0.008 C 
HETATM   31  C1  UNL     1      -9.592   6.382  13.184  1.00  0.00     0.055 C 
BRANCH  30  32
HETATM   32  C30 UNL     1     -11.946   6.894  13.858  1.00  0.00     0.171 C 
HETATM   33  O3  UNL     1     -12.646   7.628  13.183  1.00  0.00    -0.646 OA
BRANCH  32  34
HETATM   34  O4  UNL     1     -12.458   5.788  14.424  1.00  0.00    -0.773 OA
HETATM   35  H44 UNL     1     -13.396   5.802  14.145  1.00  0.00     0.167 HD
ENDBRANCH  32  34
ENDBRANCH  30  32
ENDBRANCH  28  29
ENDBRANCH  27  28
ENDBRANCH  25  27
ENDBRANCH   1  25
TORSDOF 6
ENDMDL
MODEL 5
REMARK minimizedAffinity -8.74347878
REMARK  6 active torsions:
REMARK  status: ('A' for Active; 'I' for Inactive)
REMARK    1  A    between atoms: C2_2  and  C30_32 
REMARK    2  A    between atoms: C3_3  and  C4_4 
REMARK    3  A    between atoms: C4_4  and  C5_5 
REMARK    4  A    between atoms: C5_5  and  C6_6 
REMARK    5  A    between atoms: C6_6  and  C8_8 
REMARK    6  A    between atoms: C30_32  and  O4_34 
ROOT
HETATM    1  C8  UNL     1      -3.077   4.687  13.214  1.00  0.00    -0.002 C 
HETATM    2  C9  UNL     1      -2.060   4.988  12.074  1.00  0.00     0.007 C 
HETATM    3  C10 UNL     1      -1.374   6.326  12.401  1.00  0.00     0.015 C 
HETATM    4  C11 UNL     1      -1.723   6.605  13.874  1.00  0.00    -0.005 C 
HETATM    5  C12 UNL     1      -0.709   5.799  14.744  1.00  0.00     0.021 C 
HETATM    6  C13 UNL     1      -1.662   8.026  14.419  1.00  0.00    -0.000 C 
HETATM    7  C14 UNL     1      -2.468   8.427  15.437  1.00  0.00    -0.060 C 
HETATM    8  C15 UNL     1      -3.505   7.461  16.028  1.00  0.00     0.036 C 
HETATM    9  C16 UNL     1      -3.651   6.069  15.379  1.00  0.00     0.015 C 
HETATM   10  C17 UNL     1      -3.212   6.076  13.910  1.00  0.00    -0.028 C 
HETATM   11  C18 UNL     1      -4.201   6.967  13.093  1.00  0.00     0.016 C 
HETATM   12  C19 UNL     1      -2.436   9.858  16.043  1.00  0.00    -0.014 C 
HETATM   13  C20 UNL     1      -3.641  10.630  15.459  1.00  0.00     0.020 C 
HETATM   14  C21 UNL     1      -2.532   9.802  17.585  1.00  0.00     0.021 C 
HETATM   15  C22 UNL     1      -2.391  11.137  18.302  1.00  0.00     0.080 C 
HETATM   16  C23 UNL     1      -1.797  12.274  17.509  1.00  0.00     0.135 C 
HETATM   17  O1  UNL     1      -1.995  13.430  17.897  1.00  0.00    -0.297 OA
HETATM   18  C24 UNL     1      -0.889  11.987  16.305  1.00  0.00     0.018 C 
HETATM   19  C25 UNL     1      -1.151  13.087  15.250  1.00  0.00     0.023 C 
HETATM   20  C26 UNL     1       0.560  12.160  16.808  1.00  0.00     0.023 C 
HETATM   21  C27 UNL     1      -1.066  10.538  15.738  1.00  0.00     0.020 C 
HETATM   22  C28 UNL     1      -0.716  10.417  14.253  1.00  0.00     0.090 C 
HETATM   23  C29 UNL     1      -0.659   8.971  13.837  1.00  0.00     0.157 C 
HETATM   24  O2  UNL     1       0.176   8.598  13.017  1.00  0.00    -0.293 OA
ENDROOT
BRANCH   1  25
HETATM   25  C6  UNL     1      -4.342   3.945  12.678  1.00  0.00    -0.014 C 
HETATM   26  C7  UNL     1      -4.197   3.540  11.208  1.00  0.00     0.010 C 
BRANCH  25  27
HETATM   27  C5  UNL     1      -5.601   4.840  12.863  1.00  0.00     0.008 C 
BRANCH  27  28
HETATM   28  C4  UNL     1      -6.903   4.056  13.072  1.00  0.00     0.028 C 
BRANCH  28  29
HETATM   29  C3  UNL     1      -7.992   4.946  13.605  1.00  0.00    -0.013 C 
HETATM   30  C2  UNL     1      -8.850   5.706  12.891  1.00  0.00     0.008 C 
HETATM   31  C1  UNL     1      -8.858   5.844  11.396  1.00  0.00     0.055 C 
BRANCH  30  32
HETATM   32  C30 UNL     1      -9.892   6.521  13.571  1.00  0.00     0.171 C 
HETATM   33  O3  UNL     1     -10.725   7.210  13.007  1.00  0.00    -0.646 OA
BRANCH  32  34
HETATM   34  O4  UNL     1      -9.860   6.444  14.913  1.00  0.00    -0.773 OA
HETATM   35  H44 UNL     1     -10.597   7.026  15.192  1.00  0.00     0.167 HD
ENDBRANCH  32  34
ENDBRANCH  30  32
ENDBRANCH  28  29
ENDBRANCH  27  28
ENDBRANCH  25  27
ENDBRANCH   1  25
TORSDOF 6
ENDMDL
MODEL 6
REMARK minimizedAffinity -8.71324158
REMARK  6 active torsions:
REMARK  status: ('A' for Active; 'I' for Inactive)
REMARK    1  A    between atoms: C2_2  and  C30_32 
REMARK    2  A    between atoms: C3_3  and  C4_4 
REMARK    3  A    between atoms: C4_4  and  C5_5 
REMARK    4  A    between atoms: C5_5  and  C6_6 
REMARK    5  A    between atoms: C6_6  and  C8_8 
REMARK    6  A    between atoms: C30_32  and  O4_34 
ROOT
HETATM    1  C8  UNL     1      -2.495   5.105  13.135  1.00  0.00    -0.002 C 
HETATM    2  C9  UNL     1      -2.414   4.593  11.667  1.00  0.00     0.007 C 
HETATM    3  C10 UNL     1      -1.015   4.938  11.128  1.00  0.00     0.015 C 
HETATM    4  C11 UNL     1      -0.188   5.311  12.372  1.00  0.00    -0.005 C 
HETATM    5  C12 UNL     1       0.315   3.976  13.004  1.00  0.00     0.021 C 
HETATM    6  C13 UNL     1       1.062   6.170  12.230  1.00  0.00    -0.000 C 
HETATM    7  C14 UNL     1       1.472   6.991  13.233  1.00  0.00    -0.060 C 
HETATM    8  C15 UNL     1       0.645   7.109  14.522  1.00  0.00     0.036 C 
HETATM    9  C16 UNL     1      -0.689   6.338  14.600  1.00  0.00     0.015 C 
HETATM   10  C17 UNL     1      -1.283   6.084  13.210  1.00  0.00    -0.028 C 
HETATM   11  C18 UNL     1      -1.688   7.454  12.577  1.00  0.00     0.016 C 
HETATM   12  C19 UNL     1       2.748   7.876  13.150  1.00  0.00    -0.014 C 
HETATM   13  C20 UNL     1       2.285   9.318  12.844  1.00  0.00     0.020 C 
HETATM   14  C21 UNL     1       3.530   7.835  14.482  1.00  0.00     0.021 C 
HETATM   15  C22 UNL     1       4.863   8.570  14.485  1.00  0.00     0.080 C 
HETATM   16  C23 UNL     1       5.455   8.906  13.139  1.00  0.00     0.135 C 
HETATM   17  O1  UNL     1       6.311   9.795  13.078  1.00  0.00    -0.297 OA
HETATM   18  C24 UNL     1       5.066   8.094  11.897  1.00  0.00     0.018 C 
HETATM   19  C25 UNL     1       5.040   9.064  10.693  1.00  0.00     0.023 C 
HETATM   20  C26 UNL     1       6.216   7.091  11.662  1.00  0.00     0.023 C 
HETATM   21  C27 UNL     1       3.726   7.304  12.078  1.00  0.00     0.020 C 
HETATM   22  C28 UNL     1       2.994   7.035  10.761  1.00  0.00     0.090 C 
HETATM   23  C29 UNL     1       1.863   6.064  10.971  1.00  0.00     0.157 C 
HETATM   24  O2  UNL     1       1.597   5.230  10.109  1.00  0.00    -0.293 OA
ENDROOT
BRANCH   1  25
HETATM   25  C6  UNL     1      -3.932   5.599  13.496  1.00  0.00    -0.014 C 
HETATM   26  C7  UNL     1      -5.017   4.821  12.744  1.00  0.00     0.010 C 
BRANCH  25  27
HETATM   27  C5  UNL     1      -4.062   7.120  13.199  1.00  0.00     0.008 C 
BRANCH  27  28
HETATM   28  C4  UNL     1      -5.500   7.651  13.264  1.00  0.00     0.028 C 
BRANCH  28  29
HETATM   29  C3  UNL     1      -6.152   7.293  14.571  1.00  0.00    -0.013 C 
HETATM   30  C2  UNL     1      -7.344   6.684  14.751  1.00  0.00     0.008 C 
HETATM   31  C1  UNL     1      -8.288   6.273  13.659  1.00  0.00     0.055 C 
BRANCH  30  32
HETATM   32  C30 UNL     1      -7.843   6.378  16.118  1.00  0.00     0.171 C 
HETATM   33  O3  UNL     1      -7.670   7.075  17.103  1.00  0.00    -0.646 OA
BRANCH  32  34
HETATM   34  O4  UNL     1      -8.534   5.228  16.205  1.00  0.00    -0.773 OA
HETATM   35  H44 UNL     1      -8.783   5.183  17.151  1.00  0.00     0.167 HD
ENDBRANCH  32  34
ENDBRANCH  30  32
ENDBRANCH  28  29
ENDBRANCH  27  28
ENDBRANCH  25  27
ENDBRANCH   1  25
TORSDOF 6
ENDMDL
MODEL 7
REMARK minimizedAffinity -8.70173359
REMARK  6 active torsions:
REMARK  status: ('A' for Active; 'I' for Inactive)
REMARK    1  A    between atoms: C2_2  and  C30_32 
REMARK    2  A    between atoms: C3_3  and  C4_4 
REMARK    3  A    between atoms: C4_4  and  C5_5 
REMARK    4  A    between atoms: C5_5  and  C6_6 
REMARK    5  A    between atoms: C6_6  and  C8_8 
REMARK    6  A    between atoms: C30_32  and  O4_34 
ROOT
HETATM    1  C8  UNL     1       2.175   9.045  13.051  1.00  0.00    -0.002 C 
HETATM    2  C9  UNL     1       3.018   8.093  12.154  1.00  0.00     0.007 C 
HETATM    3  C10 UNL     1       2.089   6.968  11.663  1.00  0.00     0.015 C 
HETATM    4  C11 UNL     1       0.665   7.463  11.972  1.00  0.00    -0.005 C 
HETATM    5  C12 UNL     1       0.244   8.407  10.803  1.00  0.00     0.021 C 
HETATM    6  C13 UNL     1      -0.481   6.466  12.099  1.00  0.00    -0.000 C 
HETATM    7  C14 UNL     1      -1.548   6.715  12.903  1.00  0.00    -0.060 C 
HETATM    8  C15 UNL     1      -1.596   7.997  13.748  1.00  0.00     0.036 C 
HETATM    9  C16 UNL     1      -0.371   8.933  13.715  1.00  0.00     0.015 C 
HETATM   10  C17 UNL     1       0.915   8.177  13.360  1.00  0.00    -0.028 C 
HETATM   11  C18 UNL     1       1.248   7.179  14.514  1.00  0.00     0.016 C 
HETATM   12  C19 UNL     1      -2.751   5.743  13.057  1.00  0.00    -0.014 C 
HETATM   13  C20 UNL     1      -2.564   4.991  14.393  1.00  0.00     0.020 C 
HETATM   14  C21 UNL     1      -4.087   6.521  13.062  1.00  0.00     0.021 C 
HETATM   15  C22 UNL     1      -5.345   5.667  13.088  1.00  0.00     0.080 C 
HETATM   16  C23 UNL     1      -5.188   4.214  12.716  1.00  0.00     0.135 C 
HETATM   17  O1  UNL     1      -6.064   3.417  13.067  1.00  0.00    -0.297 OA
HETATM   18  C24 UNL     1      -4.012   3.763  11.840  1.00  0.00     0.018 C 
HETATM   19  C25 UNL     1      -3.583   2.357  12.321  1.00  0.00     0.023 C 
HETATM   20  C26 UNL     1      -4.573   3.615  10.409  1.00  0.00     0.023 C 
HETATM   21  C27 UNL     1      -2.831   4.792  11.823  1.00  0.00     0.020 C 
HETATM   22  C28 UNL     1      -1.470   4.154  11.538  1.00  0.00     0.090 C 
HETATM   23  C29 UNL     1      -0.430   5.213  11.283  1.00  0.00     0.157 C 
HETATM   24  O2  UNL     1       0.448   5.026  10.445  1.00  0.00    -0.293 OA
ENDROOT
BRANCH   1  25
HETATM   25  C6  UNL     1       3.025   9.644  14.216  1.00  0.00    -0.014 C 
HETATM   26  C7  UNL     1       2.848  11.160  14.342  1.00  0.00     0.010 C 
BRANCH  25  27
HETATM   27  C5  UNL     1       4.527   9.296  14.011  1.00  0.00     0.008 C 
BRANCH  27  28
HETATM   28  C4  UNL     1       4.979   8.017  14.727  1.00  0.00     0.028 C 
BRANCH  28  29
HETATM   29  C3  UNL     1       6.242   8.251  15.509  1.00  0.00    -0.013 C 
HETATM   30  C2  UNL     1       7.512   8.125  15.069  1.00  0.00     0.008 C 
HETATM   31  C1  UNL     1       7.920   7.680  13.695  1.00  0.00     0.055 C 
BRANCH  30  32
HETATM   32  C30 UNL     1       8.662   8.417  15.967  1.00  0.00     0.171 C 
HETATM   33  O3  UNL     1       9.432   9.353  15.843  1.00  0.00    -0.646 OA
BRANCH  32  34
HETATM   34  O4  UNL     1       8.805   7.541  16.977  1.00  0.00    -0.773 OA
HETATM   35  H44 UNL     1       9.589   7.875  17.459  1.00  0.00     0.167 HD
ENDBRANCH  32  34
ENDBRANCH  30  32
ENDBRANCH  28  29
ENDBRANCH  27  28
ENDBRANCH  25  27
ENDBRANCH   1  25
TORSDOF 6
ENDMDL
MODEL 8
REMARK minimizedAffinity -8.62641811
REMARK  6 active torsions:
REMARK  status: ('A' for Active; 'I' for Inactive)
REMARK    1  A    between atoms: C2_2  and  C30_32 
REMARK    2  A    between atoms: C3_3  and  C4_4 
REMARK    3  A    between atoms: C4_4  and  C5_5 
REMARK    4  A    between atoms: C5_5  and  C6_6 
REMARK    5  A    between atoms: C6_6  and  C8_8 
REMARK    6  A    between atoms: C30_32  and  O4_34 
ROOT
HETATM    1  C8  UNL     1      -2.162   7.956  14.008  1.00  0.00    -0.002 C 
HETATM    2  C9  UNL     1      -1.988   7.472  15.476  1.00  0.00     0.007 C 
HETATM    3  C10 UNL     1      -0.489   7.542  15.818  1.00  0.00     0.015 C 
HETATM    4  C11 UNL     1       0.136   8.393  14.697  1.00  0.00    -0.005 C 
HETATM    5  C12 UNL     1      -0.087   9.889  15.079  1.00  0.00     0.021 C 
HETATM    6  C13 UNL     1       1.626   8.285  14.396  1.00  0.00    -0.000 C 
HETATM    7  C14 UNL     1       2.111   8.506  13.145  1.00  0.00    -0.060 C 
HETATM    8  C15 UNL     1       1.151   8.820  11.988  1.00  0.00     0.036 C 
HETATM    9  C16 UNL     1      -0.364   8.792  12.276  1.00  0.00     0.015 C 
HETATM   10  C17 UNL     1      -0.704   7.879  13.460  1.00  0.00    -0.028 C 
HETATM   11  C18 UNL     1      -0.379   6.403  13.067  1.00  0.00     0.016 C 
HETATM   12  C19 UNL     1       3.621   8.427  12.786  1.00  0.00    -0.014 C 
HETATM   13  C20 UNL     1       3.855   7.069  12.087  1.00  0.00     0.020 C 
HETATM   14  C21 UNL     1       4.021   9.589  11.847  1.00  0.00     0.021 C 
HETATM   15  C22 UNL     1       5.504   9.687  11.519  1.00  0.00     0.080 C 
HETATM   16  C23 UNL     1       6.450   8.930  12.416  1.00  0.00     0.135 C 
HETATM   17  O1  UNL     1       7.584   8.675  11.997  1.00  0.00    -0.297 OA
HETATM   18  C24 UNL     1       6.037   8.572  13.850  1.00  0.00     0.018 C 
HETATM   19  C25 UNL     1       6.659   7.195  14.185  1.00  0.00     0.023 C 
HETATM   20  C26 UNL     1       6.706   9.620  14.765  1.00  0.00     0.023 C 
HETATM   21  C27 UNL     1       4.487   8.615  14.069  1.00  0.00     0.020 C 
HETATM   22  C28 UNL     1       4.004   7.694  15.192  1.00  0.00     0.090 C 
HETATM   23  C29 UNL     1       2.561   7.970  15.520  1.00  0.00     0.157 C 
HETATM   24  O2  UNL     1       2.169   7.905  16.683  1.00  0.00    -0.293 OA
ENDROOT
BRANCH   1  25
HETATM   25  C6  UNL     1      -3.319   7.198  13.283  1.00  0.00    -0.014 C 
HETATM   26  C7  UNL     1      -4.543   8.091  13.053  1.00  0.00     0.010 C 
BRANCH  25  27
HETATM   27  C5  UNL     1      -3.723   5.938  14.099  1.00  0.00     0.008 C 
BRANCH  27  28
HETATM   28  C4  UNL     1      -4.306   4.800  13.251  1.00  0.00     0.028 C 
BRANCH  28  29
HETATM   29  C3  UNL     1      -3.216   4.019  12.569  1.00  0.00    -0.013 C 
HETATM   30  C2  UNL     1      -3.356   2.913  11.807  1.00  0.00     0.008 C 
HETATM   31  C1  UNL     1      -4.650   2.209  11.519  1.00  0.00     0.055 C 
BRANCH  30  32
HETATM   32  C30 UNL     1      -2.172   2.267  11.180  1.00  0.00     0.171 C 
HETATM   33  O3  UNL     1      -1.155   2.844  10.835  1.00  0.00    -0.646 OA
BRANCH  32  34
HETATM   34  O4  UNL     1      -2.298   0.939  11.010  1.00  0.00    -0.773 OA
HETATM   35  H44 UNL     1      -1.449   0.681  10.596  1.00  0.00     0.167 HD
ENDBRANCH  32  34
ENDBRANCH  30  32
ENDBRANCH  28  29
ENDBRANCH  27  28
ENDBRANCH  25  27
ENDBRANCH   1  25
TORSDOF 6
ENDMDL
MODEL 9
REMARK minimizedAffinity -8.61098003
REMARK  6 active torsions:
REMARK  status: ('A' for Active; 'I' for Inactive)
REMARK    1  A    between atoms: C2_2  and  C30_32 
REMARK    2  A    between atoms: C3_3  and  C4_4 
REMARK    3  A    between atoms: C4_4  and  C5_5 
REMARK    4  A    between atoms: C5_5  and  C6_6 
REMARK    5  A    between atoms: C6_6  and  C8_8 
REMARK    6  A    between atoms: C30_32  and  O4_34 
ROOT
HETATM    1  C8  UNL     1      -8.626   6.165  14.415  1.00  0.00    -0.002 C 
HETATM    2  C9  UNL     1      -9.020   5.457  13.086  1.00  0.00     0.007 C 
HETATM    3  C10 UNL     1      -7.726   4.952  12.424  1.00  0.00     0.015 C 
HETATM    4  C11 UNL     1      -6.652   5.045  13.523  1.00  0.00    -0.005 C 
HETATM    5  C12 UNL     1      -6.781   3.760  14.399  1.00  0.00     0.021 C 
HETATM    6  C13 UNL     1      -5.177   5.114  13.148  1.00  0.00    -0.000 C 
HETATM    7  C14 UNL     1      -4.278   5.760  13.936  1.00  0.00    -0.060 C 
HETATM    8  C15 UNL     1      -4.744   6.486  15.207  1.00  0.00     0.036 C 
HETATM    9  C16 UNL     1      -6.257   6.524  15.505  1.00  0.00     0.015 C 
HETATM   10  C17 UNL     1      -7.094   6.389  14.228  1.00  0.00    -0.028 C 
HETATM   11  C18 UNL     1      -6.864   7.654  13.339  1.00  0.00     0.016 C 
HETATM   12  C19 UNL     1      -2.760   5.847  13.611  1.00  0.00    -0.014 C 
HETATM   13  C20 UNL     1      -2.496   7.253  13.029  1.00  0.00     0.020 C 
HETATM   14  C21 UNL     1      -1.914   5.627  14.886  1.00  0.00     0.021 C 
HETATM   15  C22 UNL     1      -0.408   5.572  14.675  1.00  0.00     0.080 C 
HETATM   16  C23 UNL     1       0.071   5.341  13.263  1.00  0.00     0.135 C 
HETATM   17  O1  UNL     1       1.233   5.648  12.978  1.00  0.00    -0.297 OA
HETATM   18  C24 UNL     1      -0.841   4.653  12.239  1.00  0.00     0.018 C 
HETATM   19  C25 UNL     1      -0.563   5.296  10.860  1.00  0.00     0.023 C 
HETATM   20  C26 UNL     1      -0.377   3.183  12.169  1.00  0.00     0.023 C 
HETATM   21  C27 UNL     1      -2.354   4.695  12.641  1.00  0.00     0.020 C 
HETATM   22  C28 UNL     1      -3.306   4.629  11.445  1.00  0.00     0.090 C 
HETATM   23  C29 UNL     1      -4.723   4.416  11.906  1.00  0.00     0.157 C 
HETATM   24  O2  UNL     1      -5.484   3.708  11.251  1.00  0.00    -0.293 OA
ENDROOT
BRANCH   1  25
HETATM   25  C6  UNL     1      -9.568   7.371  14.727  1.00  0.00    -0.014 C 
HETATM   26  C7  UNL     1      -9.449   7.838  16.182  1.00  0.00     0.010 C 
BRANCH  25  27
HETATM   27  C5  UNL     1     -11.042   6.992  14.407  1.00  0.00     0.008 C 
BRANCH  27  28
HETATM   28  C4  UNL     1     -11.697   7.871  13.333  1.00  0.00     0.028 C 
BRANCH  28  29
HETATM   29  C3  UNL     1     -13.001   7.281  12.872  1.00  0.00    -0.013 C 
HETATM   30  C2  UNL     1     -14.228   7.838  12.960  1.00  0.00     0.008 C 
HETATM   31  C1  UNL     1     -14.540   9.167  13.586  1.00  0.00     0.055 C 
BRANCH  30  32
HETATM   32  C30 UNL     1     -15.426   7.130  12.434  1.00  0.00     0.171 C 
HETATM   33  O3  UNL     1     -16.088   6.314  13.051  1.00  0.00    -0.646 OA
BRANCH  32  34
HETATM   34  O4  UNL     1     -15.750   7.465  11.173  1.00  0.00    -0.773 OA
HETATM   35  H44 UNL     1     -16.543   6.920  10.990  1.00  0.00     0.167 HD
ENDBRANCH  32  34
ENDBRANCH  30  32
ENDBRANCH  28  29
ENDBRANCH  27  28
ENDBRANCH  25  27
ENDBRANCH   1  25
TORSDOF 6
ENDMDL
