MODEL 1
REMARK minimizedAffinity -9.07492828
REMARK CNNscore 0.602590501
REMARK CNNaffinity 7.1401763
REMARK  4 active torsions:
REMARK  status: ('A' for Active; 'I' for Inactive)
REMARK    1  A    between atoms: C12_13  and  C13_14 
REMARK    2  A    between atoms: C20_21  and  C21_22 
REMARK    3  A    between atoms: C21_22  and  C22_23 
REMARK    4  A    between atoms: C23_24  and  O2_25 
ROOT
HETATM    1  C1  UNL     1      -0.270   6.069  11.085  1.00  0.00     0.015 C 
HETATM    2  C2  UNL     1      -0.628   6.430  12.329  1.00  0.00    -0.084 C 
HETATM    3  C3  UNL     1       0.398   6.721  13.399  1.00  0.00     0.034 C 
HETATM    4  C4  UNL     1       0.171   8.083  14.061  1.00  0.00     0.010 C 
HETATM    5  C5  UNL     1      -1.297   8.287  14.503  1.00  0.00     0.006 C 
HETATM    6  C6  UNL     1      -2.302   8.067  13.316  1.00  0.00    -0.032 C 
HETATM    7  C7  UNL     1      -2.059   9.060  12.143  1.00  0.00     0.016 C 
HETATM    8  C8  UNL     1      -3.777   8.281  13.778  1.00  0.00     0.013 C 
HETATM    9  C9  UNL     1      -3.915   8.637  15.256  1.00  0.00     0.039 C 
HETATM   10  C10 UNL     1      -3.046   9.848  15.648  1.00  0.00     0.066 C 
HETATM   11  C11 UNL     1      -3.616  11.122  15.003  1.00  0.00     0.047 C 
HETATM   12  O1  UNL     1      -3.233  10.037  17.071  1.00  0.00    -0.371 OA
HETATM   13  C12 UNL     1      -1.982   9.975  17.759  1.00  0.00     0.146 C 
HETATM   14  C17 UNL     1      -1.014   9.284  16.818  1.00  0.00     0.048 C 
HETATM   15  C18 UNL     1      -1.529   9.573  15.389  1.00  0.00    -0.006 C 
HETATM   16  C19 UNL     1      -0.756  10.800  14.857  1.00  0.00     0.019 C 
HETATM   17  C20 UNL     1      -2.091   6.603  12.738  1.00  0.00     0.027 C 
ENDROOT
BRANCH  17  18
HETATM   18  C21 UNL     1      -2.529   5.443  13.686  1.00  0.00     0.057 C 
BRANCH  18  19
HETATM   19  C22 UNL     1      -3.505   4.482  13.041  1.00  0.00     0.052 A 
HETATM   20  C23 UNL     1      -4.835   4.559  13.212  1.00  0.00     0.086 A 
HETATM   21  C24 UNL     1      -5.757   3.626  12.582  1.00  0.00     0.001 A 
HETATM   22  C25 UNL     1      -7.222   3.700  12.922  1.00  0.00     0.054 C 
HETATM   23  C26 UNL     1      -5.238   2.704  11.748  1.00  0.00     0.061 A 
HETATM   24  C27 UNL     1      -5.996   1.682  10.956  1.00  0.00     0.077 C 
HETATM   25  O3  UNL     1      -3.840   2.612  11.535  1.00  0.00    -0.279 OA
HETATM   26  C28 UNL     1      -2.945   3.405  12.193  1.00  0.00     0.297 A 
HETATM   27  O4  UNL     1      -1.737   3.226  12.076  1.00  0.00    -0.259 OA
BRANCH  20  28
HETATM   28  O2  UNL     1      -5.363   5.570  13.994  1.00  0.00    -0.359 OA
HETATM   29  H34 UNL     1      -6.295   5.712  13.767  1.00  0.00     0.217 HD
ENDBRANCH  20  28
ENDBRANCH  18  19
ENDBRANCH  17  18
BRANCH  13  30
HETATM   30  C13 UNL     1      -1.588  11.369  18.161  1.00  0.00     0.007 C 
HETATM   31  C14 UNL     1      -0.666  11.718  19.082  1.00  0.00    -0.089 C 
HETATM   32  C15 UNL     1       0.171  10.743  19.862  1.00  0.00     0.042 C 
HETATM   33  C16 UNL     1      -0.401  13.166  19.399  1.00  0.00     0.042 C 
ENDBRANCH  13  30
TORSDOF 4
ENDMDL
MODEL 2
REMARK minimizedAffinity -6.71411324
REMARK CNNscore 0.582640886
REMARK CNNaffinity 5.78402281
REMARK  4 active torsions:
REMARK  status: ('A' for Active; 'I' for Inactive)
REMARK    1  A    between atoms: C12_13  and  C13_14 
REMARK    2  A    between atoms: C20_21  and  C21_22 
REMARK    3  A    between atoms: C21_22  and  C22_23 
REMARK    4  A    between atoms: C23_24  and  O2_25 
ROOT
HETATM    1  C1  UNL     1     -17.948  -2.696  14.046  1.00  0.00     0.015 C 
HETATM    2  C2  UNL     1     -16.940  -3.241  14.747  1.00  0.00    -0.084 C 
HETATM    3  C3  UNL     1     -17.184  -4.284  15.812  1.00  0.00     0.034 C 
HETATM    4  C4  UNL     1     -16.330  -5.537  15.600  1.00  0.00     0.010 C 
HETATM    5  C5  UNL     1     -14.840  -5.201  15.357  1.00  0.00     0.006 C 
HETATM    6  C6  UNL     1     -14.654  -4.189  14.170  1.00  0.00    -0.032 C 
HETATM    7  C7  UNL     1     -15.199  -4.748  12.825  1.00  0.00     0.016 C 
HETATM    8  C8  UNL     1     -13.146  -3.865  13.936  1.00  0.00     0.013 C 
HETATM    9  C9  UNL     1     -12.204  -4.580  14.902  1.00  0.00     0.039 C 
HETATM   10  C10 UNL     1     -12.432  -6.103  14.919  1.00  0.00     0.066 C 
HETATM   11  C11 UNL     1     -11.968  -6.709  13.584  1.00  0.00     0.047 C 
HETATM   12  O1  UNL     1     -11.518  -6.638  15.906  1.00  0.00    -0.371 OA
HETATM   13  C12 UNL     1     -12.228  -7.362  16.913  1.00  0.00     0.146 C 
HETATM   14  C17 UNL     1     -13.672  -6.908  16.824  1.00  0.00     0.048 C 
HETATM   15  C18 UNL     1     -13.888  -6.461  15.361  1.00  0.00    -0.006 C 
HETATM   16  C19 UNL     1     -14.495  -7.657  14.595  1.00  0.00     0.019 C 
HETATM   17  C20 UNL     1     -15.478  -2.871  14.495  1.00  0.00     0.027 C 
ENDROOT
BRANCH  17  18
HETATM   18  C21 UNL     1     -14.925  -2.013  15.676  1.00  0.00     0.057 C 
BRANCH  18  19
HETATM   19  C22 UNL     1     -15.685  -0.718  15.879  1.00  0.00     0.052 A 
HETATM   20  C23 UNL     1     -15.714   0.268  14.968  1.00  0.00     0.086 A 
HETATM   21  C24 UNL     1     -16.451   1.504  15.182  1.00  0.00     0.001 A 
HETATM   22  C25 UNL     1     -16.333   2.614  14.171  1.00  0.00     0.054 C 
HETATM   23  C26 UNL     1     -17.177   1.609  16.312  1.00  0.00     0.061 A 
HETATM   24  C27 UNL     1     -18.048   2.760  16.716  1.00  0.00     0.077 C 
HETATM   25  O3  UNL     1     -17.179   0.576  17.281  1.00  0.00    -0.279 OA
HETATM   26  C28 UNL     1     -16.415  -0.548  17.156  1.00  0.00     0.297 A 
HETATM   27  O4  UNL     1     -16.348  -1.372  18.062  1.00  0.00    -0.259 OA
BRANCH  20  28
HETATM   28  O2  UNL     1     -15.043   0.108  13.769  1.00  0.00    -0.359 OA
HETATM   29  H34 UNL     1     -15.408   0.709  13.102  1.00  0.00     0.217 HD
ENDBRANCH  20  28
ENDBRANCH  18  19
ENDBRANCH  17  18
BRANCH  13  30
HETATM   30  C13 UNL     1     -12.011  -8.833  16.688  1.00  0.00     0.007 C 
HETATM   31  C14 UNL     1     -10.966  -9.573  17.110  1.00  0.00    -0.089 C 
HETATM   32  C15 UNL     1      -9.822  -9.044  17.930  1.00  0.00     0.042 C 
HETATM   33  C16 UNL     1     -10.874 -11.039  16.779  1.00  0.00     0.042 C 
ENDBRANCH  13  30
TORSDOF 4
ENDMDL
MODEL 3
REMARK minimizedAffinity -9.15509987
REMARK CNNscore 0.573795676
REMARK CNNaffinity 6.92876863
REMARK  4 active torsions:
REMARK  status: ('A' for Active; 'I' for Inactive)
REMARK    1  A    between atoms: C12_13  and  C13_14 
REMARK    2  A    between atoms: C20_21  and  C21_22 
REMARK    3  A    between atoms: C21_22  and  C22_23 
REMARK    4  A    between atoms: C23_24  and  O2_25 
ROOT
HETATM    1  C1  UNL     1      -4.822   9.105  15.396  1.00  0.00     0.015 C 
HETATM    2  C2  UNL     1      -4.068   8.308  14.620  1.00  0.00    -0.084 C 
HETATM    3  C3  UNL     1      -4.084   8.420  13.114  1.00  0.00     0.034 C 
HETATM    4  C4  UNL     1      -2.676   8.568  12.531  1.00  0.00     0.010 C 
HETATM    5  C5  UNL     1      -1.693   7.512  13.088  1.00  0.00     0.006 C 
HETATM    6  C6  UNL     1      -1.653   7.521  14.659  1.00  0.00    -0.032 C 
HETATM    7  C7  UNL     1      -1.190   8.892  15.231  1.00  0.00     0.016 C 
HETATM    8  C8  UNL     1      -0.654   6.454  15.204  1.00  0.00     0.013 C 
HETATM    9  C9  UNL     1       0.041   5.645  14.112  1.00  0.00     0.039 C 
HETATM   10  C10 UNL     1       0.729   6.544  13.067  1.00  0.00     0.066 C 
HETATM   11  C11 UNL     1       1.942   7.241  13.706  1.00  0.00     0.047 C 
HETATM   12  O1  UNL     1       1.294   5.653  12.076  1.00  0.00    -0.371 OA
HETATM   13  C12 UNL     1       0.785   5.956  10.775  1.00  0.00     0.146 C 
HETATM   14  C17 UNL     1      -0.477   6.768  10.991  1.00  0.00     0.048 C 
HETATM   15  C18 UNL     1      -0.298   7.480  12.351  1.00  0.00    -0.006 C 
HETATM   16  C19 UNL     1       0.248   8.897  12.065  1.00  0.00     0.019 C 
HETATM   17  C20 UNL     1      -3.121   7.260  15.205  1.00  0.00     0.027 C 
ENDROOT
BRANCH  17  18
HETATM   18  C21 UNL     1      -3.681   5.825  14.953  1.00  0.00     0.057 C 
BRANCH  18  19
HETATM   19  C22 UNL     1      -5.112   5.821  14.456  1.00  0.00     0.052 A 
HETATM   20  C23 UNL     1      -6.166   6.078  15.248  1.00  0.00     0.086 A 
HETATM   21  C24 UNL     1      -7.533   6.071  14.751  1.00  0.00     0.001 A 
HETATM   22  C25 UNL     1      -8.669   6.242  15.725  1.00  0.00     0.054 C 
HETATM   23  C26 UNL     1      -7.716   5.863  13.432  1.00  0.00     0.061 A 
HETATM   24  C27 UNL     1      -9.021   5.864  12.696  1.00  0.00     0.077 C 
HETATM   25  O3  UNL     1      -6.620   5.610  12.571  1.00  0.00    -0.279 OA
HETATM   26  C28 UNL     1      -5.338   5.506  13.027  1.00  0.00     0.297 A 
HETATM   27  O4  UNL     1      -4.425   5.172  12.279  1.00  0.00    -0.259 OA
BRANCH  20  28
HETATM   28  O2  UNL     1      -5.958   6.384  16.581  1.00  0.00    -0.359 OA
HETATM   29  H34 UNL     1      -6.725   6.859  16.935  1.00  0.00     0.217 HD
ENDBRANCH  20  28
ENDBRANCH  18  19
ENDBRANCH  17  18
BRANCH  13  30
HETATM   30  C13 UNL     1       1.862   6.655   9.991  1.00  0.00     0.007 C 
HETATM   31  C14 UNL     1       1.691   7.549   8.996  1.00  0.00    -0.089 C 
HETATM   32  C15 UNL     1       0.355   8.036   8.507  1.00  0.00     0.042 C 
HETATM   33  C16 UNL     1       2.875   8.145   8.281  1.00  0.00     0.042 C 
ENDBRANCH  13  30
TORSDOF 4
ENDMDL
MODEL 4
REMARK minimizedAffinity -6.89942122
REMARK CNNscore 0.476766527
REMARK CNNaffinity 5.26365328
REMARK  4 active torsions:
REMARK  status: ('A' for Active; 'I' for Inactive)
REMARK    1  A    between atoms: C12_13  and  C13_14 
REMARK    2  A    between atoms: C20_21  and  C21_22 
REMARK    3  A    between atoms: C21_22  and  C22_23 
REMARK    4  A    between atoms: C23_24  and  O2_25 
ROOT
HETATM    1  C1  UNL     1      15.162  15.162  17.428  1.00  0.00     0.015 C 
HETATM    2  C2  UNL     1      14.269  14.697  18.317  1.00  0.00    -0.084 C 
HETATM    3  C3  UNL     1      13.320  15.617  19.048  1.00  0.00     0.034 C 
HETATM    4  C4  UNL     1      11.863  15.165  18.917  1.00  0.00     0.010 C 
HETATM    5  C5  UNL     1      11.680  13.664  19.240  1.00  0.00     0.006 C 
HETATM    6  C6  UNL     1      12.627  12.759  18.371  1.00  0.00    -0.032 C 
HETATM    7  C7  UNL     1      12.358  12.913  16.847  1.00  0.00     0.016 C 
HETATM    8  C8  UNL     1      12.426  11.248  18.706  1.00  0.00     0.013 C 
HETATM    9  C9  UNL     1      11.383  10.990  19.790  1.00  0.00     0.039 C 
HETATM   10  C10 UNL     1      10.031  11.655  19.471  1.00  0.00     0.066 C 
HETATM   11  C11 UNL     1       9.372  10.939  18.280  1.00  0.00     0.047 C 
HETATM   12  O1  UNL     1       9.166  11.375  20.597  1.00  0.00    -0.371 OA
HETATM   13  C12 UNL     1       8.678  12.587  21.175  1.00  0.00     0.146 C 
HETATM   14  C17 UNL     1       9.603  13.688  20.695  1.00  0.00     0.048 C 
HETATM   15  C18 UNL     1      10.172  13.207  19.341  1.00  0.00    -0.006 C 
HETATM   16  C19 UNL     1       9.297  13.820  18.225  1.00  0.00     0.019 C 
HETATM   17  C20 UNL     1      14.129  13.206  18.627  1.00  0.00     0.027 C 
ENDROOT
BRANCH  17  18
HETATM   18  C21 UNL     1      14.684  12.895  20.052  1.00  0.00     0.057 C 
BRANCH  18  19
HETATM   19  C22 UNL     1      16.168  13.168  20.187  1.00  0.00     0.052 A 
HETATM   20  C23 UNL     1      17.109  12.449  19.554  1.00  0.00     0.086 A 
HETATM   21  C24 UNL     1      18.529  12.728  19.695  1.00  0.00     0.001 A 
HETATM   22  C25 UNL     1      19.527  11.800  19.055  1.00  0.00     0.054 C 
HETATM   23  C26 UNL     1      18.884  13.793  20.441  1.00  0.00     0.061 A 
HETATM   24  C27 UNL     1      20.274  14.296  20.682  1.00  0.00     0.077 C 
HETATM   25  O3  UNL     1      17.911  14.580  21.104  1.00  0.00    -0.279 OA
HETATM   26  C28 UNL     1      16.580  14.279  21.075  1.00  0.00     0.297 A 
HETATM   27  O4  UNL     1      15.774  14.909  21.752  1.00  0.00    -0.259 OA
BRANCH  20  28
HETATM   28  O2  UNL     1      16.727  11.417  18.714  1.00  0.00    -0.359 OA
HETATM   29  H34 UNL     1      17.441  11.217  18.089  1.00  0.00     0.217 HD
ENDBRANCH  20  28
ENDBRANCH  18  19
ENDBRANCH  17  18
BRANCH  13  30
HETATM   30  C13 UNL     1       7.236  12.757  20.786  1.00  0.00     0.007 C 
HETATM   31  C14 UNL     1       6.155  12.542  21.563  1.00  0.00    -0.089 C 
HETATM   32  C15 UNL     1       6.211  12.114  23.003  1.00  0.00     0.042 C 
HETATM   33  C16 UNL     1       4.763  12.728  21.018  1.00  0.00     0.042 C 
ENDBRANCH  13  30
TORSDOF 4
ENDMDL
MODEL 5
REMARK minimizedAffinity -8.4178772
REMARK CNNscore 0.443982244
REMARK CNNaffinity 6.44926214
REMARK  4 active torsions:
REMARK  status: ('A' for Active; 'I' for Inactive)
REMARK    1  A    between atoms: C12_13  and  C13_14 
REMARK    2  A    between atoms: C20_21  and  C21_22 
REMARK    3  A    between atoms: C21_22  and  C22_23 
REMARK    4  A    between atoms: C23_24  and  O2_25 
ROOT
HETATM    1  C1  UNL     1      -2.038   5.780  12.557  1.00  0.00     0.015 C 
HETATM    2  C2  UNL     1      -2.120   7.091  12.838  1.00  0.00    -0.084 C 
HETATM    3  C3  UNL     1      -3.450   7.793  12.981  1.00  0.00     0.034 C 
HETATM    4  C4  UNL     1      -3.555   8.569  14.296  1.00  0.00     0.010 C 
HETATM    5  C5  UNL     1      -2.322   9.467  14.552  1.00  0.00     0.006 C 
HETATM    6  C6  UNL     1      -0.980   8.652  14.488  1.00  0.00    -0.032 C 
HETATM    7  C7  UNL     1      -0.924   7.521  15.555  1.00  0.00     0.016 C 
HETATM    8  C8  UNL     1       0.252   9.572  14.751  1.00  0.00     0.013 C 
HETATM    9  C9  UNL     1      -0.111  11.034  14.996  1.00  0.00     0.039 C 
HETATM   10  C10 UNL     1      -1.155  11.197  16.117  1.00  0.00     0.066 C 
HETATM   11  C11 UNL     1      -0.518  10.842  17.471  1.00  0.00     0.047 C 
HETATM   12  O1  UNL     1      -1.440  12.614  16.203  1.00  0.00    -0.371 OA
HETATM   13  C12 UNL     1      -2.835  12.862  16.011  1.00  0.00     0.146 C 
HETATM   14  C17 UNL     1      -3.398  11.624  15.341  1.00  0.00     0.048 C 
HETATM   15  C18 UNL     1      -2.486  10.453  15.774  1.00  0.00    -0.006 C 
HETATM   16  C19 UNL     1      -3.151   9.773  16.991  1.00  0.00     0.019 C 
HETATM   17  C20 UNL     1      -0.878   7.955  13.065  1.00  0.00     0.027 C 
ENDROOT
BRANCH  17  18
HETATM   18  C21 UNL     1      -0.667   8.925  11.861  1.00  0.00     0.057 C 
BRANCH  18  19
HETATM   19  C22 UNL     1       0.177   8.327  10.754  1.00  0.00     0.052 A 
HETATM   20  C23 UNL     1       1.260   7.566  10.984  1.00  0.00     0.086 A 
HETATM   21  C24 UNL     1       2.057   7.000   9.907  1.00  0.00     0.001 A 
HETATM   22  C25 UNL     1       3.327   6.264  10.243  1.00  0.00     0.054 C 
HETATM   23  C26 UNL     1       1.634   7.205   8.644  1.00  0.00     0.061 A 
HETATM   24  C27 UNL     1       2.263   6.678   7.390  1.00  0.00     0.077 C 
HETATM   25  O3  UNL     1       0.484   7.988   8.374  1.00  0.00    -0.279 OA
HETATM   26  C28 UNL     1      -0.221   8.618   9.358  1.00  0.00     0.297 A 
HETATM   27  O4  UNL     1      -1.142   9.382   9.086  1.00  0.00    -0.259 OA
BRANCH  20  28
HETATM   28  O2  UNL     1       1.628   7.283  12.287  1.00  0.00    -0.359 OA
HETATM   29  H34 UNL     1       2.185   6.489  12.309  1.00  0.00     0.217 HD
ENDBRANCH  20  28
ENDBRANCH  18  19
ENDBRANCH  17  18
BRANCH  13  30
HETATM   30  C13 UNL     1      -3.448  13.196  17.343  1.00  0.00     0.007 C 
HETATM   31  C14 UNL     1      -3.820  12.329  18.306  1.00  0.00    -0.089 C 
HETATM   32  C15 UNL     1      -3.648  10.838  18.223  1.00  0.00     0.042 C 
HETATM   33  C16 UNL     1      -4.452  12.817  19.583  1.00  0.00     0.042 C 
ENDBRANCH  13  30
TORSDOF 4
ENDMDL
MODEL 6
REMARK minimizedAffinity -7.33201504
REMARK CNNscore 0.420279562
REMARK CNNaffinity 6.28560066
REMARK  4 active torsions:
REMARK  status: ('A' for Active; 'I' for Inactive)
REMARK    1  A    between atoms: C12_13  and  C13_14 
REMARK    2  A    between atoms: C20_21  and  C21_22 
REMARK    3  A    between atoms: C21_22  and  C22_23 
REMARK    4  A    between atoms: C23_24  and  O2_25 
ROOT
HETATM    1  C1  UNL     1       7.188  15.373  -0.237  1.00  0.00     0.015 C 
HETATM    2  C2  UNL     1       6.038  14.809   0.169  1.00  0.00    -0.084 C 
HETATM    3  C3  UNL     1       5.924  14.107   1.502  1.00  0.00     0.034 C 
HETATM    4  C4  UNL     1       4.747  14.629   2.331  1.00  0.00     0.010 C 
HETATM    5  C5  UNL     1       3.433  14.686   1.518  1.00  0.00     0.006 C 
HETATM    6  C6  UNL     1       3.598  15.517   0.195  1.00  0.00    -0.032 C 
HETATM    7  C7  UNL     1       4.004  16.993   0.471  1.00  0.00     0.016 C 
HETATM    8  C8  UNL     1       2.262  15.568  -0.610  1.00  0.00     0.013 C 
HETATM    9  C9  UNL     1       1.116  14.804   0.048  1.00  0.00     0.039 C 
HETATM   10  C10 UNL     1       0.884  15.242   1.507  1.00  0.00     0.066 C 
HETATM   11  C11 UNL     1       0.312  16.669   1.533  1.00  0.00     0.047 C 
HETATM   12  O1  UNL     1      -0.184  14.406   2.015  1.00  0.00    -0.371 OA
HETATM   13  C12 UNL     1       0.243  13.690   3.177  1.00  0.00     0.146 C 
HETATM   14  C17 UNL     1       1.759  13.718   3.159  1.00  0.00     0.048 C 
HETATM   15  C18 UNL     1       2.153  14.999   2.388  1.00  0.00    -0.006 C 
HETATM   16  C19 UNL     1       2.408  16.109   3.431  1.00  0.00     0.019 C 
HETATM   17  C20 UNL     1       4.761  14.867  -0.669  1.00  0.00     0.027 C 
ENDROOT
BRANCH  17  18
HETATM   18  C21 UNL     1       4.442  13.461  -1.267  1.00  0.00     0.057 C 
BRANCH  18  19
HETATM   19  C22 UNL     1       4.657  13.387  -2.764  1.00  0.00     0.052 A 
HETATM   20  C23 UNL     1       4.792  12.230  -3.432  1.00  0.00     0.086 A 
HETATM   21  C24 UNL     1       4.997  12.179  -4.871  1.00  0.00     0.001 A 
HETATM   22  C25 UNL     1       5.265  10.851  -5.528  1.00  0.00     0.054 C 
HETATM   23  C26 UNL     1       4.980  13.346  -5.544  1.00  0.00     0.061 A 
HETATM   24  C27 UNL     1       5.118  13.530  -7.025  1.00  0.00     0.077 C 
HETATM   25  O3  UNL     1       4.821  14.581  -4.867  1.00  0.00    -0.279 OA
HETATM   26  C28 UNL     1       4.732  14.665  -3.508  1.00  0.00     0.297 A 
HETATM   27  O4  UNL     1       4.711  15.753  -2.942  1.00  0.00    -0.259 OA
BRANCH  20  28
HETATM   28  O2  UNL     1       4.711  11.033  -2.742  1.00  0.00    -0.359 OA
HETATM   29  H34 UNL     1       4.490  10.313  -3.353  1.00  0.00     0.217 HD
ENDBRANCH  20  28
ENDBRANCH  18  19
ENDBRANCH  17  18
BRANCH  13  30
HETATM   30  C13 UNL     1      -0.389  14.321   4.386  1.00  0.00     0.007 C 
HETATM   31  C14 UNL     1      -1.615  14.877   4.464  1.00  0.00    -0.089 C 
HETATM   32  C15 UNL     1      -2.599  14.934   3.330  1.00  0.00     0.042 C 
HETATM   33  C16 UNL     1      -2.100  15.500   5.747  1.00  0.00     0.042 C 
ENDBRANCH  13  30
TORSDOF 4
ENDMDL
MODEL 7
REMARK minimizedAffinity -7.24381208
REMARK CNNscore 0.369720489
REMARK CNNaffinity 5.69433165
REMARK  4 active torsions:
REMARK  status: ('A' for Active; 'I' for Inactive)
REMARK    1  A    between atoms: C12_13  and  C13_14 
REMARK    2  A    between atoms: C20_21  and  C21_22 
REMARK    3  A    between atoms: C21_22  and  C22_23 
REMARK    4  A    between atoms: C23_24  and  O2_25 
ROOT
HETATM    1  C1  UNL     1       5.965  15.591  -1.360  1.00  0.00     0.015 C 
HETATM    2  C2  UNL     1       4.847  14.987  -0.923  1.00  0.00    -0.084 C 
HETATM    3  C3  UNL     1       4.707  14.509   0.503  1.00  0.00     0.034 C 
HETATM    4  C4  UNL     1       3.433  15.038   1.167  1.00  0.00     0.010 C 
HETATM    5  C5  UNL     1       2.178  14.824   0.289  1.00  0.00     0.006 C 
HETATM    6  C6  UNL     1       2.356  15.436  -1.147  1.00  0.00    -0.032 C 
HETATM    7  C7  UNL     1       2.605  16.971  -1.109  1.00  0.00     0.016 C 
HETATM    8  C8  UNL     1       1.080  15.215  -2.016  1.00  0.00     0.013 C 
HETATM    9  C9  UNL     1      -0.033  14.458  -1.297  1.00  0.00     0.039 C 
HETATM   10  C10 UNL     1      -0.405  15.106   0.050  1.00  0.00     0.066 C 
HETATM   11  C11 UNL     1      -1.106  16.451  -0.200  1.00  0.00     0.047 C 
HETATM   12  O1  UNL     1      -1.423  14.262   0.639  1.00  0.00    -0.371 OA
HETATM   13  C12 UNL     1      -1.013  13.796   1.926  1.00  0.00     0.146 C 
HETATM   14  C17 UNL     1       0.491  13.977   1.984  1.00  0.00     0.048 C 
HETATM   15  C18 UNL     1       0.818  15.144   1.024  1.00  0.00    -0.006 C 
HETATM   16  C19 UNL     1       0.897  16.433   1.872  1.00  0.00     0.019 C 
HETATM   17  C20 UNL     1       3.631  14.774  -1.824  1.00  0.00     0.027 C 
ENDROOT
BRANCH  17  18
HETATM   18  C21 UNL     1       3.484  13.263  -2.186  1.00  0.00     0.057 C 
BRANCH  18  19
HETATM   19  C22 UNL     1       4.276  12.865  -3.415  1.00  0.00     0.052 A 
HETATM   20  C23 UNL     1       3.973  13.284  -4.654  1.00  0.00     0.086 A 
HETATM   21  C24 UNL     1       4.747  12.891  -5.821  1.00  0.00     0.001 A 
HETATM   22  C25 UNL     1       4.270  13.299  -7.190  1.00  0.00     0.054 C 
HETATM   23  C26 UNL     1       5.842  12.133  -5.616  1.00  0.00     0.061 A 
HETATM   24  C27 UNL     1       6.811  11.656  -6.655  1.00  0.00     0.077 C 
HETATM   25  O3  UNL     1       6.196  11.693  -4.317  1.00  0.00    -0.279 OA
HETATM   26  C28 UNL     1       5.431  11.958  -3.219  1.00  0.00     0.297 A 
HETATM   27  O4  UNL     1       5.699  11.467  -2.127  1.00  0.00    -0.259 OA
BRANCH  20  28
HETATM   28  O2  UNL     1       2.902  14.140  -4.839  1.00  0.00    -0.359 OA
HETATM   29  H34 UNL     1       2.998  14.614  -5.680  1.00  0.00     0.217 HD
ENDBRANCH  20  28
ENDBRANCH  18  19
ENDBRANCH  17  18
BRANCH  13  30
HETATM   30  C13 UNL     1      -1.782  14.552   2.975  1.00  0.00     0.007 C 
HETATM   31  C14 UNL     1      -1.387  14.818   4.236  1.00  0.00    -0.089 C 
HETATM   32  C15 UNL     1      -0.058  14.421   4.815  1.00  0.00     0.042 C 
HETATM   33  C16 UNL     1      -2.287  15.566   5.185  1.00  0.00     0.042 C 
ENDBRANCH  13  30
TORSDOF 4
ENDMDL
MODEL 8
REMARK minimizedAffinity -7.71111727
REMARK CNNscore 0.349279881
REMARK CNNaffinity 6.30956793
REMARK  4 active torsions:
REMARK  status: ('A' for Active; 'I' for Inactive)
REMARK    1  A    between atoms: C12_13  and  C13_14 
REMARK    2  A    between atoms: C20_21  and  C21_22 
REMARK    3  A    between atoms: C21_22  and  C22_23 
REMARK    4  A    between atoms: C23_24  and  O2_25 
ROOT
HETATM    1  C1  UNL     1      -2.946   5.840  12.749  1.00  0.00     0.015 C 
HETATM    2  C2  UNL     1      -2.817   7.157  12.982  1.00  0.00    -0.084 C 
HETATM    3  C3  UNL     1      -4.010   8.084  12.987  1.00  0.00     0.034 C 
HETATM    4  C4  UNL     1      -4.082   8.924  14.265  1.00  0.00     0.010 C 
HETATM    5  C5  UNL     1      -2.735   9.607  14.598  1.00  0.00     0.006 C 
HETATM    6  C6  UNL     1      -1.557   8.570  14.676  1.00  0.00    -0.032 C 
HETATM    7  C7  UNL     1      -1.786   7.496  15.778  1.00  0.00     0.016 C 
HETATM    8  C8  UNL     1      -0.207   9.274  15.018  1.00  0.00     0.013 C 
HETATM    9  C9  UNL     1      -0.325  10.786  15.186  1.00  0.00     0.039 C 
HETATM   10  C10 UNL     1      -1.411  11.177  16.206  1.00  0.00     0.066 C 
HETATM   11  C11 UNL     1      -0.957  10.779  17.621  1.00  0.00     0.047 C 
HETATM   12  O1  UNL     1      -1.448  12.625  16.223  1.00  0.00    -0.371 OA
HETATM   13  C12 UNL     1      -2.757  13.101  15.904  1.00  0.00     0.146 C 
HETATM   14  C17 UNL     1      -3.474  11.950  15.226  1.00  0.00     0.048 C 
HETATM   15  C18 UNL     1      -2.820  10.660  15.771  1.00  0.00    -0.006 C 
HETATM   16  C19 UNL     1      -3.690  10.161  16.947  1.00  0.00     0.019 C 
HETATM   17  C20 UNL     1      -1.466   7.802  13.289  1.00  0.00     0.027 C 
ENDROOT
BRANCH  17  18
HETATM   18  C21 UNL     1      -0.991   8.666  12.079  1.00  0.00     0.057 C 
BRANCH  18  19
HETATM   19  C22 UNL     1       0.016   7.956  11.198  1.00  0.00     0.052 A 
HETATM   20  C23 UNL     1       0.156   8.210   9.887  1.00  0.00     0.086 A 
HETATM   21  C24 UNL     1       1.131   7.518   9.058  1.00  0.00     0.001 A 
HETATM   22  C25 UNL     1       1.141   7.768   7.573  1.00  0.00     0.054 C 
HETATM   23  C26 UNL     1       1.956   6.644   9.666  1.00  0.00     0.061 A 
HETATM   24  C27 UNL     1       3.062   5.860   9.026  1.00  0.00     0.077 C 
HETATM   25  O3  UNL     1       1.843   6.370  11.051  1.00  0.00    -0.279 OA
HETATM   26  C28 UNL     1       0.871   6.926  11.831  1.00  0.00     0.297 A 
HETATM   27  O4  UNL     1       0.725   6.583  13.000  1.00  0.00    -0.259 OA
BRANCH  20  28
HETATM   28  O2  UNL     1      -0.632   9.180   9.294  1.00  0.00    -0.359 OA
HETATM   29  H34 UNL     1      -0.217   9.490   8.475  1.00  0.00     0.217 HD
ENDBRANCH  20  28
ENDBRANCH  18  19
ENDBRANCH  17  18
BRANCH  13  30
HETATM   30  C13 UNL     1      -3.407  13.597  17.166  1.00  0.00     0.007 C 
HETATM   31  C14 UNL     1      -3.256  14.810  17.735  1.00  0.00    -0.089 C 
HETATM   32  C15 UNL     1      -2.413  15.918  17.167  1.00  0.00     0.042 C 
HETATM   33  C16 UNL     1      -3.955  15.151  19.024  1.00  0.00     0.042 C 
ENDBRANCH  13  30
TORSDOF 4
ENDMDL
MODEL 9
REMARK minimizedAffinity -6.64408302
REMARK CNNscore 0.33730334
REMARK CNNaffinity 5.36619043
REMARK  4 active torsions:
REMARK  status: ('A' for Active; 'I' for Inactive)
REMARK    1  A    between atoms: C12_13  and  C13_14 
REMARK    2  A    between atoms: C20_21  and  C21_22 
REMARK    3  A    between atoms: C21_22  and  C22_23 
REMARK    4  A    between atoms: C23_24  and  O2_25 
ROOT
HETATM    1  C1  UNL     1     -17.113  -4.814  11.649  1.00  0.00     0.015 C 
HETATM    2  C2  UNL     1     -16.470  -3.709  12.062  1.00  0.00    -0.084 C 
HETATM    3  C3  UNL     1     -16.538  -2.413  11.288  1.00  0.00     0.034 C 
HETATM    4  C4  UNL     1     -16.960  -1.235  12.170  1.00  0.00     0.010 C 
HETATM    5  C5  UNL     1     -16.146  -1.159  13.483  1.00  0.00     0.006 C 
HETATM    6  C6  UNL     1     -16.203  -2.508  14.286  1.00  0.00    -0.032 C 
HETATM    7  C7  UNL     1     -17.654  -2.892  14.695  1.00  0.00     0.016 C 
HETATM    8  C8  UNL     1     -15.381  -2.413  15.608  1.00  0.00     0.013 C 
HETATM    9  C9  UNL     1     -14.706  -1.060  15.819  1.00  0.00     0.039 C 
HETATM   10  C10 UNL     1     -15.701   0.111  15.717  1.00  0.00     0.066 C 
HETATM   11  C11 UNL     1     -16.652   0.088  16.926  1.00  0.00     0.047 C 
HETATM   12  O1  UNL     1     -14.922   1.320  15.882  1.00  0.00    -0.371 OA
HETATM   13  C12 UNL     1     -15.080   2.183  14.753  1.00  0.00     0.146 C 
HETATM   14  C17 UNL     1     -15.617   1.317  13.630  1.00  0.00     0.048 C 
HETATM   15  C18 UNL     1     -16.386   0.162  14.312  1.00  0.00    -0.006 C 
HETATM   16  C19 UNL     1     -17.877   0.562  14.361  1.00  0.00     0.019 C 
HETATM   17  C20 UNL     1     -15.657  -3.675  13.357  1.00  0.00     0.027 C 
ENDROOT
BRANCH  17  18
HETATM   18  C21 UNL     1     -14.131  -3.612  13.035  1.00  0.00     0.057 C 
BRANCH  18  19
HETATM   19  C22 UNL     1     -13.431  -4.944  13.205  1.00  0.00     0.052 A 
HETATM   20  C23 UNL     1     -13.324  -5.850  12.220  1.00  0.00     0.086 A 
HETATM   21  C24 UNL     1     -12.646  -7.124  12.402  1.00  0.00     0.001 A 
HETATM   22  C25 UNL     1     -12.677  -8.139  11.290  1.00  0.00     0.054 C 
HETATM   23  C26 UNL     1     -12.055  -7.350  13.592  1.00  0.00     0.061 A 
HETATM   24  C27 UNL     1     -11.263  -8.560  13.984  1.00  0.00     0.077 C 
HETATM   25  O3  UNL     1     -12.136  -6.404  14.643  1.00  0.00    -0.279 OA
HETATM   26  C28 UNL     1     -12.853  -5.248  14.534  1.00  0.00     0.297 A 
HETATM   27  O4  UNL     1     -13.002  -4.503  15.498  1.00  0.00    -0.259 OA
BRANCH  20  28
HETATM   28  O2  UNL     1     -13.852  -5.565  10.973  1.00  0.00    -0.359 OA
HETATM   29  H34 UNL     1     -13.429  -6.119  10.299  1.00  0.00     0.217 HD
ENDBRANCH  20  28
ENDBRANCH  18  19
ENDBRANCH  17  18
BRANCH  13  30
HETATM   30  C13 UNL     1     -15.967   3.331  15.148  1.00  0.00     0.007 C 
HETATM   31  C14 UNL     1     -15.689   4.646  15.039  1.00  0.00    -0.089 C 
HETATM   32  C15 UNL     1     -14.420   5.203  14.457  1.00  0.00     0.042 C 
HETATM   33  C16 UNL     1     -16.673   5.685  15.508  1.00  0.00     0.042 C 
ENDBRANCH  13  30
TORSDOF 4
ENDMDL
