MODEL 1
REMARK minimizedAffinity -6.10567522
REMARK CNNscore 0.400773495
REMARK CNNaffinity 6.12096453
REMARK  10 active torsions:
REMARK  status: ('A' for Active; 'I' for Inactive)
REMARK    1  A    between atoms: O1_2  and  C2_3 
REMARK    2  A    between atoms: C11_15  and  O3_16 
REMARK    3  A    between atoms: O3_16  and  C12_17 
REMARK    4  A    between atoms: C12_17  and  C13_19 
REMARK    5  A    between atoms: C13_19  and  C14_20 
REMARK    6  A    between atoms: C14_20  and  C16_22 
REMARK    7  A    between atoms: C16_22  and  O5_23 
REMARK    8  A    between atoms: C24_32  and  O7_33 
REMARK    9  A    between atoms: C25_36  and  O8_37 
REMARK   10  A    between atoms: C26_39  and  O10_40 
ROOT
HETATM    1  C2  UNL     1      -9.050  16.443  -5.809  1.00  0.00     0.092 A 
HETATM    2  C3  UNL     1      -9.364  15.136  -6.196  1.00  0.00     0.046 A 
HETATM    3  C4  UNL     1     -10.156  14.315  -5.383  1.00  0.00    -0.049 A 
HETATM    4  C5  UNL     1     -10.641  14.825  -4.167  1.00  0.00     0.039 A 
HETATM    5  C6  UNL     1     -10.380  16.146  -3.763  1.00  0.00     0.061 A 
HETATM    6  C7  UNL     1      -9.554  16.944  -4.588  1.00  0.00     0.094 A 
HETATM    7 CL1  UNL     1      -9.010  18.518  -4.065  1.00  0.00    -0.079 Cl
HETATM    8  N1  UNL     1     -10.999  16.634  -2.557  1.00  0.00    -0.321 N 
HETATM    9  C8  UNL     1     -11.704  17.913  -2.644  1.00  0.00     0.159 C 
HETATM   10  C9  UNL     1     -11.005  15.854  -1.385  1.00  0.00     0.226 C 
HETATM   11  O2  UNL     1     -10.445  14.760  -1.299  1.00  0.00    -0.273 OA
HETATM   12  C10 UNL     1     -11.649  16.497  -0.159  1.00  0.00     0.139 C 
HETATM   13  C11 UNL     1     -11.981  15.518   0.978  1.00  0.00     0.177 C 
HETATM   14  C17 UNL     1     -12.983  14.429   0.577  1.00  0.00     0.111 A 
HETATM   15  C18 UNL     1     -12.526  13.002   0.638  1.00  0.00     0.051 C 
HETATM   16  O6  UNL     1     -13.782  14.730  -0.590  1.00  0.00    -0.366 OA
HETATM   17  C19 UNL     1     -14.471  14.820   0.648  1.00  0.00     0.165 A 
HETATM   18  C20 UNL     1     -15.670  13.932   0.862  1.00  0.00     0.043 C 
HETATM   19  C21 UNL     1     -15.841  13.740   2.382  1.00  0.00     0.015 C 
HETATM   20  C22 UNL     1     -15.790  12.568   0.145  1.00  0.00     0.143 C 
HETATM   21  C23 UNL     1     -15.633  12.602  -1.371  1.00  0.00     0.097 C 
HETATM   22  C24 UNL     1     -15.947  11.206  -1.917  1.00  0.00     0.166 C 
HETATM   23  N2  UNL     1     -17.321  10.843  -1.565  1.00  0.00    -0.316 N 
ATOM     24  H2  UNL     1     -17.913  10.289  -2.183  1.00  0.00     0.166 HD
HETATM   25  C25 UNL     1     -17.728  11.266  -0.433  1.00  0.00     0.260 C 
HETATM   26  O9  UNL     1     -17.116  12.063   0.454  1.00  0.00    -0.311 OA
HETATM   27  C26 UNL     1     -15.821  11.150  -3.494  1.00  0.00     0.199 C 
HETATM   28  C28 UNL     1     -14.487  11.661  -4.004  1.00  0.00     0.010 C 
HETATM   29  C29 UNL     1     -13.472  10.914  -4.468  1.00  0.00    -0.001 C 
HETATM   30  C30 UNL     1     -12.169  11.449  -4.784  1.00  0.00     0.002 C 
HETATM   31  C31 UNL     1     -11.861  12.430  -5.654  1.00  0.00    -0.080 C 
HETATM   32  C32 UNL     1     -12.845  13.119  -6.562  1.00  0.00     0.043 C 
HETATM   33  C33 UNL     1     -10.418  12.879  -5.795  1.00  0.00     0.072 C 
ENDROOT
BRANCH  13  34
HETATM   34  O3  UNL     1     -10.795  14.929   1.547  1.00  0.00    -0.312 OA
BRANCH  34  35
HETATM   35  C12 UNL     1     -10.335  15.469   2.704  1.00  0.00     0.259 C 
HETATM   36  O4  UNL     1     -10.466  16.640   3.034  1.00  0.00    -0.265 OA
BRANCH  35  37
HETATM   37  C13 UNL     1      -9.627  14.420   3.525  1.00  0.00     0.117 C 
BRANCH  37  38
HETATM   38  C14 UNL     1      -9.640  14.763   5.024  1.00  0.00     0.014 C 
HETATM   39  C15 UNL     1      -8.618  15.854   5.351  1.00  0.00     0.012 C 
BRANCH  38  40
HETATM   40  C16 UNL     1     -11.038  15.212   5.462  1.00  0.00     0.168 C 
BRANCH  40  41
HETATM   41  O5  UNL     1     -11.880  14.091   5.686  1.00  0.00    -0.400 OA
HETATM   42  H20 UNL     1     -11.486  13.563   6.403  1.00  0.00     0.209 HD
ENDBRANCH  40  41
ENDBRANCH  38  40
ENDBRANCH  37  38
ENDBRANCH  35  37
ENDBRANCH  34  35
ENDBRANCH  13  34
BRANCH   1  43
HETATM   43  O1  UNL     1      -8.267  17.293  -6.551  1.00  0.00    -0.354 OA
HETATM   44  C1  UNL     1      -6.886  16.988  -6.678  1.00  0.00     0.210 C 
ENDBRANCH   1  43
BRANCH  22  45
HETATM   45  O7  UNL     1     -15.001  10.279  -1.375  1.00  0.00    -0.368 OA
HETATM   46  H32 UNL     1     -15.099   9.492  -1.949  1.00  0.00     0.212 HD
ENDBRANCH  22  45
BRANCH  25  47
HETATM   47  O8  UNL     1     -18.955  10.938  -0.017  1.00  0.00    -0.327 OA
HETATM   48  H33 UNL     1     -19.331  10.349  -0.690  1.00  0.00     0.221 HD
ENDBRANCH  25  47
BRANCH  27  49
HETATM   49  O10 UNL     1     -15.961   9.765  -3.890  1.00  0.00    -0.382 OA
HETATM   50  C27 UNL     1     -14.886   8.962  -3.425  1.00  0.00     0.202 C 
ENDBRANCH  27  49
TORSDOF 10
ENDMDL
MODEL 2
REMARK minimizedAffinity -6.077034
REMARK CNNscore 0.168743461
REMARK CNNaffinity 5.35977888
REMARK  10 active torsions:
REMARK  status: ('A' for Active; 'I' for Inactive)
REMARK    1  A    between atoms: O1_2  and  C2_3 
REMARK    2  A    between atoms: C11_15  and  O3_16 
REMARK    3  A    between atoms: O3_16  and  C12_17 
REMARK    4  A    between atoms: C12_17  and  C13_19 
REMARK    5  A    between atoms: C13_19  and  C14_20 
REMARK    6  A    between atoms: C14_20  and  C16_22 
REMARK    7  A    between atoms: C16_22  and  O5_23 
REMARK    8  A    between atoms: C24_32  and  O7_33 
REMARK    9  A    between atoms: C25_36  and  O8_37 
REMARK   10  A    between atoms: C26_39  and  O10_40 
ROOT
HETATM    1  C2  UNL     1      -0.788  17.666  23.435  1.00  0.00     0.092 A 
HETATM    2  C3  UNL     1      -0.096  18.008  24.602  1.00  0.00     0.046 A 
HETATM    3  C4  UNL     1       1.250  17.654  24.769  1.00  0.00    -0.049 A 
HETATM    4  C5  UNL     1       1.902  16.951  23.743  1.00  0.00     0.039 A 
HETATM    5  C6  UNL     1       1.251  16.626  22.541  1.00  0.00     0.061 A 
HETATM    6  C7  UNL     1      -0.115  16.969  22.409  1.00  0.00     0.094 A 
HETATM    7 CL1  UNL     1      -1.054  16.421  21.042  1.00  0.00    -0.079 Cl
HETATM    8  N1  UNL     1       2.013  15.999  21.490  1.00  0.00    -0.321 N 
HETATM    9  C8  UNL     1       1.918  16.594  20.157  1.00  0.00     0.159 C 
HETATM   10  C9  UNL     1       2.885  14.931  21.772  1.00  0.00     0.226 C 
HETATM   11  O2  UNL     1       3.004  14.435  22.894  1.00  0.00    -0.273 OA
HETATM   12  C10 UNL     1       3.602  14.320  20.570  1.00  0.00     0.139 C 
HETATM   13  C11 UNL     1       4.804  13.431  20.925  1.00  0.00     0.177 C 
HETATM   14  C17 UNL     1       5.920  14.176  21.667  1.00  0.00     0.111 A 
HETATM   15  C18 UNL     1       6.265  13.718  23.053  1.00  0.00     0.051 C 
HETATM   16  O6  UNL     1       5.897  15.615  21.524  1.00  0.00    -0.366 OA
HETATM   17  C19 UNL     1       6.915  14.955  20.787  1.00  0.00     0.165 A 
HETATM   18  C20 UNL     1       8.350  15.312  21.075  1.00  0.00     0.043 C 
HETATM   19  C21 UNL     1       9.221  14.106  20.668  1.00  0.00     0.015 C 
HETATM   20  C22 UNL     1       8.780  15.820  22.470  1.00  0.00     0.143 C 
HETATM   21  C23 UNL     1       7.996  17.011  23.009  1.00  0.00     0.097 C 
HETATM   22  C24 UNL     1       8.664  17.476  24.307  1.00  0.00     0.166 C 
HETATM   23  N2  UNL     1      10.046  17.872  24.029  1.00  0.00    -0.316 N 
ATOM     24  H2  UNL     1      10.500  18.642  24.520  1.00  0.00     0.166 HD
HETATM   25  C25 UNL     1      10.644  17.188  23.134  1.00  0.00     0.260 C 
HETATM   26  O9  UNL     1      10.174  16.210  22.348  1.00  0.00    -0.311 OA
HETATM   27  C26 UNL     1       7.920  18.725  24.935  1.00  0.00     0.199 C 
HETATM   28  C28 UNL     1       6.433  18.501  25.124  1.00  0.00     0.010 C 
HETATM   29  C29 UNL     1       5.803  18.264  26.285  1.00  0.00    -0.001 C 
HETATM   30  C30 UNL     1       4.410  17.896  26.376  1.00  0.00     0.002 C 
HETATM   31  C31 UNL     1       3.338  18.574  25.920  1.00  0.00    -0.080 C 
HETATM   32  C32 UNL     1       3.387  19.938  25.285  1.00  0.00     0.043 C 
HETATM   33  C33 UNL     1       1.953  17.975  26.074  1.00  0.00     0.072 C 
ENDROOT
BRANCH  13  34
HETATM   34  O3  UNL     1       4.408  12.254  21.658  1.00  0.00    -0.312 OA
BRANCH  34  35
HETATM   35  C12 UNL     1       4.198  11.124  20.938  1.00  0.00     0.259 C 
HETATM   36  O4  UNL     1       4.849  10.782  19.959  1.00  0.00    -0.265 OA
BRANCH  35  37
HETATM   37  C13 UNL     1       3.038  10.347  21.510  1.00  0.00     0.117 C 
BRANCH  37  38
HETATM   38  C14 UNL     1       3.410   9.654  22.832  1.00  0.00     0.014 C 
HETATM   39  C15 UNL     1       2.928  10.465  24.036  1.00  0.00     0.012 C 
BRANCH  38  40
HETATM   40  C16 UNL     1       2.818   8.242  22.885  1.00  0.00     0.168 C 
BRANCH  40  41
HETATM   41  O5  UNL     1       1.674   8.145  22.050  1.00  0.00    -0.400 OA
HETATM   42  H20 UNL     1       1.958   8.326  21.136  1.00  0.00     0.209 HD
ENDBRANCH  40  41
ENDBRANCH  38  40
ENDBRANCH  37  38
ENDBRANCH  35  37
ENDBRANCH  34  35
ENDBRANCH  13  34
BRANCH   1  43
HETATM   43  O1  UNL     1      -2.110  17.969  23.215  1.00  0.00    -0.354 OA
HETATM   44  C1  UNL     1      -2.593  19.223  23.678  1.00  0.00     0.210 C 
ENDBRANCH   1  43
BRANCH  22  45
HETATM   45  O7  UNL     1       8.601  16.412  25.262  1.00  0.00    -0.368 OA
HETATM   46  H32 UNL     1       8.802  16.855  26.110  1.00  0.00     0.212 HD
ENDBRANCH  22  45
BRANCH  25  47
HETATM   47  O8  UNL     1      11.923  17.455  22.855  1.00  0.00    -0.327 OA
HETATM   48  H33 UNL     1      12.204  18.152  23.468  1.00  0.00     0.221 HD
ENDBRANCH  25  47
BRANCH  27  49
HETATM   49  O10 UNL     1       8.512  18.973  26.233  1.00  0.00    -0.382 OA
HETATM   50  C27 UNL     1       8.930  20.322  26.385  1.00  0.00     0.202 C 
ENDBRANCH  27  49
TORSDOF 10
ENDMDL
MODEL 3
REMARK minimizedAffinity -5.80667353
REMARK CNNscore 0.159549206
REMARK CNNaffinity 4.21164036
REMARK  10 active torsions:
REMARK  status: ('A' for Active; 'I' for Inactive)
REMARK    1  A    between atoms: O1_2  and  C2_3 
REMARK    2  A    between atoms: C11_15  and  O3_16 
REMARK    3  A    between atoms: O3_16  and  C12_17 
REMARK    4  A    between atoms: C12_17  and  C13_19 
REMARK    5  A    between atoms: C13_19  and  C14_20 
REMARK    6  A    between atoms: C14_20  and  C16_22 
REMARK    7  A    between atoms: C16_22  and  O5_23 
REMARK    8  A    between atoms: C24_32  and  O7_33 
REMARK    9  A    between atoms: C25_36  and  O8_37 
REMARK   10  A    between atoms: C26_39  and  O10_40 
ROOT
HETATM    1  C2  UNL     1       2.887  14.999  12.938  1.00  0.00     0.092 A 
HETATM    2  C3  UNL     1       2.136  14.691  14.077  1.00  0.00     0.046 A 
HETATM    3  C4  UNL     1       2.733  14.089  15.192  1.00  0.00    -0.049 A 
HETATM    4  C5  UNL     1       4.107  13.799  15.155  1.00  0.00     0.039 A 
HETATM    5  C6  UNL     1       4.902  14.129  14.044  1.00  0.00     0.061 A 
HETATM    6  C7  UNL     1       4.269  14.711  12.921  1.00  0.00     0.094 A 
HETATM    7 CL1  UNL     1       5.136  14.961  11.426  1.00  0.00    -0.079 Cl
HETATM    8  N1  UNL     1       6.323  13.901  14.119  1.00  0.00    -0.321 N 
HETATM    9  C8  UNL     1       7.194  15.016  13.751  1.00  0.00     0.159 C 
HETATM   10  C9  UNL     1       6.831  12.689  14.626  1.00  0.00     0.226 C 
HETATM   11  O2  UNL     1       6.114  11.749  14.970  1.00  0.00    -0.273 OA
HETATM   12  C10 UNL     1       8.351  12.546  14.611  1.00  0.00     0.139 C 
HETATM   13  C11 UNL     1       8.895  11.410  15.491  1.00  0.00     0.177 C 
HETATM   14  C17 UNL     1       8.565  11.575  16.980  1.00  0.00     0.111 A 
HETATM   15  C18 UNL     1       7.723  10.518  17.630  1.00  0.00     0.051 C 
HETATM   16  O6  UNL     1       8.220  12.919  17.386  1.00  0.00    -0.366 OA
HETATM   17  C19 UNL     1       9.511  12.484  17.786  1.00  0.00     0.165 A 
HETATM   18  C20 UNL     1       9.826  12.447  19.259  1.00  0.00     0.043 C 
HETATM   19  C21 UNL     1      10.947  11.410  19.470  1.00  0.00     0.015 C 
HETATM   20  C22 UNL     1       8.711  12.232  20.308  1.00  0.00     0.143 C 
HETATM   21  C23 UNL     1       7.525  13.186  20.216  1.00  0.00     0.097 C 
HETATM   22  C24 UNL     1       6.615  12.936  21.422  1.00  0.00     0.166 C 
HETATM   23  N2  UNL     1       7.362  13.183  22.657  1.00  0.00    -0.316 N 
ATOM     24  H2  UNL     1       6.925  13.585  23.486  1.00  0.00     0.166 HD
HETATM   25  C25 UNL     1       8.596  12.863  22.626  1.00  0.00     0.260 C 
HETATM   26  O9  UNL     1       9.337  12.406  21.607  1.00  0.00    -0.311 OA
HETATM   27  C26 UNL     1       5.356  13.896  21.418  1.00  0.00     0.199 C 
HETATM   28  C28 UNL     1       4.580  13.855  20.116  1.00  0.00     0.010 C 
HETATM   29  C29 UNL     1       3.401  13.248  19.909  1.00  0.00    -0.001 C 
HETATM   30  C30 UNL     1       2.795  13.106  18.607  1.00  0.00     0.002 C 
HETATM   31  C31 UNL     1       2.461  14.077  17.734  1.00  0.00    -0.080 C 
HETATM   32  C32 UNL     1       2.580  15.554  17.999  1.00  0.00     0.043 C 
HETATM   33  C33 UNL     1       1.878  13.701  16.384  1.00  0.00     0.072 C 
ENDROOT
BRANCH  13  34
HETATM   34  O3  UNL     1       8.476  10.114  15.022  1.00  0.00    -0.312 OA
BRANCH  34  35
HETATM   35  C12 UNL     1       8.798   9.789  13.744  1.00  0.00     0.259 C 
HETATM   36  O4  UNL     1       9.910   9.905  13.247  1.00  0.00    -0.265 OA
BRANCH  35  37
HETATM   37  C13 UNL     1       7.583   9.271  13.014  1.00  0.00     0.117 C 
BRANCH  37  38
HETATM   38  C14 UNL     1       7.268   7.814  13.391  1.00  0.00     0.014 C 
HETATM   39  C15 UNL     1       8.193   7.319  14.506  1.00  0.00     0.012 C 
BRANCH  38  40
HETATM   40  C16 UNL     1       5.806   7.674  13.829  1.00  0.00     0.168 C 
BRANCH  40  41
HETATM   41  O5  UNL     1       5.712   6.927  15.033  1.00  0.00    -0.400 OA
HETATM   42  H20 UNL     1       6.196   7.416  15.723  1.00  0.00     0.209 HD
ENDBRANCH  40  41
ENDBRANCH  38  40
ENDBRANCH  37  38
ENDBRANCH  35  37
ENDBRANCH  34  35
ENDBRANCH  13  34
BRANCH   1  43
HETATM   43  O1  UNL     1       2.360  15.576  11.808  1.00  0.00    -0.354 OA
HETATM   44  C1  UNL     1       0.947  15.695  11.717  1.00  0.00     0.210 C 
ENDBRANCH   1  43
BRANCH  22  45
HETATM   45  O7  UNL     1       6.131  11.590  21.360  1.00  0.00    -0.368 OA
HETATM   46  H32 UNL     1       5.383  11.588  21.990  1.00  0.00     0.212 HD
ENDBRANCH  22  45
BRANCH  25  47
HETATM   47  O8  UNL     1       9.337  13.014  23.728  1.00  0.00    -0.327 OA
HETATM   48  H33 UNL     1       8.740  13.326  24.426  1.00  0.00     0.221 HD
ENDBRANCH  25  47
BRANCH  27  49
HETATM   49  O10 UNL     1       4.479  13.465  22.485  1.00  0.00    -0.382 OA
HETATM   50  C27 UNL     1       3.917  14.559  23.195  1.00  0.00     0.202 C 
ENDBRANCH  27  49
TORSDOF 10
ENDMDL
MODEL 4
REMARK minimizedAffinity -6.09721947
REMARK CNNscore 0.137947232
REMARK CNNaffinity 4.73024988
REMARK  10 active torsions:
REMARK  status: ('A' for Active; 'I' for Inactive)
REMARK    1  A    between atoms: O1_2  and  C2_3 
REMARK    2  A    between atoms: C11_15  and  O3_16 
REMARK    3  A    between atoms: O3_16  and  C12_17 
REMARK    4  A    between atoms: C12_17  and  C13_19 
REMARK    5  A    between atoms: C13_19  and  C14_20 
REMARK    6  A    between atoms: C14_20  and  C16_22 
REMARK    7  A    between atoms: C16_22  and  O5_23 
REMARK    8  A    between atoms: C24_32  and  O7_33 
REMARK    9  A    between atoms: C25_36  and  O8_37 
REMARK   10  A    between atoms: C26_39  and  O10_40 
ROOT
HETATM    1  C2  UNL     1      -2.117  15.568   4.649  1.00  0.00     0.092 A 
HETATM    2  C3  UNL     1      -0.899  14.934   4.916  1.00  0.00     0.046 A 
HETATM    3  C4  UNL     1       0.057  14.759   3.906  1.00  0.00    -0.049 A 
HETATM    4  C5  UNL     1      -0.221  15.235   2.615  1.00  0.00     0.039 A 
HETATM    5  C6  UNL     1      -1.417  15.912   2.319  1.00  0.00     0.061 A 
HETATM    6  C7  UNL     1      -2.377  16.050   3.348  1.00  0.00     0.094 A 
HETATM    7 CL1  UNL     1      -3.968  16.689   3.018  1.00  0.00    -0.079 Cl
HETATM    8  N1  UNL     1      -1.588  16.468   1.000  1.00  0.00    -0.321 N 
HETATM    9  C8  UNL     1      -2.005  17.867   0.919  1.00  0.00     0.159 C 
HETATM   10  C9  UNL     1      -1.263  15.716  -0.145  1.00  0.00     0.226 C 
HETATM   11  O2  UNL     1      -0.880  14.546  -0.098  1.00  0.00    -0.273 OA
HETATM   12  C10 UNL     1      -1.531  16.395  -1.487  1.00  0.00     0.139 C 
HETATM   13  C11 UNL     1      -0.838  15.734  -2.688  1.00  0.00     0.177 C 
HETATM   14  C17 UNL     1       0.692  15.730  -2.588  1.00  0.00     0.111 A 
HETATM   15  C18 UNL     1       1.387  14.402  -2.550  1.00  0.00     0.051 C 
HETATM   16  O6  UNL     1       1.249  16.699  -1.671  1.00  0.00    -0.366 OA
HETATM   17  C19 UNL     1       1.403  17.017  -3.045  1.00  0.00     0.165 A 
HETATM   18  C20 UNL     1       2.800  17.182  -3.587  1.00  0.00     0.043 C 
HETATM   19  C21 UNL     1       2.749  16.895  -5.102  1.00  0.00     0.015 C 
HETATM   20  C22 UNL     1       3.994  16.433  -2.953  1.00  0.00     0.143 C 
HETATM   21  C23 UNL     1       4.166  16.617  -1.450  1.00  0.00     0.097 C 
HETATM   22  C24 UNL     1       5.480  15.950  -1.032  1.00  0.00     0.166 C 
HETATM   23  N2  UNL     1       6.594  16.579  -1.744  1.00  0.00    -0.316 N 
ATOM     24  H2  UNL     1       7.510  16.707  -1.316  1.00  0.00     0.166 HD
HETATM   25  C25 UNL     1       6.342  16.956  -2.936  1.00  0.00     0.260 C 
HETATM   26  O9  UNL     1       5.185  16.937  -3.613  1.00  0.00    -0.311 OA
HETATM   27  C26 UNL     1       5.749  16.103   0.521  1.00  0.00     0.199 C 
HETATM   28  C28 UNL     1       4.589  15.633   1.376  1.00  0.00     0.010 C 
HETATM   29  C29 UNL     1       4.529  14.492   2.080  1.00  0.00    -0.001 C 
HETATM   30  C30 UNL     1       3.333  14.026   2.741  1.00  0.00     0.002 C 
HETATM   31  C31 UNL     1       2.601  14.657   3.680  1.00  0.00    -0.080 C 
HETATM   32  C32 UNL     1       2.955  15.980   4.305  1.00  0.00     0.043 C 
HETATM   33  C33 UNL     1       1.338  14.004   4.208  1.00  0.00     0.072 C 
ENDROOT
BRANCH  13  34
HETATM   34  O3  UNL     1      -1.332  14.402  -2.932  1.00  0.00    -0.312 OA
BRANCH  34  35
HETATM   35  C12 UNL     1      -2.075  14.217  -4.052  1.00  0.00     0.259 C 
HETATM   36  O4  UNL     1      -3.189  13.713  -4.081  1.00  0.00    -0.265 OA
BRANCH  35  37
HETATM   37  C13 UNL     1      -1.327  14.715  -5.264  1.00  0.00     0.117 C 
BRANCH  37  38
HETATM   38  C14 UNL     1      -0.518  13.595  -5.938  1.00  0.00     0.014 C 
HETATM   39  C15 UNL     1      -1.360  12.854  -6.978  1.00  0.00     0.012 C 
BRANCH  38  40
HETATM   40  C16 UNL     1       0.743  14.163  -6.599  1.00  0.00     0.168 C 
BRANCH  40  41
HETATM   41  O5  UNL     1       1.912  13.630  -5.993  1.00  0.00    -0.400 OA
HETATM   42  H20 UNL     1       1.900  12.665  -6.126  1.00  0.00     0.209 HD
ENDBRANCH  40  41
ENDBRANCH  38  40
ENDBRANCH  37  38
ENDBRANCH  35  37
ENDBRANCH  34  35
ENDBRANCH  13  34
BRANCH   1  43
HETATM   43  O1  UNL     1      -3.101  15.757   5.589  1.00  0.00    -0.354 OA
HETATM   44  C1  UNL     1      -2.717  16.241   6.869  1.00  0.00     0.210 C 
ENDBRANCH   1  43
BRANCH  22  45
HETATM   45  O7  UNL     1       5.394  14.550  -1.319  1.00  0.00    -0.368 OA
HETATM   46  H32 UNL     1       6.133  14.167  -0.806  1.00  0.00     0.212 HD
ENDBRANCH  22  45
BRANCH  25  47
HETATM   47  O8  UNL     1       7.319  17.497  -3.669  1.00  0.00    -0.327 OA
HETATM   48  H33 UNL     1       8.125  17.462  -3.132  1.00  0.00     0.221 HD
ENDBRANCH  25  47
BRANCH  27  49
HETATM   49  O10 UNL     1       6.908  15.296   0.840  1.00  0.00    -0.382 OA
HETATM   50  C27 UNL     1       6.663  13.909   0.661  1.00  0.00     0.202 C 
ENDBRANCH  27  49
TORSDOF 10
ENDMDL
MODEL 5
REMARK minimizedAffinity -7.03619576
REMARK CNNscore 0.133150414
REMARK CNNaffinity 4.71699142
REMARK  10 active torsions:
REMARK  status: ('A' for Active; 'I' for Inactive)
REMARK    1  A    between atoms: O1_2  and  C2_3 
REMARK    2  A    between atoms: C11_15  and  O3_16 
REMARK    3  A    between atoms: O3_16  and  C12_17 
REMARK    4  A    between atoms: C12_17  and  C13_19 
REMARK    5  A    between atoms: C13_19  and  C14_20 
REMARK    6  A    between atoms: C14_20  and  C16_22 
REMARK    7  A    between atoms: C16_22  and  O5_23 
REMARK    8  A    between atoms: C24_32  and  O7_33 
REMARK    9  A    between atoms: C25_36  and  O8_37 
REMARK   10  A    between atoms: C26_39  and  O10_40 
ROOT
HETATM    1  C2  UNL     1      -0.381  11.107  18.849  1.00  0.00     0.092 A 
HETATM    2  C3  UNL     1       0.260  10.805  20.056  1.00  0.00     0.046 A 
HETATM    3  C4  UNL     1       1.642  10.984  20.200  1.00  0.00    -0.049 A 
HETATM    4  C5  UNL     1       2.383  11.477  19.113  1.00  0.00     0.039 A 
HETATM    5  C6  UNL     1       1.767  11.829  17.899  1.00  0.00     0.061 A 
HETATM    6  C7  UNL     1       0.376  11.612  17.770  1.00  0.00     0.094 A 
HETATM    7 CL1  UNL     1      -0.431  11.823  16.236  1.00  0.00    -0.079 Cl
HETATM    8  N1  UNL     1       2.572  12.430  16.865  1.00  0.00    -0.321 N 
HETATM    9  C8  UNL     1       2.069  13.666  16.267  1.00  0.00     0.159 C 
HETATM   10  C9  UNL     1       3.832  11.897  16.533  1.00  0.00     0.226 C 
HETATM   11  O2  UNL     1       4.289  10.874  17.047  1.00  0.00    -0.273 OA
HETATM   12  C10 UNL     1       4.570  12.591  15.390  1.00  0.00     0.139 C 
HETATM   13  C11 UNL     1       6.065  12.250  15.292  1.00  0.00     0.177 C 
HETATM   14  C17 UNL     1       6.869  12.651  16.535  1.00  0.00     0.111 A 
HETATM   15  C18 UNL     1       7.550  11.562  17.309  1.00  0.00     0.051 C 
HETATM   16  O6  UNL     1       6.245  13.651  17.372  1.00  0.00    -0.366 OA
HETATM   17  C19 UNL     1       7.336  14.117  16.593  1.00  0.00     0.165 A 
HETATM   18  C20 UNL     1       8.526  14.700  17.311  1.00  0.00     0.043 C 
HETATM   19  C21 UNL     1       9.750  14.543  16.386  1.00  0.00     0.015 C 
HETATM   20  C22 UNL     1       8.893  14.250  18.743  1.00  0.00     0.143 C 
HETATM   21  C23 UNL     1       7.771  14.342  19.771  1.00  0.00     0.097 C 
HETATM   22  C24 UNL     1       8.357  14.021  21.150  1.00  0.00     0.166 C 
HETATM   23  N2  UNL     1       9.410  14.988  21.469  1.00  0.00    -0.316 N 
ATOM     24  H2  UNL     1       9.572  15.321  22.419  1.00  0.00     0.166 HD
HETATM   25  C25 UNL     1      10.109  15.385  20.480  1.00  0.00     0.260 C 
HETATM   26  O9  UNL     1       9.978  15.113  19.175  1.00  0.00    -0.311 OA
HETATM   27  C26 UNL     1       7.260  14.107  22.289  1.00  0.00     0.199 C 
HETATM   28  C28 UNL     1       6.031  13.268  21.997  1.00  0.00     0.010 C 
HETATM   29  C29 UNL     1       5.711  12.096  22.568  1.00  0.00    -0.001 C 
HETATM   30  C30 UNL     1       4.614  11.268  22.128  1.00  0.00     0.002 C 
HETATM   31  C31 UNL     1       3.309  11.594  22.039  1.00  0.00    -0.080 C 
HETATM   32  C32 UNL     1       2.715  12.904  22.483  1.00  0.00     0.043 C 
HETATM   33  C33 UNL     1       2.320  10.580  21.495  1.00  0.00     0.072 C 
ENDROOT
BRANCH  13  34
HETATM   34  O3  UNL     1       6.282  10.860  14.977  1.00  0.00    -0.312 OA
BRANCH  34  35
HETATM   35  C12 UNL     1       6.978  10.588  13.845  1.00  0.00     0.259 C 
HETATM   36  O4  UNL     1       6.663  10.954  12.721  1.00  0.00    -0.265 OA
BRANCH  35  37
HETATM   37  C13 UNL     1       8.197   9.759  14.166  1.00  0.00     0.117 C 
BRANCH  37  38
HETATM   38  C14 UNL     1       7.888   8.663  15.199  1.00  0.00     0.014 C 
HETATM   39  C15 UNL     1       7.681   7.307  14.521  1.00  0.00     0.012 C 
BRANCH  38  40
HETATM   40  C16 UNL     1       9.016   8.562  16.231  1.00  0.00     0.168 C 
BRANCH  40  41
HETATM   41  O5  UNL     1       8.986   7.301  16.886  1.00  0.00    -0.400 OA
HETATM   42  H20 UNL     1       9.121   6.614  16.210  1.00  0.00     0.209 HD
ENDBRANCH  40  41
ENDBRANCH  38  40
ENDBRANCH  37  38
ENDBRANCH  35  37
ENDBRANCH  34  35
ENDBRANCH  13  34
BRANCH   1  43
HETATM   43  O1  UNL     1      -1.728  10.941  18.638  1.00  0.00    -0.354 OA
HETATM   44  C1  UNL     1      -2.183   9.668  18.201  1.00  0.00     0.210 C 
ENDBRANCH   1  43
BRANCH  22  45
HETATM   45  O7  UNL     1       8.859  12.681  21.134  1.00  0.00    -0.368 OA
HETATM   46  H32 UNL     1       8.973  12.469  22.081  1.00  0.00     0.212 HD
ENDBRANCH  22  45
BRANCH  25  47
HETATM   47  O8  UNL     1      11.121  16.232  20.695  1.00  0.00    -0.327 OA
HETATM   48  H33 UNL     1      11.172  16.369  21.653  1.00  0.00     0.221 HD
ENDBRANCH  25  47
BRANCH  27  49
HETATM   49  O10 UNL     1       7.866  13.619  23.509  1.00  0.00    -0.382 OA
HETATM   50  C27 UNL     1       8.538  12.382  23.319  1.00  0.00     0.202 C 
ENDBRANCH  27  49
TORSDOF 10
ENDMDL
MODEL 6
REMARK minimizedAffinity -7.17334032
REMARK CNNscore 0.097684063
REMARK CNNaffinity 5.92947245
REMARK  10 active torsions:
REMARK  status: ('A' for Active; 'I' for Inactive)
REMARK    1  A    between atoms: O1_2  and  C2_3 
REMARK    2  A    between atoms: C11_15  and  O3_16 
REMARK    3  A    between atoms: O3_16  and  C12_17 
REMARK    4  A    between atoms: C12_17  and  C13_19 
REMARK    5  A    between atoms: C13_19  and  C14_20 
REMARK    6  A    between atoms: C14_20  and  C16_22 
REMARK    7  A    between atoms: C16_22  and  O5_23 
REMARK    8  A    between atoms: C24_32  and  O7_33 
REMARK    9  A    between atoms: C25_36  and  O8_37 
REMARK   10  A    between atoms: C26_39  and  O10_40 
ROOT
HETATM    1  C2  UNL     1      -9.686  15.330  16.250  1.00  0.00     0.092 A 
HETATM    2  C3  UNL     1     -10.395  15.658  15.090  1.00  0.00     0.046 A 
HETATM    3  C4  UNL     1     -11.104  14.680  14.379  1.00  0.00    -0.049 A 
HETATM    4  C5  UNL     1     -11.100  13.358  14.851  1.00  0.00     0.039 A 
HETATM    5  C6  UNL     1     -10.432  12.998  16.035  1.00  0.00     0.061 A 
HETATM    6  C7  UNL     1      -9.701  13.998  16.717  1.00  0.00     0.094 A 
HETATM    7 CL1  UNL     1      -8.676  13.597  18.073  1.00  0.00    -0.079 Cl
HETATM    8  N1  UNL     1     -10.560  11.646  16.517  1.00  0.00    -0.321 N 
HETATM    9  C8  UNL     1     -10.937  11.474  17.919  1.00  0.00     0.159 C 
HETATM   10  C9  UNL     1     -10.429  10.554  15.638  1.00  0.00     0.226 C 
HETATM   11  O2  UNL     1     -10.143  10.677  14.446  1.00  0.00    -0.273 OA
HETATM   12  C10 UNL     1     -10.538   9.169  16.273  1.00  0.00     0.139 C 
HETATM   13  C11 UNL     1     -10.766   8.023  15.276  1.00  0.00     0.177 C 
HETATM   14  C17 UNL     1     -12.069   8.155  14.477  1.00  0.00     0.111 A 
HETATM   15  C18 UNL     1     -11.965   8.285  12.987  1.00  0.00     0.051 C 
HETATM   16  O6  UNL     1     -13.063   9.025  15.065  1.00  0.00    -0.366 OA
HETATM   17  C19 UNL     1     -13.343   7.638  15.171  1.00  0.00     0.165 A 
HETATM   18  C20 UNL     1     -14.611   7.116  14.547  1.00  0.00     0.043 C 
HETATM   19  C21 UNL     1     -14.398   5.620  14.238  1.00  0.00     0.015 C 
HETATM   20  C22 UNL     1     -15.244   7.818  13.323  1.00  0.00     0.143 C 
HETATM   21  C23 UNL     1     -15.507   9.311  13.482  1.00  0.00     0.097 C 
HETATM   22  C24 UNL     1     -16.282   9.794  12.252  1.00  0.00     0.166 C 
HETATM   23  N2  UNL     1     -17.551   9.069  12.160  1.00  0.00    -0.316 N 
ATOM     24  H2  UNL     1     -18.404   9.509  11.814  1.00  0.00     0.166 HD
HETATM   25  C25 UNL     1     -17.518   7.853  12.540  1.00  0.00     0.260 C 
HETATM   26  O9  UNL     1     -16.515   7.154  13.088  1.00  0.00    -0.311 OA
HETATM   27  C26 UNL     1     -16.612  11.340  12.335  1.00  0.00     0.199 C 
HETATM   28  C28 UNL     1     -15.389  12.198  12.595  1.00  0.00     0.010 C 
HETATM   29  C29 UNL     1     -14.749  12.966  11.700  1.00  0.00    -0.001 C 
HETATM   30  C30 UNL     1     -13.495  13.628  11.970  1.00  0.00     0.002 C 
HETATM   31  C31 UNL     1     -13.215  14.513  12.947  1.00  0.00    -0.080 C 
HETATM   32  C32 UNL     1     -14.218  15.066  13.923  1.00  0.00     0.043 C 
HETATM   33  C33 UNL     1     -11.803  15.052  13.085  1.00  0.00     0.072 C 
ENDROOT
BRANCH  13  34
HETATM   34  O3  UNL     1      -9.645   7.848  14.388  1.00  0.00    -0.312 OA
BRANCH  34  35
HETATM   35  C12 UNL     1      -8.970   6.674  14.474  1.00  0.00     0.259 C 
HETATM   36  O4  UNL     1      -8.496   6.209  15.502  1.00  0.00    -0.265 OA
BRANCH  35  37
HETATM   37  C13 UNL     1      -8.877   6.023  13.116  1.00  0.00     0.117 C 
BRANCH  37  38
HETATM   38  C14 UNL     1      -7.504   5.370  12.888  1.00  0.00     0.014 C 
HETATM   39  C15 UNL     1      -6.373   6.272  13.386  1.00  0.00     0.012 C 
BRANCH  38  40
HETATM   40  C16 UNL     1      -7.430   4.010  13.589  1.00  0.00     0.168 C 
BRANCH  40  41
HETATM   41  O5  UNL     1      -8.560   3.214  13.262  1.00  0.00    -0.400 OA
HETATM   42  H20 UNL     1      -8.551   3.067  12.300  1.00  0.00     0.209 HD
ENDBRANCH  40  41
ENDBRANCH  38  40
ENDBRANCH  37  38
ENDBRANCH  35  37
ENDBRANCH  34  35
ENDBRANCH  13  34
BRANCH   1  43
HETATM   43  O1  UNL     1      -8.960  16.236  16.983  1.00  0.00    -0.354 OA
HETATM   44  C1  UNL     1      -7.886  16.909  16.340  1.00  0.00     0.210 C 
ENDBRANCH   1  43
BRANCH  22  45
HETATM   45  O7  UNL     1     -15.471   9.588  11.090  1.00  0.00    -0.368 OA
HETATM   46  H32 UNL     1     -15.907  10.137  10.408  1.00  0.00     0.212 HD
ENDBRANCH  22  45
BRANCH  25  47
HETATM   47  O8  UNL     1     -18.624   7.109  12.443  1.00  0.00    -0.327 OA
HETATM   48  H33 UNL     1     -19.299   7.664  12.024  1.00  0.00     0.221 HD
ENDBRANCH  25  47
BRANCH  27  49
HETATM   49  O10 UNL     1     -17.180  11.730  11.062  1.00  0.00    -0.382 OA
HETATM   50  C27 UNL     1     -18.393  12.453  11.214  1.00  0.00     0.202 C 
ENDBRANCH  27  49
TORSDOF 10
ENDMDL
MODEL 7
REMARK minimizedAffinity -6.4030714
REMARK CNNscore 0.0972756818
REMARK CNNaffinity 4.83463669
REMARK  10 active torsions:
REMARK  status: ('A' for Active; 'I' for Inactive)
REMARK    1  A    between atoms: O1_2  and  C2_3 
REMARK    2  A    between atoms: C11_15  and  O3_16 
REMARK    3  A    between atoms: O3_16  and  C12_17 
REMARK    4  A    between atoms: C12_17  and  C13_19 
REMARK    5  A    between atoms: C13_19  and  C14_20 
REMARK    6  A    between atoms: C14_20  and  C16_22 
REMARK    7  A    between atoms: C16_22  and  O5_23 
REMARK    8  A    between atoms: C24_32  and  O7_33 
REMARK    9  A    between atoms: C25_36  and  O8_37 
REMARK   10  A    between atoms: C26_39  and  O10_40 
ROOT
HETATM    1  C2  UNL     1       2.899  16.307  14.822  1.00  0.00     0.092 A 
HETATM    2  C3  UNL     1       3.910  15.342  14.870  1.00  0.00     0.046 A 
HETATM    3  C4  UNL     1       3.605  13.976  14.814  1.00  0.00    -0.049 A 
HETATM    4  C5  UNL     1       2.261  13.582  14.704  1.00  0.00     0.039 A 
HETATM    5  C6  UNL     1       1.221  14.523  14.613  1.00  0.00     0.061 A 
HETATM    6  C7  UNL     1       1.554  15.895  14.701  1.00  0.00     0.094 A 
HETATM    7 CL1  UNL     1       0.313  17.118  14.806  1.00  0.00    -0.079 Cl
HETATM    8  N1  UNL     1      -0.122  14.049  14.393  1.00  0.00    -0.321 N 
HETATM    9  C8  UNL     1      -0.876  14.673  13.306  1.00  0.00     0.159 C 
HETATM   10  C9  UNL     1      -0.631  12.962  15.130  1.00  0.00     0.226 C 
HETATM   11  O2  UNL     1      -0.001  12.402  16.028  1.00  0.00    -0.273 OA
HETATM   12  C10 UNL     1      -2.082  12.582  14.841  1.00  0.00     0.139 C 
HETATM   13  C11 UNL     1      -2.495  11.196  15.360  1.00  0.00     0.177 C 
HETATM   14  C17 UNL     1      -1.693  10.045  14.741  1.00  0.00     0.111 A 
HETATM   15  C18 UNL     1      -0.868   9.195  15.661  1.00  0.00     0.051 C 
HETATM   16  O6  UNL     1      -1.029  10.360  13.496  1.00  0.00    -0.366 OA
HETATM   17  C19 UNL     1      -2.181   9.540  13.371  1.00  0.00     0.165 A 
HETATM   18  C20 UNL     1      -2.020   8.172  12.758  1.00  0.00     0.043 C 
HETATM   19  C21 UNL     1      -3.168   7.288  13.284  1.00  0.00     0.015 C 
HETATM   20  C22 UNL     1      -0.681   7.406  12.859  1.00  0.00     0.143 C 
HETATM   21  C23 UNL     1       0.552   8.164  12.380  1.00  0.00     0.097 C 
HETATM   22  C24 UNL     1       1.742   7.201  12.396  1.00  0.00     0.166 C 
HETATM   23  N2  UNL     1       1.469   6.074  11.502  1.00  0.00    -0.316 N 
ATOM     24  H2  UNL     1       2.203   5.624  10.954  1.00  0.00     0.166 HD
HETATM   25  C25 UNL     1       0.254   5.692  11.455  1.00  0.00     0.260 C 
HETATM   26  O9  UNL     1      -0.832   6.217  12.039  1.00  0.00    -0.311 OA
HETATM   27  C26 UNL     1       3.072   7.903  11.898  1.00  0.00     0.199 C 
HETATM   28  C28 UNL     1       3.383   9.186  12.642  1.00  0.00     0.010 C 
HETATM   29  C29 UNL     1       4.326   9.353  13.583  1.00  0.00    -0.001 C 
HETATM   30  C30 UNL     1       4.462  10.556  14.370  1.00  0.00     0.002 C 
HETATM   31  C31 UNL     1       4.655  11.817  13.937  1.00  0.00    -0.080 C 
HETATM   32  C32 UNL     1       4.862  12.212  12.499  1.00  0.00     0.043 C 
HETATM   33  C33 UNL     1       4.718  12.952  14.941  1.00  0.00     0.072 C 
ENDROOT
BRANCH  13  34
HETATM   34  O3  UNL     1      -2.456  11.123  16.798  1.00  0.00    -0.312 OA
BRANCH  34  35
HETATM   35  C12 UNL     1      -3.387  11.842  17.476  1.00  0.00     0.259 C 
HETATM   36  O4  UNL     1      -4.510  12.102  17.066  1.00  0.00    -0.265 OA
BRANCH  35  37
HETATM   37  C13 UNL     1      -2.836  12.286  18.809  1.00  0.00     0.117 C 
BRANCH  37  38
HETATM   38  C14 UNL     1      -2.163  13.665  18.720  1.00  0.00     0.014 C 
HETATM   39  C15 UNL     1      -3.000  14.735  19.424  1.00  0.00     0.012 C 
BRANCH  38  40
HETATM   40  C16 UNL     1      -0.758  13.620  19.329  1.00  0.00     0.168 C 
BRANCH  40  41
HETATM   41  O5  UNL     1      -0.635  14.570  20.378  1.00  0.00    -0.400 OA
HETATM   42  H20 UNL     1      -1.279  14.334  21.068  1.00  0.00     0.209 HD
ENDBRANCH  40  41
ENDBRANCH  38  40
ENDBRANCH  37  38
ENDBRANCH  35  37
ENDBRANCH  34  35
ENDBRANCH  13  34
BRANCH   1  43
HETATM   43  O1  UNL     1       3.129  17.659  14.887  1.00  0.00    -0.354 OA
HETATM   44  C1  UNL     1       3.644  18.191  16.100  1.00  0.00     0.210 C 
ENDBRANCH   1  43
BRANCH  22  45
HETATM   45  O7  UNL     1       1.962   6.766  13.742  1.00  0.00    -0.368 OA
HETATM   46  H32 UNL     1       2.860   6.379  13.712  1.00  0.00     0.212 HD
ENDBRANCH  22  45
BRANCH  25  47
HETATM   47  O8  UNL     1      -0.070   4.639  10.698  1.00  0.00    -0.327 OA
HETATM   48  H33 UNL     1       0.757   4.298  10.324  1.00  0.00     0.221 HD
ENDBRANCH  25  47
BRANCH  27  49
HETATM   49  O10 UNL     1       4.159   6.973  12.117  1.00  0.00    -0.382 OA
HETATM   50  C27 UNL     1       4.933   6.764  10.944  1.00  0.00     0.202 C 
ENDBRANCH  27  49
TORSDOF 10
ENDMDL
MODEL 8
REMARK minimizedAffinity -7.69401169
REMARK CNNscore 0.0893682614
REMARK CNNaffinity 4.71121597
REMARK  10 active torsions:
REMARK  status: ('A' for Active; 'I' for Inactive)
REMARK    1  A    between atoms: O1_2  and  C2_3 
REMARK    2  A    between atoms: C11_15  and  O3_16 
REMARK    3  A    between atoms: O3_16  and  C12_17 
REMARK    4  A    between atoms: C12_17  and  C13_19 
REMARK    5  A    between atoms: C13_19  and  C14_20 
REMARK    6  A    between atoms: C14_20  and  C16_22 
REMARK    7  A    between atoms: C16_22  and  O5_23 
REMARK    8  A    between atoms: C24_32  and  O7_33 
REMARK    9  A    between atoms: C25_36  and  O8_37 
REMARK   10  A    between atoms: C26_39  and  O10_40 
ROOT
HETATM    1  C2  UNL     1       6.099   8.964  14.585  1.00  0.00     0.092 A 
HETATM    2  C3  UNL     1       5.071   8.047  14.341  1.00  0.00     0.046 A 
HETATM    3  C4  UNL     1       3.781   8.263  14.841  1.00  0.00    -0.049 A 
HETATM    4  C5  UNL     1       3.526   9.422  15.592  1.00  0.00     0.039 A 
HETATM    5  C6  UNL     1       4.523  10.385  15.824  1.00  0.00     0.061 A 
HETATM    6  C7  UNL     1       5.825  10.129  15.333  1.00  0.00     0.094 A 
HETATM    7 CL1  UNL     1       7.166  11.165  15.753  1.00  0.00    -0.079 Cl
HETATM    8  N1  UNL     1       4.163  11.601  16.511  1.00  0.00    -0.321 N 
HETATM    9  C8  UNL     1       4.567  12.860  15.886  1.00  0.00     0.159 C 
HETATM   10  C9  UNL     1       3.368  11.562  17.672  1.00  0.00     0.226 C 
HETATM   11  O2  UNL     1       2.991  10.514  18.197  1.00  0.00    -0.273 OA
HETATM   12  C10 UNL     1       3.093  12.910  18.336  1.00  0.00     0.139 C 
HETATM   13  C11 UNL     1       1.943  12.897  19.356  1.00  0.00     0.177 C 
HETATM   14  C17 UNL     1       0.588  12.513  18.748  1.00  0.00     0.111 A 
HETATM   15  C18 UNL     1      -0.083  11.276  19.265  1.00  0.00     0.051 C 
HETATM   16  O6  UNL     1       0.494  12.665  17.314  1.00  0.00    -0.366 OA
HETATM   17  C19 UNL     1      -0.194  13.651  18.067  1.00  0.00     0.165 A 
HETATM   18  C20 UNL     1      -1.683  13.786  17.872  1.00  0.00     0.043 C 
HETATM   19  C21 UNL     1      -2.266  14.407  19.157  1.00  0.00     0.015 C 
HETATM   20  C22 UNL     1      -2.543  12.578  17.437  1.00  0.00     0.143 C 
HETATM   21  C23 UNL     1      -2.078  11.856  16.178  1.00  0.00     0.097 C 
HETATM   22  C24 UNL     1      -3.133  10.807  15.810  1.00  0.00     0.166 C 
HETATM   23  N2  UNL     1      -4.414  11.472  15.562  1.00  0.00    -0.316 N 
ATOM     24  H2  UNL     1      -5.070  11.141  14.854  1.00  0.00     0.166 HD
HETATM   25  C25 UNL     1      -4.656  12.490  16.290  1.00  0.00     0.260 C 
HETATM   26  O9  UNL     1      -3.879  13.096  17.198  1.00  0.00    -0.311 OA
HETATM   27  C26 UNL     1      -2.739  10.012  14.499  1.00  0.00     0.199 C 
HETATM   28  C28 UNL     1      -1.350   9.406  14.565  1.00  0.00     0.010 C 
HETATM   29  C29 UNL     1      -1.054   8.110  14.753  1.00  0.00    -0.001 C 
HETATM   30  C30 UNL     1       0.288   7.623  14.970  1.00  0.00     0.002 C 
HETATM   31  C31 UNL     1       1.364   7.765  14.172  1.00  0.00    -0.080 C 
HETATM   32  C32 UNL     1       1.350   8.407  12.811  1.00  0.00     0.043 C 
HETATM   33  C33 UNL     1       2.706   7.216  14.620  1.00  0.00     0.072 C 
ENDROOT
BRANCH  13  34
HETATM   34  O3  UNL     1       2.240  12.066  20.495  1.00  0.00    -0.312 OA
BRANCH  34  35
HETATM   35  C12 UNL     1       1.546  10.905  20.606  1.00  0.00     0.259 C 
HETATM   36  O4  UNL     1       0.334  10.795  20.487  1.00  0.00    -0.265 OA
BRANCH  35  37
HETATM   37  C13 UNL     1       2.485   9.762  20.907  1.00  0.00     0.117 C 
BRANCH  37  38
HETATM   38  C14 UNL     1       2.733   9.608  22.416  1.00  0.00     0.014 C 
HETATM   39  C15 UNL     1       2.353   8.206  22.898  1.00  0.00     0.012 C 
BRANCH  38  40
HETATM   40  C16 UNL     1       4.200   9.894  22.754  1.00  0.00     0.168 C 
BRANCH  40  41
HETATM   41  O5  UNL     1       4.515  11.257  22.514  1.00  0.00    -0.400 OA
HETATM   42  H20 UNL     1       3.953  11.798  23.096  1.00  0.00     0.209 HD
ENDBRANCH  40  41
ENDBRANCH  38  40
ENDBRANCH  37  38
ENDBRANCH  35  37
ENDBRANCH  34  35
ENDBRANCH  13  34
BRANCH   1  43
HETATM   43  O1  UNL     1       7.388   8.804  14.137  1.00  0.00    -0.354 OA
HETATM   44  C1  UNL     1       8.165   7.755  14.699  1.00  0.00     0.210 C 
ENDBRANCH   1  43
BRANCH  22  45
HETATM   45  O7  UNL     1      -3.228   9.859  16.878  1.00  0.00    -0.368 OA
HETATM   46  H32 UNL     1      -3.709   9.109  16.475  1.00  0.00     0.212 HD
ENDBRANCH  22  45
BRANCH  25  47
HETATM   47  O8  UNL     1      -5.824  13.124  16.158  1.00  0.00    -0.327 OA
HETATM   48  H33 UNL     1      -6.342  12.626  15.507  1.00  0.00     0.221 HD
ENDBRANCH  25  47
BRANCH  27  49
HETATM   49  O10 UNL     1      -3.697   8.939  14.340  1.00  0.00    -0.382 OA
HETATM   50  C27 UNL     1      -4.555   8.813  15.465  1.00  0.00     0.202 C 
ENDBRANCH  27  49
TORSDOF 10
ENDMDL
MODEL 9
REMARK minimizedAffinity -7.50926352
REMARK CNNscore 0.0859239027
REMARK CNNaffinity 4.62757349
REMARK  10 active torsions:
REMARK  status: ('A' for Active; 'I' for Inactive)
REMARK    1  A    between atoms: O1_2  and  C2_3 
REMARK    2  A    between atoms: C11_15  and  O3_16 
REMARK    3  A    between atoms: O3_16  and  C12_17 
REMARK    4  A    between atoms: C12_17  and  C13_19 
REMARK    5  A    between atoms: C13_19  and  C14_20 
REMARK    6  A    between atoms: C14_20  and  C16_22 
REMARK    7  A    between atoms: C16_22  and  O5_23 
REMARK    8  A    between atoms: C24_32  and  O7_33 
REMARK    9  A    between atoms: C25_36  and  O8_37 
REMARK   10  A    between atoms: C26_39  and  O10_40 
ROOT
HETATM    1  C2  UNL     1      -0.581  11.254  18.550  1.00  0.00     0.092 A 
HETATM    2  C3  UNL     1       0.011  11.079  19.805  1.00  0.00     0.046 A 
HETATM    3  C4  UNL     1       1.404  11.028  19.943  1.00  0.00    -0.049 A 
HETATM    4  C5  UNL     1       2.207  11.162  18.799  1.00  0.00     0.039 A 
HETATM    5  C6  UNL     1       1.650  11.380  17.527  1.00  0.00     0.061 A 
HETATM    6  C7  UNL     1       0.240  11.398  17.411  1.00  0.00     0.094 A 
HETATM    7 CL1  UNL     1      -0.535  11.454  15.847  1.00  0.00    -0.079 Cl
HETATM    8  N1  UNL     1       2.536  11.616  16.415  1.00  0.00    -0.321 N 
HETATM    9  C8  UNL     1       2.258  12.785  15.582  1.00  0.00     0.159 C 
HETATM   10  C9  UNL     1       3.674  10.810  16.219  1.00  0.00     0.226 C 
HETATM   11  O2  UNL     1       3.944   9.840  16.928  1.00  0.00    -0.273 OA
HETATM   12  C10 UNL     1       4.510  11.128  14.981  1.00  0.00     0.139 C 
HETATM   13  C11 UNL     1       5.916  10.509  14.983  1.00  0.00     0.177 C 
HETATM   14  C17 UNL     1       6.797  10.989  16.143  1.00  0.00     0.111 A 
HETATM   15  C18 UNL     1       7.278   9.963  17.125  1.00  0.00     0.051 C 
HETATM   16  O6  UNL     1       6.376  12.226  16.761  1.00  0.00    -0.366 OA
HETATM   17  C19 UNL     1       7.524  12.330  15.931  1.00  0.00     0.165 A 
HETATM   18  C20 UNL     1       8.809  12.814  16.550  1.00  0.00     0.043 C 
HETATM   19  C21 UNL     1       9.972  12.263  15.699  1.00  0.00     0.015 C 
HETATM   20  C22 UNL     1       9.107  12.587  18.050  1.00  0.00     0.143 C 
HETATM   21  C23 UNL     1       8.035  13.077  19.017  1.00  0.00     0.097 C 
HETATM   22  C24 UNL     1       8.571  12.925  20.443  1.00  0.00     0.166 C 
HETATM   23  N2  UNL     1       9.786  13.728  20.595  1.00  0.00    -0.316 N 
ATOM     24  H2  UNL     1      10.019  14.202  21.468  1.00  0.00     0.166 HD
HETATM   25  C25 UNL     1      10.533  13.795  19.565  1.00  0.00     0.260 C 
HETATM   26  O9  UNL     1      10.337  13.306  18.332  1.00  0.00    -0.311 OA
HETATM   27  C26 UNL     1       7.523  13.424  21.521  1.00  0.00     0.199 C 
HETATM   28  C28 UNL     1       6.159  12.781  21.367  1.00  0.00     0.010 C 
HETATM   29  C29 UNL     1       5.639  11.818  22.144  1.00  0.00    -0.001 C 
HETATM   30  C30 UNL     1       4.403  11.134  21.847  1.00  0.00     0.002 C 
HETATM   31  C31 UNL     1       3.178  11.667  21.668  1.00  0.00    -0.080 C 
HETATM   32  C32 UNL     1       2.838  13.123  21.841  1.00  0.00     0.043 C 
HETATM   33  C33 UNL     1       2.014  10.764  21.307  1.00  0.00     0.072 C 
ENDROOT
BRANCH  13  34
HETATM   34  O3  UNL     1       5.873   9.069  14.943  1.00  0.00    -0.312 OA
BRANCH  34  35
HETATM   35  C12 UNL     1       5.206   8.502  13.906  1.00  0.00     0.259 C 
HETATM   36  O4  UNL     1       4.020   8.201  13.913  1.00  0.00    -0.265 OA
BRANCH  35  37
HETATM   37  C13 UNL     1       6.139   8.286  12.740  1.00  0.00     0.117 C 
BRANCH  37  38
HETATM   38  C14 UNL     1       5.595   7.235  11.759  1.00  0.00     0.014 C 
HETATM   39  C15 UNL     1       5.016   7.896  10.506  1.00  0.00     0.012 C 
BRANCH  38  40
HETATM   40  C16 UNL     1       6.696   6.246  11.363  1.00  0.00     0.168 C 
BRANCH  40  41
HETATM   41  O5  UNL     1       6.152   5.153  10.637  1.00  0.00    -0.400 OA
HETATM   42  H20 UNL     1       5.749   5.508   9.826  1.00  0.00     0.209 HD
ENDBRANCH  40  41
ENDBRANCH  38  40
ENDBRANCH  37  38
ENDBRANCH  35  37
ENDBRANCH  34  35
ENDBRANCH  13  34
BRANCH   1  43
HETATM   43  O1  UNL     1      -1.939  11.298  18.345  1.00  0.00    -0.354 OA
HETATM   44  C1  UNL     1      -2.675  10.092  18.494  1.00  0.00     0.210 C 
ENDBRANCH   1  43
BRANCH  22  45
HETATM   45  O7  UNL     1       8.820  11.538  20.694  1.00  0.00    -0.368 OA
HETATM   46  H32 UNL     1       8.907  11.494  21.667  1.00  0.00     0.212 HD
ENDBRANCH  22  45
BRANCH  25  47
HETATM   47  O8  UNL     1      11.684  14.469  19.636  1.00  0.00    -0.327 OA
HETATM   48  H33 UNL     1      11.773  14.776  20.551  1.00  0.00     0.221 HD
ENDBRANCH  25  47
BRANCH  27  49
HETATM   49  O10 UNL     1       8.046  13.077  22.825  1.00  0.00    -0.382 OA
HETATM   50  C27 UNL     1       9.170  12.213  22.742  1.00  0.00     0.202 C 
ENDBRANCH  27  49
TORSDOF 10
ENDMDL
