MODEL 1
REMARK minimizedAffinity -9.13700581
REMARK  7 active torsions:
REMARK  status: ('A' for Active; 'I' for Inactive)
REMARK    1  A    between atoms: C3_3  and  C5_5 
REMARK    2  A    between atoms: C6_6  and  C7_7 
REMARK    3  A    between atoms: C8_8  and  C9_9 
REMARK    4  A    between atoms: C10_10  and  C12_12 
REMARK    5  A    between atoms: C12_12  and  C13_14 
REMARK    6  A    between atoms: C13_14  and  C15_16 
REMARK    7  A    between atoms: C15_16  and  O2_17 
ROOT
HETATM    1  C5  UNL     1      -3.436  49.008 -22.266  1.00  0.00     0.058 C 
HETATM    2  C6  UNL     1      -2.539  50.287 -22.157  1.00  0.00     0.024 C 
HETATM    3  C16 UNL     1      -2.083  50.525 -20.686  1.00  0.00     0.003 C 
HETATM    4  C17 UNL     1      -1.325  51.864 -20.530  1.00  0.00     0.041 C 
HETATM    5  C18 UNL     1      -0.702  52.035 -19.180  1.00  0.00     0.157 A 
HETATM    6  O3  UNL     1       0.589  51.407 -19.063  1.00  0.00    -0.370 OA
HETATM    7  C19 UNL     1      -0.464  50.862 -18.262  1.00  0.00     0.084 A 
HETATM    8  C20 UNL     1      -0.278  51.093 -16.796  1.00  0.00     0.049 C 
HETATM    9  C21 UNL     1      -0.928  49.499 -18.680  1.00  0.00     0.048 C 
HETATM   10  C22 UNL     1      -1.181  49.367 -20.194  1.00  0.00     0.025 C 
HETATM   11  C23 UNL     1      -1.765  48.016 -20.496  1.00  0.00     0.162 A 
HETATM   12  O4  UNL     1      -1.464  47.549 -21.825  1.00  0.00    -0.368 OA
HETATM   13  C24 UNL     1      -2.843  47.811 -21.538  1.00  0.00     0.092 A 
HETATM   14  C25 UNL     1      -3.691  46.578 -21.434  1.00  0.00     0.049 C 
ENDROOT
BRANCH   2  15
HETATM   15  C7  UNL     1      -3.298  51.500 -22.685  1.00  0.00    -0.021 C 
HETATM   16  C8  UNL     1      -2.854  52.486 -23.484  1.00  0.00    -0.003 C 
BRANCH  16  17
HETATM   17  C9  UNL     1      -1.529  52.589 -24.059  1.00  0.00     0.010 C 
HETATM   18  C10 UNL     1      -1.209  52.412 -25.354  1.00  0.00    -0.016 C 
HETATM   19  C11 UNL     1      -2.157  52.085 -26.472  1.00  0.00     0.052 C 
BRANCH  18  20
HETATM   20  C12 UNL     1       0.231  52.511 -25.798  1.00  0.00     0.161 C 
HETATM   21  O1  UNL     1       0.862  53.523 -25.482  1.00  0.00    -0.292 OA
BRANCH  20  22
HETATM   22  C13 UNL     1       0.860  51.399 -26.650  1.00  0.00     0.080 C 
HETATM   23  C14 UNL     1       0.754  51.743 -28.140  1.00  0.00     0.020 C 
BRANCH  22  24
HETATM   24  C15 UNL     1       2.317  51.128 -26.260  1.00  0.00     0.176 C 
BRANCH  24  25
HETATM   25  O2  UNL     1       3.204  51.482 -27.313  1.00  0.00    -0.400 OA
HETATM   26  H22 UNL     1       4.092  51.173 -27.060  1.00  0.00     0.209 HD
ENDBRANCH  24  25
ENDBRANCH  22  24
ENDBRANCH  20  22
ENDBRANCH  18  20
ENDBRANCH  16  17
ENDBRANCH   2  15
BRANCH   1  27
HETATM   27  C3  UNL     1      -3.840  48.697 -23.721  1.00  0.00    -0.080 C 
HETATM   28  C2  UNL     1      -2.911  48.716 -24.700  1.00  0.00    -0.028 C 
HETATM   29  C1  UNL     1      -3.111  48.486 -26.165  1.00  0.00     0.036 C 
HETATM   30  C4  UNL     1      -5.298  48.396 -23.962  1.00  0.00     0.043 C 
ENDBRANCH   1  27
TORSDOF 7
ENDMDL
MODEL 2
REMARK minimizedAffinity -8.4375248
REMARK  7 active torsions:
REMARK  status: ('A' for Active; 'I' for Inactive)
REMARK    1  A    between atoms: C3_3  and  C5_5 
REMARK    2  A    between atoms: C6_6  and  C7_7 
REMARK    3  A    between atoms: C8_8  and  C9_9 
REMARK    4  A    between atoms: C10_10  and  C12_12 
REMARK    5  A    between atoms: C12_12  and  C13_14 
REMARK    6  A    between atoms: C13_14  and  C15_16 
REMARK    7  A    between atoms: C15_16  and  O2_17 
ROOT
HETATM    1  C5  UNL     1      -3.533  49.146 -22.159  1.00  0.00     0.058 C 
HETATM    2  C6  UNL     1      -2.569  50.375 -22.046  1.00  0.00     0.024 C 
HETATM    3  C16 UNL     1      -2.069  50.559 -20.582  1.00  0.00     0.003 C 
HETATM    4  C17 UNL     1      -1.239  51.854 -20.417  1.00  0.00     0.041 C 
HETATM    5  C18 UNL     1      -0.577  51.964 -19.079  1.00  0.00     0.157 A 
HETATM    6  O3  UNL     1       0.681  51.269 -19.005  1.00  0.00    -0.370 OA
HETATM    7  C19 UNL     1      -0.380  50.762 -18.190  1.00  0.00     0.084 A 
HETATM    8  C20 UNL     1      -0.149  50.952 -16.724  1.00  0.00     0.049 C 
HETATM    9  C21 UNL     1      -0.923  49.433 -18.624  1.00  0.00     0.048 C 
HETATM   10  C22 UNL     1      -1.217  49.346 -20.134  1.00  0.00     0.025 C 
HETATM   11  C23 UNL     1      -1.877  48.033 -20.448  1.00  0.00     0.162 A 
HETATM   12  O4  UNL     1      -1.630  47.579 -21.794  1.00  0.00    -0.368 OA
HETATM   13  C24 UNL     1      -2.987  47.906 -21.468  1.00  0.00     0.092 A 
HETATM   14  C25 UNL     1      -3.895  46.716 -21.369  1.00  0.00     0.049 C 
ENDROOT
BRANCH   2  15
HETATM   15  C7  UNL     1      -3.276  51.636 -22.532  1.00  0.00    -0.021 C 
HETATM   16  C8  UNL     1      -3.133  52.281 -23.703  1.00  0.00    -0.003 C 
BRANCH  16  17
HETATM   17  C9  UNL     1      -2.276  51.882 -24.799  1.00  0.00     0.010 C 
HETATM   18  C10 UNL     1      -0.937  52.016 -24.850  1.00  0.00    -0.016 C 
HETATM   19  C11 UNL     1      -0.055  52.593 -23.779  1.00  0.00     0.052 C 
BRANCH  18  20
HETATM   20  C12 UNL     1      -0.180  51.591 -26.086  1.00  0.00     0.161 C 
HETATM   21  O1  UNL     1      -0.265  50.411 -26.435  1.00  0.00    -0.292 OA
BRANCH  20  22
HETATM   22  C13 UNL     1       0.694  52.599 -26.847  1.00  0.00     0.080 C 
HETATM   23  C14 UNL     1       1.387  51.916 -28.031  1.00  0.00     0.020 C 
BRANCH  22  24
HETATM   24  C15 UNL     1      -0.107  53.817 -27.317  1.00  0.00     0.176 C 
BRANCH  24  25
HETATM   25  O2  UNL     1       0.160  54.952 -26.504  1.00  0.00    -0.400 OA
HETATM   26  H22 UNL     1      -0.465  55.651 -26.767  1.00  0.00     0.209 HD
ENDBRANCH  24  25
ENDBRANCH  22  24
ENDBRANCH  20  22
ENDBRANCH  18  20
ENDBRANCH  16  17
ENDBRANCH   2  15
BRANCH   1  27
HETATM   27  C3  UNL     1      -3.985  48.887 -23.610  1.00  0.00    -0.080 C 
HETATM   28  C2  UNL     1      -3.069  48.638 -24.570  1.00  0.00    -0.028 C 
HETATM   29  C1  UNL     1      -3.304  48.406 -26.030  1.00  0.00     0.036 C 
HETATM   30  C4  UNL     1      -5.470  48.944 -23.870  1.00  0.00     0.043 C 
ENDBRANCH   1  27
TORSDOF 7
ENDMDL
MODEL 3
REMARK minimizedAffinity -8.23892975
REMARK  7 active torsions:
REMARK  status: ('A' for Active; 'I' for Inactive)
REMARK    1  A    between atoms: C3_3  and  C5_5 
REMARK    2  A    between atoms: C6_6  and  C7_7 
REMARK    3  A    between atoms: C8_8  and  C9_9 
REMARK    4  A    between atoms: C10_10  and  C12_12 
REMARK    5  A    between atoms: C12_12  and  C13_14 
REMARK    6  A    between atoms: C13_14  and  C15_16 
REMARK    7  A    between atoms: C15_16  and  O2_17 
ROOT
HETATM    1  C5  UNL     1      -2.039  50.533 -21.763  1.00  0.00     0.058 C 
HETATM    2  C6  UNL     1      -3.476  51.116 -21.984  1.00  0.00     0.024 C 
HETATM    3  C16 UNL     1      -4.371  50.109 -22.769  1.00  0.00     0.003 C 
HETATM    4  C17 UNL     1      -5.743  50.724 -23.132  1.00  0.00     0.041 C 
HETATM    5  C18 UNL     1      -6.701  49.729 -23.709  1.00  0.00     0.157 A 
HETATM    6  O3  UNL     1      -7.415  48.978 -22.710  1.00  0.00    -0.370 OA
HETATM    7  C19 UNL     1      -6.504  48.244 -23.533  1.00  0.00     0.084 A 
HETATM    8  C20 UNL     1      -7.179  47.290 -24.466  1.00  0.00     0.049 C 
HETATM    9  C21 UNL     1      -5.279  47.746 -22.823  1.00  0.00     0.048 C 
HETATM   10  C22 UNL     1      -4.592  48.814 -21.951  1.00  0.00     0.025 C 
HETATM   11  C23 UNL     1      -3.311  48.263 -21.390  1.00  0.00     0.162 A 
HETATM   12  O4  UNL     1      -2.931  48.867 -20.138  1.00  0.00    -0.368 OA
HETATM   13  C24 UNL     1      -2.059  49.101 -21.250  1.00  0.00     0.092 A 
HETATM   14  C25 UNL     1      -0.744  48.384 -21.157  1.00  0.00     0.049 C 
ENDROOT
BRANCH   2  15
HETATM   15  C7  UNL     1      -3.389  52.445 -22.727  1.00  0.00    -0.021 C 
HETATM   16  C8  UNL     1      -2.804  52.711 -23.907  1.00  0.00    -0.003 C 
BRANCH  16  17
HETATM   17  C9  UNL     1      -2.140  51.754 -24.767  1.00  0.00     0.010 C 
HETATM   18  C10 UNL     1      -0.944  51.918 -25.363  1.00  0.00    -0.016 C 
HETATM   19  C11 UNL     1      -0.046  53.118 -25.251  1.00  0.00     0.052 C 
BRANCH  18  20
HETATM   20  C12 UNL     1      -0.397  50.843 -26.272  1.00  0.00     0.161 C 
HETATM   21  O1  UNL     1      -0.941  49.736 -26.245  1.00  0.00    -0.292 OA
BRANCH  20  22
HETATM   22  C13 UNL     1       0.823  51.123 -27.162  1.00  0.00     0.080 C 
HETATM   23  C14 UNL     1       0.521  52.267 -28.136  1.00  0.00     0.020 C 
BRANCH  22  24
HETATM   24  C15 UNL     1       2.078  51.430 -26.339  1.00  0.00     0.176 C 
BRANCH  24  25
HETATM   25  O2  UNL     1       3.238  51.447 -27.159  1.00  0.00    -0.400 OA
HETATM   26  H22 UNL     1       4.010  51.520 -26.570  1.00  0.00     0.209 HD
ENDBRANCH  24  25
ENDBRANCH  22  24
ENDBRANCH  20  22
ENDBRANCH  18  20
ENDBRANCH  16  17
ENDBRANCH   2  15
BRANCH   1  27
HETATM   27  C3  UNL     1      -1.151  51.470 -20.919  1.00  0.00    -0.080 C 
HETATM   28  C2  UNL     1      -0.024  51.991 -21.449  1.00  0.00    -0.028 C 
HETATM   29  C1  UNL     1       0.982  52.877 -20.783  1.00  0.00     0.036 C 
HETATM   30  C4  UNL     1      -1.610  51.739 -19.508  1.00  0.00     0.043 C 
ENDBRANCH   1  27
TORSDOF 7
ENDMDL
MODEL 4
REMARK minimizedAffinity -8.07662106
REMARK  7 active torsions:
REMARK  status: ('A' for Active; 'I' for Inactive)
REMARK    1  A    between atoms: C3_3  and  C5_5 
REMARK    2  A    between atoms: C6_6  and  C7_7 
REMARK    3  A    between atoms: C8_8  and  C9_9 
REMARK    4  A    between atoms: C10_10  and  C12_12 
REMARK    5  A    between atoms: C12_12  and  C13_14 
REMARK    6  A    between atoms: C13_14  and  C15_16 
REMARK    7  A    between atoms: C15_16  and  O2_17 
ROOT
HETATM    1  C5  UNL     1       0.233  51.714 -21.384  1.00  0.00     0.058 C 
HETATM    2  C6  UNL     1      -0.704  50.753 -20.577  1.00  0.00     0.024 C 
HETATM    3  C16 UNL     1      -0.102  50.436 -19.174  1.00  0.00     0.003 C 
HETATM    4  C17 UNL     1      -0.932  49.371 -18.421  1.00  0.00     0.041 C 
HETATM    5  C18 UNL     1      -0.504  49.185 -16.999  1.00  0.00     0.157 A 
HETATM    6  O3  UNL     1      -1.095  50.138 -16.095  1.00  0.00    -0.370 OA
HETATM    7  C19 UNL     1       0.322  50.221 -16.278  1.00  0.00     0.084 A 
HETATM    8  C20 UNL     1       1.103  49.833 -15.063  1.00  0.00     0.049 C 
HETATM    9  C21 UNL     1       0.787  51.436 -17.024  1.00  0.00     0.048 C 
HETATM   10  C22 UNL     1      -0.013  51.718 -18.310  1.00  0.00     0.025 C 
HETATM   11  C23 UNL     1       0.607  52.869 -19.052  1.00  0.00     0.162 A 
HETATM   12  O4  UNL     1      -0.336  53.601 -19.859  1.00  0.00    -0.368 OA
HETATM   13  C24 UNL     1       0.701  52.906 -20.562  1.00  0.00     0.092 A 
HETATM   14  C25 UNL     1       1.731  53.805 -21.177  1.00  0.00     0.049 C 
ENDROOT
BRANCH   2  15
HETATM   15  C7  UNL     1      -0.931  49.466 -21.364  1.00  0.00    -0.021 C 
HETATM   16  C8  UNL     1      -2.091  48.925 -21.770  1.00  0.00    -0.003 C 
BRANCH  16  17
HETATM   17  C9  UNL     1      -3.412  49.483 -21.569  1.00  0.00     0.010 C 
HETATM   18  C10 UNL     1      -4.579  48.822 -21.685  1.00  0.00    -0.016 C 
HETATM   19  C11 UNL     1      -4.755  47.371 -22.032  1.00  0.00     0.052 C 
BRANCH  18  20
HETATM   20  C12 UNL     1      -5.886  49.553 -21.486  1.00  0.00     0.161 C 
HETATM   21  O1  UNL     1      -6.351  49.601 -20.344  1.00  0.00    -0.292 OA
BRANCH  20  22
HETATM   22  C13 UNL     1      -6.619  50.175 -22.684  1.00  0.00     0.080 C 
HETATM   23  C14 UNL     1      -5.611  50.728 -23.698  1.00  0.00     0.020 C 
BRANCH  22  24
HETATM   24  C15 UNL     1      -7.571  49.181 -23.356  1.00  0.00     0.176 C 
BRANCH  24  25
HETATM   25  O2  UNL     1      -8.079  49.701 -24.577  1.00  0.00    -0.400 OA
HETATM   26  H22 UNL     1      -8.767  49.089 -24.890  1.00  0.00     0.209 HD
ENDBRANCH  24  25
ENDBRANCH  22  24
ENDBRANCH  20  22
ENDBRANCH  18  20
ENDBRANCH  16  17
ENDBRANCH   2  15
BRANCH   1  27
HETATM   27  C3  UNL     1      -0.369  52.112 -22.746  1.00  0.00    -0.080 C 
HETATM   28  C2  UNL     1      -1.691  52.364 -22.854  1.00  0.00    -0.028 C 
HETATM   29  C1  UNL     1      -2.463  52.720 -24.085  1.00  0.00     0.036 C 
HETATM   30  C4  UNL     1       0.590  52.182 -23.908  1.00  0.00     0.043 C 
ENDBRANCH   1  27
TORSDOF 7
ENDMDL
MODEL 5
REMARK minimizedAffinity -8.02553749
REMARK  7 active torsions:
REMARK  status: ('A' for Active; 'I' for Inactive)
REMARK    1  A    between atoms: C3_3  and  C5_5 
REMARK    2  A    between atoms: C6_6  and  C7_7 
REMARK    3  A    between atoms: C8_8  and  C9_9 
REMARK    4  A    between atoms: C10_10  and  C12_12 
REMARK    5  A    between atoms: C12_12  and  C13_14 
REMARK    6  A    between atoms: C13_14  and  C15_16 
REMARK    7  A    between atoms: C15_16  and  O2_17 
ROOT
HETATM    1  C5  UNL     1      -2.515  49.734 -24.799  1.00  0.00     0.058 C 
HETATM    2  C6  UNL     1      -2.419  49.608 -23.241  1.00  0.00     0.024 C 
HETATM    3  C16 UNL     1      -1.245  50.468 -22.684  1.00  0.00     0.003 C 
HETATM    4  C17 UNL     1      -1.035  50.240 -21.169  1.00  0.00     0.041 C 
HETATM    5  C18 UNL     1      -0.052  51.190 -20.560  1.00  0.00     0.157 A 
HETATM    6  O3  UNL     1      -0.634  52.453 -20.186  1.00  0.00    -0.370 OA
HETATM    7  C19 UNL     1       0.332  52.480 -21.241  1.00  0.00     0.084 A 
HETATM    8  C20 UNL     1       1.606  53.168 -20.866  1.00  0.00     0.049 C 
HETATM    9  C21 UNL     1      -0.230  52.787 -22.598  1.00  0.00     0.048 C 
HETATM   10  C22 UNL     1      -1.493  51.974 -22.944  1.00  0.00     0.025 C 
HETATM   11  C23 UNL     1      -1.902  52.252 -24.363  1.00  0.00     0.162 A 
HETATM   12  O4  UNL     1      -3.315  52.085 -24.592  1.00  0.00    -0.368 OA
HETATM   13  C24 UNL     1      -2.445  51.176 -25.278  1.00  0.00     0.092 A 
HETATM   14  C25 UNL     1      -2.363  51.407 -26.757  1.00  0.00     0.049 C 
ENDROOT
BRANCH   2  15
HETATM   15  C7  UNL     1      -2.243  48.145 -22.847  1.00  0.00    -0.021 C 
HETATM   16  C8  UNL     1      -2.923  47.435 -21.931  1.00  0.00    -0.003 C 
BRANCH  16  17
HETATM   17  C9  UNL     1      -4.023  47.914 -21.121  1.00  0.00     0.010 C 
HETATM   18  C10 UNL     1      -5.273  47.414 -21.103  1.00  0.00    -0.016 C 
HETATM   19  C11 UNL     1      -5.782  46.250 -21.904  1.00  0.00     0.052 C 
BRANCH  18  20
HETATM   20  C12 UNL     1      -6.330  48.052 -20.233  1.00  0.00     0.161 C 
HETATM   21  O1  UNL     1      -6.733  47.413 -19.256  1.00  0.00    -0.292 OA
BRANCH  20  22
HETATM   22  C13 UNL     1      -6.905  49.430 -20.591  1.00  0.00     0.080 C 
HETATM   23  C14 UNL     1      -5.811  50.501 -20.510  1.00  0.00     0.020 C 
BRANCH  22  24
HETATM   24  C15 UNL     1      -7.567  49.437 -21.972  1.00  0.00     0.176 C 
BRANCH  24  25
HETATM   25  O2  UNL     1      -7.260  50.628 -22.683  1.00  0.00    -0.400 OA
HETATM   26  H22 UNL     1      -7.805  50.634 -23.490  1.00  0.00     0.209 HD
ENDBRANCH  24  25
ENDBRANCH  22  24
ENDBRANCH  20  22
ENDBRANCH  18  20
ENDBRANCH  16  17
ENDBRANCH   2  15
BRANCH   1  27
HETATM   27  C3  UNL     1      -3.716  48.957 -25.376  1.00  0.00    -0.080 C 
HETATM   28  C2  UNL     1      -4.879  48.904 -24.693  1.00  0.00    -0.028 C 
HETATM   29  C1  UNL     1      -6.132  48.174 -25.063  1.00  0.00     0.036 C 
HETATM   30  C4  UNL     1      -3.499  48.277 -26.705  1.00  0.00     0.043 C 
ENDBRANCH   1  27
TORSDOF 7
ENDMDL
MODEL 6
REMARK minimizedAffinity -7.94847393
REMARK  7 active torsions:
REMARK  status: ('A' for Active; 'I' for Inactive)
REMARK    1  A    between atoms: C3_3  and  C5_5 
REMARK    2  A    between atoms: C6_6  and  C7_7 
REMARK    3  A    between atoms: C8_8  and  C9_9 
REMARK    4  A    between atoms: C10_10  and  C12_12 
REMARK    5  A    between atoms: C12_12  and  C13_14 
REMARK    6  A    between atoms: C13_14  and  C15_16 
REMARK    7  A    between atoms: C15_16  and  O2_17 
ROOT
HETATM    1  C5  UNL     1      -4.267  49.575 -22.993  1.00  0.00     0.058 C 
HETATM    2  C6  UNL     1      -4.567  49.221 -24.489  1.00  0.00     0.024 C 
HETATM    3  C16 UNL     1      -5.871  48.376 -24.610  1.00  0.00     0.003 C 
HETATM    4  C17 UNL     1      -6.104  47.886 -26.058  1.00  0.00     0.041 C 
HETATM    5  C18 UNL     1      -7.441  47.242 -26.255  1.00  0.00     0.157 A 
HETATM    6  O3  UNL     1      -8.498  48.186 -26.512  1.00  0.00    -0.370 OA
HETATM    7  C19 UNL     1      -8.575  47.455 -25.284  1.00  0.00     0.084 A 
HETATM    8  C20 UNL     1      -9.709  46.480 -25.241  1.00  0.00     0.049 C 
HETATM    9  C21 UNL     1      -8.339  48.276 -24.051  1.00  0.00     0.048 C 
HETATM   10  C22 UNL     1      -7.102  49.190 -24.142  1.00  0.00     0.025 C 
HETATM   11  C23 UNL     1      -6.873  49.867 -22.820  1.00  0.00     0.162 A 
HETATM   12  O4  UNL     1      -6.206  51.139 -22.940  1.00  0.00    -0.368 OA
HETATM   13  C24 UNL     1      -5.489  50.104 -22.257  1.00  0.00     0.092 A 
HETATM   14  C25 UNL     1      -5.362  50.321 -20.778  1.00  0.00     0.049 C 
ENDROOT
BRANCH   2  15
HETATM   15  C7  UNL     1      -3.385  48.471 -25.093  1.00  0.00    -0.021 C 
HETATM   16  C8  UNL     1      -2.460  48.919 -25.958  1.00  0.00    -0.003 C 
BRANCH  16  17
HETATM   17  C9  UNL     1      -2.367  50.262 -26.491  1.00  0.00     0.010 C 
HETATM   18  C10 UNL     1      -1.311  51.090 -26.378  1.00  0.00    -0.016 C 
HETATM   19  C11 UNL     1      -0.009  50.790 -25.692  1.00  0.00     0.052 C 
BRANCH  18  20
HETATM   20  C12 UNL     1      -1.379  52.486 -26.952  1.00  0.00     0.161 C 
HETATM   21  O1  UNL     1      -2.494  52.990 -27.107  1.00  0.00    -0.292 OA
BRANCH  20  22
HETATM   22  C13 UNL     1      -0.095  53.220 -27.363  1.00  0.00     0.080 C 
HETATM   23  C14 UNL     1       0.468  52.628 -28.660  1.00  0.00     0.020 C 
BRANCH  22  24
HETATM   24  C15 UNL     1      -0.316  54.729 -27.509  1.00  0.00     0.176 C 
BRANCH  24  25
HETATM   25  O2  UNL     1       0.192  55.434 -26.385  1.00  0.00    -0.400 OA
HETATM   26  H22 UNL     1      -0.087  56.362 -26.472  1.00  0.00     0.209 HD
ENDBRANCH  24  25
ENDBRANCH  22  24
ENDBRANCH  20  22
ENDBRANCH  18  20
ENDBRANCH  16  17
ENDBRANCH   2  15
BRANCH   1  27
HETATM   27  C3  UNL     1      -3.026  50.479 -22.843  1.00  0.00    -0.080 C 
HETATM   28  C2  UNL     1      -1.912  50.005 -22.247  1.00  0.00    -0.028 C 
HETATM   29  C1  UNL     1      -0.634  50.734 -21.972  1.00  0.00     0.036 C 
HETATM   30  C4  UNL     1      -3.152  51.883 -23.378  1.00  0.00     0.043 C 
ENDBRANCH   1  27
TORSDOF 7
ENDMDL
MODEL 7
REMARK minimizedAffinity -7.94475985
REMARK  7 active torsions:
REMARK  status: ('A' for Active; 'I' for Inactive)
REMARK    1  A    between atoms: C3_3  and  C5_5 
REMARK    2  A    between atoms: C6_6  and  C7_7 
REMARK    3  A    between atoms: C8_8  and  C9_9 
REMARK    4  A    between atoms: C10_10  and  C12_12 
REMARK    5  A    between atoms: C12_12  and  C13_14 
REMARK    6  A    between atoms: C13_14  and  C15_16 
REMARK    7  A    between atoms: C15_16  and  O2_17 
ROOT
HETATM    1  C5  UNL     1      -4.204  48.928 -22.756  1.00  0.00     0.058 C 
HETATM    2  C6  UNL     1      -2.841  49.688 -22.625  1.00  0.00     0.024 C 
HETATM    3  C16 UNL     1      -2.464  50.390 -23.964  1.00  0.00     0.003 C 
HETATM    4  C17 UNL     1      -1.051  51.018 -23.905  1.00  0.00     0.041 C 
HETATM    5  C18 UNL     1      -0.733  51.867 -25.096  1.00  0.00     0.157 A 
HETATM    6  O3  UNL     1      -1.226  53.216 -24.984  1.00  0.00    -0.370 OA
HETATM    7  C19 UNL     1      -1.815  52.400 -26.002  1.00  0.00     0.084 A 
HETATM    8  C20 UNL     1      -1.470  52.839 -27.390  1.00  0.00     0.049 C 
HETATM    9  C21 UNL     1      -3.241  52.012 -25.748  1.00  0.00     0.048 C 
HETATM   10  C22 UNL     1      -3.496  51.488 -24.321  1.00  0.00     0.025 C 
HETATM   11  C23 UNL     1      -4.913  51.003 -24.204  1.00  0.00     0.162 A 
HETATM   12  O4  UNL     1      -5.437  51.091 -22.864  1.00  0.00    -0.368 OA
HETATM   13  C24 UNL     1      -5.288  49.773 -23.407  1.00  0.00     0.092 A 
HETATM   14  C25 UNL     1      -6.586  49.097 -23.733  1.00  0.00     0.049 C 
ENDROOT
BRANCH   2  15
HETATM   15  C7  UNL     1      -1.743  48.718 -22.202  1.00  0.00    -0.021 C 
HETATM   16  C8  UNL     1      -1.093  48.645 -21.028  1.00  0.00    -0.003 C 
BRANCH  16  17
HETATM   17  C9  UNL     1      -1.330  49.478 -19.867  1.00  0.00     0.010 C 
HETATM   18  C10 UNL     1      -0.808  50.698 -19.646  1.00  0.00    -0.016 C 
HETATM   19  C11 UNL     1       0.114  51.456 -20.559  1.00  0.00     0.052 C 
BRANCH  18  20
HETATM   20  C12 UNL     1      -1.114  51.431 -18.360  1.00  0.00     0.161 C 
HETATM   21  O1  UNL     1      -2.175  52.057 -18.294  1.00  0.00    -0.292 OA
BRANCH  20  22
HETATM   22  C13 UNL     1      -0.107  51.419 -17.201  1.00  0.00     0.080 C 
HETATM   23  C14 UNL     1       0.408  49.997 -16.955  1.00  0.00     0.020 C 
BRANCH  22  24
HETATM   24  C15 UNL     1       1.059  52.383 -17.441  1.00  0.00     0.176 C 
BRANCH  24  25
HETATM   25  O2  UNL     1       1.325  53.165 -16.284  1.00  0.00    -0.400 OA
HETATM   26  H22 UNL     1       1.982  53.839 -16.533  1.00  0.00     0.209 HD
ENDBRANCH  24  25
ENDBRANCH  22  24
ENDBRANCH  20  22
ENDBRANCH  18  20
ENDBRANCH  16  17
ENDBRANCH   2  15
BRANCH   1  27
HETATM   27  C3  UNL     1      -4.647  48.288 -21.425  1.00  0.00    -0.080 C 
HETATM   28  C2  UNL     1      -4.867  49.062 -20.341  1.00  0.00    -0.028 C 
HETATM   29  C1  UNL     1      -5.257  48.628 -18.963  1.00  0.00     0.036 C 
HETATM   30  C4  UNL     1      -4.798  46.787 -21.421  1.00  0.00     0.043 C 
ENDBRANCH   1  27
TORSDOF 7
ENDMDL
MODEL 8
REMARK minimizedAffinity -7.88777876
REMARK  7 active torsions:
REMARK  status: ('A' for Active; 'I' for Inactive)
REMARK    1  A    between atoms: C3_3  and  C5_5 
REMARK    2  A    between atoms: C6_6  and  C7_7 
REMARK    3  A    between atoms: C8_8  and  C9_9 
REMARK    4  A    between atoms: C10_10  and  C12_12 
REMARK    5  A    between atoms: C12_12  and  C13_14 
REMARK    6  A    between atoms: C13_14  and  C15_16 
REMARK    7  A    between atoms: C15_16  and  O2_17 
ROOT
HETATM    1  C5  UNL     1      -4.207  50.175 -21.316  1.00  0.00     0.058 C 
HETATM    2  C6  UNL     1      -3.061  50.976 -22.022  1.00  0.00     0.024 C 
HETATM    3  C16 UNL     1      -2.053  51.545 -20.978  1.00  0.00     0.003 C 
HETATM    4  C17 UNL     1      -1.000  52.465 -21.639  1.00  0.00     0.041 C 
HETATM    5  C18 UNL     1       0.098  52.870 -20.707  1.00  0.00     0.157 A 
HETATM    6  O3  UNL     1       1.156  51.897 -20.613  1.00  0.00    -0.370 OA
HETATM    7  C19 UNL     1       0.376  52.112 -19.432  1.00  0.00     0.084 A 
HETATM    8  C20 UNL     1       1.138  52.773 -18.327  1.00  0.00     0.049 C 
HETATM    9  C21 UNL     1      -0.514  50.967 -19.051  1.00  0.00     0.048 C 
HETATM   10  C22 UNL     1      -1.331  50.398 -20.228  1.00  0.00     0.025 C 
HETATM   11  C23 UNL     1      -2.283  49.351 -19.726  1.00  0.00     0.162 A 
HETATM   12  O4  UNL     1      -2.612  48.357 -20.717  1.00  0.00    -0.368 OA
HETATM   13  C24 UNL     1      -3.685  49.197 -20.275  1.00  0.00     0.092 A 
HETATM   14  C25 UNL     1      -4.698  48.495 -19.420  1.00  0.00     0.049 C 
ENDROOT
BRANCH   2  15
HETATM   15  C7  UNL     1      -3.654  52.103 -22.861  1.00  0.00    -0.021 C 
HETATM   16  C8  UNL     1      -3.046  52.880 -23.773  1.00  0.00    -0.003 C 
BRANCH  16  17
HETATM   17  C9  UNL     1      -1.662  52.788 -24.189  1.00  0.00     0.010 C 
HETATM   18  C10 UNL     1      -1.218  52.709 -25.457  1.00  0.00    -0.016 C 
HETATM   19  C11 UNL     1      -2.060  52.714 -26.702  1.00  0.00     0.052 C 
BRANCH  18  20
HETATM   20  C12 UNL     1       0.261  52.572 -25.734  1.00  0.00     0.161 C 
HETATM   21  O1  UNL     1       0.997  53.504 -25.398  1.00  0.00    -0.292 OA
BRANCH  20  22
HETATM   22  C13 UNL     1       0.807  51.328 -26.449  1.00  0.00     0.080 C 
HETATM   23  C14 UNL     1       0.645  51.470 -27.967  1.00  0.00     0.020 C 
BRANCH  22  24
HETATM   24  C15 UNL     1       2.268  51.049 -26.085  1.00  0.00     0.176 C 
BRANCH  24  25
HETATM   25  O2  UNL     1       3.135  51.351 -27.170  1.00  0.00    -0.400 OA
HETATM   26  H22 UNL     1       4.024  51.037 -26.928  1.00  0.00     0.209 HD
ENDBRANCH  24  25
ENDBRANCH  22  24
ENDBRANCH  20  22
ENDBRANCH  18  20
ENDBRANCH  16  17
ENDBRANCH   2  15
BRANCH   1  27
HETATM   27  C3  UNL     1      -5.179  49.531 -22.324  1.00  0.00    -0.080 C 
HETATM   28  C2  UNL     1      -4.749  48.554 -23.150  1.00  0.00    -0.028 C 
HETATM   29  C1  UNL     1      -5.521  47.841 -24.215  1.00  0.00     0.036 C 
HETATM   30  C4  UNL     1      -6.590  50.065 -22.329  1.00  0.00     0.043 C 
ENDBRANCH   1  27
TORSDOF 7
ENDMDL
MODEL 9
REMARK minimizedAffinity -7.83115053
REMARK  7 active torsions:
REMARK  status: ('A' for Active; 'I' for Inactive)
REMARK    1  A    between atoms: C3_3  and  C5_5 
REMARK    2  A    between atoms: C6_6  and  C7_7 
REMARK    3  A    between atoms: C8_8  and  C9_9 
REMARK    4  A    between atoms: C10_10  and  C12_12 
REMARK    5  A    between atoms: C12_12  and  C13_14 
REMARK    6  A    between atoms: C13_14  and  C15_16 
REMARK    7  A    between atoms: C15_16  and  O2_17 
ROOT
HETATM    1  C5  UNL     1      -3.755  49.815 -23.068  1.00  0.00     0.058 C 
HETATM    2  C6  UNL     1      -3.931  48.442 -22.336  1.00  0.00     0.024 C 
HETATM    3  C16 UNL     1      -4.853  48.590 -21.088  1.00  0.00     0.003 C 
HETATM    4  C17 UNL     1      -4.918  47.283 -20.264  1.00  0.00     0.041 C 
HETATM    5  C18 UNL     1      -5.943  47.323 -19.174  1.00  0.00     0.157 A 
HETATM    6  O3  UNL     1      -7.268  46.985 -19.624  1.00  0.00    -0.370 OA
HETATM    7  C19 UNL     1      -7.065  48.330 -19.177  1.00  0.00     0.084 A 
HETATM    8  C20 UNL     1      -7.780  48.649 -17.903  1.00  0.00     0.049 C 
HETATM    9  C21 UNL     1      -7.118  49.365 -20.262  1.00  0.00     0.048 C 
HETATM   10  C22 UNL     1      -6.286  49.001 -21.507  1.00  0.00     0.025 C 
HETATM   11  C23 UNL     1      -6.294  50.150 -22.476  1.00  0.00     0.162 A 
HETATM   12  O4  UNL     1      -6.121  49.740 -23.846  1.00  0.00    -0.368 OA
HETATM   13  C24 UNL     1      -5.075  50.540 -23.282  1.00  0.00     0.092 A 
HETATM   14  C25 UNL     1      -5.013  51.937 -23.826  1.00  0.00     0.049 C 
ENDROOT
BRANCH   2  15
HETATM   15  C7  UNL     1      -2.568  47.890 -21.931  1.00  0.00    -0.021 C 
HETATM   16  C8  UNL     1      -1.693  48.385 -21.039  1.00  0.00    -0.003 C 
BRANCH  16  17
HETATM   17  C9  UNL     1      -1.879  49.567 -20.224  1.00  0.00     0.010 C 
HETATM   18  C10 UNL     1      -1.153  50.698 -20.288  1.00  0.00    -0.016 C 
HETATM   19  C11 UNL     1      -0.012  50.976 -21.225  1.00  0.00     0.052 C 
BRANCH  18  20
HETATM   20  C12 UNL     1      -1.439  51.837 -19.338  1.00  0.00     0.161 C 
HETATM   21  O1  UNL     1      -2.591  51.953 -18.910  1.00  0.00    -0.292 OA
BRANCH  20  22
HETATM   22  C13 UNL     1      -0.332  52.831 -18.960  1.00  0.00     0.080 C 
HETATM   23  C14 UNL     1       0.708  52.156 -18.059  1.00  0.00     0.020 C 
BRANCH  22  24
HETATM   24  C15 UNL     1       0.338  53.444 -20.194  1.00  0.00     0.176 C 
BRANCH  24  25
HETATM   25  O2  UNL     1       1.490  54.194 -19.834  1.00  0.00    -0.400 OA
HETATM   26  H22 UNL     1       1.796  54.658 -20.633  1.00  0.00     0.209 HD
ENDBRANCH  24  25
ENDBRANCH  22  24
ENDBRANCH  20  22
ENDBRANCH  18  20
ENDBRANCH  16  17
ENDBRANCH   2  15
BRANCH   1  27
HETATM   27  C3  UNL     1      -2.913  49.690 -24.354  1.00  0.00    -0.080 C 
HETATM   28  C2  UNL     1      -3.292  48.839 -25.331  1.00  0.00    -0.028 C 
HETATM   29  C1  UNL     1      -2.592  48.547 -26.621  1.00  0.00     0.036 C 
HETATM   30  C4  UNL     1      -1.673  50.545 -24.429  1.00  0.00     0.043 C 
ENDBRANCH   1  27
TORSDOF 7
ENDMDL
