MODEL 1
REMARK minimizedAffinity -10.0126276
REMARK  5 active torsions:
REMARK  status: ('A' for Active; 'I' for Inactive)
REMARK    1  A    between atoms: C3_3  and  C4_4 
REMARK    2  A    between atoms: C4_4  and  O2_6 
REMARK    3  A    between atoms: O2_6  and  C5_7 
REMARK    4  A    between atoms: C5_7  and  C6_8 
REMARK    5  A    between atoms: C12_14  and  C13_15 
ROOT
HETATM    1  C1  UNL     1       0.913  53.644 -21.332  1.00  0.00     0.069 C 
HETATM    2  C2  UNL     1       0.232  52.443 -20.731  1.00  0.00     0.018 C 
HETATM    3  C3  UNL     1      -0.398  51.482 -21.442  1.00  0.00     0.052 C 
HETATM    4  C12 UNL     1      -1.053  50.274 -20.786  1.00  0.00     0.104 C 
HETATM    5  C22 UNL     1      -0.743  50.210 -19.288  1.00  0.00     0.024 C 
HETATM    6  C23 UNL     1      -0.109  51.215 -18.648  1.00  0.00     0.020 C 
HETATM    7  C24 UNL     1       0.239  51.162 -17.181  1.00  0.00     0.058 C 
HETATM    8  C25 UNL     1       0.375  49.727 -16.688  1.00  0.00     0.014 C 
HETATM    9  C26 UNL     1      -0.859  48.915 -17.052  1.00  0.00     0.084 C 
HETATM   10  C27 UNL     1      -1.139  48.980 -18.539  1.00  0.00     0.158 C 
HETATM   11  O5  UNL     1      -1.729  48.064 -19.110  1.00  0.00    -0.293 OA
HETATM   12  N1  UNL     1       0.291  52.338 -19.349  1.00  0.00    -0.362 N 
HETATM   13  H22 UNL     1       0.873  53.012 -18.862  1.00  0.00     0.165 HD
ENDROOT
BRANCH   4  14
HETATM   14  C13 UNL     1      -2.547  50.255 -21.058  1.00  0.00     0.029 A 
HETATM   15  C14 UNL     1      -3.429  51.202 -20.697  1.00  0.00     0.154 A 
HETATM   16  O3  UNL     1      -4.784  51.197 -20.924  1.00  0.00    -0.321 OA
HETATM   17  C15 UNL     1      -5.319  50.089 -21.532  1.00  0.00     0.089 A 
HETATM   18  C16 UNL     1      -6.704  50.062 -21.703  1.00  0.00     0.040 A 
HETATM   19  C20 UNL     1      -4.541  49.023 -21.981  1.00  0.00     0.050 A 
HETATM   20  C17 UNL     1      -7.305  48.965 -22.329  1.00  0.00     0.026 A 
HETATM   21  C18 UNL     1      -6.517  47.905 -22.782  1.00  0.00     0.035 A 
HETATM   22 CL1  UNL     1      -7.260  46.565 -23.568  1.00  0.00    -0.084 Cl
HETATM   23  C19 UNL     1      -5.135  47.925 -22.609  1.00  0.00     0.042 A 
HETATM   24  C21 UNL     1      -3.081  49.085 -21.799  1.00  0.00     0.194 A 
HETATM   25  O4  UNL     1      -2.349  48.220 -22.263  1.00  0.00    -0.287 OA
ENDBRANCH   4  14
BRANCH   3  26
HETATM   26  C4  UNL     1      -0.408  51.532 -22.912  1.00  0.00     0.292 C 
HETATM   27  O1  UNL     1      -1.172  50.876 -23.609  1.00  0.00    -0.259 OA
BRANCH  26  28
HETATM   28  O2  UNL     1       0.598  52.340 -23.322  1.00  0.00    -0.313 OA
BRANCH  28  29
HETATM   29  C5  UNL     1       0.262  53.258 -24.366  1.00  0.00     0.217 C 
BRANCH  29  30
HETATM   30  C6  UNL     1       0.725  52.689 -25.686  1.00  0.00    -0.034 A 
HETATM   31  C7  UNL     1       1.907  51.936 -25.751  1.00  0.00     0.009 A 
HETATM   32  C8  UNL     1       2.370  51.443 -26.974  1.00  0.00     0.001 A 
HETATM   33  C9  UNL     1       1.656  51.694 -28.144  1.00  0.00     0.000 A 
HETATM   34  C10 UNL     1       0.470  52.432 -28.092  1.00  0.00     0.001 A 
HETATM   35  C11 UNL     1       0.006  52.925 -26.869  1.00  0.00     0.009 A 
ENDBRANCH  29  30
ENDBRANCH  28  29
ENDBRANCH  26  28
ENDBRANCH   3  26
TORSDOF 5
ENDMDL
MODEL 2
REMARK minimizedAffinity -9.59223747
REMARK  5 active torsions:
REMARK  status: ('A' for Active; 'I' for Inactive)
REMARK    1  A    between atoms: C3_3  and  C4_4 
REMARK    2  A    between atoms: C4_4  and  O2_6 
REMARK    3  A    between atoms: O2_6  and  C5_7 
REMARK    4  A    between atoms: C5_7  and  C6_8 
REMARK    5  A    between atoms: C12_14  and  C13_15 
ROOT
HETATM    1  C1  UNL     1      -0.009  53.750 -27.120  1.00  0.00     0.069 C 
HETATM    2  C2  UNL     1      -0.084  53.267 -25.696  1.00  0.00     0.018 C 
HETATM    3  C3  UNL     1      -0.571  52.065 -25.317  1.00  0.00     0.052 C 
HETATM    4  C12 UNL     1      -0.605  51.616 -23.863  1.00  0.00     0.104 C 
HETATM    5  C22 UNL     1       0.136  52.599 -22.953  1.00  0.00     0.024 C 
HETATM    6  C23 UNL     1       0.592  53.785 -23.408  1.00  0.00     0.020 C 
HETATM    7  C24 UNL     1       1.355  54.756 -22.541  1.00  0.00     0.058 C 
HETATM    8  C25 UNL     1       2.060  54.048 -21.391  1.00  0.00     0.014 C 
HETATM    9  C26 UNL     1       1.081  53.178 -20.617  1.00  0.00     0.084 C 
HETATM   10  C27 UNL     1       0.371  52.204 -21.532  1.00  0.00     0.158 C 
HETATM   11  O5  UNL     1      -0.053  51.130 -21.105  1.00  0.00    -0.293 OA
HETATM   12  N1  UNL     1       0.407  54.136 -24.732  1.00  0.00    -0.362 N 
HETATM   13  H22 UNL     1       0.873  54.974 -25.065  1.00  0.00     0.165 HD
ENDROOT
BRANCH   4  14
HETATM   14  C13 UNL     1      -2.033  51.381 -23.402  1.00  0.00     0.029 A 
HETATM   15  C14 UNL     1      -3.050  52.253 -23.502  1.00  0.00     0.154 A 
HETATM   16  O3  UNL     1      -4.343  52.063 -23.081  1.00  0.00    -0.321 OA
HETATM   17  C15 UNL     1      -4.633  50.885 -22.438  1.00  0.00     0.089 A 
HETATM   18  C16 UNL     1      -5.933  50.724 -21.957  1.00  0.00     0.040 A 
HETATM   19  C20 UNL     1      -3.695  49.869 -22.264  1.00  0.00     0.050 A 
HETATM   20  C17 UNL     1      -6.291  49.540 -21.305  1.00  0.00     0.026 A 
HETATM   21  C18 UNL     1      -5.347  48.523 -21.142  1.00  0.00     0.035 A 
HETATM   22 CL1  UNL     1      -5.796  47.060 -20.354  1.00  0.00    -0.084 Cl
HETATM   23  C19 UNL     1      -4.046  48.681 -21.616  1.00  0.00     0.042 A 
HETATM   24  C21 UNL     1      -2.335  50.061 -22.794  1.00  0.00     0.194 A 
HETATM   25  O4  UNL     1      -1.507  49.160 -22.751  1.00  0.00    -0.287 OA
ENDBRANCH   4  14
BRANCH   3  26
HETATM   26  C4  UNL     1      -1.028  51.098 -26.327  1.00  0.00     0.292 C 
HETATM   27  O1  UNL     1      -0.631  51.084 -27.485  1.00  0.00    -0.259 OA
BRANCH  26  28
HETATM   28  O2  UNL     1      -1.987  50.318 -25.772  1.00  0.00    -0.313 OA
BRANCH  28  29
HETATM   29  C5  UNL     1      -2.051  48.977 -26.266  1.00  0.00     0.217 C 
BRANCH  29  30
HETATM   30  C6  UNL     1      -3.500  48.576 -26.411  1.00  0.00    -0.034 A 
HETATM   31  C7  UNL     1      -4.043  48.356 -27.686  1.00  0.00     0.009 A 
HETATM   32  C8  UNL     1      -5.393  48.028 -27.836  1.00  0.00     0.001 A 
HETATM   33  C9  UNL     1      -6.214  47.916 -26.715  1.00  0.00     0.000 A 
HETATM   34  C10 UNL     1      -5.682  48.120 -25.439  1.00  0.00     0.001 A 
HETATM   35  C11 UNL     1      -4.332  48.447 -25.288  1.00  0.00     0.009 A 
ENDBRANCH  29  30
ENDBRANCH  28  29
ENDBRANCH  26  28
ENDBRANCH   3  26
TORSDOF 5
ENDMDL
MODEL 3
REMARK minimizedAffinity -9.47715282
REMARK  5 active torsions:
REMARK  status: ('A' for Active; 'I' for Inactive)
REMARK    1  A    between atoms: C3_3  and  C4_4 
REMARK    2  A    between atoms: C4_4  and  O2_6 
REMARK    3  A    between atoms: O2_6  and  C5_7 
REMARK    4  A    between atoms: C5_7  and  C6_8 
REMARK    5  A    between atoms: C12_14  and  C13_15 
ROOT
HETATM    1  C1  UNL     1      -4.071  48.492 -27.911  1.00  0.00     0.069 C 
HETATM    2  C2  UNL     1      -4.568  48.762 -26.515  1.00  0.00     0.018 C 
HETATM    3  C3  UNL     1      -4.096  49.737 -25.707  1.00  0.00     0.052 C 
HETATM    4  C12 UNL     1      -4.649  49.982 -24.310  1.00  0.00     0.104 C 
HETATM    5  C22 UNL     1      -5.890  49.127 -24.038  1.00  0.00     0.024 C 
HETATM    6  C23 UNL     1      -6.297  48.169 -24.897  1.00  0.00     0.020 C 
HETATM    7  C24 UNL     1      -7.536  47.338 -24.670  1.00  0.00     0.058 C 
HETATM    8  C25 UNL     1      -8.545  48.063 -23.788  1.00  0.00     0.014 C 
HETATM    9  C26 UNL     1      -7.887  48.542 -22.503  1.00  0.00     0.084 C 
HETATM   10  C27 UNL     1      -6.672  49.396 -22.794  1.00  0.00     0.158 C 
HETATM   11  O5  UNL     1      -6.301  50.259 -21.999  1.00  0.00    -0.293 OA
HETATM   12  N1  UNL     1      -5.595  47.945 -26.067  1.00  0.00    -0.362 N 
HETATM   13  H22 UNL     1      -6.002  47.307 -26.743  1.00  0.00     0.165 HD
ENDROOT
BRANCH   4  14
HETATM   14  C13 UNL     1      -3.574  49.772 -23.258  1.00  0.00     0.029 A 
HETATM   15  C14 UNL     1      -3.055  48.591 -22.881  1.00  0.00     0.154 A 
HETATM   16  O3  UNL     1      -2.091  48.381 -21.926  1.00  0.00    -0.321 OA
HETATM   17  C15 UNL     1      -1.639  49.476 -21.231  1.00  0.00     0.089 A 
HETATM   18  C16 UNL     1      -0.707  49.248 -20.219  1.00  0.00     0.040 A 
HETATM   19  C20 UNL     1      -2.066  50.774 -21.507  1.00  0.00     0.050 A 
HETATM   20  C17 UNL     1      -0.200  50.326 -19.486  1.00  0.00     0.026 A 
HETATM   21  C18 UNL     1      -0.626  51.624 -19.774  1.00  0.00     0.035 A 
HETATM   22 CL1  UNL     1       0.014  52.951 -18.882  1.00  0.00    -0.084 Cl
HETATM   23  C19 UNL     1      -1.561  51.857 -20.781  1.00  0.00     0.042 A 
HETATM   24  C21 UNL     1      -3.040  50.985 -22.591  1.00  0.00     0.194 A 
HETATM   25  O4  UNL     1      -3.369  52.114 -22.933  1.00  0.00    -0.287 OA
ENDBRANCH   4  14
BRANCH   3  26
HETATM   26  C4  UNL     1      -3.060  50.663 -26.188  1.00  0.00     0.292 C 
HETATM   27  O1  UNL     1      -3.301  51.762 -26.671  1.00  0.00    -0.259 OA
BRANCH  26  28
HETATM   28  O2  UNL     1      -1.854  50.056 -26.073  1.00  0.00    -0.313 OA
BRANCH  28  29
HETATM   29  C5  UNL     1      -0.870  50.781 -25.330  1.00  0.00     0.217 C 
BRANCH  29  30
HETATM   30  C6  UNL     1       0.253  51.177 -26.259  1.00  0.00    -0.034 A 
HETATM   31  C7  UNL     1      -0.019  51.469 -27.605  1.00  0.00     0.009 A 
HETATM   32  C8  UNL     1       1.017  51.792 -28.485  1.00  0.00     0.001 A 
HETATM   33  C9  UNL     1       2.334  51.830 -28.031  1.00  0.00     0.000 A 
HETATM   34  C10 UNL     1       2.617  51.554 -26.691  1.00  0.00     0.001 A 
HETATM   35  C11 UNL     1       1.581  51.231 -25.809  1.00  0.00     0.009 A 
ENDBRANCH  29  30
ENDBRANCH  28  29
ENDBRANCH  26  28
ENDBRANCH   3  26
TORSDOF 5
ENDMDL
MODEL 4
REMARK minimizedAffinity -9.20922565
REMARK  5 active torsions:
REMARK  status: ('A' for Active; 'I' for Inactive)
REMARK    1  A    between atoms: C3_3  and  C4_4 
REMARK    2  A    between atoms: C4_4  and  O2_6 
REMARK    3  A    between atoms: O2_6  and  C5_7 
REMARK    4  A    between atoms: C5_7  and  C6_8 
REMARK    5  A    between atoms: C12_14  and  C13_15 
ROOT
HETATM    1  C1  UNL     1      -0.793  51.080 -27.292  1.00  0.00     0.069 C 
HETATM    2  C2  UNL     1      -1.902  50.539 -26.430  1.00  0.00     0.018 C 
HETATM    3  C3  UNL     1      -2.231  51.018 -25.210  1.00  0.00     0.052 C 
HETATM    4  C12 UNL     1      -3.377  50.447 -24.387  1.00  0.00     0.104 C 
HETATM    5  C22 UNL     1      -4.189  49.424 -25.186  1.00  0.00     0.024 C 
HETATM    6  C23 UNL     1      -3.791  48.991 -26.401  1.00  0.00     0.020 C 
HETATM    7  C24 UNL     1      -4.589  48.010 -27.223  1.00  0.00     0.058 C 
HETATM    8  C25 UNL     1      -6.069  48.052 -26.866  1.00  0.00     0.014 C 
HETATM    9  C26 UNL     1      -6.264  47.891 -25.366  1.00  0.00     0.084 C 
HETATM   10  C27 UNL     1      -5.465  48.922 -24.596  1.00  0.00     0.158 C 
HETATM   11  O5  UNL     1      -5.830  49.300 -23.483  1.00  0.00    -0.293 OA
HETATM   12  N1  UNL     1      -2.628  49.484 -26.964  1.00  0.00    -0.362 N 
HETATM   13  H22 UNL     1      -2.430  49.232 -27.927  1.00  0.00     0.165 HD
ENDROOT
BRANCH   4  14
HETATM   14  C13 UNL     1      -2.868  49.871 -23.077  1.00  0.00     0.029 A 
HETATM   15  C14 UNL     1      -2.142  48.750 -22.935  1.00  0.00     0.154 A 
HETATM   16  O3  UNL     1      -1.682  48.208 -21.760  1.00  0.00    -0.321 OA
HETATM   17  C15 UNL     1      -2.042  48.833 -20.592  1.00  0.00     0.089 A 
HETATM   18  C16 UNL     1      -1.625  48.243 -19.398  1.00  0.00     0.040 A 
HETATM   19  C20 UNL     1      -2.782  50.014 -20.564  1.00  0.00     0.050 A 
HETATM   20  C17 UNL     1      -1.949  48.842 -18.177  1.00  0.00     0.026 A 
HETATM   21  C18 UNL     1      -2.685  50.029 -18.158  1.00  0.00     0.035 A 
HETATM   22 CL1  UNL     1      -3.066  50.773 -16.653  1.00  0.00    -0.084 Cl
HETATM   23  C19 UNL     1      -3.108  50.620 -19.347  1.00  0.00     0.042 A 
HETATM   24  C21 UNL     1      -3.196  50.622 -21.840  1.00  0.00     0.194 A 
HETATM   25  O4  UNL     1      -3.762  51.708 -21.868  1.00  0.00    -0.287 OA
ENDBRANCH   4  14
BRANCH   3  26
HETATM   26  C4  UNL     1      -1.525  52.184 -24.656  1.00  0.00     0.292 C 
HETATM   27  O1  UNL     1      -1.982  53.319 -24.656  1.00  0.00    -0.259 OA
BRANCH  26  28
HETATM   28  O2  UNL     1      -0.298  51.786 -24.241  1.00  0.00    -0.313 OA
BRANCH  28  29
HETATM   29  C5  UNL     1       0.573  52.834 -23.808  1.00  0.00     0.217 C 
BRANCH  29  30
HETATM   30  C6  UNL     1       0.604  52.854 -22.299  1.00  0.00    -0.034 A 
HETATM   31  C7  UNL     1       1.045  54.001 -21.620  1.00  0.00     0.009 A 
HETATM   32  C8  UNL     1       1.121  54.017 -20.225  1.00  0.00     0.001 A 
HETATM   33  C9  UNL     1       0.758  52.888 -19.493  1.00  0.00     0.000 A 
HETATM   34  C10 UNL     1       0.306  51.744 -20.155  1.00  0.00     0.001 A 
HETATM   35  C11 UNL     1       0.228  51.728 -21.551  1.00  0.00     0.009 A 
ENDBRANCH  29  30
ENDBRANCH  28  29
ENDBRANCH  26  28
ENDBRANCH   3  26
TORSDOF 5
ENDMDL
MODEL 5
REMARK minimizedAffinity -9.19015026
REMARK  5 active torsions:
REMARK  status: ('A' for Active; 'I' for Inactive)
REMARK    1  A    between atoms: C3_3  and  C4_4 
REMARK    2  A    between atoms: C4_4  and  O2_6 
REMARK    3  A    between atoms: O2_6  and  C5_7 
REMARK    4  A    between atoms: C5_7  and  C6_8 
REMARK    5  A    between atoms: C12_14  and  C13_15 
ROOT
HETATM    1  C1  UNL     1      -1.058  53.224 -27.430  1.00  0.00     0.069 C 
HETATM    2  C2  UNL     1      -1.159  52.538 -26.094  1.00  0.00     0.018 C 
HETATM    3  C3  UNL     1      -1.764  51.349 -25.884  1.00  0.00     0.052 C 
HETATM    4  C12 UNL     1      -1.821  50.687 -24.514  1.00  0.00     0.104 C 
HETATM    5  C22 UNL     1      -0.963  51.437 -23.492  1.00  0.00     0.024 C 
HETATM    6  C23 UNL     1      -0.391  52.626 -23.777  1.00  0.00     0.020 C 
HETATM    7  C24 UNL     1       0.485  53.369 -22.800  1.00  0.00     0.058 C 
HETATM    8  C25 UNL     1       1.131  52.424 -21.794  1.00  0.00     0.014 C 
HETATM    9  C26 UNL     1       0.079  51.550 -21.128  1.00  0.00     0.084 C 
HETATM   10  C27 UNL     1      -0.747  50.806 -22.156  1.00  0.00     0.158 C 
HETATM   11  O5  UNL     1      -1.275  49.729 -21.882  1.00  0.00    -0.293 OA
HETATM   12  N1  UNL     1      -0.561  53.193 -25.026  1.00  0.00    -0.362 N 
HETATM   13  H22 UNL     1      -0.014  54.020 -25.244  1.00  0.00     0.165 HD
ENDROOT
BRANCH   4  14
HETATM   14  C13 UNL     1      -3.257  50.531 -24.047  1.00  0.00     0.029 A 
HETATM   15  C14 UNL     1      -4.172  51.512 -23.964  1.00  0.00     0.154 A 
HETATM   16  O3  UNL     1      -5.471  51.393 -23.534  1.00  0.00    -0.321 OA
HETATM   17  C15 UNL     1      -5.878  50.161 -23.084  1.00  0.00     0.089 A 
HETATM   18  C16 UNL     1      -7.180  50.062 -22.589  1.00  0.00     0.040 A 
HETATM   19  C20 UNL     1      -5.056  49.036 -23.114  1.00  0.00     0.050 A 
HETATM   20  C17 UNL     1      -7.655  48.830 -22.129  1.00  0.00     0.026 A 
HETATM   21  C18 UNL     1      -6.827  47.705 -22.170  1.00  0.00     0.035 A 
HETATM   22 CL1  UNL     1      -7.423  46.187 -21.619  1.00  0.00    -0.084 Cl
HETATM   23  C19 UNL     1      -5.525  47.801 -22.658  1.00  0.00     0.042 A 
HETATM   24  C21 UNL     1      -3.693  49.168 -23.654  1.00  0.00     0.194 A 
HETATM   25  O4  UNL     1      -2.970  48.189 -23.791  1.00  0.00    -0.287 OA
ENDBRANCH   4  14
BRANCH   3  26
HETATM   26  C4  UNL     1      -2.339  50.600 -27.013  1.00  0.00     0.292 C 
HETATM   27  O1  UNL     1      -2.040  50.798 -28.183  1.00  0.00    -0.259 OA
BRANCH  26  28
HETATM   28  O2  UNL     1      -3.278  49.750 -26.531  1.00  0.00    -0.313 OA
BRANCH  28  29
HETATM   29  C5  UNL     1      -3.352  48.481 -27.186  1.00  0.00     0.217 C 
BRANCH  29  30
HETATM   30  C6  UNL     1      -4.800  48.152 -27.457  1.00  0.00    -0.034 A 
HETATM   31  C7  UNL     1      -5.289  48.164 -28.772  1.00  0.00     0.009 A 
HETATM   32  C8  UNL     1      -6.637  47.905 -29.032  1.00  0.00     0.001 A 
HETATM   33  C9  UNL     1      -7.511  47.631 -27.982  1.00  0.00     0.000 A 
HETATM   34  C10 UNL     1      -7.035  47.603 -26.669  1.00  0.00     0.001 A 
HETATM   35  C11 UNL     1      -5.686  47.860 -26.408  1.00  0.00     0.009 A 
ENDBRANCH  29  30
ENDBRANCH  28  29
ENDBRANCH  26  28
ENDBRANCH   3  26
TORSDOF 5
ENDMDL
MODEL 6
REMARK minimizedAffinity -9.13516426
REMARK  5 active torsions:
REMARK  status: ('A' for Active; 'I' for Inactive)
REMARK    1  A    between atoms: C3_3  and  C4_4 
REMARK    2  A    between atoms: C4_4  and  O2_6 
REMARK    3  A    between atoms: O2_6  and  C5_7 
REMARK    4  A    between atoms: C5_7  and  C6_8 
REMARK    5  A    between atoms: C12_14  and  C13_15 
ROOT
HETATM    1  C1  UNL     1      -3.318  49.862 -19.524  1.00  0.00     0.069 C 
HETATM    2  C2  UNL     1      -3.839  49.578 -20.908  1.00  0.00     0.018 C 
HETATM    3  C3  UNL     1      -3.144  48.938 -21.874  1.00  0.00     0.052 C 
HETATM    4  C12 UNL     1      -3.726  48.657 -23.253  1.00  0.00     0.104 C 
HETATM    5  C22 UNL     1      -5.212  49.017 -23.320  1.00  0.00     0.024 C 
HETATM    6  C23 UNL     1      -5.836  49.661 -22.310  1.00  0.00     0.020 C 
HETATM    7  C24 UNL     1      -7.306  49.996 -22.337  1.00  0.00     0.058 C 
HETATM    8  C25 UNL     1      -8.082  49.048 -23.243  1.00  0.00     0.014 C 
HETATM    9  C26 UNL     1      -7.445  48.985 -24.624  1.00  0.00     0.084 C 
HETATM   10  C27 UNL     1      -5.980  48.614 -24.535  1.00  0.00     0.158 C 
HETATM   11  O5  UNL     1      -5.418  48.039 -25.466  1.00  0.00    -0.293 OA
HETATM   12  N1  UNL     1      -5.134  50.002 -21.169  1.00  0.00    -0.362 N 
HETATM   13  H22 UNL     1      -5.663  50.369 -20.385  1.00  0.00     0.165 HD
ENDROOT
BRANCH   4  14
HETATM   14  C13 UNL     1      -2.922  49.360 -24.332  1.00  0.00     0.029 A 
HETATM   15  C14 UNL     1      -2.528  48.824 -25.500  1.00  0.00     0.154 A 
HETATM   16  O3  UNL     1      -1.792  49.439 -26.483  1.00  0.00    -0.321 OA
HETATM   17  C15 UNL     1      -1.354  50.717 -26.239  1.00  0.00     0.089 A 
HETATM   18  C16 UNL     1      -0.553  51.313 -27.214  1.00  0.00     0.040 A 
HETATM   19  C20 UNL     1      -1.684  51.421 -25.083  1.00  0.00     0.050 A 
HETATM   20  C17 UNL     1      -0.088  52.619 -27.028  1.00  0.00     0.026 A 
HETATM   21  C18 UNL     1      -0.430  53.320 -25.869  1.00  0.00     0.035 A 
HETATM   22 CL1  UNL     1       0.130  54.934 -25.652  1.00  0.00    -0.084 Cl
HETATM   23  C19 UNL     1      -1.225  52.727 -24.890  1.00  0.00     0.042 A 
HETATM   24  C21 UNL     1      -2.542  50.771 -24.078  1.00  0.00     0.194 A 
HETATM   25  O4  UNL     1      -2.938  51.384 -23.094  1.00  0.00    -0.287 OA
ENDBRANCH   4  14
BRANCH   3  26
HETATM   26  C4  UNL     1      -1.798  48.414 -21.597  1.00  0.00     0.292 C 
HETATM   27  O1  UNL     1      -1.578  47.271 -21.216  1.00  0.00    -0.259 OA
BRANCH  26  28
HETATM   28  O2  UNL     1      -0.903  49.418 -21.758  1.00  0.00    -0.313 OA
BRANCH  28  29
HETATM   29  C5  UNL     1      -0.166  49.778 -20.586  1.00  0.00     0.217 C 
BRANCH  29  30
HETATM   30  C6  UNL     1       0.147  51.254 -20.637  1.00  0.00    -0.034 A 
HETATM   31  C7  UNL     1       0.652  51.826 -21.815  1.00  0.00     0.009 A 
HETATM   32  C8  UNL     1       0.987  53.181 -21.861  1.00  0.00     0.001 A 
HETATM   33  C9  UNL     1       0.821  53.980 -20.732  1.00  0.00     0.000 A 
HETATM   34  C10 UNL     1       0.307  53.427 -19.556  1.00  0.00     0.001 A 
HETATM   35  C11 UNL     1      -0.030  52.072 -19.509  1.00  0.00     0.009 A 
ENDBRANCH  29  30
ENDBRANCH  28  29
ENDBRANCH  26  28
ENDBRANCH   3  26
TORSDOF 5
ENDMDL
MODEL 7
REMARK minimizedAffinity -9.12488365
REMARK  5 active torsions:
REMARK  status: ('A' for Active; 'I' for Inactive)
REMARK    1  A    between atoms: C3_3  and  C4_4 
REMARK    2  A    between atoms: C4_4  and  O2_6 
REMARK    3  A    between atoms: O2_6  and  C5_7 
REMARK    4  A    between atoms: C5_7  and  C6_8 
REMARK    5  A    between atoms: C12_14  and  C13_15 
ROOT
HETATM    1  C1  UNL     1       1.212  54.245 -20.716  1.00  0.00     0.069 C 
HETATM    2  C2  UNL     1       0.645  53.034 -20.025  1.00  0.00     0.018 C 
HETATM    3  C3  UNL     1       0.090  51.977 -20.659  1.00  0.00     0.052 C 
HETATM    4  C12 UNL     1      -0.450  50.765 -19.912  1.00  0.00     0.104 C 
HETATM    5  C22 UNL     1      -0.115  50.828 -18.420  1.00  0.00     0.024 C 
HETATM    6  C23 UNL     1       0.439  51.924 -17.860  1.00  0.00     0.020 C 
HETATM    7  C24 UNL     1       0.811  51.999 -16.400  1.00  0.00     0.058 C 
HETATM    8  C25 UNL     1       1.076  50.617 -15.816  1.00  0.00     0.014 C 
HETATM    9  C26 UNL     1      -0.089  49.681 -16.102  1.00  0.00     0.084 C 
HETATM   10  C27 UNL     1      -0.394  49.623 -17.584  1.00  0.00     0.158 C 
HETATM   11  O5  UNL     1      -0.911  48.624 -18.082  1.00  0.00    -0.293 OA
HETATM   12  N1  UNL     1       0.732  53.027 -18.640  1.00  0.00    -0.362 N 
HETATM   13  H22 UNL     1       1.261  53.779 -18.211  1.00  0.00     0.165 HD
ENDROOT
BRANCH   4  14
HETATM   14  C13 UNL     1      -1.940  50.602 -20.153  1.00  0.00     0.029 A 
HETATM   15  C14 UNL     1      -2.903  51.457 -19.769  1.00  0.00     0.154 A 
HETATM   16  O3  UNL     1      -4.255  51.321 -19.968  1.00  0.00    -0.321 OA
HETATM   17  C15 UNL     1      -4.693  50.168 -20.571  1.00  0.00     0.089 A 
HETATM   18  C16 UNL     1      -6.072  50.007 -20.714  1.00  0.00     0.040 A 
HETATM   19  C20 UNL     1      -3.824  49.185 -21.041  1.00  0.00     0.050 A 
HETATM   20  C17 UNL     1      -6.576  48.859 -21.333  1.00  0.00     0.026 A 
HETATM   21  C18 UNL     1      -5.698  47.882 -21.808  1.00  0.00     0.035 A 
HETATM   22 CL1  UNL     1      -6.324  46.479 -22.586  1.00  0.00    -0.084 Cl
HETATM   23  C19 UNL     1      -4.321  48.036 -21.664  1.00  0.00     0.042 A 
HETATM   24  C21 UNL     1      -2.373  49.388 -20.890  1.00  0.00     0.194 A 
HETATM   25  O4  UNL     1      -1.571  48.600 -21.374  1.00  0.00    -0.287 OA
ENDBRANCH   4  14
BRANCH   3  26
HETATM   26  C4  UNL     1       0.055  51.927 -22.128  1.00  0.00     0.292 C 
HETATM   27  O1  UNL     1       1.050  52.020 -22.836  1.00  0.00    -0.259 OA
BRANCH  26  28
HETATM   28  O2  UNL     1      -1.238  51.847 -22.525  1.00  0.00    -0.313 OA
BRANCH  28  29
HETATM   29  C5  UNL     1      -1.626  52.774 -23.543  1.00  0.00     0.217 C 
BRANCH  29  30
HETATM   30  C6  UNL     1      -1.823  52.024 -24.839  1.00  0.00    -0.034 A 
HETATM   31  C7  UNL     1      -2.933  52.305 -25.651  1.00  0.00     0.009 A 
HETATM   32  C8  UNL     1      -3.151  51.588 -26.830  1.00  0.00     0.001 A 
HETATM   33  C9  UNL     1      -2.263  50.584 -27.211  1.00  0.00     0.000 A 
HETATM   34  C10 UNL     1      -1.147  50.303 -26.419  1.00  0.00     0.001 A 
HETATM   35  C11 UNL     1      -0.927  51.021 -25.240  1.00  0.00     0.009 A 
ENDBRANCH  29  30
ENDBRANCH  28  29
ENDBRANCH  26  28
ENDBRANCH   3  26
TORSDOF 5
ENDMDL
MODEL 8
REMARK minimizedAffinity -9.03530312
REMARK  5 active torsions:
REMARK  status: ('A' for Active; 'I' for Inactive)
REMARK    1  A    between atoms: C3_3  and  C4_4 
REMARK    2  A    between atoms: C4_4  and  O2_6 
REMARK    3  A    between atoms: O2_6  and  C5_7 
REMARK    4  A    between atoms: C5_7  and  C6_8 
REMARK    5  A    between atoms: C12_14  and  C13_15 
ROOT
HETATM    1  C1  UNL     1      -3.461  45.811 -20.367  1.00  0.00     0.069 C 
HETATM    2  C2  UNL     1      -3.194  47.257 -20.039  1.00  0.00     0.018 C 
HETATM    3  C3  UNL     1      -3.955  48.292 -20.456  1.00  0.00     0.052 C 
HETATM    4  C12 UNL     1      -3.653  49.736 -20.078  1.00  0.00     0.104 C 
HETATM    5  C22 UNL     1      -2.525  49.823 -19.047  1.00  0.00     0.024 C 
HETATM    6  C23 UNL     1      -1.806  48.740 -18.683  1.00  0.00     0.020 C 
HETATM    7  C24 UNL     1      -0.714  48.792 -17.645  1.00  0.00     0.058 C 
HETATM    8  C25 UNL     1      -0.922  49.943 -16.668  1.00  0.00     0.014 C 
HETATM    9  C26 UNL     1      -1.116  51.253 -17.417  1.00  0.00     0.084 C 
HETATM   10  C27 UNL     1      -2.245  51.149 -18.420  1.00  0.00     0.158 C 
HETATM   11  O5  UNL     1      -2.885  52.145 -18.755  1.00  0.00    -0.293 OA
HETATM   12  N1  UNL     1      -2.090  47.505 -19.236  1.00  0.00    -0.362 N 
HETATM   13  H22 UNL     1      -1.616  46.696 -18.846  1.00  0.00     0.165 HD
ENDROOT
BRANCH   4  14
HETATM   14  C13 UNL     1      -3.359  50.568 -21.314  1.00  0.00     0.029 A 
HETATM   15  C14 UNL     1      -4.159  51.510 -21.842  1.00  0.00     0.154 A 
HETATM   16  O3  UNL     1      -3.915  52.264 -22.964  1.00  0.00    -0.321 OA
HETATM   17  C15 UNL     1      -2.765  52.001 -23.665  1.00  0.00     0.089 A 
HETATM   18  C16 UNL     1      -2.554  52.727 -24.839  1.00  0.00     0.040 A 
HETATM   19  C20 UNL     1      -1.822  51.064 -23.246  1.00  0.00     0.050 A 
HETATM   20  C17 UNL     1      -1.393  52.512 -25.589  1.00  0.00     0.026 A 
HETATM   21  C18 UNL     1      -0.449  51.577 -25.157  1.00  0.00     0.035 A 
HETATM   22 CL1  UNL     1       0.987  51.330 -26.074  1.00  0.00    -0.084 Cl
HETATM   23  C19 UNL     1      -0.658  50.847 -23.989  1.00  0.00     0.042 A 
HETATM   24  C21 UNL     1      -2.064  50.324 -21.997  1.00  0.00     0.194 A 
HETATM   25  O4  UNL     1      -1.220  49.564 -21.539  1.00  0.00    -0.287 OA
ENDBRANCH   4  14
BRANCH   3  26
HETATM   26  C4  UNL     1      -5.172  48.049 -21.245  1.00  0.00     0.292 C 
HETATM   27  O1  UNL     1      -6.299  48.020 -20.767  1.00  0.00    -0.259 OA
BRANCH  26  28
HETATM   28  O2  UNL     1      -4.810  47.792 -22.525  1.00  0.00    -0.313 OA
BRANCH  28  29
HETATM   29  C5  UNL     1      -5.600  48.437 -23.528  1.00  0.00     0.217 C 
BRANCH  29  30
HETATM   30  C6  UNL     1      -4.853  48.401 -24.839  1.00  0.00    -0.034 A 
HETATM   31  C7  UNL     1      -3.464  48.600 -24.862  1.00  0.00     0.009 A 
HETATM   32  C8  UNL     1      -2.767  48.614 -26.072  1.00  0.00     0.001 A 
HETATM   33  C9  UNL     1      -3.449  48.430 -27.273  1.00  0.00     0.000 A 
HETATM   34  C10 UNL     1      -4.830  48.219 -27.265  1.00  0.00     0.001 A 
HETATM   35  C11 UNL     1      -5.528  48.203 -26.054  1.00  0.00     0.009 A 
ENDBRANCH  29  30
ENDBRANCH  28  29
ENDBRANCH  26  28
ENDBRANCH   3  26
TORSDOF 5
ENDMDL
MODEL 9
REMARK minimizedAffinity -8.95632839
REMARK  5 active torsions:
REMARK  status: ('A' for Active; 'I' for Inactive)
REMARK    1  A    between atoms: C3_3  and  C4_4 
REMARK    2  A    between atoms: C4_4  and  O2_6 
REMARK    3  A    between atoms: O2_6  and  C5_7 
REMARK    4  A    between atoms: C5_7  and  C6_8 
REMARK    5  A    between atoms: C12_14  and  C13_15 
ROOT
HETATM    1  C1  UNL     1      -5.361  50.430 -20.724  1.00  0.00     0.069 C 
HETATM    2  C2  UNL     1      -5.169  49.994 -22.152  1.00  0.00     0.018 C 
HETATM    3  C3  UNL     1      -3.969  49.864 -22.760  1.00  0.00     0.052 C 
HETATM    4  C12 UNL     1      -3.828  49.399 -24.203  1.00  0.00     0.104 C 
HETATM    5  C22 UNL     1      -5.169  48.937 -24.779  1.00  0.00     0.024 C 
HETATM    6  C23 UNL     1      -6.328  49.104 -24.108  1.00  0.00     0.020 C 
HETATM    7  C24 UNL     1      -7.658  48.627 -24.638  1.00  0.00     0.058 C 
HETATM    8  C25 UNL     1      -7.490  47.467 -25.611  1.00  0.00     0.014 C 
HETATM    9  C26 UNL     1      -6.491  47.821 -26.702  1.00  0.00     0.084 C 
HETATM   10  C27 UNL     1      -5.168  48.261 -26.111  1.00  0.00     0.158 C 
HETATM   11  O5  UNL     1      -4.118  48.116 -26.736  1.00  0.00    -0.293 OA
HETATM   12  N1  UNL     1      -6.325  49.697 -22.859  1.00  0.00    -0.362 N 
HETATM   13  H22 UNL     1      -7.194  49.690 -22.334  1.00  0.00     0.165 HD
ENDROOT
BRANCH   4  14
HETATM   14  C13 UNL     1      -3.183  50.476 -25.058  1.00  0.00     0.029 A 
HETATM   15  C14 UNL     1      -3.753  51.632 -25.436  1.00  0.00     0.154 A 
HETATM   16  O3  UNL     1      -3.191  52.612 -26.217  1.00  0.00    -0.321 OA
HETATM   17  C15 UNL     1      -1.936  52.377 -26.721  1.00  0.00     0.089 A 
HETATM   18  C16 UNL     1      -1.395  53.348 -27.565  1.00  0.00     0.040 A 
HETATM   19  C20 UNL     1      -1.201  51.233 -26.416  1.00  0.00     0.050 A 
HETATM   20  C17 UNL     1      -0.115  53.170 -28.099  1.00  0.00     0.026 A 
HETATM   21  C18 UNL     1       0.618  52.024 -27.781  1.00  0.00     0.035 A 
HETATM   22 CL1  UNL     1       2.201  51.817 -28.425  1.00  0.00    -0.084 Cl
HETATM   23  C19 UNL     1       0.080  51.049 -26.942  1.00  0.00     0.042 A 
HETATM   24  C21 UNL     1      -1.791  50.232 -25.511  1.00  0.00     0.194 A 
HETATM   25  O4  UNL     1      -1.146  49.260 -25.137  1.00  0.00    -0.287 OA
ENDBRANCH   4  14
BRANCH   3  26
HETATM   26  C4  UNL     1      -2.727  50.101 -22.010  1.00  0.00     0.292 C 
HETATM   27  O1  UNL     1      -2.109  49.223 -21.422  1.00  0.00    -0.259 OA
BRANCH  26  28
HETATM   28  O2  UNL     1      -2.461  51.429 -22.027  1.00  0.00    -0.313 OA
BRANCH  28  29
HETATM   29  C5  UNL     1      -1.201  51.797 -22.597  1.00  0.00     0.217 C 
BRANCH  29  30
HETATM   30  C6  UNL     1      -0.348  52.439 -21.529  1.00  0.00    -0.034 A 
HETATM   31  C7  UNL     1       0.699  53.301 -21.891  1.00  0.00     0.009 A 
HETATM   32  C8  UNL     1       1.524  53.866 -20.915  1.00  0.00     0.001 A 
HETATM   33  C9  UNL     1       1.312  53.577 -19.568  1.00  0.00     0.000 A 
HETATM   34  C10 UNL     1       0.265  52.730 -19.194  1.00  0.00     0.001 A 
HETATM   35  C11 UNL     1      -0.562  52.166 -20.169  1.00  0.00     0.009 A 
ENDBRANCH  29  30
ENDBRANCH  28  29
ENDBRANCH  26  28
ENDBRANCH   3  26
TORSDOF 5
ENDMDL
