MODEL 1
REMARK minimizedAffinity -7.31585789
REMARK CNNscore 0.203377217
REMARK CNNaffinity 6.6660409
REMARK  10 active torsions:
REMARK  status: ('A' for Active; 'I' for Inactive)
REMARK    1  A    between atoms: C2_2  and  O1_3 
REMARK    2  A    between atoms: O1_3  and  C3_4 
REMARK    3  A    between atoms: C3_4  and  C4_6 
REMARK    4  A    between atoms: C5_7  and  C6_8 
REMARK    5  A    between atoms: C12_16  and  C13_17 
REMARK    6  A    between atoms: C23_28  and  O5_29 
REMARK    7  A    between atoms: C27_34  and  C28_35 
REMARK    8  A    between atoms: C28_35  and  O7_36 
REMARK    9  A    between atoms: C38_47  and  C39_48 
REMARK   10  A    between atoms: C39_48  and  O8_49 
ROOT
HETATM    1  C4  UNL     1     -14.031   9.637  13.948  1.00  0.00     0.165 C 
HETATM    2  C5  UNL     1     -13.799  10.884  14.413  1.00  0.00     0.053 C 
HETATM    3  C7  UNL     1     -12.788  10.987  15.473  1.00  0.00    -0.002 C 
HETATM    4  C8  UNL     1     -13.009  11.586  16.678  1.00  0.00    -0.066 C 
HETATM    5  C9  UNL     1     -14.248  12.422  16.988  1.00  0.00     0.042 C 
HETATM    6  C10 UNL     1     -14.287  12.991  18.406  1.00  0.00     0.083 C 
HETATM    7  C11 UNL     1     -12.955  13.649  18.696  1.00  0.00     0.136 C 
HETATM    8  O4  UNL     1     -12.895  14.823  19.059  1.00  0.00    -0.297 OA
HETATM    9  C12 UNL     1     -11.712  12.783  18.501  1.00  0.00     0.092 C 
HETATM   10  C21 UNL     1     -12.112  11.422  17.905  1.00  0.00     0.052 C 
HETATM   11  C22 UNL     1     -11.614  10.105  15.219  1.00  0.00     0.044 A 
HETATM   12  C23 UNL     1     -10.267  10.456  15.365  1.00  0.00     0.091 A 
HETATM   13  C25 UNL     1      -9.301   9.491  15.133  1.00  0.00     0.013 A 
HETATM   14  C26 UNL     1      -9.652   8.219  14.700  1.00  0.00     0.089 A 
HETATM   15  O6  UNL     1      -8.571   7.393  14.516  1.00  0.00    -0.341 OA
HETATM   16  C27 UNL     1      -7.417   8.273  14.609  1.00  0.00     0.168 C 
HETATM   17  C37 UNL     1      -7.834   9.565  15.334  1.00  0.00     0.080 C 
HETATM   18  C38 UNL     1     -10.967   7.841  14.471  1.00  0.00     0.034 A 
HETATM   19  C40 UNL     1     -11.941   8.824  14.701  1.00  0.00     0.101 A 
HETATM   20  O9  UNL     1     -13.255   8.539  14.350  1.00  0.00    -0.302 OA
ENDROOT
BRANCH   2  21
HETATM   21  C6  UNL     1     -14.378  12.068  13.729  1.00  0.00     0.273 C 
HETATM   22  O3  UNL     1     -15.432  12.593  14.072  1.00  0.00    -0.301 OA
ENDBRANCH   2  21
BRANCH   1  23
HETATM   23  C3  UNL     1     -15.143   9.361  13.008  1.00  0.00     0.318 C 
HETATM   24  O2  UNL     1     -15.393  10.048  12.029  1.00  0.00    -0.257 OA
BRANCH  23  25
HETATM   25  O1  UNL     1     -15.828   8.276  13.445  1.00  0.00    -0.316 OA
BRANCH  25  26
HETATM   26  C2  UNL     1     -16.622   7.609  12.455  1.00  0.00     0.175 C 
HETATM   27  C1  UNL     1     -17.089   6.268  12.989  1.00  0.00     0.034 C 
ENDBRANCH  25  26
ENDBRANCH  23  25
ENDBRANCH   1  23
BRANCH  12  28
HETATM   28  O5  UNL     1      -9.875  11.698  15.779  1.00  0.00    -0.354 OA
HETATM   29  C24 UNL     1      -9.866  12.609  14.680  1.00  0.00     0.210 C 
ENDBRANCH  12  28
BRANCH   9  30
HETATM   30  C13 UNL     1     -10.911  12.593  19.778  1.00  0.00    -0.046 A 
HETATM   31  C14 UNL     1     -11.446  11.823  20.821  1.00  0.00     0.010 A 
HETATM   32  C15 UNL     1     -10.762  11.637  22.028  1.00  0.00     0.031 A 
HETATM   33  C16 UNL     1      -9.517  12.259  22.166  1.00  0.00     0.042 A 
HETATM   34  N1  UNL     1      -8.630  12.251  23.218  1.00  0.00    -0.365 N 
HETATM   35  C19 UNL     1      -8.953  13.042  21.163  1.00  0.00    -0.008 A 
HETATM   36  C17 UNL     1      -7.528  13.006  22.917  1.00  0.00     0.089 A 
HETATM   37  H14 UNL     1      -8.774  11.749  24.084  1.00  0.00     0.165 HD
HETATM   38  C18 UNL     1      -7.698  13.508  21.647  1.00  0.00     0.030 A 
HETATM   39  C20 UNL     1      -9.660  13.214  19.956  1.00  0.00     0.021 A 
ENDBRANCH   9  30
BRANCH  18  40
HETATM   40  C39 UNL     1     -11.311   6.479  13.947  1.00  0.00     0.208 C 
BRANCH  40  41
HETATM   41  O8  UNL     1     -10.143   5.757  13.567  1.00  0.00    -0.396 OA
HETATM   42  H44 UNL     1      -9.374   6.203  13.958  1.00  0.00     0.209 HD
ENDBRANCH  40  41
ENDBRANCH  18  40
BRANCH  16  43
HETATM   43  C28 UNL     1      -6.215   7.538  15.268  1.00  0.00     0.089 C 
HETATM   44  C29 UNL     1      -6.070   6.091  14.712  1.00  0.00     0.041 C 
HETATM   45  C30 UNL     1      -4.626   5.652  14.451  1.00  0.00     0.004 C 
HETATM   46  C31 UNL     1      -3.672   6.097  15.549  1.00  0.00     0.007 C 
HETATM   47  C32 UNL     1      -3.699   7.616  15.770  1.00  0.00     0.021 C 
HETATM   48  C33 UNL     1      -2.388   8.290  15.313  1.00  0.00     0.274 C 
HETATM   49  C36 UNL     1      -4.888   8.320  15.082  1.00  0.00     0.030 C 
HETATM   50  N2  UNL     1      -2.469   9.751  15.201  1.00  0.00     0.083 N 
HETATM   51  C34 UNL     1      -3.553  10.308  16.009  1.00  0.00     0.270 C 
HETATM   52  H34 UNL     1      -2.629  10.002  14.224  1.00  0.00     0.315 HD
HETATM   53  C35 UNL     1      -4.928   9.786  15.568  1.00  0.00     0.038 C 
BRANCH  43  54
HETATM   54  O7  UNL     1      -6.502   7.458  16.676  1.00  0.00    -0.387 OA
HETATM   55  H24 UNL     1      -5.914   6.791  17.074  1.00  0.00     0.210 HD
ENDBRANCH  43  54
ENDBRANCH  16  43
TORSDOF 10
ENDMDL
MODEL 2
REMARK minimizedAffinity -7.57305908
REMARK CNNscore 0.180935293
REMARK CNNaffinity 5.85160875
REMARK  10 active torsions:
REMARK  status: ('A' for Active; 'I' for Inactive)
REMARK    1  A    between atoms: C2_2  and  O1_3 
REMARK    2  A    between atoms: O1_3  and  C3_4 
REMARK    3  A    between atoms: C3_4  and  C4_6 
REMARK    4  A    between atoms: C5_7  and  C6_8 
REMARK    5  A    between atoms: C12_16  and  C13_17 
REMARK    6  A    between atoms: C23_28  and  O5_29 
REMARK    7  A    between atoms: C27_34  and  C28_35 
REMARK    8  A    between atoms: C28_35  and  O7_36 
REMARK    9  A    between atoms: C38_47  and  C39_48 
REMARK   10  A    between atoms: C39_48  and  O8_49 
ROOT
HETATM    1  C4  UNL     1     -10.675  12.483  23.104  1.00  0.00     0.165 C 
HETATM    2  C5  UNL     1      -9.870  13.540  22.863  1.00  0.00     0.053 C 
HETATM    3  C7  UNL     1      -8.990  13.413  21.695  1.00  0.00    -0.002 C 
HETATM    4  C8  UNL     1      -7.638  13.581  21.740  1.00  0.00    -0.066 C 
HETATM    5  C9  UNL     1      -6.899  14.145  22.952  1.00  0.00     0.042 C 
HETATM    6  C10 UNL     1      -5.383  14.237  22.781  1.00  0.00     0.083 C 
HETATM    7  C11 UNL     1      -5.090  14.907  21.456  1.00  0.00     0.136 C 
HETATM    8  O4  UNL     1      -4.379  15.910  21.397  1.00  0.00    -0.297 OA
HETATM    9  C12 UNL     1      -5.731  14.279  20.219  1.00  0.00     0.092 C 
HETATM   10  C21 UNL     1      -6.671  13.138  20.642  1.00  0.00     0.052 C 
HETATM   11  C22 UNL     1      -9.681  12.781  20.536  1.00  0.00     0.044 A 
HETATM   12  C23 UNL     1      -9.624  13.207  19.204  1.00  0.00     0.091 A 
HETATM   13  C25 UNL     1     -10.291  12.468  18.242  1.00  0.00     0.013 A 
HETATM   14  C26 UNL     1     -11.058  11.365  18.593  1.00  0.00     0.089 A 
HETATM   15  O6  UNL     1     -11.653  10.755  17.517  1.00  0.00    -0.341 OA
HETATM   16  C27 UNL     1     -11.446  11.677  16.412  1.00  0.00     0.168 C 
HETATM   17  C37 UNL     1     -10.289  12.628  16.768  1.00  0.00     0.080 C 
HETATM   18  C38 UNL     1     -11.206  10.943  19.906  1.00  0.00     0.034 A 
HETATM   19  C40 UNL     1     -10.533  11.698  20.878  1.00  0.00     0.101 A 
HETATM   20  O9  UNL     1     -10.766  11.401  22.215  1.00  0.00    -0.302 OA
ENDROOT
BRANCH   2  21
HETATM   21  C6  UNL     1     -10.043  14.812  23.611  1.00  0.00     0.273 C 
HETATM   22  O3  UNL     1     -10.527  15.823  23.113  1.00  0.00    -0.301 OA
ENDBRANCH   2  21
BRANCH   1  23
HETATM   23  C3  UNL     1     -11.484  12.399  24.344  1.00  0.00     0.318 C 
HETATM   24  O2  UNL     1     -12.278  13.258  24.698  1.00  0.00    -0.257 OA
BRANCH  23  25
HETATM   25  O1  UNL     1     -11.161  11.260  25.003  1.00  0.00    -0.316 OA
BRANCH  25  26
HETATM   26  C2  UNL     1     -12.102  10.187  24.878  1.00  0.00     0.175 C 
HETATM   27  C1  UNL     1     -11.430   8.872  25.226  1.00  0.00     0.034 C 
ENDBRANCH  25  26
ENDBRANCH  23  25
ENDBRANCH   1  23
BRANCH  12  28
HETATM   28  O5  UNL     1      -8.890  14.293  18.813  1.00  0.00    -0.354 OA
HETATM   29  C24 UNL     1      -9.670  15.484  18.920  1.00  0.00     0.210 C 
ENDBRANCH  12  28
BRANCH   9  30
HETATM   30  C13 UNL     1      -4.712  13.786  19.205  1.00  0.00    -0.046 A 
HETATM   31  C14 UNL     1      -4.363  14.607  18.123  1.00  0.00     0.010 A 
HETATM   32  C15 UNL     1      -3.450  14.193  17.146  1.00  0.00     0.031 A 
HETATM   33  C16 UNL     1      -2.897  12.915  17.280  1.00  0.00     0.042 A 
HETATM   34  N1  UNL     1      -1.985  12.253  16.491  1.00  0.00    -0.365 N 
HETATM   35  C19 UNL     1      -3.223  12.062  18.331  1.00  0.00    -0.008 A 
HETATM   36  C17 UNL     1      -1.728  11.009  17.003  1.00  0.00     0.089 A 
HETATM   37  H14 UNL     1      -1.561  12.639  15.658  1.00  0.00     0.165 HD
HETATM   38  C18 UNL     1      -2.481  10.862  18.146  1.00  0.00     0.030 A 
HETATM   39  C20 UNL     1      -4.145  12.501  19.303  1.00  0.00     0.021 A 
ENDBRANCH   9  30
BRANCH  18  40
HETATM   40  C39 UNL     1     -12.089   9.783  20.261  1.00  0.00     0.208 C 
BRANCH  40  41
HETATM   41  O8  UNL     1     -11.729   8.613  19.534  1.00  0.00    -0.396 OA
HETATM   42  H44 UNL     1     -10.845   8.753  19.158  1.00  0.00     0.209 HD
ENDBRANCH  40  41
ENDBRANCH  18  40
BRANCH  16  43
HETATM   43  C28 UNL     1     -11.240  10.903  15.079  1.00  0.00     0.089 C 
HETATM   44  C29 UNL     1     -10.261   9.708  15.270  1.00  0.00     0.041 C 
HETATM   45  C30 UNL     1     -10.669   8.427  14.536  1.00  0.00     0.004 C 
HETATM   46  C31 UNL     1     -11.202   8.699  13.138  1.00  0.00     0.007 C 
HETATM   47  C32 UNL     1     -12.391   9.672  13.142  1.00  0.00     0.021 C 
HETATM   48  C33 UNL     1     -13.712   8.972  12.760  1.00  0.00     0.274 C 
HETATM   49  C36 UNL     1     -12.584  10.405  14.487  1.00  0.00     0.030 C 
HETATM   50  N2  UNL     1     -14.917   9.758  13.052  1.00  0.00     0.083 N 
HETATM   51  C34 UNL     1     -14.632  11.190  13.149  1.00  0.00     0.270 C 
HETATM   52  H34 UNL     1     -15.313   9.445  13.938  1.00  0.00     0.315 HD
HETATM   53  C35 UNL     1     -13.650  11.506  14.286  1.00  0.00     0.038 C 
BRANCH  43  54
HETATM   54  O7  UNL     1     -10.650  11.830  14.148  1.00  0.00    -0.387 OA
HETATM   55  H24 UNL     1     -10.273  11.326  13.406  1.00  0.00     0.210 HD
ENDBRANCH  43  54
ENDBRANCH  16  43
TORSDOF 10
ENDMDL
MODEL 3
REMARK minimizedAffinity -8.55422211
REMARK CNNscore 0.124598555
REMARK CNNaffinity 7.1704216
REMARK  10 active torsions:
REMARK  status: ('A' for Active; 'I' for Inactive)
REMARK    1  A    between atoms: C2_2  and  O1_3 
REMARK    2  A    between atoms: O1_3  and  C3_4 
REMARK    3  A    between atoms: C3_4  and  C4_6 
REMARK    4  A    between atoms: C5_7  and  C6_8 
REMARK    5  A    between atoms: C12_16  and  C13_17 
REMARK    6  A    between atoms: C23_28  and  O5_29 
REMARK    7  A    between atoms: C27_34  and  C28_35 
REMARK    8  A    between atoms: C28_35  and  O7_36 
REMARK    9  A    between atoms: C38_47  and  C39_48 
REMARK   10  A    between atoms: C39_48  and  O8_49 
ROOT
HETATM    1  C4  UNL     1      -5.060   6.629  15.146  1.00  0.00     0.165 C 
HETATM    2  C5  UNL     1      -4.993   7.947  15.433  1.00  0.00     0.053 C 
HETATM    3  C7  UNL     1      -3.651   8.538  15.384  1.00  0.00    -0.002 C 
HETATM    4  C8  UNL     1      -3.092   9.239  16.412  1.00  0.00    -0.066 C 
HETATM    5  C9  UNL     1      -3.872   9.693  17.644  1.00  0.00     0.042 C 
HETATM    6  C10 UNL     1      -3.039  10.458  18.672  1.00  0.00     0.083 C 
HETATM    7  C11 UNL     1      -2.257  11.535  17.950  1.00  0.00     0.136 C 
HETATM    8  O4  UNL     1      -2.343  12.715  18.289  1.00  0.00    -0.297 OA
HETATM    9  C12 UNL     1      -1.380  11.074  16.787  1.00  0.00     0.092 C 
HETATM   10  C21 UNL     1      -1.605   9.575  16.526  1.00  0.00     0.052 C 
HETATM   11  C22 UNL     1      -2.853   8.031  14.233  1.00  0.00     0.044 A 
HETATM   12  C23 UNL     1      -2.066   8.800  13.367  1.00  0.00     0.091 A 
HETATM   13  C25 UNL     1      -1.348   8.155  12.375  1.00  0.00     0.013 A 
HETATM   14  C26 UNL     1      -1.453   6.782  12.194  1.00  0.00     0.089 A 
HETATM   15  O6  UNL     1      -0.677   6.312  11.164  1.00  0.00    -0.341 OA
HETATM   16  C27 UNL     1      -0.219   7.507  10.474  1.00  0.00     0.168 C 
HETATM   17  C37 UNL     1      -0.358   8.712  11.421  1.00  0.00     0.080 C 
HETATM   18  C38 UNL     1      -2.272   5.984  12.978  1.00  0.00     0.034 A 
HETATM   19  C40 UNL     1      -3.003   6.643  13.978  1.00  0.00     0.101 A 
HETATM   20  O9  UNL     1      -3.943   5.910  14.693  1.00  0.00    -0.302 OA
ENDROOT
BRANCH   2  21
HETATM   21  C6  UNL     1      -6.231   8.758  15.565  1.00  0.00     0.273 C 
HETATM   22  O3  UNL     1      -7.131   8.750  14.732  1.00  0.00    -0.301 OA
ENDBRANCH   2  21
BRANCH   1  23
HETATM   23  C3  UNL     1      -6.318   5.864  15.327  1.00  0.00     0.318 C 
HETATM   24  O2  UNL     1      -6.835   5.653  16.413  1.00  0.00    -0.257 OA
BRANCH  23  25
HETATM   25  O1  UNL     1      -6.744   5.427  14.117  1.00  0.00    -0.316 OA
BRANCH  25  26
HETATM   26  C2  UNL     1      -7.233   4.080  14.086  1.00  0.00     0.175 C 
HETATM   27  C1  UNL     1      -8.155   3.897  12.895  1.00  0.00     0.034 C 
ENDBRANCH  25  26
ENDBRANCH  23  25
ENDBRANCH   1  23
BRANCH  12  28
HETATM   28  O5  UNL     1      -1.941  10.155  13.501  1.00  0.00    -0.354 OA
HETATM   29  C24 UNL     1      -0.567  10.514  13.647  1.00  0.00     0.210 C 
ENDBRANCH  12  28
BRANCH   9  30
HETATM   30  C13 UNL     1       0.096  11.365  17.001  1.00  0.00    -0.046 A 
HETATM   31  C14 UNL     1       0.868  10.484  17.772  1.00  0.00     0.010 A 
HETATM   32  C15 UNL     1       2.225  10.717  18.021  1.00  0.00     0.031 A 
HETATM   33  C16 UNL     1       2.791  11.875  17.480  1.00  0.00     0.042 A 
HETATM   34  N1  UNL     1       4.079  12.355  17.552  1.00  0.00    -0.365 N 
HETATM   35  C19 UNL     1       2.060  12.784  16.719  1.00  0.00    -0.008 A 
HETATM   36  C17 UNL     1       4.186  13.538  16.869  1.00  0.00     0.089 A 
HETATM   37  H14 UNL     1       4.837  11.891  18.035  1.00  0.00     0.165 HD
HETATM   38  C18 UNL     1       2.950  13.828  16.340  1.00  0.00     0.030 A 
HETATM   39  C20 UNL     1       0.695  12.528  16.480  1.00  0.00     0.021 A 
ENDBRANCH   9  30
BRANCH  18  40
HETATM   40  C39 UNL     1      -2.411   4.513  12.722  1.00  0.00     0.208 C 
BRANCH  40  41
HETATM   41  O8  UNL     1      -1.150   3.912  12.440  1.00  0.00    -0.396 OA
HETATM   42  H44 UNL     1      -0.455   4.530  12.718  1.00  0.00     0.209 HD
ENDBRANCH  40  41
ENDBRANCH  18  40
BRANCH  16  43
HETATM   43  C28 UNL     1       1.219   7.304   9.917  1.00  0.00     0.089 C 
HETATM   44  C29 UNL     1       1.325   7.798   8.445  1.00  0.00     0.041 C 
HETATM   45  C30 UNL     1       2.617   8.553   8.119  1.00  0.00     0.004 C 
HETATM   46  C31 UNL     1       3.844   7.912   8.748  1.00  0.00     0.007 C 
HETATM   47  C32 UNL     1       3.717   7.775  10.273  1.00  0.00     0.021 C 
HETATM   48  C33 UNL     1       4.682   8.719  11.020  1.00  0.00     0.274 C 
HETATM   49  C36 UNL     1       2.284   8.008  10.797  1.00  0.00     0.030 C 
HETATM   50  N2  UNL     1       4.391   8.869  12.451  1.00  0.00     0.083 N 
HETATM   51  C34 UNL     1       3.616   7.746  12.977  1.00  0.00     0.270 C 
HETATM   52  H34 UNL     1       3.859   9.727  12.595  1.00  0.00     0.315 HD
HETATM   53  C35 UNL     1       2.248   7.618  12.292  1.00  0.00     0.038 C 
BRANCH  43  54
HETATM   54  O7  UNL     1       1.475   5.887   9.941  1.00  0.00    -0.387 OA
HETATM   55  H24 UNL     1       2.242   5.702   9.370  1.00  0.00     0.210 HD
ENDBRANCH  43  54
ENDBRANCH  16  43
TORSDOF 10
ENDMDL
MODEL 4
REMARK minimizedAffinity -7.17205763
REMARK CNNscore 0.122022644
REMARK CNNaffinity 6.02651453
REMARK  10 active torsions:
REMARK  status: ('A' for Active; 'I' for Inactive)
REMARK    1  A    between atoms: C2_2  and  O1_3 
REMARK    2  A    between atoms: O1_3  and  C3_4 
REMARK    3  A    between atoms: C3_4  and  C4_6 
REMARK    4  A    between atoms: C5_7  and  C6_8 
REMARK    5  A    between atoms: C12_16  and  C13_17 
REMARK    6  A    between atoms: C23_28  and  O5_29 
REMARK    7  A    between atoms: C27_34  and  C28_35 
REMARK    8  A    between atoms: C28_35  and  O7_36 
REMARK    9  A    between atoms: C38_47  and  C39_48 
REMARK   10  A    between atoms: C39_48  and  O8_49 
ROOT
HETATM    1  C4  UNL     1     -13.465  13.631  14.293  1.00  0.00     0.165 C 
HETATM    2  C5  UNL     1     -13.578  12.298  14.479  1.00  0.00     0.053 C 
HETATM    3  C7  UNL     1     -12.386  11.630  15.015  1.00  0.00    -0.002 C 
HETATM    4  C8  UNL     1     -11.789  10.555  14.425  1.00  0.00    -0.066 C 
HETATM    5  C9  UNL     1     -12.413   9.772  13.272  1.00  0.00     0.042 C 
HETATM    6  C10 UNL     1     -11.561   8.609  12.765  1.00  0.00     0.083 C 
HETATM    7  C11 UNL     1     -11.112   7.788  13.955  1.00  0.00     0.136 C 
HETATM    8  O4  UNL     1     -11.340   6.581  14.014  1.00  0.00    -0.297 OA
HETATM    9  C12 UNL     1     -10.380   8.543  15.064  1.00  0.00     0.092 C 
HETATM   10  C21 UNL     1     -10.385  10.051  14.760  1.00  0.00     0.052 C 
HETATM   11  C22 UNL     1     -11.722  12.432  16.080  1.00  0.00     0.044 A 
HETATM   12  C23 UNL     1     -11.239  11.948  17.302  1.00  0.00     0.091 A 
HETATM   13  C25 UNL     1     -10.601  12.829  18.158  1.00  0.00     0.013 A 
HETATM   14  C26 UNL     1     -10.497  14.179  17.848  1.00  0.00     0.089 A 
HETATM   15  O6  UNL     1      -9.840  14.905  18.809  1.00  0.00    -0.341 OA
HETATM   16  C27 UNL     1      -9.719  13.996  19.938  1.00  0.00     0.168 C 
HETATM   17  C37 UNL     1      -9.900  12.553  19.435  1.00  0.00     0.080 C 
HETATM   18  C38 UNL     1     -11.020  14.722  16.684  1.00  0.00     0.034 A 
HETATM   19  C40 UNL     1     -11.672  13.827  15.822  1.00  0.00     0.101 A 
HETATM   20  O9  UNL     1     -12.335  14.347  14.717  1.00  0.00    -0.302 OA
ENDROOT
BRANCH   2  21
HETATM   21  C6  UNL     1     -14.896  11.624  14.352  1.00  0.00     0.273 C 
HETATM   22  O3  UNL     1     -15.321  11.174  13.293  1.00  0.00    -0.301 OA
ENDBRANCH   2  21
BRANCH   1  23
HETATM   23  C3  UNL     1     -14.522  14.403  13.597  1.00  0.00     0.318 C 
HETATM   24  O2  UNL     1     -15.395  15.035  14.175  1.00  0.00    -0.257 OA
BRANCH  23  25
HETATM   25  O1  UNL     1     -14.371  14.249  12.260  1.00  0.00    -0.316 OA
BRANCH  25  26
HETATM   26  C2  UNL     1     -15.412  14.815  11.452  1.00  0.00     0.175 C 
HETATM   27  C1  UNL     1     -16.437  13.749  11.115  1.00  0.00     0.034 C 
ENDBRANCH  25  26
ENDBRANCH  23  25
ENDBRANCH   1  23
BRANCH  12  28
HETATM   28  O5  UNL     1     -11.328  10.630  17.654  1.00  0.00    -0.354 OA
HETATM   29  C24 UNL     1     -12.566  10.375  18.318  1.00  0.00     0.210 C 
ENDBRANCH  12  28
BRANCH   9  30
HETATM   30  C13 UNL     1      -8.962   8.046  15.289  1.00  0.00    -0.046 A 
HETATM   31  C14 UNL     1      -8.754   6.838  15.969  1.00  0.00     0.010 A 
HETATM   32  C15 UNL     1      -7.469   6.346  16.226  1.00  0.00     0.031 A 
HETATM   33  C16 UNL     1      -6.386   7.112  15.785  1.00  0.00     0.042 A 
HETATM   34  N1  UNL     1      -5.033   6.883  15.888  1.00  0.00    -0.365 N 
HETATM   35  C19 UNL     1      -6.544   8.323  15.116  1.00  0.00    -0.008 A 
HETATM   36  C17 UNL     1      -4.331   7.909  15.313  1.00  0.00     0.089 A 
HETATM   37  H14 UNL     1      -4.622   6.066  16.319  1.00  0.00     0.165 HD
HETATM   38  C18 UNL     1      -5.242   8.817  14.824  1.00  0.00     0.030 A 
HETATM   39  C20 UNL     1      -7.848   8.798  14.869  1.00  0.00     0.021 A 
ENDBRANCH   9  30
BRANCH  18  40
HETATM   40  C39 UNL     1     -10.945  16.193  16.404  1.00  0.00     0.208 C 
BRANCH  40  41
HETATM   41  O8  UNL     1     -10.329  16.453  15.146  1.00  0.00    -0.396 OA
HETATM   42  H44 UNL     1     -10.319  15.625  14.640  1.00  0.00     0.209 HD
ENDBRANCH  40  41
ENDBRANCH  18  40
BRANCH  16  43
HETATM   43  C28 UNL     1      -8.385  14.238  20.699  1.00  0.00     0.089 C 
HETATM   44  C29 UNL     1      -8.454  13.672  22.147  1.00  0.00     0.041 C 
HETATM   45  C30 UNL     1      -7.180  12.964  22.616  1.00  0.00     0.004 C 
HETATM   46  C31 UNL     1      -5.916  13.696  22.194  1.00  0.00     0.007 C 
HETATM   47  C32 UNL     1      -5.839  13.907  20.674  1.00  0.00     0.021 C 
HETATM   48  C33 UNL     1      -4.731  13.051  20.027  1.00  0.00     0.274 C 
HETATM   49  C36 UNL     1      -7.172  13.633  19.945  1.00  0.00     0.030 C 
HETATM   50  N2  UNL     1      -4.813  12.964  18.564  1.00  0.00     0.083 N 
HETATM   51  C34 UNL     1      -5.570  14.074  17.986  1.00  0.00     0.270 C 
HETATM   52  H34 UNL     1      -5.273  12.089  18.307  1.00  0.00     0.315 HD
HETATM   53  C35 UNL     1      -7.023  14.100  18.479  1.00  0.00     0.038 C 
BRANCH  43  54
HETATM   54  O7  UNL     1      -8.205  15.665  20.776  1.00  0.00    -0.387 OA
HETATM   55  H24 UNL     1      -7.535  15.856  21.456  1.00  0.00     0.210 HD
ENDBRANCH  43  54
ENDBRANCH  16  43
TORSDOF 10
ENDMDL
MODEL 5
REMARK minimizedAffinity -7.60139036
REMARK CNNscore 0.108276524
REMARK CNNaffinity 5.72881126
REMARK  10 active torsions:
REMARK  status: ('A' for Active; 'I' for Inactive)
REMARK    1  A    between atoms: C2_2  and  O1_3 
REMARK    2  A    between atoms: O1_3  and  C3_4 
REMARK    3  A    between atoms: C3_4  and  C4_6 
REMARK    4  A    between atoms: C5_7  and  C6_8 
REMARK    5  A    between atoms: C12_16  and  C13_17 
REMARK    6  A    between atoms: C23_28  and  O5_29 
REMARK    7  A    between atoms: C27_34  and  C28_35 
REMARK    8  A    between atoms: C28_35  and  O7_36 
REMARK    9  A    between atoms: C38_47  and  C39_48 
REMARK   10  A    between atoms: C39_48  and  O8_49 
ROOT
HETATM    1  C4  UNL     1     -14.377  12.748  14.549  1.00  0.00     0.165 C 
HETATM    2  C5  UNL     1     -14.138  12.977  15.858  1.00  0.00     0.053 C 
HETATM    3  C7  UNL     1     -13.772  11.796  16.651  1.00  0.00    -0.002 C 
HETATM    4  C8  UNL     1     -14.415  11.419  17.793  1.00  0.00    -0.066 C 
HETATM    5  C9  UNL     1     -15.436  12.297  18.514  1.00  0.00     0.042 C 
HETATM    6  C10 UNL     1     -16.034  11.667  19.771  1.00  0.00     0.083 C 
HETATM    7  C11 UNL     1     -14.904  11.132  20.623  1.00  0.00     0.136 C 
HETATM    8  O4  UNL     1     -14.776  11.479  21.797  1.00  0.00    -0.297 OA
HETATM    9  C12 UNL     1     -13.942  10.159  19.944  1.00  0.00     0.092 C 
HETATM   10  C21 UNL     1     -14.284  10.045  18.449  1.00  0.00     0.052 C 
HETATM   11  C22 UNL     1     -12.844  10.891  15.918  1.00  0.00     0.044 A 
HETATM   12  C23 UNL     1     -11.696  10.281  16.439  1.00  0.00     0.091 A 
HETATM   13  C25 UNL     1     -10.973   9.425  15.627  1.00  0.00     0.013 A 
HETATM   14  C26 UNL     1     -11.334   9.223  14.301  1.00  0.00     0.089 A 
HETATM   15  O6  UNL     1     -10.506   8.349  13.642  1.00  0.00    -0.341 OA
HETATM   16  C27 UNL     1      -9.383   8.155  14.546  1.00  0.00     0.168 C 
HETATM   17  C37 UNL     1      -9.811   8.569  15.965  1.00  0.00     0.080 C 
HETATM   18  C38 UNL     1     -12.419   9.857  13.715  1.00  0.00     0.034 A 
HETATM   19  C40 UNL     1     -13.146  10.729  14.540  1.00  0.00     0.101 A 
HETATM   20  O9  UNL     1     -14.151  11.494  13.961  1.00  0.00    -0.302 OA
ENDROOT
BRANCH   2  21
HETATM   21  C6  UNL     1     -14.043  14.364  16.381  1.00  0.00     0.273 C 
HETATM   22  O3  UNL     1     -13.105  14.760  17.065  1.00  0.00    -0.301 OA
ENDBRANCH   2  21
BRANCH   1  23
HETATM   23  C3  UNL     1     -14.925  13.809  13.670  1.00  0.00     0.318 C 
HETATM   24  O2  UNL     1     -16.041  14.290  13.797  1.00  0.00    -0.257 OA
BRANCH  23  25
HETATM   25  O1  UNL     1     -14.010  14.102  12.714  1.00  0.00    -0.316 OA
BRANCH  25  26
HETATM   26  C2  UNL     1     -12.695  14.409  13.192  1.00  0.00     0.175 C 
HETATM   27  C1  UNL     1     -11.955  15.242  12.162  1.00  0.00     0.034 C 
ENDBRANCH  25  26
ENDBRANCH  23  25
ENDBRANCH   1  23
BRANCH  12  28
HETATM   28  O5  UNL     1     -11.298  10.459  17.735  1.00  0.00    -0.354 OA
HETATM   29  C24 UNL     1     -10.543  11.664  17.861  1.00  0.00     0.210 C 
ENDBRANCH  12  28
BRANCH   9  30
HETATM   30  C13 UNL     1     -13.922   8.786  20.595  1.00  0.00    -0.046 A 
HETATM   31  C14 UNL     1     -14.531   7.704  19.943  1.00  0.00     0.010 A 
HETATM   32  C15 UNL     1     -14.564   6.425  20.510  1.00  0.00     0.031 A 
HETATM   33  C16 UNL     1     -13.972   6.259  21.765  1.00  0.00     0.042 A 
HETATM   34  N1  UNL     1     -13.849   5.136  22.551  1.00  0.00    -0.365 N 
HETATM   35  C19 UNL     1     -13.366   7.307  22.454  1.00  0.00    -0.008 A 
HETATM   36  C17 UNL     1     -13.192   5.439  23.714  1.00  0.00     0.089 A 
HETATM   37  H14 UNL     1     -14.188   4.219  22.295  1.00  0.00     0.165 HD
HETATM   38  C18 UNL     1     -12.879   6.778  23.682  1.00  0.00     0.030 A 
HETATM   39  C20 UNL     1     -13.345   8.587  21.864  1.00  0.00     0.021 A 
ENDBRANCH   9  30
BRANCH  18  40
HETATM   40  C39 UNL     1     -12.749   9.665  12.265  1.00  0.00     0.208 C 
BRANCH  40  41
HETATM   41  O8  UNL     1     -11.572   9.600  11.466  1.00  0.00    -0.396 OA
HETATM   42  H44 UNL     1     -10.817   9.446  12.057  1.00  0.00     0.209 HD
ENDBRANCH  40  41
ENDBRANCH  18  40
BRANCH  16  43
HETATM   43  C28 UNL     1      -8.842   6.700  14.448  1.00  0.00     0.089 C 
HETATM   44  C29 UNL     1      -9.580   5.901  13.335  1.00  0.00     0.041 C 
HETATM   45  C30 UNL     1      -8.674   4.998  12.493  1.00  0.00     0.004 C 
HETATM   46  C31 UNL     1      -7.635   4.268  13.329  1.00  0.00     0.007 C 
HETATM   47  C32 UNL     1      -6.760   5.229  14.147  1.00  0.00     0.021 C 
HETATM   48  C33 UNL     1      -5.306   5.269  13.631  1.00  0.00     0.274 C 
HETATM   49  C36 UNL     1      -7.310   6.670  14.203  1.00  0.00     0.030 C 
HETATM   50  N2  UNL     1      -4.511   6.386  14.154  1.00  0.00     0.083 N 
HETATM   51  C34 UNL     1      -5.054   6.911  15.407  1.00  0.00     0.270 C 
HETATM   52  H34 UNL     1      -4.499   7.139  13.465  1.00  0.00     0.315 HD
HETATM   53  C35 UNL     1      -6.475   7.465  15.233  1.00  0.00     0.038 C 
BRANCH  43  54
HETATM   54  O7  UNL     1      -9.111   6.073  15.715  1.00  0.00    -0.387 OA
HETATM   55  H24 UNL     1      -9.028   5.108  15.607  1.00  0.00     0.210 HD
ENDBRANCH  43  54
ENDBRANCH  16  43
TORSDOF 10
ENDMDL
MODEL 6
REMARK minimizedAffinity -7.34614754
REMARK CNNscore 0.101849623
REMARK CNNaffinity 5.0481205
REMARK  10 active torsions:
REMARK  status: ('A' for Active; 'I' for Inactive)
REMARK    1  A    between atoms: C2_2  and  O1_3 
REMARK    2  A    between atoms: O1_3  and  C3_4 
REMARK    3  A    between atoms: C3_4  and  C4_6 
REMARK    4  A    between atoms: C5_7  and  C6_8 
REMARK    5  A    between atoms: C12_16  and  C13_17 
REMARK    6  A    between atoms: C23_28  and  O5_29 
REMARK    7  A    between atoms: C27_34  and  C28_35 
REMARK    8  A    between atoms: C28_35  and  O7_36 
REMARK    9  A    between atoms: C38_47  and  C39_48 
REMARK   10  A    between atoms: C39_48  and  O8_49 
ROOT
HETATM    1  C4  UNL     1       7.044  11.628  18.986  1.00  0.00     0.165 C 
HETATM    2  C5  UNL     1       7.305  11.864  17.682  1.00  0.00     0.053 C 
HETATM    3  C7  UNL     1       6.309  11.353  16.733  1.00  0.00    -0.002 C 
HETATM    4  C8  UNL     1       6.610  10.537  15.682  1.00  0.00    -0.066 C 
HETATM    5  C9  UNL     1       8.038  10.245  15.225  1.00  0.00     0.042 C 
HETATM    6  C10 UNL     1       8.136   9.297  14.030  1.00  0.00     0.083 C 
HETATM    7  C11 UNL     1       7.183   9.778  12.957  1.00  0.00     0.136 C 
HETATM    8  O4  UNL     1       7.581  10.013  11.816  1.00  0.00    -0.297 OA
HETATM    9  C12 UNL     1       5.725   9.962  13.375  1.00  0.00     0.092 C 
HETATM   10  C21 UNL     1       5.583   9.730  14.888  1.00  0.00     0.052 C 
HETATM   11  C22 UNL     1       4.914  11.556  17.216  1.00  0.00     0.044 A 
HETATM   12  C23 UNL     1       3.835  12.027  16.458  1.00  0.00     0.091 A 
HETATM   13  C25 UNL     1       2.590  12.108  17.056  1.00  0.00     0.013 A 
HETATM   14  C26 UNL     1       2.420  11.795  18.399  1.00  0.00     0.089 A 
HETATM   15  O6  UNL     1       1.124  11.935  18.827  1.00  0.00    -0.341 OA
HETATM   16  C27 UNL     1       0.449  12.621  17.736  1.00  0.00     0.168 C 
HETATM   17  C37 UNL     1       1.279  12.449  16.452  1.00  0.00     0.080 C 
HETATM   18  C38 UNL     1       3.469  11.392  19.212  1.00  0.00     0.034 A 
HETATM   19  C40 UNL     1       4.730  11.317  18.603  1.00  0.00     0.101 A 
HETATM   20  O9  UNL     1       5.833  11.058  19.409  1.00  0.00    -0.302 OA
ENDROOT
BRANCH   2  21
HETATM   21  C6  UNL     1       8.411  12.772  17.283  1.00  0.00     0.273 C 
HETATM   22  O3  UNL     1       8.264  13.979  17.120  1.00  0.00    -0.301 OA
ENDBRANCH   2  21
BRANCH   1  23
HETATM   23  C3  UNL     1       8.043  11.930  20.039  1.00  0.00     0.318 C 
HETATM   24  O2  UNL     1       9.106  11.339  20.158  1.00  0.00    -0.257 OA
BRANCH  23  25
HETATM   25  O1  UNL     1       7.558  12.914  20.835  1.00  0.00    -0.316 OA
BRANCH  25  26
HETATM   26  C2  UNL     1       7.818  12.757  22.236  1.00  0.00     0.175 C 
HETATM   27  C1  UNL     1       6.642  12.071  22.903  1.00  0.00     0.034 C 
ENDBRANCH  25  26
ENDBRANCH  23  25
ENDBRANCH   1  23
BRANCH  12  28
HETATM   28  O5  UNL     1       3.958  12.356  15.136  1.00  0.00    -0.354 OA
HETATM   29  C24 UNL     1       2.772  12.002  14.425  1.00  0.00     0.210 C 
ENDBRANCH  12  28
BRANCH   9  30
HETATM   30  C13 UNL     1       4.766   9.071  12.603  1.00  0.00    -0.046 A 
HETATM   31  C14 UNL     1       3.395   9.364  12.610  1.00  0.00     0.010 A 
HETATM   32  C15 UNL     1       2.465   8.562  11.937  1.00  0.00     0.031 A 
HETATM   33  C16 UNL     1       2.952   7.441  11.259  1.00  0.00     0.042 A 
HETATM   34  N1  UNL     1       2.287   6.490  10.518  1.00  0.00    -0.365 N 
HETATM   35  C19 UNL     1       4.303   7.105  11.235  1.00  0.00    -0.008 A 
HETATM   36  C17 UNL     1       3.170   5.562  10.033  1.00  0.00     0.089 A 
HETATM   37  H14 UNL     1       1.290   6.488  10.352  1.00  0.00     0.165 HD
HETATM   38  C18 UNL     1       4.429   5.918  10.460  1.00  0.00     0.030 A 
HETATM   39  C20 UNL     1       5.221   7.927  11.919  1.00  0.00     0.021 A 
ENDBRANCH   9  30
BRANCH  18  40
HETATM   40  C39 UNL     1       3.266  11.117  20.672  1.00  0.00     0.208 C 
BRANCH  40  41
HETATM   41  O8  UNL     1       3.881   9.894  21.063  1.00  0.00    -0.396 OA
HETATM   42  H44 UNL     1       4.501   9.633  20.362  1.00  0.00     0.209 HD
ENDBRANCH  40  41
ENDBRANCH  18  40
BRANCH  16  43
HETATM   43  C28 UNL     1      -1.023  12.135  17.607  1.00  0.00     0.089 C 
HETATM   44  C29 UNL     1      -1.132  10.603  17.856  1.00  0.00     0.041 C 
HETATM   45  C30 UNL     1      -2.346  10.178  18.687  1.00  0.00     0.004 C 
HETATM   46  C31 UNL     1      -3.610  10.933  18.305  1.00  0.00     0.007 C 
HETATM   47  C32 UNL     1      -3.439  12.455  18.414  1.00  0.00     0.021 C 
HETATM   48  C33 UNL     1      -4.266  13.048  19.574  1.00  0.00     0.274 C 
HETATM   49  C36 UNL     1      -1.970  12.903  18.567  1.00  0.00     0.030 C 
HETATM   50  N2  UNL     1      -3.905  14.426  19.928  1.00  0.00     0.083 N 
HETATM   51  C34 UNL     1      -3.236  15.122  18.829  1.00  0.00     0.270 C 
HETATM   52  H34 UNL     1      -3.277  14.410  20.733  1.00  0.00     0.315 HD
HETATM   53  C35 UNL     1      -1.918  14.442  18.433  1.00  0.00     0.038 C 
BRANCH  43  54
HETATM   54  O7  UNL     1      -1.431  12.408  16.254  1.00  0.00    -0.387 OA
HETATM   55  H24 UNL     1      -2.235  11.893  16.063  1.00  0.00     0.210 HD
ENDBRANCH  43  54
ENDBRANCH  16  43
TORSDOF 10
ENDMDL
MODEL 7
REMARK minimizedAffinity -7.56280136
REMARK CNNscore 0.0872695521
REMARK CNNaffinity 5.52875853
REMARK  10 active torsions:
REMARK  status: ('A' for Active; 'I' for Inactive)
REMARK    1  A    between atoms: C2_2  and  O1_3 
REMARK    2  A    between atoms: O1_3  and  C3_4 
REMARK    3  A    between atoms: C3_4  and  C4_6 
REMARK    4  A    between atoms: C5_7  and  C6_8 
REMARK    5  A    between atoms: C12_16  and  C13_17 
REMARK    6  A    between atoms: C23_28  and  O5_29 
REMARK    7  A    between atoms: C27_34  and  C28_35 
REMARK    8  A    between atoms: C28_35  and  O7_36 
REMARK    9  A    between atoms: C38_47  and  C39_48 
REMARK   10  A    between atoms: C39_48  and  O8_49 
ROOT
HETATM    1  C4  UNL     1      -0.098   8.895  13.478  1.00  0.00     0.165 C 
HETATM    2  C5  UNL     1      -0.318   9.940  14.305  1.00  0.00     0.053 C 
HETATM    3  C7  UNL     1       0.689  10.142  15.354  1.00  0.00    -0.002 C 
HETATM    4  C8  UNL     1       0.395  10.230  16.683  1.00  0.00    -0.066 C 
HETATM    5  C9  UNL     1      -1.027  10.363  17.224  1.00  0.00     0.042 C 
HETATM    6  C10 UNL     1      -1.117  10.438  18.747  1.00  0.00     0.083 C 
HETATM    7  C11 UNL     1      -0.125  11.471  19.236  1.00  0.00     0.136 C 
HETATM    8  O4  UNL     1      -0.486  12.412  19.943  1.00  0.00    -0.297 OA
HETATM    9  C12 UNL     1       1.326  11.281  18.796  1.00  0.00     0.092 C 
HETATM   10  C21 UNL     1       1.422  10.107  17.808  1.00  0.00     0.052 C 
HETATM   11  C22 UNL     1       2.075   9.927  14.852  1.00  0.00     0.044 A 
HETATM   12  C23 UNL     1       3.186  10.740  15.110  1.00  0.00     0.091 A 
HETATM   13  C25 UNL     1       4.417  10.362  14.602  1.00  0.00     0.013 A 
HETATM   14  C26 UNL     1       4.543   9.237  13.797  1.00  0.00     0.089 A 
HETATM   15  O6  UNL     1       5.830   9.014  13.377  1.00  0.00    -0.341 OA
HETATM   16  C27 UNL     1       6.551  10.222  13.746  1.00  0.00     0.168 C 
HETATM   17  C37 UNL     1       5.751  10.967  14.829  1.00  0.00     0.080 C 
HETATM   18  C38 UNL     1       3.463   8.438  13.452  1.00  0.00     0.034 A 
HETATM   19  C40 UNL     1       2.216   8.829  13.964  1.00  0.00     0.101 A 
HETATM   20  O9  UNL     1       1.086   8.145  13.531  1.00  0.00    -0.302 OA
ENDROOT
BRANCH   2  21
HETATM   21  C6  UNL     1      -1.390  10.926  14.012  1.00  0.00     0.273 C 
HETATM   22  O3  UNL     1      -1.235  12.138  14.122  1.00  0.00    -0.301 OA
ENDBRANCH   2  21
BRANCH   1  23
HETATM   23  C3  UNL     1      -1.116   8.468  12.490  1.00  0.00     0.318 C 
HETATM   24  O2  UNL     1      -2.091   7.785  12.768  1.00  0.00    -0.257 OA
BRANCH  23  25
HETATM   25  O1  UNL     1      -0.757   8.922  11.264  1.00  0.00    -0.316 OA
BRANCH  25  26
HETATM   26  C2  UNL     1       0.001   8.005  10.465  1.00  0.00     0.175 C 
HETATM   27  C1  UNL     1       0.002   8.464   9.019  1.00  0.00     0.034 C 
ENDBRANCH  25  26
ENDBRANCH  23  25
ENDBRANCH   1  23
BRANCH  12  28
HETATM   28  O5  UNL     1       3.107  11.861  15.889  1.00  0.00    -0.354 OA
HETATM   29  C24 UNL     1       4.239  11.944  16.755  1.00  0.00     0.210 C 
ENDBRANCH  12  28
BRANCH   9  30
HETATM   30  C13 UNL     1       2.282  11.082  19.961  1.00  0.00    -0.046 A 
HETATM   31  C14 UNL     1       2.131   9.964  20.793  1.00  0.00     0.010 A 
HETATM   32  C15 UNL     1       2.967   9.745  21.894  1.00  0.00     0.031 A 
HETATM   33  C16 UNL     1       3.963  10.693  22.146  1.00  0.00     0.042 A 
HETATM   34  N1  UNL     1       4.919  10.738  23.135  1.00  0.00    -0.365 N 
HETATM   35  C19 UNL     1       4.142  11.824  21.354  1.00  0.00    -0.008 A 
HETATM   36  C17 UNL     1       5.691  11.862  22.999  1.00  0.00     0.089 A 
HETATM   37  H14 UNL     1       5.035  10.035  23.852  1.00  0.00     0.165 HD
HETATM   38  C18 UNL     1       5.234  12.554  21.901  1.00  0.00     0.030 A 
HETATM   39  C20 UNL     1       3.288  12.023  20.250  1.00  0.00     0.021 A 
ENDBRANCH   9  30
BRANCH  18  40
HETATM   40  C39 UNL     1       3.619   7.264  12.532  1.00  0.00     0.208 C 
BRANCH  40  41
HETATM   41  O8  UNL     1       4.306   7.626  11.338  1.00  0.00    -0.396 OA
HETATM   42  H44 UNL     1       4.737   8.483  11.488  1.00  0.00     0.209 HD
ENDBRANCH  40  41
ENDBRANCH  18  40
BRANCH  16  43
HETATM   43  C28 UNL     1       8.013   9.887  14.158  1.00  0.00     0.089 C 
HETATM   44  C29 UNL     1       8.244   8.349  14.206  1.00  0.00     0.041 C 
HETATM   45  C30 UNL     1       9.589   7.889  13.637  1.00  0.00     0.004 C 
HETATM   46  C31 UNL     1      10.738   8.798  14.044  1.00  0.00     0.007 C 
HETATM   47  C32 UNL     1      10.499  10.261  13.641  1.00  0.00     0.021 C 
HETATM   48  C33 UNL     1      11.453  10.713  12.516  1.00  0.00     0.274 C 
HETATM   49  C36 UNL     1       9.046  10.555  13.212  1.00  0.00     0.030 C 
HETATM   50  N2  UNL     1      11.071  11.977  11.873  1.00  0.00     0.083 N 
HETATM   51  C34 UNL     1      10.210  12.793  12.728  1.00  0.00     0.270 C 
HETATM   52  H34 UNL     1      10.570  11.773  11.008  1.00  0.00     0.315 HD
HETATM   53  C35 UNL     1       8.888  12.085  13.059  1.00  0.00     0.038 C 
BRANCH  43  54
HETATM   54  O7  UNL     1       8.201  10.418  15.483  1.00  0.00    -0.387 OA
HETATM   55  H24 UNL     1       8.996  10.011  15.870  1.00  0.00     0.210 HD
ENDBRANCH  43  54
ENDBRANCH  16  43
TORSDOF 10
ENDMDL
MODEL 8
REMARK minimizedAffinity -8.3539772
REMARK CNNscore 0.0825362653
REMARK CNNaffinity 5.10430765
REMARK  10 active torsions:
REMARK  status: ('A' for Active; 'I' for Inactive)
REMARK    1  A    between atoms: C2_2  and  O1_3 
REMARK    2  A    between atoms: O1_3  and  C3_4 
REMARK    3  A    between atoms: C3_4  and  C4_6 
REMARK    4  A    between atoms: C5_7  and  C6_8 
REMARK    5  A    between atoms: C12_16  and  C13_17 
REMARK    6  A    between atoms: C23_28  and  O5_29 
REMARK    7  A    between atoms: C27_34  and  C28_35 
REMARK    8  A    between atoms: C28_35  and  O7_36 
REMARK    9  A    between atoms: C38_47  and  C39_48 
REMARK   10  A    between atoms: C39_48  and  O8_49 
ROOT
HETATM    1  C4  UNL     1      11.050  11.308  12.577  1.00  0.00     0.165 C 
HETATM    2  C5  UNL     1      11.468  10.831  13.769  1.00  0.00     0.053 C 
HETATM    3  C7  UNL     1      10.450  10.785  14.825  1.00  0.00    -0.002 C 
HETATM    4  C8  UNL     1      10.603  11.357  16.054  1.00  0.00    -0.066 C 
HETATM    5  C9  UNL     1      11.931  11.911  16.564  1.00  0.00     0.042 C 
HETATM    6  C10 UNL     1      11.865  12.513  17.968  1.00  0.00     0.083 C 
HETATM    7  C11 UNL     1      11.166  11.528  18.880  1.00  0.00     0.136 C 
HETATM    8  O4  UNL     1      11.701  11.132  19.915  1.00  0.00    -0.297 OA
HETATM    9  C12 UNL     1       9.782  11.055  18.435  1.00  0.00     0.092 C 
HETATM   10  C21 UNL     1       9.463  11.614  17.039  1.00  0.00     0.052 C 
HETATM   11  C22 UNL     1       9.128  10.328  14.313  1.00  0.00     0.044 A 
HETATM   12  C23 UNL     1       8.278   9.397  14.924  1.00  0.00     0.091 A 
HETATM   13  C25 UNL     1       7.057   9.125  14.332  1.00  0.00     0.013 A 
HETATM   14  C26 UNL     1       6.703   9.708  13.123  1.00  0.00     0.089 A 
HETATM   15  O6  UNL     1       5.463   9.324  12.679  1.00  0.00    -0.341 OA
HETATM   16  C27 UNL     1       5.086   8.223  13.551  1.00  0.00     0.168 C 
HETATM   17  C37 UNL     1       5.939   8.289  14.831  1.00  0.00     0.080 C 
HETATM   18  C38 UNL     1       7.537  10.582  12.440  1.00  0.00     0.034 A 
HETATM   19  C40 UNL     1       8.776  10.850  13.040  1.00  0.00     0.101 A 
HETATM   20  O9  UNL     1       9.701  11.603  12.327  1.00  0.00    -0.302 OA
ENDROOT
BRANCH   2  21
HETATM   21  C6  UNL     1      12.806  10.200  13.906  1.00  0.00     0.273 C 
HETATM   22  O3  UNL     1      13.444   9.766  12.953  1.00  0.00    -0.301 OA
ENDBRANCH   2  21
BRANCH   1  23
HETATM   23  C3  UNL     1      12.007  11.576  11.476  1.00  0.00     0.318 C 
HETATM   24  O2  UNL     1      12.926  12.377  11.553  1.00  0.00    -0.257 OA
BRANCH  23  25
HETATM   25  O1  UNL     1      11.659  10.828  10.401  1.00  0.00    -0.316 OA
BRANCH  25  26
HETATM   26  C2  UNL     1      12.063  11.352   9.129  1.00  0.00     0.175 C 
HETATM   27  C1  UNL     1      10.995  11.064   8.091  1.00  0.00     0.034 C 
ENDBRANCH  25  26
ENDBRANCH  23  25
ENDBRANCH   1  23
BRANCH  12  28
HETATM   28  O5  UNL     1       8.589   8.791  16.110  1.00  0.00    -0.354 OA
HETATM   29  C24 UNL     1       9.348   7.604  15.876  1.00  0.00     0.210 C 
ENDBRANCH  12  28
BRANCH   9  30
HETATM   30  C13 UNL     1       8.684  11.415  19.422  1.00  0.00    -0.046 A 
HETATM   31  C14 UNL     1       7.344  11.183  19.077  1.00  0.00     0.010 A 
HETATM   32  C15 UNL     1       6.292  11.519  19.937  1.00  0.00     0.031 A 
HETATM   33  C16 UNL     1       6.622  12.110  21.160  1.00  0.00     0.042 A 
HETATM   34  N1  UNL     1       5.815  12.534  22.191  1.00  0.00    -0.365 N 
HETATM   35  C19 UNL     1       7.937  12.370  21.539  1.00  0.00    -0.008 A 
HETATM   36  C17 UNL     1       6.572  13.059  23.204  1.00  0.00     0.089 A 
HETATM   37  H14 UNL     1       4.806  12.458  22.197  1.00  0.00     0.165 HD
HETATM   38  C18 UNL     1       7.893  12.969  22.829  1.00  0.00     0.030 A 
HETATM   39  C20 UNL     1       8.980  12.022  20.657  1.00  0.00     0.021 A 
ENDBRANCH   9  30
BRANCH  18  40
HETATM   40  C39 UNL     1       7.153  11.150  11.107  1.00  0.00     0.208 C 
BRANCH  40  41
HETATM   41  O8  UNL     1       7.865  10.520  10.047  1.00  0.00    -0.396 OA
HETATM   42  H44 UNL     1       8.255   9.701  10.392  1.00  0.00     0.209 HD
ENDBRANCH  40  41
ENDBRANCH  18  40
BRANCH  16  43
HETATM   43  C28 UNL     1       3.553   8.227  13.813  1.00  0.00     0.089 C 
HETATM   44  C29 UNL     1       3.126   9.482  14.628  1.00  0.00     0.041 C 
HETATM   45  C30 UNL     1       1.819  10.129  14.163  1.00  0.00     0.004 C 
HETATM   46  C31 UNL     1       0.750   9.104  13.816  1.00  0.00     0.007 C 
HETATM   47  C32 UNL     1       1.221   8.105  12.747  1.00  0.00     0.021 C 
HETATM   48  C33 UNL     1       0.484   8.304  11.406  1.00  0.00     0.274 C 
HETATM   49  C36 UNL     1       2.742   8.145  12.493  1.00  0.00     0.030 C 
HETATM   50  N2  UNL     1       1.101   7.608  10.271  1.00  0.00     0.083 N 
HETATM   51  C34 UNL     1       1.941   6.490  10.699  1.00  0.00     0.270 C 
HETATM   52  H34 UNL     1       1.680   8.268   9.749  1.00  0.00     0.315 HD
HETATM   53  C35 UNL     1       3.109   6.951  11.582  1.00  0.00     0.038 C 
BRANCH  43  54
HETATM   54  O7  UNL     1       3.264   7.054  14.597  1.00  0.00    -0.387 OA
HETATM   55  H24 UNL     1       2.381   7.157  14.993  1.00  0.00     0.210 HD
ENDBRANCH  43  54
ENDBRANCH  16  43
TORSDOF 10
ENDMDL
MODEL 9
REMARK minimizedAffinity -7.7178278
REMARK CNNscore 0.0825230777
REMARK CNNaffinity 5.11784935
REMARK  10 active torsions:
REMARK  status: ('A' for Active; 'I' for Inactive)
REMARK    1  A    between atoms: C2_2  and  O1_3 
REMARK    2  A    between atoms: O1_3  and  C3_4 
REMARK    3  A    between atoms: C3_4  and  C4_6 
REMARK    4  A    between atoms: C5_7  and  C6_8 
REMARK    5  A    between atoms: C12_16  and  C13_17 
REMARK    6  A    between atoms: C23_28  and  O5_29 
REMARK    7  A    between atoms: C27_34  and  C28_35 
REMARK    8  A    between atoms: C28_35  and  O7_36 
REMARK    9  A    between atoms: C38_47  and  C39_48 
REMARK   10  A    between atoms: C39_48  and  O8_49 
ROOT
HETATM    1  C4  UNL     1      -0.382   9.269  13.690  1.00  0.00     0.165 C 
HETATM    2  C5  UNL     1      -0.494  10.315  14.538  1.00  0.00     0.053 C 
HETATM    3  C7  UNL     1       0.583  10.448  15.526  1.00  0.00    -0.002 C 
HETATM    4  C8  UNL     1       0.374  10.536  16.871  1.00  0.00    -0.066 C 
HETATM    5  C9  UNL     1      -1.004  10.742  17.497  1.00  0.00     0.042 C 
HETATM    6  C10 UNL     1      -1.001  10.805  19.024  1.00  0.00     0.083 C 
HETATM    7  C11 UNL     1       0.076  11.774  19.462  1.00  0.00     0.136 C 
HETATM    8  O4  UNL     1      -0.189  12.725  20.196  1.00  0.00    -0.297 OA
HETATM    9  C12 UNL     1       1.485  11.508  18.934  1.00  0.00     0.092 C 
HETATM   10  C21 UNL     1       1.456  10.342  17.932  1.00  0.00     0.052 C 
HETATM   11  C22 UNL     1       1.923  10.161  14.941  1.00  0.00     0.044 A 
HETATM   12  C23 UNL     1       3.091  10.907  15.140  1.00  0.00     0.091 A 
HETATM   13  C25 UNL     1       4.267  10.467  14.557  1.00  0.00     0.013 A 
HETATM   14  C26 UNL     1       4.281   9.347  13.735  1.00  0.00     0.089 A 
HETATM   15  O6  UNL     1       5.527   9.056  13.238  1.00  0.00    -0.341 OA
HETATM   16  C27 UNL     1       6.335  10.218  13.573  1.00  0.00     0.168 C 
HETATM   17  C37 UNL     1       5.644  10.994  14.709  1.00  0.00     0.080 C 
HETATM   18  C38 UNL     1       3.139   8.614  13.449  1.00  0.00     0.034 A 
HETATM   19  C40 UNL     1       1.949   9.067  14.037  1.00  0.00     0.101 A 
HETATM   20  O9  UNL     1       0.759   8.453  13.666  1.00  0.00    -0.302 OA
ENDROOT
BRANCH   2  21
HETATM   21  C6  UNL     1      -1.523  11.363  14.318  1.00  0.00     0.273 C 
HETATM   22  O3  UNL     1      -2.664  11.287  14.762  1.00  0.00    -0.301 OA
ENDBRANCH   2  21
BRANCH   1  23
HETATM   23  C3  UNL     1      -1.480   8.912  12.760  1.00  0.00     0.318 C 
HETATM   24  O2  UNL     1      -1.494   9.214  11.576  1.00  0.00    -0.257 OA
BRANCH  23  25
HETATM   25  O1  UNL     1      -2.442   8.253  13.450  1.00  0.00    -0.316 OA
BRANCH  25  26
HETATM   26  C2  UNL     1      -3.777   8.413  12.951  1.00  0.00     0.175 C 
HETATM   27  C1  UNL     1      -4.664   7.308  13.494  1.00  0.00     0.034 C 
ENDBRANCH  25  26
ENDBRANCH  23  25
ENDBRANCH   1  23
BRANCH  12  28
HETATM   28  O5  UNL     1       3.122  12.021  15.932  1.00  0.00    -0.354 OA
HETATM   29  C24 UNL     1       4.276  12.001  16.772  1.00  0.00     0.210 C 
ENDBRANCH  12  28
BRANCH   9  30
HETATM   30  C13 UNL     1       2.495  11.242  20.038  1.00  0.00    -0.046 A 
HETATM   31  C14 UNL     1       2.425  10.043  20.762  1.00  0.00     0.010 A 
HETATM   32  C15 UNL     1       3.314   9.757  21.805  1.00  0.00     0.031 A 
HETATM   33  C16 UNL     1       4.279  10.721  22.113  1.00  0.00     0.042 A 
HETATM   34  N1  UNL     1       5.271  10.716  23.066  1.00  0.00    -0.365 N 
HETATM   35  C19 UNL     1       4.378  11.930  21.429  1.00  0.00    -0.008 A 
HETATM   36  C17 UNL     1       5.990  11.881  23.012  1.00  0.00     0.089 A 
HETATM   37  H14 UNL     1       5.446   9.952  23.705  1.00  0.00     0.165 HD
HETATM   38  C18 UNL     1       5.459  12.654  22.005  1.00  0.00     0.030 A 
HETATM   39  C20 UNL     1       3.472  12.195  20.381  1.00  0.00     0.021 A 
ENDBRANCH   9  30
BRANCH  18  40
HETATM   40  C39 UNL     1       3.174   7.444  12.511  1.00  0.00     0.208 C 
BRANCH  40  41
HETATM   41  O8  UNL     1       2.334   6.387  12.964  1.00  0.00    -0.396 OA
HETATM   42  H44 UNL     1       1.737   6.747  13.640  1.00  0.00     0.209 HD
ENDBRANCH  40  41
ENDBRANCH  18  40
BRANCH  16  43
HETATM   43  C28 UNL     1       7.798   9.797  13.895  1.00  0.00     0.089 C 
HETATM   44  C29 UNL     1       8.753  10.143  12.716  1.00  0.00     0.041 C 
HETATM   45  C30 UNL     1      10.111  10.707  13.142  1.00  0.00     0.004 C 
HETATM   46  C31 UNL     1      10.694   9.983  14.346  1.00  0.00     0.007 C 
HETATM   47  C32 UNL     1       9.746   9.998  15.555  1.00  0.00     0.021 C 
HETATM   48  C33 UNL     1      10.282  10.883  16.699  1.00  0.00     0.274 C 
HETATM   49  C36 UNL     1       8.310  10.445  15.208  1.00  0.00     0.030 C 
HETATM   50  N2  UNL     1       9.291  11.193  17.737  1.00  0.00     0.083 N 
HETATM   51  C34 UNL     1       8.198  10.221  17.764  1.00  0.00     0.270 C 
HETATM   52  H34 UNL     1       8.899  12.118  17.558  1.00  0.00     0.315 HD
HETATM   53  C35 UNL     1       7.415  10.196  16.444  1.00  0.00     0.038 C 
BRANCH  43  54
HETATM   54  O7  UNL     1       7.788   8.367  14.069  1.00  0.00    -0.387 OA
HETATM   55  H24 UNL     1       8.704   8.042  14.012  1.00  0.00     0.210 HD
ENDBRANCH  43  54
ENDBRANCH  16  43
TORSDOF 10
ENDMDL
