MODEL 1
REMARK minimizedAffinity -9.06640625
REMARK  4 active torsions:
REMARK  status: ('A' for Active; 'I' for Inactive)
REMARK    1  A    between atoms: C12_13  and  C13_14 
REMARK    2  A    between atoms: C20_21  and  C21_22 
REMARK    3  A    between atoms: C21_22  and  C22_23 
REMARK    4  A    between atoms: C23_24  and  O2_25 
ROOT
HETATM    1  C1  UNL     1      -0.315   5.962  11.236  1.00  0.00     0.015 C 
HETATM    2  C2  UNL     1      -0.679   6.356  12.468  1.00  0.00    -0.084 C 
HETATM    3  C3  UNL     1       0.339   6.635  13.548  1.00  0.00     0.034 C 
HETATM    4  C4  UNL     1       0.145   8.015  14.182  1.00  0.00     0.010 C 
HETATM    5  C5  UNL     1      -1.322   8.271  14.598  1.00  0.00     0.006 C 
HETATM    6  C6  UNL     1      -2.317   8.060  13.400  1.00  0.00    -0.032 C 
HETATM    7  C7  UNL     1      -2.026   9.024  12.214  1.00  0.00     0.016 C 
HETATM    8  C8  UNL     1      -3.791   8.327  13.837  1.00  0.00     0.013 C 
HETATM    9  C9  UNL     1      -3.938   8.714  15.306  1.00  0.00     0.039 C 
HETATM   10  C10 UNL     1      -3.039   9.905  15.689  1.00  0.00     0.066 C 
HETATM   11  C11 UNL     1      -3.561  11.184  15.014  1.00  0.00     0.047 C 
HETATM   12  O1  UNL     1      -3.241  10.125  17.106  1.00  0.00    -0.371 OA
HETATM   13  C12 UNL     1      -2.002  10.038  17.813  1.00  0.00     0.146 C 
HETATM   14  C17 UNL     1      -1.042   9.301  16.899  1.00  0.00     0.048 C 
HETATM   15  C18 UNL     1      -1.527   9.579  15.458  1.00  0.00    -0.006 C 
HETATM   16  C19 UNL     1      -0.710  10.773  14.916  1.00  0.00     0.019 C 
HETATM   17  C20 UNL     1      -2.142   6.580  12.852  1.00  0.00     0.027 C 
ENDROOT
BRANCH  17  18
HETATM   18  C21 UNL     1      -2.628   5.451  13.814  1.00  0.00     0.057 C 
BRANCH  18  19
HETATM   19  C22 UNL     1      -3.593   4.485  13.159  1.00  0.00     0.052 A 
HETATM   20  C23 UNL     1      -4.925   4.555  13.315  1.00  0.00     0.086 A 
HETATM   21  C24 UNL     1      -5.835   3.617  12.676  1.00  0.00     0.001 A 
HETATM   22  C25 UNL     1      -7.304   3.683  13.001  1.00  0.00     0.054 C 
HETATM   23  C26 UNL     1      -5.302   2.697  11.849  1.00  0.00     0.061 A 
HETATM   24  C27 UNL     1      -6.046   1.671  11.050  1.00  0.00     0.077 C 
HETATM   25  O3  UNL     1      -3.902   2.612  11.651  1.00  0.00    -0.279 OA
HETATM   26  C28 UNL     1      -3.018   3.410  12.318  1.00  0.00     0.297 A 
HETATM   27  O4  UNL     1      -1.808   3.238  12.214  1.00  0.00    -0.259 OA
BRANCH  20  28
HETATM   28  O2  UNL     1      -5.467   5.564  14.091  1.00  0.00    -0.359 OA
HETATM   29  H34 UNL     1      -6.397   5.701  13.854  1.00  0.00     0.217 HD
ENDBRANCH  20  28
ENDBRANCH  18  19
ENDBRANCH  17  18
BRANCH  13  30
HETATM   30  C13 UNL     1      -1.571  11.427  18.197  1.00  0.00     0.007 C 
HETATM   31  C14 UNL     1      -0.653  11.764  19.125  1.00  0.00    -0.089 C 
HETATM   32  C15 UNL     1       0.142  10.779  19.935  1.00  0.00     0.042 C 
HETATM   33  C16 UNL     1      -0.348  13.209  19.420  1.00  0.00     0.042 C 
ENDBRANCH  13  30
TORSDOF 4
ENDMDL
MODEL 2
REMARK minimizedAffinity -8.93416405
REMARK  4 active torsions:
REMARK  status: ('A' for Active; 'I' for Inactive)
REMARK    1  A    between atoms: C12_13  and  C13_14 
REMARK    2  A    between atoms: C20_21  and  C21_22 
REMARK    3  A    between atoms: C21_22  and  C22_23 
REMARK    4  A    between atoms: C23_24  and  O2_25 
ROOT
HETATM    1  C1  UNL     1      -0.177   3.238  11.759  1.00  0.00     0.015 C 
HETATM    2  C2  UNL     1      -1.001   4.296  11.847  1.00  0.00    -0.084 C 
HETATM    3  C3  UNL     1      -2.474   4.186  11.532  1.00  0.00     0.034 C 
HETATM    4  C4  UNL     1      -3.350   4.729  12.664  1.00  0.00     0.010 C 
HETATM    5  C5  UNL     1      -2.896   6.129  13.140  1.00  0.00     0.006 C 
HETATM    6  C6  UNL     1      -1.379   6.145  13.549  1.00  0.00    -0.032 C 
HETATM    7  C7  UNL     1      -1.070   5.166  14.717  1.00  0.00     0.016 C 
HETATM    8  C8  UNL     1      -0.939   7.563  14.030  1.00  0.00     0.013 C 
HETATM    9  C9  UNL     1      -2.056   8.602  13.988  1.00  0.00     0.039 C 
HETATM   10  C10 UNL     1      -3.313   8.140  14.749  1.00  0.00     0.066 C 
HETATM   11  C11 UNL     1      -3.022   8.112  16.258  1.00  0.00     0.047 C 
HETATM   12  O1  UNL     1      -4.296   9.189  14.581  1.00  0.00    -0.371 OA
HETATM   13  C12 UNL     1      -5.489   8.676  13.983  1.00  0.00     0.146 C 
HETATM   14  C17 UNL     1      -5.105   7.358  13.336  1.00  0.00     0.048 C 
HETATM   15  C18 UNL     1      -3.899   6.824  14.142  1.00  0.00    -0.006 C 
HETATM   16  C19 UNL     1      -4.447   5.841  15.200  1.00  0.00     0.019 C 
HETATM   17  C20 UNL     1      -0.514   5.672  12.303  1.00  0.00     0.027 C 
ENDROOT
BRANCH  17  18
HETATM   18  C21 UNL     1      -0.484   6.662  11.097  1.00  0.00     0.057 C 
BRANCH  18  19
HETATM   19  C22 UNL     1       0.916   7.101  10.722  1.00  0.00     0.052 A 
HETATM   20  C23 UNL     1       1.217   7.670   9.543  1.00  0.00     0.086 A 
HETATM   21  C24 UNL     1       2.569   8.086   9.201  1.00  0.00     0.001 A 
HETATM   22  C25 UNL     1       2.850   8.599   7.814  1.00  0.00     0.054 C 
HETATM   23  C26 UNL     1       3.521   7.946  10.144  1.00  0.00     0.061 A 
HETATM   24  C27 UNL     1       4.959   8.351  10.034  1.00  0.00     0.077 C 
HETATM   25  O3  UNL     1       3.227   7.367  11.403  1.00  0.00    -0.279 OA
HETATM   26  C28 UNL     1       1.993   6.873  11.712  1.00  0.00     0.297 A 
HETATM   27  O4  UNL     1       1.797   6.273  12.764  1.00  0.00    -0.259 OA
BRANCH  20  28
HETATM   28  O2  UNL     1       0.212   7.896   8.620  1.00  0.00    -0.359 OA
HETATM   29  H34 UNL     1       0.486   8.584   7.994  1.00  0.00     0.217 HD
ENDBRANCH  20  28
ENDBRANCH  18  19
ENDBRANCH  17  18
BRANCH  13  30
HETATM   30  C13 UNL     1      -6.551   8.576  15.042  1.00  0.00     0.007 C 
HETATM   31  C14 UNL     1      -7.616   7.749  15.049  1.00  0.00    -0.089 C 
HETATM   32  C15 UNL     1      -7.912   6.733  13.981  1.00  0.00     0.042 C 
HETATM   33  C16 UNL     1      -8.616   7.786  16.174  1.00  0.00     0.042 C 
ENDBRANCH  13  30
TORSDOF 4
ENDMDL
MODEL 3
REMARK minimizedAffinity -8.86702156
REMARK  4 active torsions:
REMARK  status: ('A' for Active; 'I' for Inactive)
REMARK    1  A    between atoms: C12_13  and  C13_14 
REMARK    2  A    between atoms: C20_21  and  C21_22 
REMARK    3  A    between atoms: C21_22  and  C22_23 
REMARK    4  A    between atoms: C23_24  and  O2_25 
ROOT
HETATM    1  C1  UNL     1      -0.683   5.891  11.647  1.00  0.00     0.015 C 
HETATM    2  C2  UNL     1      -0.979   6.387  12.860  1.00  0.00    -0.084 C 
HETATM    3  C3  UNL     1       0.079   6.578  13.921  1.00  0.00     0.034 C 
HETATM    4  C4  UNL     1       0.076   7.999  14.490  1.00  0.00     0.010 C 
HETATM    5  C5  UNL     1      -1.340   8.467  14.900  1.00  0.00     0.006 C 
HETATM    6  C6  UNL     1      -2.366   8.336  13.718  1.00  0.00    -0.032 C 
HETATM    7  C7  UNL     1      -1.962   9.196  12.486  1.00  0.00     0.016 C 
HETATM    8  C8  UNL     1      -3.786   8.816  14.148  1.00  0.00     0.013 C 
HETATM    9  C9  UNL     1      -3.866   9.288  15.597  1.00  0.00     0.039 C 
HETATM   10  C10 UNL     1      -2.812  10.364  15.920  1.00  0.00     0.066 C 
HETATM   11  C11 UNL     1      -3.166  11.669  15.187  1.00  0.00     0.047 C 
HETATM   12  O1  UNL     1      -2.968  10.675  17.325  1.00  0.00    -0.371 OA
HETATM   13  C12 UNL     1      -1.744  10.456  18.031  1.00  0.00     0.146 C 
HETATM   14  C17 UNL     1      -0.901   9.556  17.149  1.00  0.00     0.048 C 
HETATM   15  C18 UNL     1      -1.360   9.830  15.698  1.00  0.00    -0.006 C 
HETATM   16  C19 UNL     1      -0.397  10.877  15.096  1.00  0.00     0.019 C 
HETATM   17  C20 UNL     1      -2.395   6.822  13.239  1.00  0.00     0.027 C 
ENDROOT
BRANCH  17  18
HETATM   18  C21 UNL     1      -3.017   5.813  14.256  1.00  0.00     0.057 C 
BRANCH  18  19
HETATM   19  C22 UNL     1      -4.310   5.195  13.766  1.00  0.00     0.052 A 
HETATM   20  C23 UNL     1      -4.365   4.295  12.771  1.00  0.00     0.086 A 
HETATM   21  C24 UNL     1      -5.617   3.711  12.316  1.00  0.00     0.001 A 
HETATM   22  C25 UNL     1      -5.611   2.806  11.113  1.00  0.00     0.054 C 
HETATM   23  C26 UNL     1      -6.740   4.052  12.978  1.00  0.00     0.061 A 
HETATM   24  C27 UNL     1      -8.125   3.540  12.720  1.00  0.00     0.077 C 
HETATM   25  O3  UNL     1      -6.708   4.985  14.044  1.00  0.00    -0.279 OA
HETATM   26  C28 UNL     1      -5.565   5.626  14.423  1.00  0.00     0.297 A 
HETATM   27  O4  UNL     1      -5.588   6.513  15.270  1.00  0.00    -0.259 OA
BRANCH  20  28
HETATM   28  O2  UNL     1      -3.193   3.880  12.163  1.00  0.00    -0.359 OA
HETATM   29  H34 UNL     1      -3.331   3.026  11.726  1.00  0.00     0.217 HD
ENDBRANCH  20  28
ENDBRANCH  18  19
ENDBRANCH  17  18
BRANCH  13  30
HETATM   30  C13 UNL     1      -1.129  11.791  18.346  1.00  0.00     0.007 C 
HETATM   31  C14 UNL     1      -0.184  12.051  19.273  1.00  0.00    -0.089 C 
HETATM   32  C15 UNL     1       0.456  11.012  20.151  1.00  0.00     0.042 C 
HETATM   33  C16 UNL     1       0.315  13.454  19.494  1.00  0.00     0.042 C 
ENDBRANCH  13  30
TORSDOF 4
ENDMDL
MODEL 4
REMARK minimizedAffinity -8.65875816
REMARK  4 active torsions:
REMARK  status: ('A' for Active; 'I' for Inactive)
REMARK    1  A    between atoms: C12_13  and  C13_14 
REMARK    2  A    between atoms: C20_21  and  C21_22 
REMARK    3  A    between atoms: C21_22  and  C22_23 
REMARK    4  A    between atoms: C23_24  and  O2_25 
ROOT
HETATM    1  C1  UNL     1      -0.239   5.247  11.242  1.00  0.00     0.015 C 
HETATM    2  C2  UNL     1      -0.421   5.837  12.436  1.00  0.00    -0.084 C 
HETATM    3  C3  UNL     1       0.698   5.958  13.443  1.00  0.00     0.034 C 
HETATM    4  C4  UNL     1       0.886   7.397  13.928  1.00  0.00     0.010 C 
HETATM    5  C5  UNL     1      -0.446   8.051  14.365  1.00  0.00     0.006 C 
HETATM    6  C6  UNL     1      -1.532   7.979  13.232  1.00  0.00    -0.032 C 
HETATM    7  C7  UNL     1      -1.087   8.719  11.939  1.00  0.00     0.016 C 
HETATM    8  C8  UNL     1      -2.867   8.646  13.688  1.00  0.00     0.013 C 
HETATM    9  C9  UNL     1      -2.826   9.199  15.110  1.00  0.00     0.039 C 
HETATM   10  C10 UNL     1      -1.642  10.159  15.330  1.00  0.00     0.066 C 
HETATM   11  C11 UNL     1      -1.874  11.456  14.537  1.00  0.00     0.047 C 
HETATM   12  O1  UNL     1      -1.697  10.559  16.720  1.00  0.00    -0.371 OA
HETATM   13  C12 UNL     1      -0.477  10.235  17.389  1.00  0.00     0.146 C 
HETATM   14  C17 UNL     1       0.216   9.196  16.529  1.00  0.00     0.048 C 
HETATM   15  C18 UNL     1      -0.272   9.446  15.083  1.00  0.00    -0.006 C 
HETATM   16  C19 UNL     1       0.778  10.339  14.386  1.00  0.00     0.019 C 
HETATM   17  C20 UNL     1      -1.758   6.456  12.843  1.00  0.00     0.027 C 
ENDROOT
BRANCH  17  18
HETATM   18  C21 UNL     1      -2.447   5.583  13.939  1.00  0.00     0.057 C 
BRANCH  18  19
HETATM   19  C22 UNL     1      -3.810   5.070  13.522  1.00  0.00     0.052 A 
HETATM   20  C23 UNL     1      -3.985   4.124  12.586  1.00  0.00     0.086 A 
HETATM   21  C24 UNL     1      -5.303   3.643  12.201  1.00  0.00     0.001 A 
HETATM   22  C25 UNL     1      -5.425   2.673  11.055  1.00  0.00     0.054 C 
HETATM   23  C26 UNL     1      -6.365   4.133  12.871  1.00  0.00     0.061 A 
HETATM   24  C27 UNL     1      -7.801   3.747  12.681  1.00  0.00     0.077 C 
HETATM   25  O3  UNL     1      -6.207   5.118  13.876  1.00  0.00    -0.279 OA
HETATM   26  C28 UNL     1      -4.995   5.662  14.185  1.00  0.00     0.297 A 
HETATM   27  O4  UNL     1      -4.903   6.595  14.977  1.00  0.00    -0.259 OA
BRANCH  20  28
HETATM   28  O2  UNL     1      -2.881   3.560  11.973  1.00  0.00    -0.359 OA
HETATM   29  H34 UNL     1      -3.116   2.699  11.593  1.00  0.00     0.217 HD
ENDBRANCH  20  28
ENDBRANCH  18  19
ENDBRANCH  17  18
BRANCH  13  30
HETATM   30  C13 UNL     1       0.303  11.502  17.604  1.00  0.00     0.007 C 
HETATM   31  C14 UNL     1       0.757  11.987  18.778  1.00  0.00    -0.089 C 
HETATM   32  C15 UNL     1       0.582  11.306  20.106  1.00  0.00     0.042 C 
HETATM   33  C16 UNL     1       1.502  13.294  18.837  1.00  0.00     0.042 C 
ENDBRANCH  13  30
TORSDOF 4
ENDMDL
MODEL 5
REMARK minimizedAffinity -8.57476425
REMARK  4 active torsions:
REMARK  status: ('A' for Active; 'I' for Inactive)
REMARK    1  A    between atoms: C12_13  and  C13_14 
REMARK    2  A    between atoms: C20_21  and  C21_22 
REMARK    3  A    between atoms: C21_22  and  C22_23 
REMARK    4  A    between atoms: C23_24  and  O2_25 
ROOT
HETATM    1  C1  UNL     1      -1.372   5.398  12.160  1.00  0.00     0.015 C 
HETATM    2  C2  UNL     1      -1.540   6.670  12.558  1.00  0.00    -0.084 C 
HETATM    3  C3  UNL     1      -2.908   7.232  12.869  1.00  0.00     0.034 C 
HETATM    4  C4  UNL     1      -2.961   7.889  14.251  1.00  0.00     0.010 C 
HETATM    5  C5  UNL     1      -1.792   8.875  14.481  1.00  0.00     0.006 C 
HETATM    6  C6  UNL     1      -0.396   8.196  14.238  1.00  0.00    -0.032 C 
HETATM    7  C7  UNL     1      -0.148   6.995  15.195  1.00  0.00     0.016 C 
HETATM    8  C8  UNL     1       0.771   9.203  14.478  1.00  0.00     0.013 C 
HETATM    9  C9  UNL     1       0.307  10.601  14.876  1.00  0.00     0.039 C 
HETATM   10  C10 UNL     1      -0.643  10.578  16.089  1.00  0.00     0.066 C 
HETATM   11  C11 UNL     1       0.140  10.179  17.350  1.00  0.00     0.047 C 
HETATM   12  O1  UNL     1      -1.041  11.951  16.318  1.00  0.00    -0.371 OA
HETATM   13  C12 UNL     1      -2.463  12.083  16.263  1.00  0.00     0.146 C 
HETATM   14  C17 UNL     1      -2.975  10.854  15.538  1.00  0.00     0.048 C 
HETATM   15  C18 UNL     1      -1.931   9.742  15.792  1.00  0.00    -0.006 C 
HETATM   16  C19 UNL     1      -2.424   8.910  16.997  1.00  0.00     0.019 C 
HETATM   17  C20 UNL     1      -0.363   7.625  12.756  1.00  0.00     0.027 C 
ENDROOT
BRANCH  17  18
HETATM   18  C21 UNL     1      -0.343   8.702  11.627  1.00  0.00     0.057 C 
BRANCH  18  19
HETATM   19  C22 UNL     1       0.358   8.233  10.368  1.00  0.00     0.052 A 
HETATM   20  C23 UNL     1       1.471   7.483  10.382  1.00  0.00     0.086 A 
HETATM   21  C24 UNL     1       2.129   7.042   9.162  1.00  0.00     0.001 A 
HETATM   22  C25 UNL     1       3.442   6.310   9.259  1.00  0.00     0.054 C 
HETATM   23  C26 UNL     1       1.542   7.355   7.990  1.00  0.00     0.061 A 
HETATM   24  C27 UNL     1       2.010   6.965   6.620  1.00  0.00     0.077 C 
HETATM   25  O3  UNL     1       0.357   8.129   7.947  1.00  0.00    -0.279 OA
HETATM   26  C28 UNL     1      -0.223   8.644   9.069  1.00  0.00     0.297 A 
HETATM   27  O4  UNL     1      -1.181   9.407   8.993  1.00  0.00    -0.259 OA
BRANCH  20  28
HETATM   28  O2  UNL     1       2.010   7.087  11.593  1.00  0.00    -0.359 OA
HETATM   29  H34 UNL     1       2.575   6.309  11.466  1.00  0.00     0.217 HD
ENDBRANCH  20  28
ENDBRANCH  18  19
ENDBRANCH  17  18
BRANCH  13  30
HETATM   30  C13 UNL     1      -2.982  12.254  17.664  1.00  0.00     0.007 C 
HETATM   31  C14 UNL     1      -4.159  12.798  18.033  1.00  0.00    -0.089 C 
HETATM   32  C15 UNL     1      -5.198  13.311  17.075  1.00  0.00     0.042 C 
HETATM   33  C16 UNL     1      -4.529  12.927  19.487  1.00  0.00     0.042 C 
ENDBRANCH  13  30
TORSDOF 4
ENDMDL
MODEL 6
REMARK minimizedAffinity -8.54617691
REMARK  4 active torsions:
REMARK  status: ('A' for Active; 'I' for Inactive)
REMARK    1  A    between atoms: C12_13  and  C13_14 
REMARK    2  A    between atoms: C20_21  and  C21_22 
REMARK    3  A    between atoms: C21_22  and  C22_23 
REMARK    4  A    between atoms: C23_24  and  O2_25 
ROOT
HETATM    1  C1  UNL     1      -3.107   4.862  12.275  1.00  0.00     0.015 C 
HETATM    2  C2  UNL     1      -3.201   5.555  13.423  1.00  0.00    -0.084 C 
HETATM    3  C3  UNL     1      -2.142   5.464  14.496  1.00  0.00     0.034 C 
HETATM    4  C4  UNL     1      -1.632   6.843  14.922  1.00  0.00     0.010 C 
HETATM    5  C5  UNL     1      -2.783   7.828  15.234  1.00  0.00     0.006 C 
HETATM    6  C6  UNL     1      -3.791   7.949  14.035  1.00  0.00    -0.032 C 
HETATM    7  C7  UNL     1      -3.108   8.474  12.739  1.00  0.00     0.016 C 
HETATM    8  C8  UNL     1      -4.942   8.949  14.365  1.00  0.00     0.013 C 
HETATM    9  C9  UNL     1      -4.843   9.567  15.757  1.00  0.00     0.039 C 
HETATM   10  C10 UNL     1      -3.471  10.222  16.009  1.00  0.00     0.066 C 
HETATM   11  C11 UNL     1      -3.334  11.482  15.139  1.00  0.00     0.047 C 
HETATM   12  O1  UNL     1      -3.501  10.713  17.370  1.00  0.00    -0.371 OA
HETATM   13  C12 UNL     1      -2.436  10.145  18.136  1.00  0.00     0.146 C 
HETATM   14  C17 UNL     1      -1.975   8.916  17.378  1.00  0.00     0.048 C 
HETATM   15  C18 UNL     1      -2.309   9.182  15.892  1.00  0.00    -0.006 C 
HETATM   16  C19 UNL     1      -1.035   9.746  15.224  1.00  0.00     0.019 C 
HETATM   17  C20 UNL     1      -4.365   6.505  13.707  1.00  0.00     0.027 C 
ENDROOT
BRANCH  17  18
HETATM   18  C21 UNL     1      -5.305   5.899  14.795  1.00  0.00     0.057 C 
BRANCH  18  19
HETATM   19  C22 UNL     1      -6.770   6.195  14.549  1.00  0.00     0.052 A 
HETATM   20  C23 UNL     1      -7.532   6.898  15.403  1.00  0.00     0.086 A 
HETATM   21  C24 UNL     1      -8.938   7.172  15.148  1.00  0.00     0.001 A 
HETATM   22  C25 UNL     1      -9.757   7.857  16.210  1.00  0.00     0.054 C 
HETATM   23  C26 UNL     1      -9.451   6.753  13.974  1.00  0.00     0.061 A 
HETATM   24  C27 UNL     1     -10.849   6.968  13.479  1.00  0.00     0.077 C 
HETATM   25  O3  UNL     1      -8.665   6.026  13.047  1.00  0.00    -0.279 OA
HETATM   26  C28 UNL     1      -7.375   5.664  13.306  1.00  0.00     0.297 A 
HETATM   27  O4  UNL     1      -6.755   4.936  12.537  1.00  0.00    -0.259 OA
BRANCH  20  28
HETATM   28  O2  UNL     1      -6.968   7.405  16.559  1.00  0.00    -0.359 OA
HETATM   29  H34 UNL     1      -7.504   8.141  16.895  1.00  0.00     0.217 HD
ENDBRANCH  20  28
ENDBRANCH  18  19
ENDBRANCH  17  18
BRANCH  13  30
HETATM   30  C13 UNL     1      -1.380  11.197  18.340  1.00  0.00     0.007 C 
HETATM   31  C14 UNL     1      -1.572  12.476  18.720  1.00  0.00    -0.089 C 
HETATM   32  C15 UNL     1      -2.911  13.077  19.045  1.00  0.00     0.042 C 
HETATM   33  C16 UNL     1      -0.410  13.425  18.854  1.00  0.00     0.042 C 
ENDBRANCH  13  30
TORSDOF 4
ENDMDL
MODEL 7
REMARK minimizedAffinity -8.49813843
REMARK  4 active torsions:
REMARK  status: ('A' for Active; 'I' for Inactive)
REMARK    1  A    between atoms: C12_13  and  C13_14 
REMARK    2  A    between atoms: C20_21  and  C21_22 
REMARK    3  A    between atoms: C21_22  and  C22_23 
REMARK    4  A    between atoms: C23_24  and  O2_25 
ROOT
HETATM    1  C1  UNL     1       2.610   7.766  14.558  1.00  0.00     0.015 C 
HETATM    2  C2  UNL     1       1.465   7.438  13.936  1.00  0.00    -0.084 C 
HETATM    3  C3  UNL     1       1.090   6.000  13.665  1.00  0.00     0.034 C 
HETATM    4  C4  UNL     1      -0.311   5.661  14.180  1.00  0.00     0.010 C 
HETATM    5  C5  UNL     1      -1.370   6.697  13.736  1.00  0.00     0.006 C 
HETATM    6  C6  UNL     1      -0.963   8.160  14.140  1.00  0.00    -0.032 C 
HETATM    7  C7  UNL     1      -0.809   8.328  15.678  1.00  0.00     0.016 C 
HETATM    8  C8  UNL     1      -2.043   9.191  13.687  1.00  0.00     0.013 C 
HETATM    9  C9  UNL     1      -3.227   8.564  12.957  1.00  0.00     0.039 C 
HETATM   10  C10 UNL     1      -3.875   7.424  13.765  1.00  0.00     0.066 C 
HETATM   11  C11 UNL     1      -4.590   8.006  14.996  1.00  0.00     0.047 C 
HETATM   12  O1  UNL     1      -4.937   6.893  12.937  1.00  0.00    -0.371 OA
HETATM   13  C12 UNL     1      -4.747   5.496  12.704  1.00  0.00     0.146 C 
HETATM   14  C17 UNL     1      -3.291   5.208  13.014  1.00  0.00     0.048 C 
HETATM   15  C18 UNL     1      -2.857   6.271  14.048  1.00  0.00    -0.006 C 
HETATM   16  C19 UNL     1      -3.005   5.642  15.451  1.00  0.00     0.019 C 
HETATM   17  C20 UNL     1       0.449   8.491  13.491  1.00  0.00     0.027 C 
ENDROOT
BRANCH  17  18
HETATM   18  C21 UNL     1       0.454   8.624  11.936  1.00  0.00     0.057 C 
BRANCH  18  19
HETATM   19  C22 UNL     1       1.402   7.658  11.258  1.00  0.00     0.052 A 
HETATM   20  C23 UNL     1       2.725   7.866  11.167  1.00  0.00     0.086 A 
HETATM   21  C24 UNL     1       3.620   6.925  10.512  1.00  0.00     0.001 A 
HETATM   22  C25 UNL     1       5.071   7.289  10.339  1.00  0.00     0.054 C 
HETATM   23  C26 UNL     1       3.086   5.778  10.048  1.00  0.00     0.061 A 
HETATM   24  C27 UNL     1       3.819   4.649   9.389  1.00  0.00     0.077 C 
HETATM   25  O3  UNL     1       1.696   5.524  10.147  1.00  0.00    -0.279 OA
HETATM   26  C28 UNL     1       0.819   6.434  10.661  1.00  0.00     0.297 A 
HETATM   27  O4  UNL     1      -0.391   6.235  10.630  1.00  0.00    -0.259 OA
BRANCH  20  28
HETATM   28  O2  UNL     1       3.275   9.003  11.733  1.00  0.00    -0.359 OA
HETATM   29  H34 UNL     1       4.223   8.869  11.891  1.00  0.00     0.217 HD
ENDBRANCH  20  28
ENDBRANCH  18  19
ENDBRANCH  17  18
BRANCH  13  30
HETATM   30  C13 UNL     1      -5.736   4.733  13.541  1.00  0.00     0.007 C 
HETATM   31  C14 UNL     1      -7.067   4.642  13.343  1.00  0.00    -0.089 C 
HETATM   32  C15 UNL     1      -7.805   5.282  12.201  1.00  0.00     0.042 C 
HETATM   33  C16 UNL     1      -7.937   3.858  14.291  1.00  0.00     0.042 C 
ENDBRANCH  13  30
TORSDOF 4
ENDMDL
MODEL 8
REMARK minimizedAffinity -8.21528339
REMARK  4 active torsions:
REMARK  status: ('A' for Active; 'I' for Inactive)
REMARK    1  A    between atoms: C12_13  and  C13_14 
REMARK    2  A    between atoms: C20_21  and  C21_22 
REMARK    3  A    between atoms: C21_22  and  C22_23 
REMARK    4  A    between atoms: C23_24  and  O2_25 
ROOT
HETATM    1  C1  UNL     1      -0.299   8.456  10.927  1.00  0.00     0.015 C 
HETATM    2  C2  UNL     1       0.826   7.923  11.434  1.00  0.00    -0.084 C 
HETATM    3  C3  UNL     1       1.999   7.558  10.555  1.00  0.00     0.034 C 
HETATM    4  C4  UNL     1       3.308   8.175  11.054  1.00  0.00     0.010 C 
HETATM    5  C5  UNL     1       3.535   7.934  12.565  1.00  0.00     0.006 C 
HETATM    6  C6  UNL     1       2.319   8.430  13.427  1.00  0.00    -0.032 C 
HETATM    7  C7  UNL     1       2.060   9.955  13.263  1.00  0.00     0.016 C 
HETATM    8  C8  UNL     1       2.566   8.183  14.947  1.00  0.00     0.013 C 
HETATM    9  C9  UNL     1       3.905   7.517  15.254  1.00  0.00     0.039 C 
HETATM   10  C10 UNL     1       5.091   8.276  14.631  1.00  0.00     0.066 C 
HETATM   11  C11 UNL     1       5.282   9.620  15.354  1.00  0.00     0.047 C 
HETATM   12  O1  UNL     1       6.277   7.511  14.954  1.00  0.00    -0.371 OA
HETATM   13  C12 UNL     1       6.975   7.132  13.766  1.00  0.00     0.146 C 
HETATM   14  C17 UNL     1       5.982   7.269  12.628  1.00  0.00     0.048 C 
HETATM   15  C18 UNL     1       4.971   8.350  13.074  1.00  0.00    -0.006 C 
HETATM   16  C19 UNL     1       5.437   9.696  12.477  1.00  0.00     0.019 C 
HETATM   17  C20 UNL     1       1.009   7.679  12.932  1.00  0.00     0.027 C 
ENDROOT
BRANCH  17  18
HETATM   18  C21 UNL     1       0.959   6.151  13.242  1.00  0.00     0.057 C 
BRANCH  18  19
HETATM   19  C22 UNL     1      -0.415   5.546  13.041  1.00  0.00     0.052 A 
HETATM   20  C23 UNL     1      -0.743   4.805  11.969  1.00  0.00     0.086 A 
HETATM   21  C24 UNL     1      -2.068   4.232  11.795  1.00  0.00     0.001 A 
HETATM   22  C25 UNL     1      -2.397   3.521  10.509  1.00  0.00     0.054 C 
HETATM   23  C26 UNL     1      -2.959   4.408  12.790  1.00  0.00     0.061 A 
HETATM   24  C27 UNL     1      -4.356   3.868  12.850  1.00  0.00     0.077 C 
HETATM   25  O3  UNL     1      -2.633   5.169  13.940  1.00  0.00    -0.279 OA
HETATM   26  C28 UNL     1      -1.435   5.805  14.082  1.00  0.00     0.297 A 
HETATM   27  O4  UNL     1      -1.223   6.551  15.033  1.00  0.00    -0.259 OA
BRANCH  20  28
HETATM   28  O2  UNL     1       0.211   4.551  11.000  1.00  0.00    -0.359 OA
HETATM   29  H34 UNL     1      -0.038   3.766  10.488  1.00  0.00     0.217 HD
ENDBRANCH  20  28
ENDBRANCH  18  19
ENDBRANCH  17  18
BRANCH  13  30
HETATM   30  C13 UNL     1       8.205   7.987  13.641  1.00  0.00     0.007 C 
HETATM   31  C14 UNL     1       9.102   8.266  14.608  1.00  0.00    -0.089 C 
HETATM   32  C15 UNL     1       9.039   7.726  16.010  1.00  0.00     0.042 C 
HETATM   33  C16 UNL     1      10.276   9.170  14.336  1.00  0.00     0.042 C 
ENDBRANCH  13  30
TORSDOF 4
ENDMDL
MODEL 9
REMARK minimizedAffinity -8.11249065
REMARK  4 active torsions:
REMARK  status: ('A' for Active; 'I' for Inactive)
REMARK    1  A    between atoms: C12_13  and  C13_14 
REMARK    2  A    between atoms: C20_21  and  C21_22 
REMARK    3  A    between atoms: C21_22  and  C22_23 
REMARK    4  A    between atoms: C23_24  and  O2_25 
ROOT
HETATM    1  C1  UNL     1       0.610   6.715  13.520  1.00  0.00     0.015 C 
HETATM    2  C2  UNL     1      -0.179   7.220  14.483  1.00  0.00    -0.084 C 
HETATM    3  C3  UNL     1       0.367   7.608  15.837  1.00  0.00     0.034 C 
HETATM    4  C4  UNL     1      -0.014   9.040  16.224  1.00  0.00     0.010 C 
HETATM    5  C5  UNL     1      -1.523   9.321  16.033  1.00  0.00     0.006 C 
HETATM    6  C6  UNL     1      -2.001   8.989  14.574  1.00  0.00    -0.032 C 
HETATM    7  C7  UNL     1      -1.261   9.840  13.502  1.00  0.00     0.016 C 
HETATM    8  C8  UNL     1      -3.523   9.282  14.398  1.00  0.00     0.013 C 
HETATM    9  C9  UNL     1      -4.200   9.804  15.662  1.00  0.00     0.039 C 
HETATM   10  C10 UNL     1      -3.479  11.034  16.246  1.00  0.00     0.066 C 
HETATM   11  C11 UNL     1      -3.675  12.239  15.312  1.00  0.00     0.047 C 
HETATM   12  O1  UNL     1      -4.191  11.384  17.457  1.00  0.00    -0.371 OA
HETATM   13  C12 UNL     1      -3.311  11.375  18.583  1.00  0.00     0.146 C 
HETATM   14  C17 UNL     1      -2.099  10.564  18.168  1.00  0.00     0.048 C 
HETATM   15  C18 UNL     1      -2.000  10.701  16.631  1.00  0.00    -0.006 C 
HETATM   16  C19 UNL     1      -1.007  11.846  16.330  1.00  0.00     0.019 C 
HETATM   17  C20 UNL     1      -1.673   7.466  14.267  1.00  0.00     0.027 C 
ENDROOT
BRANCH  17  18
HETATM   18  C21 UNL     1      -2.515   6.428  15.073  1.00  0.00     0.057 C 
BRANCH  18  19
HETATM   19  C22 UNL     1      -3.524   5.688  14.221  1.00  0.00     0.052 A 
HETATM   20  C23 UNL     1      -3.178   4.861  13.220  1.00  0.00     0.086 A 
HETATM   21  C24 UNL     1      -4.163   4.159  12.413  1.00  0.00     0.001 A 
HETATM   22  C25 UNL     1      -3.701   3.350  11.230  1.00  0.00     0.054 C 
HETATM   23  C26 UNL     1      -5.461   4.308  12.745  1.00  0.00     0.061 A 
HETATM   24  C27 UNL     1      -6.635   3.645  12.092  1.00  0.00     0.077 C 
HETATM   25  O3  UNL     1      -5.853   5.158  13.808  1.00  0.00    -0.279 OA
HETATM   26  C28 UNL     1      -4.959   5.910  14.513  1.00  0.00     0.297 A 
HETATM   27  O4  UNL     1      -5.338   6.724  15.349  1.00  0.00    -0.259 OA
BRANCH  20  28
HETATM   28  O2  UNL     1      -1.839   4.642  12.952  1.00  0.00    -0.359 OA
HETATM   29  H34 UNL     1      -1.730   3.810  12.465  1.00  0.00     0.217 HD
ENDBRANCH  20  28
ENDBRANCH  18  19
ENDBRANCH  17  18
BRANCH  13  30
HETATM   30  C13 UNL     1      -3.018  12.797  18.973  1.00  0.00     0.007 C 
HETATM   31  C14 UNL     1      -3.832  13.639  19.643  1.00  0.00    -0.089 C 
HETATM   32  C15 UNL     1      -5.198  13.276  20.155  1.00  0.00     0.042 C 
HETATM   33  C16 UNL     1      -3.407  15.053  19.937  1.00  0.00     0.042 C 
ENDBRANCH  13  30
TORSDOF 4
ENDMDL
