MODEL 1
REMARK minimizedAffinity -7.72947693
REMARK CNNscore 0.876451552
REMARK CNNaffinity 6.26802635
REMARK  8 active torsions:
REMARK  status: ('A' for Active; 'I' for Inactive)
REMARK    1  A    between atoms: C2_2  and  C30_35 
REMARK    2  A    between atoms: C3_3  and  C4_4 
REMARK    3  A    between atoms: C4_4  and  O1_5 
REMARK    4  A    between atoms: C4_4  and  C5_6 
REMARK    5  A    between atoms: C5_6  and  C6_7 
REMARK    6  A    between atoms: C6_7  and  C8_9 
REMARK    7  A    between atoms: C29_33  and  O5_34 
REMARK    8  A    between atoms: C30_35  and  O7_37 
ROOT
HETATM    1  C8  UNL     1       5.695  55.895  -7.635  1.00  0.00     0.006 C 
HETATM    2  C9  UNL     1       6.435  54.734  -8.348  1.00  0.00     0.085 C 
HETATM    3  C10 UNL     1       5.370  54.144  -9.251  1.00  0.00     0.140 C 
HETATM    4  O2  UNL     1       5.586  53.229 -10.039  1.00  0.00    -0.297 OA
HETATM    5  C11 UNL     1       4.033  54.885  -9.111  1.00  0.00     0.051 C 
HETATM    6  C12 UNL     1       4.093  55.941 -10.254  1.00  0.00     0.029 C 
HETATM    7  C13 UNL     1       2.678  54.204  -9.225  1.00  0.00    -0.024 C 
HETATM    8  C14 UNL     1       1.570  54.839  -8.757  1.00  0.00     0.003 C 
HETATM    9  C15 UNL     1       1.760  56.107  -7.931  1.00  0.00     0.157 C 
HETATM   10  O3  UNL     1       0.801  56.822  -7.640  1.00  0.00    -0.293 OA
HETATM   11  C16 UNL     1       3.151  56.524  -7.451  1.00  0.00     0.094 C 
HETATM   12  C17 UNL     1       4.203  55.430  -7.647  1.00  0.00    -0.015 C 
HETATM   13  C18 UNL     1       3.963  54.331  -6.568  1.00  0.00     0.018 C 
HETATM   14  C19 UNL     1       0.128  54.331  -9.002  1.00  0.00    -0.008 C 
HETATM   15  C20 UNL     1      -0.385  53.785  -7.650  1.00  0.00     0.021 C 
HETATM   16  C21 UNL     1      -0.818  55.485  -9.473  1.00  0.00     0.022 C 
HETATM   17  C22 UNL     1      -1.958  55.084 -10.405  1.00  0.00     0.080 C 
HETATM   18  C23 UNL     1      -2.364  53.645 -10.218  1.00  0.00     0.135 C 
HETATM   19  O4  UNL     1      -3.532  53.345  -9.974  1.00  0.00    -0.297 OA
HETATM   20  C24 UNL     1      -1.272  52.596 -10.441  1.00  0.00     0.018 C 
HETATM   21  C25 UNL     1      -1.581  51.338  -9.607  1.00  0.00     0.023 C 
HETATM   22  C26 UNL     1      -1.349  52.191 -11.929  1.00  0.00     0.023 C 
HETATM   23  C27 UNL     1       0.127  53.244 -10.143  1.00  0.00     0.016 C 
HETATM   24  C28 UNL     1       1.235  52.215  -9.916  1.00  0.00     0.043 C 
HETATM   25  C29 UNL     1       2.617  52.867  -9.919  1.00  0.00     0.149 C 
ENDROOT
BRANCH   1  26
HETATM   26  C6  UNL     1       6.425  56.387  -6.343  1.00  0.00    -0.011 C 
HETATM   27  C7  UNL     1       6.196  57.851  -5.951  1.00  0.00     0.010 C 
BRANCH  26  28
HETATM   28  C5  UNL     1       7.933  56.033  -6.383  1.00  0.00     0.040 C 
BRANCH  28  29
HETATM   29  C4  UNL     1       8.568  55.442  -5.109  1.00  0.00     0.142 C 
BRANCH  29  30
HETATM   30  C3  UNL     1      10.021  55.759  -4.912  1.00  0.00     0.018 C 
HETATM   31  C2  UNL     1      10.573  56.990  -4.843  1.00  0.00     0.010 C 
HETATM   32  C1  UNL     1       9.832  58.290  -4.918  1.00  0.00     0.055 C 
BRANCH  31  33
HETATM   33  C30 UNL     1      12.046  57.042  -4.656  1.00  0.00     0.171 C 
HETATM   34  O6  UNL     1      12.669  57.879  -4.026  1.00  0.00    -0.646 OA
BRANCH  33  35
HETATM   35  O7  UNL     1      12.676  56.033  -5.280  1.00  0.00    -0.773 OA
HETATM   36  H42 UNL     1      13.621  56.187  -5.073  1.00  0.00     0.167 HD
ENDBRANCH  33  35
ENDBRANCH  31  33
ENDBRANCH  29  30
BRANCH  29  37
HETATM   37  O1  UNL     1       7.834  55.850  -3.960  1.00  0.00    -0.392 OA
HETATM   38  H6  UNL     1       8.117  56.744  -3.711  1.00  0.00     0.210 HD
ENDBRANCH  29  37
ENDBRANCH  28  29
ENDBRANCH  26  28
ENDBRANCH   1  26
BRANCH  25  39
HETATM   39  O5  UNL     1       3.470  51.956  -9.236  1.00  0.00    -0.391 OA
HETATM   40  H41 UNL     1       4.331  51.975  -9.709  1.00  0.00     0.210 HD
ENDBRANCH  25  39
TORSDOF 8
ENDMDL
MODEL 2
REMARK minimizedAffinity -8.3925705
REMARK CNNscore 0.808828771
REMARK CNNaffinity 6.29075241
REMARK  8 active torsions:
REMARK  status: ('A' for Active; 'I' for Inactive)
REMARK    1  A    between atoms: C2_2  and  C30_35 
REMARK    2  A    between atoms: C3_3  and  C4_4 
REMARK    3  A    between atoms: C4_4  and  O1_5 
REMARK    4  A    between atoms: C4_4  and  C5_6 
REMARK    5  A    between atoms: C5_6  and  C6_7 
REMARK    6  A    between atoms: C6_7  and  C8_9 
REMARK    7  A    between atoms: C29_33  and  O5_34 
REMARK    8  A    between atoms: C30_35  and  O7_37 
ROOT
HETATM    1  C8  UNL     1     -12.956  45.666 -27.543  1.00  0.00     0.006 C 
HETATM    2  C9  UNL     1     -13.247  44.428 -28.430  1.00  0.00     0.085 C 
HETATM    3  C10 UNL     1     -11.936  44.204 -29.158  1.00  0.00     0.140 C 
HETATM    4  O2  UNL     1     -11.741  43.263 -29.919  1.00  0.00    -0.297 OA
HETATM    5  C11 UNL     1     -10.880  45.244 -28.757  1.00  0.00     0.051 C 
HETATM    6  C12 UNL     1     -10.102  44.534 -27.611  1.00  0.00     0.029 C 
HETATM    7  C13 UNL     1      -9.833  45.790 -29.715  1.00  0.00    -0.024 C 
HETATM    8  C14 UNL     1      -9.169  46.934 -29.398  1.00  0.00     0.003 C 
HETATM    9  C15 UNL     1      -9.662  47.746 -28.205  1.00  0.00     0.157 C 
HETATM   10  O3  UNL     1      -8.998  48.683 -27.760  1.00  0.00    -0.293 OA
HETATM   11  C16 UNL     1     -10.993  47.412 -27.531  1.00  0.00     0.094 C 
HETATM   12  C17 UNL     1     -11.835  46.417 -28.332  1.00  0.00    -0.015 C 
HETATM   13  C18 UNL     1     -12.439  47.171 -29.556  1.00  0.00     0.018 C 
HETATM   14  C19 UNL     1      -7.951  47.463 -30.194  1.00  0.00    -0.008 C 
HETATM   15  C20 UNL     1      -8.438  48.708 -30.972  1.00  0.00     0.021 C 
HETATM   16  C21 UNL     1      -6.780  47.884 -29.247  1.00  0.00     0.022 C 
HETATM   17  C22 UNL     1      -5.369  47.721 -29.805  1.00  0.00     0.080 C 
HETATM   18  C23 UNL     1      -5.343  47.794 -31.310  1.00  0.00     0.135 C 
HETATM   19  O4  UNL     1      -4.612  48.596 -31.891  1.00  0.00    -0.297 OA
HETATM   20  C24 UNL     1      -6.195  46.764 -32.056  1.00  0.00     0.018 C 
HETATM   21  C25 UNL     1      -6.614  47.331 -33.426  1.00  0.00     0.023 C 
HETATM   22  C26 UNL     1      -5.280  45.548 -32.323  1.00  0.00     0.023 C 
HETATM   23  C27 UNL     1      -7.392  46.331 -31.138  1.00  0.00     0.016 C 
HETATM   24  C28 UNL     1      -8.528  45.651 -31.905  1.00  0.00     0.043 C 
HETATM   25  C29 UNL     1      -9.529  44.991 -30.958  1.00  0.00     0.149 C 
ENDROOT
BRANCH   1  26
HETATM   26  C6  UNL     1     -14.252  46.369 -27.024  1.00  0.00    -0.011 C 
HETATM   27  C7  UNL     1     -14.184  46.961 -25.612  1.00  0.00     0.010 C 
BRANCH  26  28
HETATM   28  C5  UNL     1     -15.494  45.459 -27.205  1.00  0.00     0.040 C 
BRANCH  28  29
HETATM   29  C4  UNL     1     -16.019  44.703 -25.969  1.00  0.00     0.142 C 
BRANCH  29  30
HETATM   30  C3  UNL     1     -17.206  45.328 -25.295  1.00  0.00     0.018 C 
HETATM   31  C2  UNL     1     -18.468  45.374 -25.770  1.00  0.00     0.010 C 
HETATM   32  C1  UNL     1     -18.944  44.780 -27.061  1.00  0.00     0.055 C 
BRANCH  31  33
HETATM   33  C30 UNL     1     -19.468  46.065 -24.916  1.00  0.00     0.171 C 
HETATM   34  O6  UNL     1     -20.387  45.544 -24.307  1.00  0.00    -0.646 OA
BRANCH  33  35
HETATM   35  O7  UNL     1     -19.271  47.393 -24.870  1.00  0.00    -0.773 OA
HETATM   36  H42 UNL     1     -19.986  47.712 -24.281  1.00  0.00     0.167 HD
ENDBRANCH  33  35
ENDBRANCH  31  33
ENDBRANCH  29  30
BRANCH  29  37
HETATM   37  O1  UNL     1     -16.324  43.356 -26.311  1.00  0.00    -0.392 OA
HETATM   38  H6  UNL     1     -17.201  43.330 -26.726  1.00  0.00     0.210 HD
ENDBRANCH  29  37
ENDBRANCH  28  29
ENDBRANCH  26  28
ENDBRANCH   1  26
BRANCH  25  39
HETATM   39  O5  UNL     1     -10.726  44.843 -31.711  1.00  0.00    -0.391 OA
HETATM   40  H41 UNL     1     -11.112  43.978 -31.451  1.00  0.00     0.210 HD
ENDBRANCH  25  39
TORSDOF 8
ENDMDL
MODEL 3
REMARK minimizedAffinity -9.94202232
REMARK CNNscore 0.685441732
REMARK CNNaffinity 6.93735266
REMARK  8 active torsions:
REMARK  status: ('A' for Active; 'I' for Inactive)
REMARK    1  A    between atoms: C2_2  and  C30_35 
REMARK    2  A    between atoms: C3_3  and  C4_4 
REMARK    3  A    between atoms: C4_4  and  O1_5 
REMARK    4  A    between atoms: C4_4  and  C5_6 
REMARK    5  A    between atoms: C5_6  and  C6_7 
REMARK    6  A    between atoms: C6_7  and  C8_9 
REMARK    7  A    between atoms: C29_33  and  O5_34 
REMARK    8  A    between atoms: C30_35  and  O7_37 
ROOT
HETATM    1  C8  UNL     1      -0.951  49.522 -18.143  1.00  0.00     0.006 C 
HETATM    2  C9  UNL     1      -2.214  48.623 -18.180  1.00  0.00     0.085 C 
HETATM    3  C10 UNL     1      -2.483  48.460 -19.663  1.00  0.00     0.140 C 
HETATM    4  O2  UNL     1      -3.379  47.751 -20.110  1.00  0.00    -0.297 OA
HETATM    5  C11 UNL     1      -1.454  49.217 -20.513  1.00  0.00     0.051 C 
HETATM    6  C12 UNL     1      -0.382  48.131 -20.821  1.00  0.00     0.029 C 
HETATM    7  C13 UNL     1      -1.786  49.883 -21.840  1.00  0.00    -0.024 C 
HETATM    8  C14 UNL     1      -0.932  50.808 -22.355  1.00  0.00     0.003 C 
HETATM    9  C15 UNL     1       0.207  51.308 -21.473  1.00  0.00     0.157 C 
HETATM   10  O3  UNL     1       1.113  51.999 -21.941  1.00  0.00    -0.293 OA
HETATM   11  C16 UNL     1       0.254  50.956 -19.985  1.00  0.00     0.094 C 
HETATM   12  C17 UNL     1      -1.046  50.328 -19.479  1.00  0.00    -0.015 C 
HETATM   13  C18 UNL     1      -2.114  51.457 -19.362  1.00  0.00     0.018 C 
HETATM   14  C19 UNL     1      -1.068  51.393 -23.782  1.00  0.00    -0.008 C 
HETATM   15  C20 UNL     1      -1.550  52.853 -23.617  1.00  0.00     0.021 C 
HETATM   16  C21 UNL     1       0.302  51.395 -24.538  1.00  0.00     0.022 C 
HETATM   17  C22 UNL     1       0.235  51.231 -26.054  1.00  0.00     0.080 C 
HETATM   18  C23 UNL     1      -1.074  51.718 -26.620  1.00  0.00     0.135 C 
HETATM   19  O4  UNL     1      -1.101  52.558 -27.517  1.00  0.00    -0.297 OA
HETATM   20  C24 UNL     1      -2.339  51.041 -26.084  1.00  0.00     0.018 C 
HETATM   21  C25 UNL     1      -3.531  52.012 -26.190  1.00  0.00     0.023 C 
HETATM   22  C26 UNL     1      -2.632  49.851 -27.023  1.00  0.00     0.023 C 
HETATM   23  C27 UNL     1      -2.060  50.513 -24.633  1.00  0.00     0.016 C 
HETATM   24  C28 UNL     1      -3.334  50.209 -23.843  1.00  0.00     0.043 C 
HETATM   25  C29 UNL     1      -3.030  49.432 -22.563  1.00  0.00     0.149 C 
ENDROOT
BRANCH   1  26
HETATM   26  C6  UNL     1      -0.718  50.198 -16.754  1.00  0.00    -0.011 C 
HETATM   27  C7  UNL     1      -1.935  50.874 -16.114  1.00  0.00     0.010 C 
BRANCH  26  28
HETATM   28  C5  UNL     1       0.509  51.145 -16.792  1.00  0.00     0.040 C 
BRANCH  28  29
HETATM   29  C4  UNL     1       0.883  51.891 -15.496  1.00  0.00     0.142 C 
BRANCH  29  30
HETATM   30  C3  UNL     1       1.860  51.178 -14.607  1.00  0.00     0.018 C 
HETATM   31  C2  UNL     1       3.206  51.221 -14.694  1.00  0.00     0.010 C 
HETATM   32  C1  UNL     1       3.998  52.021 -15.684  1.00  0.00     0.055 C 
BRANCH  31  33
HETATM   33  C30 UNL     1       3.957  50.411 -13.701  1.00  0.00     0.171 C 
HETATM   34  O6  UNL     1       4.879  49.648 -13.933  1.00  0.00    -0.646 OA
BRANCH  33  35
HETATM   35  O7  UNL     1       3.508  50.595 -12.448  1.00  0.00    -0.773 OA
HETATM   36  H42 UNL     1       4.085  50.015 -11.908  1.00  0.00     0.167 HD
ENDBRANCH  33  35
ENDBRANCH  31  33
ENDBRANCH  29  30
BRANCH  29  37
HETATM   37  O1  UNL     1       1.382  53.188 -15.803  1.00  0.00    -0.392 OA
HETATM   38  H6  UNL     1       2.317  53.111 -16.053  1.00  0.00     0.210 HD
ENDBRANCH  29  37
ENDBRANCH  28  29
ENDBRANCH  26  28
ENDBRANCH   1  26
BRANCH  25  39
HETATM   39  O5  UNL     1      -4.153  49.640 -21.715  1.00  0.00    -0.391 OA
HETATM   40  H41 UNL     1      -4.314  48.788 -21.254  1.00  0.00     0.210 HD
ENDBRANCH  25  39
TORSDOF 8
ENDMDL
MODEL 4
REMARK minimizedAffinity -9.45620632
REMARK CNNscore 0.661181509
REMARK CNNaffinity 6.67442656
REMARK  8 active torsions:
REMARK  status: ('A' for Active; 'I' for Inactive)
REMARK    1  A    between atoms: C2_2  and  C30_35 
REMARK    2  A    between atoms: C3_3  and  C4_4 
REMARK    3  A    between atoms: C4_4  and  O1_5 
REMARK    4  A    between atoms: C4_4  and  C5_6 
REMARK    5  A    between atoms: C5_6  and  C6_7 
REMARK    6  A    between atoms: C6_7  and  C8_9 
REMARK    7  A    between atoms: C29_33  and  O5_34 
REMARK    8  A    between atoms: C30_35  and  O7_37 
ROOT
HETATM    1  C8  UNL     1      -2.681  50.363 -21.927  1.00  0.00     0.006 C 
HETATM    2  C9  UNL     1      -1.943  51.637 -22.414  1.00  0.00     0.085 C 
HETATM    3  C10 UNL     1      -0.829  51.804 -21.401  1.00  0.00     0.140 C 
HETATM    4  O2  UNL     1       0.027  52.679 -21.480  1.00  0.00    -0.297 OA
HETATM    5  C11 UNL     1      -0.864  50.704 -20.331  1.00  0.00     0.051 C 
HETATM    6  C12 UNL     1       0.117  49.633 -20.892  1.00  0.00     0.029 C 
HETATM    7  C13 UNL     1      -0.471  50.929 -18.879  1.00  0.00    -0.024 C 
HETATM    8  C14 UNL     1      -0.849  50.024 -17.937  1.00  0.00     0.003 C 
HETATM    9  C15 UNL     1      -1.845  48.941 -18.336  1.00  0.00     0.157 C 
HETATM   10  O3  UNL     1      -2.081  47.992 -17.587  1.00  0.00    -0.293 OA
HETATM   11  C16 UNL     1      -2.570  49.005 -19.680  1.00  0.00     0.094 C 
HETATM   12  C17 UNL     1      -2.394  50.349 -20.390  1.00  0.00    -0.015 C 
HETATM   13  C18 UNL     1      -3.281  51.401 -19.658  1.00  0.00     0.018 C 
HETATM   14  C19 UNL     1      -0.335  50.048 -16.476  1.00  0.00    -0.008 C 
HETATM   15  C20 UNL     1      -1.520  50.514 -15.598  1.00  0.00     0.021 C 
HETATM   16  C21 UNL     1       0.121  48.629 -16.001  1.00  0.00     0.022 C 
HETATM   17  C22 UNL     1       1.251  48.592 -14.976  1.00  0.00     0.080 C 
HETATM   18  C23 UNL     1       1.306  49.849 -14.147  1.00  0.00     0.135 C 
HETATM   19  O4  UNL     1       1.274  49.797 -12.918  1.00  0.00    -0.297 OA
HETATM   20  C24 UNL     1       1.497  51.161 -14.913  1.00  0.00     0.018 C 
HETATM   21  C25 UNL     1       0.881  52.324 -14.112  1.00  0.00     0.023 C 
HETATM   22  C26 UNL     1       3.020  51.409 -14.985  1.00  0.00     0.023 C 
HETATM   23  C27 UNL     1       0.921  50.994 -16.363  1.00  0.00     0.016 C 
HETATM   24  C28 UNL     1       0.665  52.326 -17.070  1.00  0.00     0.043 C 
HETATM   25  C29 UNL     1       0.387  52.127 -18.559  1.00  0.00     0.149 C 
ENDROOT
BRANCH   1  26
HETATM   26  C6  UNL     1      -4.117  50.215 -22.528  1.00  0.00    -0.011 C 
HETATM   27  C7  UNL     1      -5.284  50.490 -21.574  1.00  0.00     0.010 C 
BRANCH  26  28
HETATM   28  C5  UNL     1      -4.280  48.858 -23.258  1.00  0.00     0.040 C 
BRANCH  28  29
HETATM   29  C4  UNL     1      -5.620  48.578 -23.967  1.00  0.00     0.142 C 
BRANCH  29  30
HETATM   30  C3  UNL     1      -5.541  48.462 -25.461  1.00  0.00     0.018 C 
HETATM   31  C2  UNL     1      -4.416  48.438 -26.207  1.00  0.00     0.010 C 
HETATM   32  C1  UNL     1      -3.013  48.490 -25.683  1.00  0.00     0.055 C 
BRANCH  31  33
HETATM   33  C30 UNL     1      -4.603  48.330 -27.677  1.00  0.00     0.171 C 
HETATM   34  O6  UNL     1      -3.728  48.168 -28.510  1.00  0.00    -0.646 OA
BRANCH  33  35
HETATM   35  O7  UNL     1      -5.892  48.438 -28.038  1.00  0.00    -0.773 OA
HETATM   36  H42 UNL     1      -5.868  48.347 -29.013  1.00  0.00     0.167 HD
ENDBRANCH  33  35
ENDBRANCH  31  33
ENDBRANCH  29  30
BRANCH  29  37
HETATM   37  O1  UNL     1      -6.222  47.404 -23.432  1.00  0.00    -0.392 OA
HETATM   38  H6  UNL     1      -5.815  46.628 -23.849  1.00  0.00     0.210 HD
ENDBRANCH  29  37
ENDBRANCH  28  29
ENDBRANCH  26  28
ENDBRANCH   1  26
BRANCH  25  39
HETATM   39  O5  UNL     1      -0.294  53.304 -18.980  1.00  0.00    -0.391 OA
HETATM   40  H41 UNL     1       0.042  53.512 -19.879  1.00  0.00     0.210 HD
ENDBRANCH  25  39
TORSDOF 8
ENDMDL
MODEL 5
REMARK minimizedAffinity -7.84163141
REMARK CNNscore 0.464561045
REMARK CNNaffinity 6.1591053
REMARK  8 active torsions:
REMARK  status: ('A' for Active; 'I' for Inactive)
REMARK    1  A    between atoms: C2_2  and  C30_35 
REMARK    2  A    between atoms: C3_3  and  C4_4 
REMARK    3  A    between atoms: C4_4  and  O1_5 
REMARK    4  A    between atoms: C4_4  and  C5_6 
REMARK    5  A    between atoms: C5_6  and  C6_7 
REMARK    6  A    between atoms: C6_7  and  C8_9 
REMARK    7  A    between atoms: C29_33  and  O5_34 
REMARK    8  A    between atoms: C30_35  and  O7_37 
ROOT
HETATM    1  C8  UNL     1      -8.138  46.343 -33.220  1.00  0.00     0.006 C 
HETATM    2  C9  UNL     1      -7.483  47.745 -33.136  1.00  0.00     0.085 C 
HETATM    3  C10 UNL     1      -7.101  47.866 -31.674  1.00  0.00     0.140 C 
HETATM    4  O2  UNL     1      -6.492  48.825 -31.215  1.00  0.00    -0.297 OA
HETATM    5  C11 UNL     1      -7.498  46.614 -30.879  1.00  0.00     0.051 C 
HETATM    6  C12 UNL     1      -6.203  45.751 -30.909  1.00  0.00     0.029 C 
HETATM    7  C13 UNL     1      -7.959  46.649 -29.430  1.00  0.00    -0.024 C 
HETATM    8  C14 UNL     1      -8.610  45.574 -28.910  1.00  0.00     0.003 C 
HETATM    9  C15 UNL     1      -9.054  44.470 -29.863  1.00  0.00     0.157 C 
HETATM   10  O3  UNL     1      -9.479  43.397 -29.433  1.00  0.00    -0.293 OA
HETATM   11  C16 UNL     1      -8.977  44.669 -31.377  1.00  0.00     0.094 C 
HETATM   12  C17 UNL     1      -8.690  46.118 -31.775  1.00  0.00    -0.015 C 
HETATM   13  C18 UNL     1      -9.991  46.947 -31.552  1.00  0.00     0.018 C 
HETATM   14  C19 UNL     1      -8.939  45.423 -27.404  1.00  0.00    -0.008 C 
HETATM   15  C20 UNL     1     -10.466  45.622 -27.264  1.00  0.00     0.021 C 
HETATM   16  C21 UNL     1      -8.562  44.001 -26.871  1.00  0.00     0.022 C 
HETATM   17  C22 UNL     1      -8.139  43.921 -25.407  1.00  0.00     0.080 C 
HETATM   18  C23 UNL     1      -8.736  45.032 -24.582  1.00  0.00     0.135 C 
HETATM   19  O4  UNL     1      -9.390  44.786 -23.570  1.00  0.00    -0.297 OA
HETATM   20  C24 UNL     1      -8.402  46.460 -25.022  1.00  0.00     0.018 C 
HETATM   21  C25 UNL     1      -9.531  47.415 -24.588  1.00  0.00     0.023 C 
HETATM   22  C26 UNL     1      -7.130  46.871 -24.249  1.00  0.00     0.023 C 
HETATM   23  C27 UNL     1      -8.106  46.463 -26.563  1.00  0.00     0.016 C 
HETATM   24  C28 UNL     1      -8.180  47.856 -27.191  1.00  0.00     0.043 C 
HETATM   25  C29 UNL     1      -7.609  47.865 -28.608  1.00  0.00     0.149 C 
ENDROOT
BRANCH   1  26
HETATM   26  C6  UNL     1      -9.005  46.144 -34.505  1.00  0.00    -0.011 C 
HETATM   27  C7  UNL     1      -9.159  44.704 -35.005  1.00  0.00     0.010 C 
BRANCH  26  28
HETATM   28  C5  UNL     1      -8.550  47.098 -35.640  1.00  0.00     0.040 C 
BRANCH  28  29
HETATM   29  C4  UNL     1      -9.191  46.920 -37.030  1.00  0.00     0.142 C 
BRANCH  29  30
HETATM   30  C3  UNL     1     -10.320  47.860 -37.339  1.00  0.00     0.018 C 
HETATM   31  C2  UNL     1     -11.632  47.548 -37.399  1.00  0.00     0.010 C 
HETATM   32  C1  UNL     1     -12.227  46.198 -37.135  1.00  0.00     0.055 C 
BRANCH  31  33
HETATM   33  C30 UNL     1     -12.558  48.658 -37.739  1.00  0.00     0.171 C 
HETATM   34  O6  UNL     1     -13.776  48.626 -37.700  1.00  0.00    -0.646 OA
BRANCH  33  35
HETATM   35  O7  UNL     1     -11.906  49.768 -38.123  1.00  0.00    -0.773 OA
HETATM   36  H42 UNL     1     -12.625  50.406 -38.310  1.00  0.00     0.167 HD
ENDBRANCH  33  35
ENDBRANCH  31  33
ENDBRANCH  29  30
BRANCH  29  37
HETATM   37  O1  UNL     1      -8.198  47.023 -38.045  1.00  0.00    -0.392 OA
HETATM   38  H6  UNL     1      -8.028  47.963 -38.220  1.00  0.00     0.210 HD
ENDBRANCH  29  37
ENDBRANCH  28  29
ENDBRANCH  26  28
ENDBRANCH   1  26
BRANCH  25  39
HETATM   39  O5  UNL     1      -8.161  49.016 -29.235  1.00  0.00    -0.391 OA
HETATM   40  H41 UNL     1      -7.449  49.395 -29.795  1.00  0.00     0.210 HD
ENDBRANCH  25  39
TORSDOF 8
ENDMDL
MODEL 6
REMARK minimizedAffinity -8.26643467
REMARK CNNscore 0.441517949
REMARK CNNaffinity 5.86591721
REMARK  8 active torsions:
REMARK  status: ('A' for Active; 'I' for Inactive)
REMARK    1  A    between atoms: C2_2  and  C30_35 
REMARK    2  A    between atoms: C3_3  and  C4_4 
REMARK    3  A    between atoms: C4_4  and  O1_5 
REMARK    4  A    between atoms: C4_4  and  C5_6 
REMARK    5  A    between atoms: C5_6  and  C6_7 
REMARK    6  A    between atoms: C6_7  and  C8_9 
REMARK    7  A    between atoms: C29_33  and  O5_34 
REMARK    8  A    between atoms: C30_35  and  O7_37 
ROOT
HETATM    1  C8  UNL     1      -7.268  47.813 -20.383  1.00  0.00     0.006 C 
HETATM    2  C9  UNL     1      -7.704  46.948 -21.594  1.00  0.00     0.085 C 
HETATM    3  C10 UNL     1      -6.597  47.177 -22.603  1.00  0.00     0.140 C 
HETATM    4  O2  UNL     1      -6.545  46.606 -23.687  1.00  0.00    -0.297 OA
HETATM    5  C11 UNL     1      -5.527  48.136 -22.064  1.00  0.00     0.051 C 
HETATM    6  C12 UNL     1      -4.463  47.174 -21.458  1.00  0.00     0.029 C 
HETATM    7  C13 UNL     1      -4.767  49.124 -22.935  1.00  0.00    -0.024 C 
HETATM    8  C14 UNL     1      -4.101  50.157 -22.350  1.00  0.00     0.003 C 
HETATM    9  C15 UNL     1      -4.332  50.414 -20.865  1.00  0.00     0.157 C 
HETATM   10  O3  UNL     1      -3.626  51.209 -20.244  1.00  0.00    -0.293 OA
HETATM   11  C16 UNL     1      -5.445  49.685 -20.111  1.00  0.00     0.094 C 
HETATM   12  C17 UNL     1      -6.406  48.940 -21.039  1.00  0.00    -0.015 C 
HETATM   13  C18 UNL     1      -7.321  49.993 -21.734  1.00  0.00     0.018 C 
HETATM   14  C19 UNL     1      -3.137  51.094 -23.118  1.00  0.00    -0.008 C 
HETATM   15  C20 UNL     1      -3.856  52.458 -23.246  1.00  0.00     0.021 C 
HETATM   16  C21 UNL     1      -1.795  51.301 -22.342  1.00  0.00     0.022 C 
HETATM   17  C22 UNL     1      -0.552  51.540 -23.197  1.00  0.00     0.080 C 
HETATM   18  C23 UNL     1      -0.892  52.150 -24.532  1.00  0.00     0.135 C 
HETATM   19  O4  UNL     1      -0.361  53.197 -24.902  1.00  0.00    -0.297 OA
HETATM   20  C24 UNL     1      -1.848  51.351 -25.422  1.00  0.00     0.018 C 
HETATM   21  C25 UNL     1      -2.611  52.309 -26.357  1.00  0.00     0.023 C 
HETATM   22  C26 UNL     1      -0.967  50.446 -26.311  1.00  0.00     0.023 C 
HETATM   23  C27 UNL     1      -2.768  50.462 -24.513  1.00  0.00     0.016 C 
HETATM   24  C28 UNL     1      -4.021  49.955 -25.230  1.00  0.00     0.043 C 
HETATM   25  C29 UNL     1      -4.732  48.872 -24.421  1.00  0.00     0.149 C 
ENDROOT
BRANCH   1  26
HETATM   26  C6  UNL     1      -8.433  48.103 -19.382  1.00  0.00    -0.011 C 
HETATM   27  C7  UNL     1      -8.028  48.635 -18.004  1.00  0.00     0.010 C 
BRANCH  26  28
HETATM   28  C5  UNL     1      -9.389  46.887 -19.269  1.00  0.00     0.040 C 
BRANCH  28  29
HETATM   29  C4  UNL     1     -10.897  47.169 -19.116  1.00  0.00     0.142 C 
BRANCH  29  30
HETATM   30  C3  UNL     1     -11.485  46.796 -17.787  1.00  0.00     0.018 C 
HETATM   31  C2  UNL     1     -12.797  46.681 -17.492  1.00  0.00     0.010 C 
HETATM   32  C1  UNL     1     -13.933  46.875 -18.451  1.00  0.00     0.055 C 
BRANCH  31  33
HETATM   33  C30 UNL     1     -13.128  46.311 -16.092  1.00  0.00     0.171 C 
HETATM   34  O6  UNL     1     -12.399  45.740 -15.300  1.00  0.00    -0.646 OA
BRANCH  33  35
HETATM   35  O7  UNL     1     -14.376  46.674 -15.749  1.00  0.00    -0.773 OA
HETATM   36  H42 UNL     1     -14.455  46.377 -14.819  1.00  0.00     0.167 HD
ENDBRANCH  33  35
ENDBRANCH  31  33
ENDBRANCH  29  30
BRANCH  29  37
HETATM   37  O1  UNL     1     -11.170  48.539 -19.387  1.00  0.00    -0.392 OA
HETATM   38  H6  UNL     1     -10.970  49.060 -18.592  1.00  0.00     0.210 HD
ENDBRANCH  29  37
ENDBRANCH  28  29
ENDBRANCH  26  28
ENDBRANCH   1  26
BRANCH  25  39
HETATM   39  O5  UNL     1      -6.067  48.845 -24.913  1.00  0.00    -0.391 OA
HETATM   40  H41 UNL     1      -6.337  47.901 -24.927  1.00  0.00     0.210 HD
ENDBRANCH  25  39
TORSDOF 8
ENDMDL
MODEL 7
REMARK minimizedAffinity -8.07111359
REMARK CNNscore 0.435110033
REMARK CNNaffinity 6.23108244
REMARK  8 active torsions:
REMARK  status: ('A' for Active; 'I' for Inactive)
REMARK    1  A    between atoms: C2_2  and  C30_35 
REMARK    2  A    between atoms: C3_3  and  C4_4 
REMARK    3  A    between atoms: C4_4  and  O1_5 
REMARK    4  A    between atoms: C4_4  and  C5_6 
REMARK    5  A    between atoms: C5_6  and  C6_7 
REMARK    6  A    between atoms: C6_7  and  C8_9 
REMARK    7  A    between atoms: C29_33  and  O5_34 
REMARK    8  A    between atoms: C30_35  and  O7_37 
ROOT
HETATM    1  C8  UNL     1      -2.672  49.508 -22.596  1.00  0.00     0.006 C 
HETATM    2  C9  UNL     1      -1.563  50.523 -22.977  1.00  0.00     0.085 C 
HETATM    3  C10 UNL     1      -0.695  50.573 -21.737  1.00  0.00     0.140 C 
HETATM    4  O2  UNL     1       0.340  51.228 -21.666  1.00  0.00    -0.297 OA
HETATM    5  C11 UNL     1      -1.227  49.649 -20.633  1.00  0.00     0.051 C 
HETATM    6  C12 UNL     1      -0.428  48.331 -20.860  1.00  0.00     0.029 C 
HETATM    7  C13 UNL     1      -1.124  49.964 -19.149  1.00  0.00    -0.024 C 
HETATM    8  C14 UNL     1      -1.905  49.286 -18.266  1.00  0.00     0.003 C 
HETATM    9  C15 UNL     1      -3.015  48.399 -18.818  1.00  0.00     0.157 C 
HETATM   10  O3  UNL     1      -3.630  47.625 -18.085  1.00  0.00    -0.293 OA
HETATM   11  C16 UNL     1      -3.388  48.449 -20.301  1.00  0.00     0.094 C 
HETATM   12  C17 UNL     1      -2.745  49.624 -21.039  1.00  0.00    -0.015 C 
HETATM   13  C18 UNL     1      -3.496  50.925 -20.623  1.00  0.00     0.018 C 
HETATM   14  C19 UNL     1      -1.737  49.383 -16.730  1.00  0.00    -0.008 C 
HETATM   15  C20 UNL     1      -2.942  50.197 -16.203  1.00  0.00     0.021 C 
HETATM   16  C21 UNL     1      -1.748  47.970 -16.058  1.00  0.00     0.022 C 
HETATM   17  C22 UNL     1      -0.915  47.820 -14.788  1.00  0.00     0.080 C 
HETATM   18  C23 UNL     1      -0.749  49.130 -14.061  1.00  0.00     0.135 C 
HETATM   19  O4  UNL     1      -1.065  49.241 -12.877  1.00  0.00    -0.297 OA
HETATM   20  C24 UNL     1      -0.087  50.265 -14.848  1.00  0.00     0.018 C 
HETATM   21  C25 UNL     1      -0.572  51.624 -14.307  1.00  0.00     0.023 C 
HETATM   22  C26 UNL     1       1.428  50.171 -14.563  1.00  0.00     0.023 C 
HETATM   23  C27 UNL     1      -0.350  50.045 -16.380  1.00  0.00     0.016 C 
HETATM   24  C28 UNL     1      -0.119  51.302 -17.221  1.00  0.00     0.043 C 
HETATM   25  C29 UNL     1      -0.099  50.982 -18.714  1.00  0.00     0.149 C 
ENDROOT
BRANCH   1  26
HETATM   26  C6  UNL     1      -3.931  49.596 -23.518  1.00  0.00    -0.011 C 
HETATM   27  C7  UNL     1      -5.268  49.859 -22.818  1.00  0.00     0.010 C 
BRANCH  26  28
HETATM   28  C5  UNL     1      -4.013  48.376 -24.471  1.00  0.00     0.040 C 
BRANCH  28  29
HETATM   29  C4  UNL     1      -4.236  48.648 -25.972  1.00  0.00     0.142 C 
BRANCH  29  30
HETATM   30  C3  UNL     1      -5.533  48.136 -26.528  1.00  0.00     0.018 C 
HETATM   31  C2  UNL     1      -5.812  47.900 -27.828  1.00  0.00     0.010 C 
HETATM   32  C1  UNL     1      -4.865  48.074 -28.976  1.00  0.00     0.055 C 
BRANCH  31  33
HETATM   33  C30 UNL     1      -7.180  47.405 -28.128  1.00  0.00     0.171 C 
HETATM   34  O6  UNL     1      -8.195  48.076 -28.204  1.00  0.00    -0.646 OA
BRANCH  33  35
HETATM   35  O7  UNL     1      -7.213  46.075 -28.316  1.00  0.00    -0.773 OA
HETATM   36  H42 UNL     1      -8.157  45.892 -28.505  1.00  0.00     0.167 HD
ENDBRANCH  33  35
ENDBRANCH  31  33
ENDBRANCH  29  30
BRANCH  29  37
HETATM   37  O1  UNL     1      -4.123  50.041 -26.240  1.00  0.00    -0.392 OA
HETATM   38  H6  UNL     1      -4.965  50.471 -26.015  1.00  0.00     0.210 HD
ENDBRANCH  29  37
ENDBRANCH  28  29
ENDBRANCH  26  28
ENDBRANCH   1  26
BRANCH  25  39
HETATM   39  O5  UNL     1      -0.371  52.215 -19.372  1.00  0.00    -0.391 OA
HETATM   40  H41 UNL     1       0.196  52.232 -20.173  1.00  0.00     0.210 HD
ENDBRANCH  25  39
TORSDOF 8
ENDMDL
MODEL 8
REMARK minimizedAffinity -8.05577946
REMARK CNNscore 0.366968185
REMARK CNNaffinity 5.40711069
REMARK  8 active torsions:
REMARK  status: ('A' for Active; 'I' for Inactive)
REMARK    1  A    between atoms: C2_2  and  C30_35 
REMARK    2  A    between atoms: C3_3  and  C4_4 
REMARK    3  A    between atoms: C4_4  and  O1_5 
REMARK    4  A    between atoms: C4_4  and  C5_6 
REMARK    5  A    between atoms: C5_6  and  C6_7 
REMARK    6  A    between atoms: C6_7  and  C8_9 
REMARK    7  A    between atoms: C29_33  and  O5_34 
REMARK    8  A    between atoms: C30_35  and  O7_37 
ROOT
HETATM    1  C8  UNL     1     -15.452  44.620 -25.857  1.00  0.00     0.006 C 
HETATM    2  C9  UNL     1     -15.176  43.122 -26.147  1.00  0.00     0.085 C 
HETATM    3  C10 UNL     1     -13.733  43.116 -26.611  1.00  0.00     0.140 C 
HETATM    4  O2  UNL     1     -13.117  42.090 -26.879  1.00  0.00    -0.297 OA
HETATM    5  C11 UNL     1     -13.134  44.529 -26.620  1.00  0.00     0.051 C 
HETATM    6  C12 UNL     1     -12.446  44.630 -25.227  1.00  0.00     0.029 C 
HETATM    7  C13 UNL     1     -12.112  45.003 -27.641  1.00  0.00    -0.024 C 
HETATM    8  C14 UNL     1     -11.891  46.336 -27.798  1.00  0.00     0.003 C 
HETATM    9  C15 UNL     1     -12.840  47.309 -27.107  1.00  0.00     0.157 C 
HETATM   10  O3  UNL     1     -12.586  48.513 -27.059  1.00  0.00    -0.293 OA
HETATM   11  C16 UNL     1     -14.129  46.810 -26.452  1.00  0.00     0.094 C 
HETATM   12  C17 UNL     1     -14.456  45.359 -26.808  1.00  0.00    -0.015 C 
HETATM   13  C18 UNL     1     -14.978  45.327 -28.277  1.00  0.00     0.018 C 
HETATM   14  C19 UNL     1     -10.739  46.915 -28.654  1.00  0.00    -0.008 C 
HETATM   15  C20 UNL     1     -11.389  47.515 -29.923  1.00  0.00     0.021 C 
HETATM   16  C21 UNL     1      -9.969  48.047 -27.896  1.00  0.00     0.022 C 
HETATM   17  C22 UNL     1      -8.486  48.193 -28.228  1.00  0.00     0.080 C 
HETATM   18  C23 UNL     1      -8.164  47.695 -29.613  1.00  0.00     0.135 C 
HETATM   19  O4  UNL     1      -7.591  48.418 -30.427  1.00  0.00    -0.297 OA
HETATM   20  C24 UNL     1      -8.501  46.230 -29.905  1.00  0.00     0.018 C 
HETATM   21  C25 UNL     1      -8.767  46.049 -31.412  1.00  0.00     0.023 C 
HETATM   22  C26 UNL     1      -7.239  45.411 -29.559  1.00  0.00     0.023 C 
HETATM   23  C27 UNL     1      -9.689  45.786 -28.980  1.00  0.00     0.016 C 
HETATM   24  C28 UNL     1     -10.388  44.513 -29.460  1.00  0.00     0.043 C 
HETATM   25  C29 UNL     1     -11.332  43.955 -28.397  1.00  0.00     0.149 C 
ENDROOT
BRANCH   1  26
HETATM   26  C6  UNL     1     -16.975  44.962 -25.783  1.00  0.00    -0.011 C 
HETATM   27  C7  UNL     1     -17.727  45.003 -27.118  1.00  0.00     0.010 C 
BRANCH  26  28
HETATM   28  C5  UNL     1     -17.221  46.244 -24.947  1.00  0.00     0.040 C 
BRANCH  28  29
HETATM   29  C4  UNL     1     -18.606  46.425 -24.296  1.00  0.00     0.142 C 
BRANCH  29  30
HETATM   30  C3  UNL     1     -18.600  46.531 -22.799  1.00  0.00     0.018 C 
HETATM   31  C2  UNL     1     -19.012  45.589 -21.924  1.00  0.00     0.010 C 
HETATM   32  C1  UNL     1     -19.532  44.229 -22.278  1.00  0.00     0.055 C 
BRANCH  31  33
HETATM   33  C30 UNL     1     -18.918  45.941 -20.484  1.00  0.00     0.171 C 
HETATM   34  O6  UNL     1     -19.792  45.809 -19.645  1.00  0.00    -0.646 OA
BRANCH  33  35
HETATM   35  O7  UNL     1     -17.719  46.453 -20.160  1.00  0.00    -0.773 OA
HETATM   36  H42 UNL     1     -17.796  46.633 -19.200  1.00  0.00     0.167 HD
ENDBRANCH  33  35
ENDBRANCH  31  33
ENDBRANCH  29  30
BRANCH  29  37
HETATM   37  O1  UNL     1     -19.264  47.559 -24.849  1.00  0.00    -0.392 OA
HETATM   38  H6  UNL     1     -18.930  48.358 -24.409  1.00  0.00     0.210 HD
ENDBRANCH  29  37
ENDBRANCH  28  29
ENDBRANCH  26  28
ENDBRANCH   1  26
BRANCH  25  39
HETATM   39  O5  UNL     1     -12.247  43.121 -29.098  1.00  0.00    -0.391 OA
HETATM   40  H41 UNL     1     -12.411  42.344 -28.521  1.00  0.00     0.210 HD
ENDBRANCH  25  39
TORSDOF 8
ENDMDL
MODEL 9
REMARK minimizedAffinity -8.56371498
REMARK CNNscore 0.355248034
REMARK CNNaffinity 6.2266922
REMARK  8 active torsions:
REMARK  status: ('A' for Active; 'I' for Inactive)
REMARK    1  A    between atoms: C2_2  and  C30_35 
REMARK    2  A    between atoms: C3_3  and  C4_4 
REMARK    3  A    between atoms: C4_4  and  O1_5 
REMARK    4  A    between atoms: C4_4  and  C5_6 
REMARK    5  A    between atoms: C5_6  and  C6_7 
REMARK    6  A    between atoms: C6_7  and  C8_9 
REMARK    7  A    between atoms: C29_33  and  O5_34 
REMARK    8  A    between atoms: C30_35  and  O7_37 
ROOT
HETATM    1  C8  UNL     1      -3.807  48.584 -24.240  1.00  0.00     0.006 C 
HETATM    2  C9  UNL     1      -2.934  49.465 -23.310  1.00  0.00     0.085 C 
HETATM    3  C10 UNL     1      -3.432  49.112 -21.923  1.00  0.00     0.140 C 
HETATM    4  O2  UNL     1      -2.938  49.562 -20.895  1.00  0.00    -0.297 OA
HETATM    5  C11 UNL     1      -4.560  48.072 -21.974  1.00  0.00     0.051 C 
HETATM    6  C12 UNL     1      -3.805  46.722 -21.798  1.00  0.00     0.029 C 
HETATM    7  C13 UNL     1      -5.724  48.044 -20.996  1.00  0.00    -0.024 C 
HETATM    8  C14 UNL     1      -6.839  47.329 -21.303  1.00  0.00     0.003 C 
HETATM    9  C15 UNL     1      -6.970  46.769 -22.715  1.00  0.00     0.157 C 
HETATM   10  O3  UNL     1      -7.859  45.966 -22.998  1.00  0.00    -0.293 OA
HETATM   11  C16 UNL     1      -5.994  47.192 -23.815  1.00  0.00     0.094 C 
HETATM   12  C17 UNL     1      -5.117  48.378 -23.412  1.00  0.00    -0.015 C 
HETATM   13  C18 UNL     1      -5.997  49.664 -23.450  1.00  0.00     0.018 C 
HETATM   14  C19 UNL     1      -7.989  47.069 -20.300  1.00  0.00    -0.008 C 
HETATM   15  C20 UNL     1      -9.184  47.935 -20.762  1.00  0.00     0.021 C 
HETATM   16  C21 UNL     1      -8.425  45.566 -20.298  1.00  0.00     0.022 C 
HETATM   17  C22 UNL     1      -8.952  45.019 -18.974  1.00  0.00     0.080 C 
HETATM   18  C23 UNL     1      -9.547  46.101 -18.110  1.00  0.00     0.135 C 
HETATM   19  O4  UNL     1     -10.697  46.007 -17.682  1.00  0.00    -0.297 OA
HETATM   20  C24 UNL     1      -8.616  47.255 -17.728  1.00  0.00     0.018 C 
HETATM   21  C25 UNL     1      -9.446  48.528 -17.472  1.00  0.00     0.023 C 
HETATM   22  C26 UNL     1      -7.954  46.861 -16.390  1.00  0.00     0.023 C 
HETATM   23  C27 UNL     1      -7.516  47.410 -18.836  1.00  0.00     0.016 C 
HETATM   24  C28 UNL     1      -6.802  48.763 -18.796  1.00  0.00     0.043 C 
HETATM   25  C29 UNL     1      -5.558  48.769 -19.683  1.00  0.00     0.149 C 
ENDROOT
BRANCH   1  26
HETATM   26  C6  UNL     1      -3.805  49.067 -25.726  1.00  0.00    -0.011 C 
HETATM   27  C7  UNL     1      -4.706  48.292 -26.693  1.00  0.00     0.010 C 
BRANCH  26  28
HETATM   28  C5  UNL     1      -2.359  49.197 -26.270  1.00  0.00     0.040 C 
BRANCH  28  29
HETATM   29  C4  UNL     1      -1.870  50.599 -26.685  1.00  0.00     0.142 C 
BRANCH  29  30
HETATM   30  C3  UNL     1      -0.471  50.939 -26.260  1.00  0.00     0.018 C 
HETATM   31  C2  UNL     1       0.499  51.465 -27.038  1.00  0.00     0.010 C 
HETATM   32  C1  UNL     1       0.361  51.843 -28.481  1.00  0.00     0.055 C 
BRANCH  31  33
HETATM   33  C30 UNL     1       1.812  51.700 -26.383  1.00  0.00     0.171 C 
HETATM   34  O6  UNL     1       2.862  51.135 -26.636  1.00  0.00    -0.646 OA
BRANCH  33  35
HETATM   35  O7  UNL     1       1.745  52.641 -25.427  1.00  0.00    -0.773 OA
HETATM   36  H42 UNL     1       2.663  52.694 -25.090  1.00  0.00     0.167 HD
ENDBRANCH  33  35
ENDBRANCH  31  33
ENDBRANCH  29  30
BRANCH  29  37
HETATM   37  O1  UNL     1      -1.990  50.763 -28.094  1.00  0.00    -0.392 OA
HETATM   38  H6  UNL     1      -1.225  50.346 -28.522  1.00  0.00     0.210 HD
ENDBRANCH  29  37
ENDBRANCH  28  29
ENDBRANCH  26  28
ENDBRANCH   1  26
BRANCH  25  39
HETATM   39  O5  UNL     1      -5.286  50.140 -19.948  1.00  0.00    -0.391 OA
HETATM   40  H41 UNL     1      -4.309  50.236 -19.933  1.00  0.00     0.210 HD
ENDBRANCH  25  39
TORSDOF 8
ENDMDL
