MODEL 1
REMARK minimizedAffinity -8.95228291
REMARK CNNscore 0.455914974
REMARK CNNaffinity 7.5231986
REMARK  10 active torsions:
REMARK  status: ('A' for Active; 'I' for Inactive)
REMARK    1  A    between atoms: C2_2  and  C3_3 
REMARK    2  A    between atoms: C5_5  and  S1_6 
REMARK    3  A    between atoms: C14_18  and  C15_19 
REMARK    4  A    between atoms: C15_19  and  O4_20 
REMARK    5  A    between atoms: C21_26  and  O5_27 
REMARK    6  A    between atoms: C33_40  and  C34_41 
REMARK    7  A    between atoms: C33_40  and  N1_50 
REMARK    8  A    between atoms: C34_41  and  C35_42 
REMARK    9  A    between atoms: C35_42  and  C36_43 
REMARK   10  A    between atoms: C36_43  and  O7_44 
REMARK       I    between atoms: N1_50  and  C42_52 
REMARK       I    between atoms: C42_52  and  N2_53 
ROOT
HETATM    1  C3  UNL     1      -0.838  14.158  19.691  1.00  0.00     0.019 C 
HETATM    2  C4  UNL     1      -1.862  15.070  18.954  1.00  0.00     0.034 C 
HETATM    3  C5  UNL     1      -2.962  15.739  19.806  1.00  0.00     0.153 C 
HETATM    4  C6  UNL     1      -3.938  14.796  20.593  1.00  0.00     0.119 A 
HETATM    5  C7  UNL     1      -4.692  15.590  21.659  1.00  0.00     0.001 C 
HETATM    6  C8  UNL     1      -5.583  14.948  22.435  1.00  0.00    -0.049 C 
HETATM    7  C9  UNL     1      -5.655  13.457  22.315  1.00  0.00     0.043 C 
HETATM    8  C10 UNL     1      -6.032  13.184  20.858  1.00  0.00     0.016 C 
HETATM    9  C11 UNL     1      -7.527  13.528  20.578  1.00  0.00     0.039 C 
HETATM   10  C12 UNL     1      -8.156  14.806  21.211  1.00  0.00     0.123 C 
HETATM   11  C13 UNL     1      -9.690  14.737  20.970  1.00  0.00     0.039 C 
HETATM   12  C14 UNL     1     -10.629  15.805  21.594  1.00  0.00     0.023 C 
HETATM   13  C16 UNL     1     -11.139  15.464  23.014  1.00  0.00     0.101 C 
HETATM   14  C17 UNL     1     -10.159  15.734  24.068  1.00  0.00    -0.101 C 
HETATM   15  C18 UNL     1      -9.192  15.905  24.760  1.00  0.00    -0.066 C 
HETATM   16  C19 UNL     1      -7.888  16.039  25.333  1.00  0.00     0.029 A 
HETATM   17  C20 UNL     1      -7.795  16.342  26.696  1.00  0.00     0.057 A 
HETATM   18  C21 UNL     1      -6.546  16.567  27.273  1.00  0.00     0.067 A 
HETATM   19  C22 UNL     1      -5.393  16.464  26.508  1.00  0.00     0.037 A 
HETATM   20  C23 UNL     1      -5.485  16.134  25.154  1.00  0.00     0.014 A 
HETATM   21  C24 UNL     1      -6.732  15.888  24.535  1.00  0.00    -0.006 A 
HETATM   22  C25 UNL     1      -6.784  15.646  23.018  1.00  0.00     0.185 C 
HETATM   23  O6  UNL     1      -7.925  14.855  22.622  1.00  0.00    -0.371 OA
HETATM   24  C26 UNL     1      -5.018  13.893  19.841  1.00  0.00     0.113 A 
HETATM   25  C27 UNL     1      -4.429  12.856  18.882  1.00  0.00    -0.039 A 
HETATM   26  C28 UNL     1      -4.383  13.128  17.507  1.00  0.00     0.009 A 
HETATM   27  C29 UNL     1      -3.805  12.223  16.602  1.00  0.00     0.012 A 
HETATM   28  C30 UNL     1      -3.303  10.982  17.035  1.00  0.00    -0.003 A 
HETATM   29  C31 UNL     1      -3.436  10.685  18.406  1.00  0.00     0.012 A 
HETATM   30  C32 UNL     1      -3.941  11.618  19.316  1.00  0.00     0.009 A 
HETATM   31  C33 UNL     1      -2.573   9.962  16.094  1.00  0.00     0.171 C 
HETATM   32  O8  UNL     1      -1.108   9.853  16.343  1.00  0.00    -0.316 OA
HETATM   33  C43 UNL     1      -0.550  10.858  17.083  1.00  0.00     0.072 C 
HETATM   34  C44 UNL     1      -0.338  10.626  18.442  1.00  0.00     0.037 C 
HETATM   35  C45 UNL     1      -0.269  11.723  19.300  1.00  0.00     0.010 C 
HETATM   36  C46 UNL     1      -0.367  13.021  18.778  1.00  0.00    -0.054 C 
HETATM   37  C47 UNL     1      -0.238  13.207  17.392  1.00  0.00     0.010 C 
HETATM   38  C48 UNL     1      -0.342  12.116  16.536  1.00  0.00     0.037 C 
HETATM   39 NA1  UNL     1      -4.399  12.895  18.760  1.00  0.00    -0.230 Na
ENDROOT
BRANCH  31  40
HETATM   40  C34 UNL     1      -2.681  10.350  14.576  1.00  0.00     0.070 C 
BRANCH  40  41
HETATM   41  C35 UNL     1      -1.688   9.686  13.588  1.00  0.00     0.043 C 
BRANCH  41  42
HETATM   42  C36 UNL     1      -2.238   8.744  12.479  1.00  0.00     0.058 C 
HETATM   43  C37 UNL     1      -2.048   7.269  12.895  1.00  0.00     0.038 C 
HETATM   44  C38 UNL     1      -0.597   6.796  12.838  1.00  0.00     0.003 C 
HETATM   45  C39 UNL     1       0.036   7.072  11.478  1.00  0.00     0.000 C 
HETATM   46  C40 UNL     1      -0.131   8.526  11.052  1.00  0.00     0.003 C 
HETATM   47  C41 UNL     1      -1.595   8.954  11.098  1.00  0.00     0.038 C 
BRANCH  42  48
HETATM   48  O7  UNL     1      -3.656   8.915  12.335  1.00  0.00    -0.390 OA
HETATM   49  H40 UNL     1      -3.880   9.791  12.708  1.00  0.00     0.210 HD
ENDBRANCH  42  48
ENDBRANCH  41  42
ENDBRANCH  40  41
ENDBRANCH  31  40
BRANCH  31  50
HETATM   50  N1  UNL     1      -3.184   8.616  16.217  1.00  0.00    -0.331 N 
HETATM   51  C42 UNL     1      -2.535   7.521  16.303  1.00  0.00     0.146 C 
HETATM   52  N2  UNL     1      -3.222   6.359  16.402  1.00  0.00    -0.274 NA
HETATM   53  N3  UNL     1      -1.217   7.242  16.308  1.00  0.00    -0.376 N 
HETATM   54  H51 UNL     1      -4.220   6.521  16.293  1.00  0.00     0.127 HD
HETATM   55  H52 UNL     1      -2.889   5.655  15.760  1.00  0.00     0.127 HD
HETATM   56  H53 UNL     1      -0.960   6.415  16.833  1.00  0.00     0.158 HD
HETATM   57  H54 UNL     1      -0.575   8.015  16.437  1.00  0.00     0.158 HD
ATOM     58  H1  UNL     1      -4.203   8.561  16.235  1.00  0.00     0.165 HD
ENDBRANCH  31  50
BRANCH   1  59
HETATM   59  C2  UNL     1       0.330  14.901  20.370  1.00  0.00     0.005 C 
HETATM   60  C1  UNL     1       1.516  14.045  20.796  1.00  0.00     0.006 C 
ENDBRANCH   1  59
BRANCH   3  61
HETATM   61  S1  UNL     1      -3.804  17.064  18.850  1.00  0.00     0.108 S 
HETATM   62  O1  UNL     1      -5.235  16.821  19.038  1.00  0.00    -0.595 OA
HETATM   63  O2  UNL     1      -3.337  16.819  17.486  1.00  0.00    -0.595 OA
HETATM   64  O3  UNL     1      -3.351  18.332  19.410  1.00  0.00    -0.595 OA
ENDBRANCH   3  61
BRANCH  12  65
HETATM   65  C15 UNL     1     -10.093  17.233  21.476  1.00  0.00     0.169 C 
BRANCH  65  66
HETATM   66  O4  UNL     1     -10.061  17.610  20.100  1.00  0.00    -0.400 OA
HETATM   67  H23 UNL     1      -9.124  17.739  19.848  1.00  0.00     0.209 HD
ENDBRANCH  65  66
ENDBRANCH  12  65
BRANCH  18  68
HETATM   68  O5  UNL     1      -6.409  16.917  28.583  1.00  0.00    -0.361 OA
HETATM   69  H27 UNL     1      -7.289  16.929  28.989  1.00  0.00     0.217 HD
ENDBRANCH  18  68
TORSDOF 10
ENDMDL
MODEL 2
REMARK minimizedAffinity -7.52456856
REMARK CNNscore 0.38593033
REMARK CNNaffinity 7.69541359
REMARK  10 active torsions:
REMARK  status: ('A' for Active; 'I' for Inactive)
REMARK    1  A    between atoms: C2_2  and  C3_3 
REMARK    2  A    between atoms: C5_5  and  S1_6 
REMARK    3  A    between atoms: C14_18  and  C15_19 
REMARK    4  A    between atoms: C15_19  and  O4_20 
REMARK    5  A    between atoms: C21_26  and  O5_27 
REMARK    6  A    between atoms: C33_40  and  C34_41 
REMARK    7  A    between atoms: C33_40  and  N1_50 
REMARK    8  A    between atoms: C34_41  and  C35_42 
REMARK    9  A    between atoms: C35_42  and  C36_43 
REMARK   10  A    between atoms: C36_43  and  O7_44 
REMARK       I    between atoms: N1_50  and  C42_52 
REMARK       I    between atoms: C42_52  and  N2_53 
ROOT
HETATM    1  C3  UNL     1       4.057  11.932  22.518  1.00  0.00     0.019 C 
HETATM    2  C4  UNL     1       5.550  11.860  22.084  1.00  0.00     0.034 C 
HETATM    3  C5  UNL     1       6.542  12.811  22.788  1.00  0.00     0.153 C 
HETATM    4  C6  UNL     1       6.281  14.353  22.653  1.00  0.00     0.119 A 
HETATM    5  C7  UNL     1       7.096  15.118  23.697  1.00  0.00     0.001 C 
HETATM    6  C8  UNL     1       7.006  16.459  23.733  1.00  0.00    -0.049 C 
HETATM    7  C9  UNL     1       5.980  17.105  22.854  1.00  0.00     0.043 C 
HETATM    8  C10 UNL     1       6.358  16.707  21.427  1.00  0.00     0.016 C 
HETATM    9  C11 UNL     1       7.624  17.472  20.933  1.00  0.00     0.039 C 
HETATM   10  C12 UNL     1       8.817  17.697  21.910  1.00  0.00     0.123 C 
HETATM   11  C13 UNL     1       9.794  18.694  21.226  1.00  0.00     0.039 C 
HETATM   12  C14 UNL     1      11.031  19.230  21.997  1.00  0.00     0.023 C 
HETATM   13  C16 UNL     1      10.772  20.514  22.819  1.00  0.00     0.101 C 
HETATM   14  C17 UNL     1      10.104  20.266  24.098  1.00  0.00    -0.101 C 
HETATM   15  C18 UNL     1       9.456  19.874  25.031  1.00  0.00    -0.066 C 
HETATM   16  C19 UNL     1       8.594  19.193  25.947  1.00  0.00     0.029 A 
HETATM   17  C20 UNL     1       8.441  19.729  27.230  1.00  0.00     0.057 A 
HETATM   18  C21 UNL     1       7.680  19.049  28.180  1.00  0.00     0.067 A 
HETATM   19  C22 UNL     1       7.052  17.857  27.851  1.00  0.00     0.037 A 
HETATM   20  C23 UNL     1       7.183  17.335  26.562  1.00  0.00     0.014 A 
HETATM   21  C24 UNL     1       7.937  18.001  25.568  1.00  0.00    -0.006 A 
HETATM   22  C25 UNL     1       8.145  17.323  24.204  1.00  0.00     0.185 C 
HETATM   23  O6  UNL     1       8.377  18.275  23.143  1.00  0.00    -0.371 OA
HETATM   24  C26 UNL     1       6.475  15.117  21.266  1.00  0.00     0.113 A 
HETATM   25  C27 UNL     1       5.562  14.636  20.137  1.00  0.00    -0.039 A 
HETATM   26  C28 UNL     1       6.054  13.738  19.179  1.00  0.00     0.009 A 
HETATM   27  C29 UNL     1       5.232  13.237  18.158  1.00  0.00     0.012 A 
HETATM   28  C30 UNL     1       3.896  13.661  18.023  1.00  0.00    -0.003 A 
HETATM   29  C31 UNL     1       3.442  14.630  18.939  1.00  0.00     0.012 A 
HETATM   30  C32 UNL     1       4.238  15.071  20.001  1.00  0.00     0.009 A 
HETATM   31  C33 UNL     1       2.902  13.082  16.959  1.00  0.00     0.171 C 
HETATM   32  O8  UNL     1       1.835  12.217  17.537  1.00  0.00    -0.316 OA
HETATM   33  C43 UNL     1       2.049  11.775  18.813  1.00  0.00     0.072 C 
HETATM   34  C44 UNL     1       1.426  12.461  19.855  1.00  0.00     0.037 C 
HETATM   35  C45 UNL     1       1.992  12.392  21.128  1.00  0.00     0.010 C 
HETATM   36  C46 UNL     1       3.133  11.604  21.340  1.00  0.00    -0.054 C 
HETATM   37  C47 UNL     1       3.511  10.679  20.353  1.00  0.00     0.010 C 
HETATM   38  C48 UNL     1       2.973  10.773  19.075  1.00  0.00     0.037 C 
HETATM   39 NA1  UNL     1       5.599  14.532  20.068  1.00  0.00    -0.230 Na
ENDROOT
BRANCH  31  40
HETATM   40  C34 UNL     1       3.611  12.165  15.898  1.00  0.00     0.070 C 
BRANCH  40  41
HETATM   41  C35 UNL     1       2.812  10.964  15.332  1.00  0.00     0.043 C 
BRANCH  41  42
HETATM   42  C36 UNL     1       3.401   9.531  15.464  1.00  0.00     0.058 C 
HETATM   43  C37 UNL     1       3.744   8.969  14.066  1.00  0.00     0.038 C 
HETATM   44  C38 UNL     1       2.518   8.590  13.238  1.00  0.00     0.003 C 
HETATM   45  C39 UNL     1       1.589   7.649  13.998  1.00  0.00     0.000 C 
HETATM   46  C40 UNL     1       1.229   8.190  15.377  1.00  0.00     0.003 C 
HETATM   47  C41 UNL     1       2.478   8.533  16.183  1.00  0.00     0.038 C 
BRANCH  42  48
HETATM   48  O7  UNL     1       4.650   9.567  16.172  1.00  0.00    -0.390 OA
HETATM   49  H40 UNL     1       4.665  10.398  16.686  1.00  0.00     0.210 HD
ENDBRANCH  42  48
ENDBRANCH  41  42
ENDBRANCH  40  41
ENDBRANCH  31  40
BRANCH  31  50
HETATM   50  N1  UNL     1       2.267  14.181  16.191  1.00  0.00    -0.331 N 
HETATM   51  C42 UNL     1       1.075  14.166  15.737  1.00  0.00     0.146 C 
HETATM   52  N2  UNL     1       0.625  15.238  15.044  1.00  0.00    -0.274 NA
HETATM   53  N3  UNL     1       0.092  13.247  15.793  1.00  0.00    -0.376 N 
HETATM   54  H51 UNL     1       1.376  15.906  14.889  1.00  0.00     0.127 HD
HETATM   55  H52 UNL     1       0.176  14.979  14.178  1.00  0.00     0.127 HD
HETATM   56  H53 UNL     1      -0.847  13.629  15.784  1.00  0.00     0.158 HD
HETATM   57  H54 UNL     1       0.205  12.477  16.441  1.00  0.00     0.158 HD
ATOM     58  H1  UNL     1       2.828  15.015  16.011  1.00  0.00     0.165 HD
ENDBRANCH  31  50
BRANCH   1  59
HETATM   59  C2  UNL     1       3.706  11.136  23.790  1.00  0.00     0.005 C 
HETATM   60  C1  UNL     1       3.115   9.748  23.576  1.00  0.00     0.006 C 
ENDBRANCH   1  59
BRANCH   3  61
HETATM   61  S1  UNL     1       8.276  12.310  22.443  1.00  0.00     0.108 S 
HETATM   62  O1  UNL     1       8.519  11.154  23.306  1.00  0.00    -0.595 OA
HETATM   63  O2  UNL     1       9.034  13.502  22.822  1.00  0.00    -0.595 OA
HETATM   64  O3  UNL     1       8.341  11.996  21.020  1.00  0.00    -0.595 OA
ENDBRANCH   3  61
BRANCH  12  65
HETATM   65  C15 UNL     1      11.773  18.151  22.788  1.00  0.00     0.169 C 
BRANCH  65  66
HETATM   66  O4  UNL     1      13.002  17.847  22.132  1.00  0.00    -0.400 OA
HETATM   67  H23 UNL     1      12.953  16.921  21.819  1.00  0.00     0.209 HD
ENDBRANCH  65  66
ENDBRANCH  12  65
BRANCH  18  68
HETATM   68  O5  UNL     1       7.546  19.506  29.458  1.00  0.00    -0.361 OA
HETATM   69  H27 UNL     1       8.017  20.350  29.531  1.00  0.00     0.217 HD
ENDBRANCH  18  68
TORSDOF 10
ENDMDL
MODEL 3
REMARK minimizedAffinity -7.25852251
REMARK CNNscore 0.261086881
REMARK CNNaffinity 7.08951807
REMARK  10 active torsions:
REMARK  status: ('A' for Active; 'I' for Inactive)
REMARK    1  A    between atoms: C2_2  and  C3_3 
REMARK    2  A    between atoms: C5_5  and  S1_6 
REMARK    3  A    between atoms: C14_18  and  C15_19 
REMARK    4  A    between atoms: C15_19  and  O4_20 
REMARK    5  A    between atoms: C21_26  and  O5_27 
REMARK    6  A    between atoms: C33_40  and  C34_41 
REMARK    7  A    between atoms: C33_40  and  N1_50 
REMARK    8  A    between atoms: C34_41  and  C35_42 
REMARK    9  A    between atoms: C35_42  and  C36_43 
REMARK   10  A    between atoms: C36_43  and  O7_44 
REMARK       I    between atoms: N1_50  and  C42_52 
REMARK       I    between atoms: C42_52  and  N2_53 
ROOT
HETATM    1  C3  UNL     1     -13.134   3.026  25.034  1.00  0.00     0.019 C 
HETATM    2  C4  UNL     1     -14.546   3.407  24.504  1.00  0.00     0.034 C 
HETATM    3  C5  UNL     1     -14.675   4.720  23.701  1.00  0.00     0.153 C 
HETATM    4  C6  UNL     1     -14.275   6.052  24.428  1.00  0.00     0.119 A 
HETATM    5  C7  UNL     1     -14.091   7.175  23.407  1.00  0.00     0.001 C 
HETATM    6  C8  UNL     1     -13.750   8.399  23.846  1.00  0.00    -0.049 C 
HETATM    7  C9  UNL     1     -13.408   8.542  25.296  1.00  0.00     0.043 C 
HETATM    8  C10 UNL     1     -14.666   8.115  26.055  1.00  0.00     0.016 C 
HETATM    9  C11 UNL     1     -15.789   9.192  25.957  1.00  0.00     0.039 C 
HETATM   10  C12 UNL     1     -16.033   9.931  24.607  1.00  0.00     0.123 C 
HETATM   11  C13 UNL     1     -17.015  11.103  24.890  1.00  0.00     0.039 C 
HETATM   12  C14 UNL     1     -17.363  12.120  23.770  1.00  0.00     0.023 C 
HETATM   13  C16 UNL     1     -16.411  13.335  23.683  1.00  0.00     0.101 C 
HETATM   14  C17 UNL     1     -15.149  13.042  23.000  1.00  0.00    -0.101 C 
HETATM   15  C18 UNL     1     -14.146  12.578  22.529  1.00  0.00    -0.066 C 
HETATM   16  C19 UNL     1     -13.046  11.770  22.101  1.00  0.00     0.029 A 
HETATM   17  C20 UNL     1     -12.023  12.384  21.369  1.00  0.00     0.057 A 
HETATM   18  C21 UNL     1     -10.978  11.615  20.859  1.00  0.00     0.067 A 
HETATM   19  C22 UNL     1     -10.934  10.248  21.095  1.00  0.00     0.037 A 
HETATM   20  C23 UNL     1     -11.941   9.641  21.848  1.00  0.00     0.014 A 
HETATM   21  C24 UNL     1     -13.011  10.388  22.392  1.00  0.00    -0.006 A 
HETATM   22  C25 UNL     1     -14.153   9.651  23.111  1.00  0.00     0.185 C 
HETATM   23  O6  UNL     1     -14.818  10.480  24.088  1.00  0.00    -0.371 OA
HETATM   24  C26 UNL     1     -15.152   6.651  25.619  1.00  0.00     0.113 A 
HETATM   25  C27 UNL     1     -15.262   5.749  26.850  1.00  0.00    -0.039 A 
HETATM   26  C28 UNL     1     -16.404   4.955  27.030  1.00  0.00     0.009 A 
HETATM   27  C29 UNL     1     -16.519   4.078  28.120  1.00  0.00     0.012 A 
HETATM   28  C30 UNL     1     -15.518   4.005  29.106  1.00  0.00    -0.003 A 
HETATM   29  C31 UNL     1     -14.417   4.874  28.959  1.00  0.00     0.012 A 
HETATM   30  C32 UNL     1     -14.268   5.690  27.834  1.00  0.00     0.009 A 
HETATM   31  C33 UNL     1     -15.544   2.992  30.301  1.00  0.00     0.171 C 
HETATM   32  O8  UNL     1     -14.536   1.900  30.190  1.00  0.00    -0.316 OA
HETATM   33  C43 UNL     1     -13.978   1.725  28.955  1.00  0.00     0.072 C 
HETATM   34  C44 UNL     1     -12.725   2.288  28.719  1.00  0.00     0.037 C 
HETATM   35  C45 UNL     1     -12.364   2.578  27.404  1.00  0.00     0.010 C 
HETATM   36  C46 UNL     1     -13.239   2.256  26.355  1.00  0.00    -0.054 C 
HETATM   37  C47 UNL     1     -14.317   1.395  26.612  1.00  0.00     0.010 C 
HETATM   38  C48 UNL     1     -14.698   1.136  27.924  1.00  0.00     0.037 C 
HETATM   39 NA1  UNL     1     -15.354   5.656  26.849  1.00  0.00    -0.230 Na
ENDROOT
BRANCH  31  40
HETATM   40  C34 UNL     1     -16.917   2.240  30.432  1.00  0.00     0.070 C 
BRANCH  40  41
HETATM   41  C35 UNL     1     -18.214   3.059  30.208  1.00  0.00     0.043 C 
BRANCH  41  42
HETATM   42  C36 UNL     1     -18.712   4.013  31.330  1.00  0.00     0.058 C 
HETATM   43  C37 UNL     1     -20.246   3.903  31.478  1.00  0.00     0.038 C 
HETATM   44  C38 UNL     1     -21.021   4.546  30.330  1.00  0.00     0.003 C 
HETATM   45  C39 UNL     1     -20.592   5.990  30.094  1.00  0.00     0.000 C 
HETATM   46  C40 UNL     1     -19.082   6.121  29.935  1.00  0.00     0.003 C 
HETATM   47  C41 UNL     1     -18.343   5.490  31.112  1.00  0.00     0.038 C 
BRANCH  42  48
HETATM   48  O7  UNL     1     -18.182   3.609  32.602  1.00  0.00    -0.390 OA
HETATM   49  H40 UNL     1     -17.390   3.064  32.423  1.00  0.00     0.210 HD
ENDBRANCH  42  48
ENDBRANCH  41  42
ENDBRANCH  40  41
ENDBRANCH  31  40
BRANCH  31  50
HETATM   50  N1  UNL     1     -15.344   3.704  31.588  1.00  0.00    -0.331 N 
HETATM   51  C42 UNL     1     -14.275   3.675  32.283  1.00  0.00     0.146 C 
HETATM   52  N2  UNL     1     -14.231   4.367  33.446  1.00  0.00    -0.274 NA
HETATM   53  N3  UNL     1     -13.092   3.054  32.108  1.00  0.00    -0.376 N 
HETATM   54  H51 UNL     1     -15.143   4.760  33.663  1.00  0.00     0.127 HD
HETATM   55  H52 UNL     1     -13.873   3.816  34.212  1.00  0.00     0.127 HD
HETATM   56  H53 UNL     1     -12.297   3.534  32.513  1.00  0.00     0.158 HD
HETATM   57  H54 UNL     1     -12.900   2.658  31.196  1.00  0.00     0.158 HD
ATOM     58  H1  UNL     1     -16.121   4.261  31.943  1.00  0.00     0.165 HD
ENDBRANCH  31  50
BRANCH   1  59
HETATM   59  C2  UNL     1     -12.217   2.329  24.010  1.00  0.00     0.005 C 
HETATM   60  C1  UNL     1     -11.304   1.238  24.555  1.00  0.00     0.006 C 
ENDBRANCH   1  59
BRANCH   3  61
HETATM   61  S1  UNL     1     -16.294   4.793  22.835  1.00  0.00     0.108 S 
HETATM   62  O1  UNL     1     -16.980   3.554  23.201  1.00  0.00    -0.595 OA
HETATM   63  O2  UNL     1     -15.900   4.858  21.428  1.00  0.00    -0.595 OA
HETATM   64  O3  UNL     1     -16.967   5.994  23.316  1.00  0.00    -0.595 OA
ENDBRANCH   3  61
BRANCH  12  65
HETATM   65  C15 UNL     1     -17.626  11.465  22.412  1.00  0.00     0.169 C 
BRANCH  65  66
HETATM   66  O4  UNL     1     -18.831  10.705  22.482  1.00  0.00    -0.400 OA
HETATM   67  H23 UNL     1     -18.596   9.762  22.363  1.00  0.00     0.209 HD
ENDBRANCH  65  66
ENDBRANCH  12  65
BRANCH  18  68
HETATM   68  O5  UNL     1      -9.988  12.160  20.096  1.00  0.00    -0.361 OA
HETATM   69  H27 UNL     1     -10.140  13.115  20.036  1.00  0.00     0.217 HD
ENDBRANCH  18  68
TORSDOF 10
ENDMDL
MODEL 4
REMARK minimizedAffinity -7.646626
REMARK CNNscore 0.252689511
REMARK CNNaffinity 7.25342894
REMARK  10 active torsions:
REMARK  status: ('A' for Active; 'I' for Inactive)
REMARK    1  A    between atoms: C2_2  and  C3_3 
REMARK    2  A    between atoms: C5_5  and  S1_6 
REMARK    3  A    between atoms: C14_18  and  C15_19 
REMARK    4  A    between atoms: C15_19  and  O4_20 
REMARK    5  A    between atoms: C21_26  and  O5_27 
REMARK    6  A    between atoms: C33_40  and  C34_41 
REMARK    7  A    between atoms: C33_40  and  N1_50 
REMARK    8  A    between atoms: C34_41  and  C35_42 
REMARK    9  A    between atoms: C35_42  and  C36_43 
REMARK   10  A    between atoms: C36_43  and  O7_44 
REMARK       I    between atoms: N1_50  and  C42_52 
REMARK       I    between atoms: C42_52  and  N2_53 
ROOT
HETATM    1  C3  UNL     1     -13.020   3.041  24.990  1.00  0.00     0.019 C 
HETATM    2  C4  UNL     1     -14.430   3.421  24.451  1.00  0.00     0.034 C 
HETATM    3  C5  UNL     1     -14.556   4.738  23.655  1.00  0.00     0.153 C 
HETATM    4  C6  UNL     1     -14.166   6.067  24.393  1.00  0.00     0.119 A 
HETATM    5  C7  UNL     1     -13.977   7.196  23.380  1.00  0.00     0.001 C 
HETATM    6  C8  UNL     1     -13.644   8.419  23.829  1.00  0.00    -0.049 C 
HETATM    7  C9  UNL     1     -13.314   8.555  25.283  1.00  0.00     0.043 C 
HETATM    8  C10 UNL     1     -14.576   8.119  26.028  1.00  0.00     0.016 C 
HETATM    9  C11 UNL     1     -15.702   9.193  25.928  1.00  0.00     0.039 C 
HETATM   10  C12 UNL     1     -15.938   9.940  24.581  1.00  0.00     0.123 C 
HETATM   11  C13 UNL     1     -16.925  11.107  24.863  1.00  0.00     0.039 C 
HETATM   12  C14 UNL     1     -17.267  12.129  23.745  1.00  0.00     0.023 C 
HETATM   13  C16 UNL     1     -16.318  13.348  23.673  1.00  0.00     0.101 C 
HETATM   14  C17 UNL     1     -15.049  13.063  23.000  1.00  0.00    -0.101 C 
HETATM   15  C18 UNL     1     -14.041  12.604  22.534  1.00  0.00    -0.066 C 
HETATM   16  C19 UNL     1     -12.935  11.802  22.110  1.00  0.00     0.029 A 
HETATM   17  C20 UNL     1     -11.909  12.424  21.391  1.00  0.00     0.057 A 
HETATM   18  C21 UNL     1     -10.857  11.661  20.884  1.00  0.00     0.067 A 
HETATM   19  C22 UNL     1     -10.810  10.294  21.112  1.00  0.00     0.037 A 
HETATM   20  C23 UNL     1     -11.822   9.678  21.854  1.00  0.00     0.014 A 
HETATM   21  C24 UNL     1     -12.898  10.419  22.393  1.00  0.00    -0.006 A 
HETATM   22  C25 UNL     1     -14.044   9.674  23.098  1.00  0.00     0.185 C 
HETATM   23  O6  UNL     1     -14.719  10.495  24.075  1.00  0.00    -0.371 OA
HETATM   24  C26 UNL     1     -15.054   6.657  25.580  1.00  0.00     0.113 A 
HETATM   25  C27 UNL     1     -15.172   5.747  26.805  1.00  0.00    -0.039 A 
HETATM   26  C28 UNL     1     -16.313   4.948  26.970  1.00  0.00     0.009 A 
HETATM   27  C29 UNL     1     -16.434   4.064  28.054  1.00  0.00     0.012 A 
HETATM   28  C30 UNL     1     -15.441   3.988  29.048  1.00  0.00    -0.003 A 
HETATM   29  C31 UNL     1     -14.342   4.861  28.915  1.00  0.00     0.012 A 
HETATM   30  C32 UNL     1     -14.186   5.685  27.796  1.00  0.00     0.009 A 
HETATM   31  C33 UNL     1     -15.474   2.968  30.237  1.00  0.00     0.171 C 
HETATM   32  O8  UNL     1     -14.462   1.880  30.128  1.00  0.00    -0.316 OA
HETATM   33  C43 UNL     1     -13.893   1.714  28.896  1.00  0.00     0.072 C 
HETATM   34  C44 UNL     1     -12.639   2.283  28.674  1.00  0.00     0.037 C 
HETATM   35  C45 UNL     1     -12.268   2.581  27.363  1.00  0.00     0.010 C 
HETATM   36  C46 UNL     1     -13.134   2.263  26.306  1.00  0.00    -0.054 C 
HETATM   37  C47 UNL     1     -14.212   1.397  26.549  1.00  0.00     0.010 C 
HETATM   38  C48 UNL     1     -14.602   1.129  27.856  1.00  0.00     0.037 C 
HETATM   39 NA1  UNL     1     -15.263   5.653  26.803  1.00  0.00    -0.230 Na
ENDROOT
BRANCH  31  40
HETATM   40  C34 UNL     1     -16.846   2.211  30.352  1.00  0.00     0.070 C 
BRANCH  40  41
HETATM   41  C35 UNL     1     -16.836   0.785  30.958  1.00  0.00     0.043 C 
BRANCH  41  42
HETATM   42  C36 UNL     1     -17.908  -0.242  30.497  1.00  0.00     0.058 C 
HETATM   43  C37 UNL     1     -17.998  -1.405  31.510  1.00  0.00     0.038 C 
HETATM   44  C38 UNL     1     -16.801  -2.353  31.466  1.00  0.00     0.003 C 
HETATM   45  C39 UNL     1     -16.538  -2.869  30.055  1.00  0.00     0.000 C 
HETATM   46  C40 UNL     1     -16.436  -1.737  29.040  1.00  0.00     0.003 C 
HETATM   47  C41 UNL     1     -17.659  -0.827  29.097  1.00  0.00     0.038 C 
BRANCH  42  48
HETATM   48  O7  UNL     1     -19.212   0.359  30.499  1.00  0.00    -0.390 OA
HETATM   49  H40 UNL     1     -19.081   1.328  30.456  1.00  0.00     0.210 HD
ENDBRANCH  42  48
ENDBRANCH  41  42
ENDBRANCH  40  41
ENDBRANCH  31  40
BRANCH  31  50
HETATM   50  N1  UNL     1     -15.286   3.673  31.529  1.00  0.00    -0.331 N 
HETATM   51  C42 UNL     1     -14.233   3.620  32.247  1.00  0.00     0.146 C 
HETATM   52  N2  UNL     1     -14.200   4.308  33.412  1.00  0.00    -0.274 NA
HETATM   53  N3  UNL     1     -13.060   2.976  32.096  1.00  0.00    -0.376 N 
HETATM   54  H51 UNL     1     -15.108   4.720  33.611  1.00  0.00     0.127 HD
HETATM   55  H52 UNL     1     -13.870   3.749  34.184  1.00  0.00     0.127 HD
HETATM   56  H53 UNL     1     -12.264   3.438  32.519  1.00  0.00     0.158 HD
HETATM   57  H54 UNL     1     -12.857   2.578  31.187  1.00  0.00     0.158 HD
ATOM     58  H1  UNL     1     -16.059   4.245  31.870  1.00  0.00     0.165 HD
ENDBRANCH  31  50
BRANCH   1  59
HETATM   59  C2  UNL     1     -12.093   2.353  23.969  1.00  0.00     0.005 C 
HETATM   60  C1  UNL     1     -11.190   1.252  24.513  1.00  0.00     0.006 C 
ENDBRANCH   1  59
BRANCH   3  61
HETATM   61  S1  UNL     1     -16.168   4.812  22.776  1.00  0.00     0.108 S 
HETATM   62  O1  UNL     1     -16.839   5.999  23.306  1.00  0.00    -0.595 OA
HETATM   63  O2  UNL     1     -16.800   3.552  23.165  1.00  0.00    -0.595 OA
HETATM   64  O3  UNL     1     -15.861   4.903  21.353  1.00  0.00    -0.595 OA
ENDBRANCH   3  61
BRANCH  12  65
HETATM   65  C15 UNL     1     -17.517  11.482  22.381  1.00  0.00     0.169 C 
BRANCH  65  66
HETATM   66  O4  UNL     1     -18.902  11.164  22.258  1.00  0.00    -0.400 OA
HETATM   67  H23 UNL     1     -18.981  10.189  22.210  1.00  0.00     0.209 HD
ENDBRANCH  65  66
ENDBRANCH  12  65
BRANCH  18  68
HETATM   68  O5  UNL     1      -9.862  12.214  20.133  1.00  0.00    -0.361 OA
HETATM   69  H27 UNL     1     -10.017  13.169  20.077  1.00  0.00     0.217 HD
ENDBRANCH  18  68
TORSDOF 10
ENDMDL
MODEL 5
REMARK minimizedAffinity -6.96093941
REMARK CNNscore 0.193128511
REMARK CNNaffinity 6.38164473
REMARK  10 active torsions:
REMARK  status: ('A' for Active; 'I' for Inactive)
REMARK    1  A    between atoms: C2_2  and  C3_3 
REMARK    2  A    between atoms: C5_5  and  S1_6 
REMARK    3  A    between atoms: C14_18  and  C15_19 
REMARK    4  A    between atoms: C15_19  and  O4_20 
REMARK    5  A    between atoms: C21_26  and  O5_27 
REMARK    6  A    between atoms: C33_40  and  C34_41 
REMARK    7  A    between atoms: C33_40  and  N1_50 
REMARK    8  A    between atoms: C34_41  and  C35_42 
REMARK    9  A    between atoms: C35_42  and  C36_43 
REMARK   10  A    between atoms: C36_43  and  O7_44 
REMARK       I    between atoms: N1_50  and  C42_52 
REMARK       I    between atoms: C42_52  and  N2_53 
ROOT
HETATM    1  C3  UNL     1       2.007  14.489  21.051  1.00  0.00     0.019 C 
HETATM    2  C4  UNL     1       1.798  13.038  20.527  1.00  0.00     0.034 C 
HETATM    3  C5  UNL     1       3.059  12.188  20.263  1.00  0.00     0.153 C 
HETATM    4  C6  UNL     1       4.084  12.727  19.205  1.00  0.00     0.119 A 
HETATM    5  C7  UNL     1       5.419  11.995  19.343  1.00  0.00     0.001 C 
HETATM    6  C8  UNL     1       6.425  12.320  18.513  1.00  0.00    -0.049 C 
HETATM    7  C9  UNL     1       6.224  13.501  17.614  1.00  0.00     0.043 C 
HETATM    8  C10 UNL     1       5.009  13.152  16.752  1.00  0.00     0.016 C 
HETATM    9  C11 UNL     1       5.357  12.078  15.676  1.00  0.00     0.039 C 
HETATM   10  C12 UNL     1       6.283  10.882  16.053  1.00  0.00     0.123 C 
HETATM   11  C13 UNL     1       6.650  10.145  14.735  1.00  0.00     0.039 C 
HETATM   12  C14 UNL     1       7.671   8.976  14.750  1.00  0.00     0.023 C 
HETATM   13  C16 UNL     1       9.146   9.405  14.567  1.00  0.00     0.101 C 
HETATM   14  C17 UNL     1       9.758   9.932  15.789  1.00  0.00    -0.101 C 
HETATM   15  C18 UNL     1      10.033  10.438  16.843  1.00  0.00    -0.066 C 
HETATM   16  C19 UNL     1      10.066  11.102  18.109  1.00  0.00     0.029 A 
HETATM   17  C20 UNL     1      11.306  11.264  18.736  1.00  0.00     0.057 A 
HETATM   18  C21 UNL     1      11.371  11.828  20.010  1.00  0.00     0.067 A 
HETATM   19  C22 UNL     1      10.215  12.253  20.647  1.00  0.00     0.037 A 
HETATM   20  C23 UNL     1       8.980  12.117  20.009  1.00  0.00     0.014 A 
HETATM   21  C24 UNL     1       8.874  11.560  18.714  1.00  0.00    -0.006 A 
HETATM   22  C25 UNL     1       7.480  11.325  18.109  1.00  0.00     0.185 C 
HETATM   23  O6  UNL     1       7.495  11.336  16.665  1.00  0.00    -0.371 OA
HETATM   24  C26 UNL     1       3.739  12.764  17.647  1.00  0.00     0.113 A 
HETATM   25  C27 UNL     1       2.547  13.650  17.276  1.00  0.00    -0.039 A 
HETATM   26  C28 UNL     1       1.288  13.069  17.068  1.00  0.00     0.009 A 
HETATM   27  C29 UNL     1       0.161  13.854  16.776  1.00  0.00     0.012 A 
HETATM   28  C30 UNL     1       0.265  15.250  16.623  1.00  0.00    -0.003 A 
HETATM   29  C31 UNL     1       1.553  15.808  16.748  1.00  0.00     0.012 A 
HETATM   30  C32 UNL     1       2.659  15.036  17.115  1.00  0.00     0.009 A 
HETATM   31  C33 UNL     1      -0.962  16.193  16.379  1.00  0.00     0.171 C 
HETATM   32  O8  UNL     1      -1.309  17.048  17.548  1.00  0.00    -0.316 OA
HETATM   33  C43 UNL     1      -0.764  16.675  18.745  1.00  0.00     0.072 C 
HETATM   34  C44 UNL     1       0.384  17.341  19.175  1.00  0.00     0.037 C 
HETATM   35  C45 UNL     1       1.233  16.690  20.068  1.00  0.00     0.010 C 
HETATM   36  C46 UNL     1       0.895  15.415  20.547  1.00  0.00    -0.054 C 
HETATM   37  C47 UNL     1      -0.413  14.943  20.354  1.00  0.00     0.010 C 
HETATM   38  C48 UNL     1      -1.247  15.573  19.436  1.00  0.00     0.037 C 
HETATM   39 NA1  UNL     1       2.427  13.598  17.287  1.00  0.00    -0.230 Na
ENDROOT
BRANCH  31  40
HETATM   40  C34 UNL     1      -2.285  15.403  16.070  1.00  0.00     0.070 C 
BRANCH  40  41
HETATM   41  C35 UNL     1      -3.473  16.192  15.463  1.00  0.00     0.043 C 
BRANCH  41  42
HETATM   42  C36 UNL     1      -4.678  16.567  16.371  1.00  0.00     0.058 C 
HETATM   43  C37 UNL     1      -5.733  15.439  16.344  1.00  0.00     0.038 C 
HETATM   44  C38 UNL     1      -6.510  15.356  15.031  1.00  0.00     0.003 C 
HETATM   45  C39 UNL     1      -7.125  16.698  14.650  1.00  0.00     0.000 C 
HETATM   46  C40 UNL     1      -6.099  17.824  14.661  1.00  0.00     0.003 C 
HETATM   47  C41 UNL     1      -5.362  17.892  15.996  1.00  0.00     0.038 C 
BRANCH  42  48
HETATM   48  O7  UNL     1      -4.261  16.658  17.742  1.00  0.00    -0.390 OA
HETATM   49  H40 UNL     1      -3.294  16.800  17.740  1.00  0.00     0.210 HD
ENDBRANCH  42  48
ENDBRANCH  41  42
ENDBRANCH  40  41
ENDBRANCH  31  40
BRANCH  31  50
HETATM   50  N1  UNL     1      -0.721  17.062  15.200  1.00  0.00    -0.331 N 
HETATM   51  C42 UNL     1      -0.421  16.647  14.032  1.00  0.00     0.146 C 
HETATM   52  N2  UNL     1      -0.219  17.554  13.048  1.00  0.00    -0.274 NA
HETATM   53  N3  UNL     1      -0.241  15.414  13.523  1.00  0.00    -0.376 N 
HETATM   54  H51 UNL     1      -0.241  18.500  13.421  1.00  0.00     0.127 HD
HETATM   55  H52 UNL     1       0.629  17.381  12.529  1.00  0.00     0.127 HD
HETATM   56  H53 UNL     1      -0.471  15.322  12.540  1.00  0.00     0.158 HD
HETATM   57  H54 UNL     1      -0.546  14.626  14.081  1.00  0.00     0.158 HD
ATOM     58  H1  UNL     1      -0.800  18.070  15.336  1.00  0.00     0.165 HD
ENDBRANCH  31  50
BRANCH   1  59
HETATM   59  C2  UNL     1       2.238  14.608  22.570  1.00  0.00     0.005 C 
HETATM   60  C1  UNL     1       2.847  13.393  23.258  1.00  0.00     0.006 C 
ENDBRANCH   1  59
BRANCH   3  61
HETATM   61  S1  UNL     1       2.613  10.419  20.043  1.00  0.00     0.108 S 
HETATM   62  O1  UNL     1       3.583   9.676  20.847  1.00  0.00    -0.595 OA
HETATM   63  O2  UNL     1       2.769  10.228  18.601  1.00  0.00    -0.595 OA
HETATM   64  O3  UNL     1       1.239  10.277  20.512  1.00  0.00    -0.595 OA
ENDBRANCH   3  61
BRANCH  12  65
HETATM   65  C15 UNL     1       7.469   8.004  15.914  1.00  0.00     0.169 C 
BRANCH  65  66
HETATM   66  O4  UNL     1       6.136   7.498  15.878  1.00  0.00    -0.400 OA
HETATM   67  H23 UNL     1       5.674   7.817  16.680  1.00  0.00     0.209 HD
ENDBRANCH  65  66
ENDBRANCH  12  65
BRANCH  18  68
HETATM   68  O5  UNL     1      12.550  11.957  20.682  1.00  0.00    -0.361 OA
HETATM   69  H27 UNL     1      13.264  11.640  20.109  1.00  0.00     0.217 HD
ENDBRANCH  18  68
TORSDOF 10
ENDMDL
MODEL 6
REMARK minimizedAffinity -7.58391714
REMARK CNNscore 0.130695432
REMARK CNNaffinity 6.74673271
REMARK  10 active torsions:
REMARK  status: ('A' for Active; 'I' for Inactive)
REMARK    1  A    between atoms: C2_2  and  C3_3 
REMARK    2  A    between atoms: C5_5  and  S1_6 
REMARK    3  A    between atoms: C14_18  and  C15_19 
REMARK    4  A    between atoms: C15_19  and  O4_20 
REMARK    5  A    between atoms: C21_26  and  O5_27 
REMARK    6  A    between atoms: C33_40  and  C34_41 
REMARK    7  A    between atoms: C33_40  and  N1_50 
REMARK    8  A    between atoms: C34_41  and  C35_42 
REMARK    9  A    between atoms: C35_42  and  C36_43 
REMARK   10  A    between atoms: C36_43  and  O7_44 
REMARK       I    between atoms: N1_50  and  C42_52 
REMARK       I    between atoms: C42_52  and  N2_53 
ROOT
HETATM    1  C3  UNL     1      12.753  -5.854   5.302  1.00  0.00     0.019 C 
HETATM    2  C4  UNL     1      13.657  -6.152   4.071  1.00  0.00     0.034 C 
HETATM    3  C5  UNL     1      13.191  -7.256   3.096  1.00  0.00     0.153 C 
HETATM    4  C6  UNL     1      13.016  -8.703   3.676  1.00  0.00     0.119 A 
HETATM    5  C7  UNL     1      12.201  -9.563   2.710  1.00  0.00     0.001 C 
HETATM    6  C8  UNL     1      11.951 -10.843   3.035  1.00  0.00    -0.049 C 
HETATM    7  C9  UNL     1      12.345 -11.296   4.407  1.00  0.00     0.043 C 
HETATM    8  C10 UNL     1      13.858 -11.088   4.484  1.00  0.00     0.016 C 
HETATM    9  C11 UNL     1      14.628 -12.152   3.641  1.00  0.00     0.039 C 
HETATM   10  C12 UNL     1      14.075 -12.577   2.248  1.00  0.00     0.123 C 
HETATM   11  C13 UNL     1      14.894 -13.813   1.781  1.00  0.00     0.039 C 
HETATM   12  C14 UNL     1      14.504 -14.564   0.479  1.00  0.00     0.023 C 
HETATM   13  C16 UNL     1      13.471 -15.699   0.674  1.00  0.00     0.101 C 
HETATM   14  C17 UNL     1      12.092 -15.221   0.791  1.00  0.00    -0.101 C 
HETATM   15  C18 UNL     1      11.063 -14.632   0.984  1.00  0.00    -0.066 C 
HETATM   16  C19 UNL     1      10.020 -13.714   1.324  1.00  0.00     0.029 A 
HETATM   17  C20 UNL     1       8.696 -14.117   1.118  1.00  0.00     0.057 A 
HETATM   18  C21 UNL     1       7.654 -13.220   1.354  1.00  0.00     0.067 A 
HETATM   19  C22 UNL     1       7.922 -11.941   1.817  1.00  0.00     0.037 A 
HETATM   20  C23 UNL     1       9.242 -11.549   2.049  1.00  0.00     0.014 A 
HETATM   21  C24 UNL     1      10.325 -12.432   1.832  1.00  0.00    -0.006 A 
HETATM   22  C25 UNL     1      11.763 -11.911   1.990  1.00  0.00     0.185 C 
HETATM   23  O6  UNL     1      12.697 -12.958   2.330  1.00  0.00    -0.371 OA
HETATM   24  C26 UNL     1      14.269  -9.581   4.130  1.00  0.00     0.113 A 
HETATM   25  C27 UNL     1      15.092  -8.980   5.271  1.00  0.00    -0.039 A 
HETATM   26  C28 UNL     1      16.274  -8.283   4.984  1.00  0.00     0.009 A 
HETATM   27  C29 UNL     1      17.029  -7.676   6.000  1.00  0.00     0.012 A 
HETATM   28  C30 UNL     1      16.659  -7.794   7.353  1.00  0.00    -0.003 A 
HETATM   29  C31 UNL     1      15.517  -8.572   7.633  1.00  0.00     0.012 A 
HETATM   30  C32 UNL     1      14.725  -9.111   6.616  1.00  0.00     0.009 A 
HETATM   31  C33 UNL     1      17.408  -7.075   8.527  1.00  0.00     0.171 C 
HETATM   32  O8  UNL     1      16.638  -5.955   9.138  1.00  0.00    -0.316 OA
HETATM   33  C43 UNL     1      15.578  -5.490   8.410  1.00  0.00     0.072 C 
HETATM   34  C44 UNL     1      14.305  -5.947   8.748  1.00  0.00     0.037 C 
HETATM   35  C45 UNL     1      13.311  -5.924   7.770  1.00  0.00     0.010 C 
HETATM   36  C46 UNL     1      13.597  -5.404   6.499  1.00  0.00    -0.054 C 
HETATM   37  C47 UNL     1      14.771  -4.656   6.321  1.00  0.00     0.010 C 
HETATM   38  C48 UNL     1      15.777  -4.709   7.281  1.00  0.00     0.037 C 
HETATM   39 NA1  UNL     1      15.184  -8.892   5.241  1.00  0.00    -0.230 Na
ENDROOT
BRANCH  31  40
HETATM   40  C34 UNL     1      18.759  -6.415   8.073  1.00  0.00     0.070 C 
BRANCH  40  41
HETATM   41  C35 UNL     1      19.014  -4.940   8.476  1.00  0.00     0.043 C 
BRANCH  41  42
HETATM   42  C36 UNL     1      20.192  -4.610   9.436  1.00  0.00     0.058 C 
HETATM   43  C37 UNL     1      20.348  -5.731  10.488  1.00  0.00     0.038 C 
HETATM   44  C38 UNL     1      19.245  -5.741  11.544  1.00  0.00     0.003 C 
HETATM   45  C39 UNL     1      19.084  -4.378  12.209  1.00  0.00     0.000 C 
HETATM   46  C40 UNL     1      18.917  -3.258  11.189  1.00  0.00     0.003 C 
HETATM   47  C41 UNL     1      20.051  -3.264  10.167  1.00  0.00     0.038 C 
BRANCH  42  48
HETATM   48  O7  UNL     1      21.434  -4.593   8.717  1.00  0.00    -0.390 OA
HETATM   49  H40 UNL     1      21.218  -4.455   7.773  1.00  0.00     0.210 HD
ENDBRANCH  42  48
ENDBRANCH  41  42
ENDBRANCH  40  41
ENDBRANCH  31  40
BRANCH  31  50
HETATM   50  N1  UNL     1      17.764  -8.050   9.587  1.00  0.00    -0.331 N 
HETATM   51  C42 UNL     1      18.627  -8.981   9.467  1.00  0.00     0.146 C 
HETATM   52  N2  UNL     1      18.848  -9.808  10.516  1.00  0.00    -0.274 NA
HETATM   53  N3  UNL     1      19.423  -9.359   8.449  1.00  0.00    -0.376 N 
HETATM   54  H51 UNL     1      18.187  -9.620  11.266  1.00  0.00     0.127 HD
HETATM   55  H52 UNL     1      18.840 -10.782  10.251  1.00  0.00     0.127 HD
HETATM   56  H53 UNL     1      20.300  -9.782   8.729  1.00  0.00     0.158 HD
HETATM   57  H54 UNL     1      19.517  -8.723   7.666  1.00  0.00     0.158 HD
ATOM     58  H1  UNL     1      17.281  -7.969  10.482  1.00  0.00     0.165 HD
ENDBRANCH  31  50
BRANCH   1  59
HETATM   59  C2  UNL     1      11.560  -4.918   5.027  1.00  0.00     0.005 C 
HETATM   60  C1  UNL     1      11.741  -3.908   3.901  1.00  0.00     0.006 C 
ENDBRANCH   1  59
BRANCH   3  61
HETATM   61  S1  UNL     1      14.152  -7.184   1.531  1.00  0.00     0.108 S 
HETATM   62  O1  UNL     1      14.025  -8.518   0.943  1.00  0.00    -0.595 OA
HETATM   63  O2  UNL     1      15.502  -6.871   2.001  1.00  0.00    -0.595 OA
HETATM   64  O3  UNL     1      13.550  -6.132   0.722  1.00  0.00    -0.595 OA
ENDBRANCH   3  61
BRANCH  12  65
HETATM   65  C15 UNL     1      14.159 -13.631  -0.683  1.00  0.00     0.169 C 
BRANCH  65  66
HETATM   66  O4  UNL     1      12.774 -13.293  -0.620  1.00  0.00    -0.400 OA
HETATM   67  H23 UNL     1      12.338 -13.672  -1.410  1.00  0.00     0.209 HD
ENDBRANCH  65  66
ENDBRANCH  12  65
BRANCH  18  68
HETATM   68  O5  UNL     1       6.352 -13.550   1.116  1.00  0.00    -0.361 OA
HETATM   69  H27 UNL     1       6.320 -14.472   0.819  1.00  0.00     0.217 HD
ENDBRANCH  18  68
TORSDOF 10
ENDMDL
MODEL 7
REMARK minimizedAffinity -8.18102551
REMARK CNNscore 0.125971392
REMARK CNNaffinity 6.75785828
REMARK  10 active torsions:
REMARK  status: ('A' for Active; 'I' for Inactive)
REMARK    1  A    between atoms: C2_2  and  C3_3 
REMARK    2  A    between atoms: C5_5  and  S1_6 
REMARK    3  A    between atoms: C14_18  and  C15_19 
REMARK    4  A    between atoms: C15_19  and  O4_20 
REMARK    5  A    between atoms: C21_26  and  O5_27 
REMARK    6  A    between atoms: C33_40  and  C34_41 
REMARK    7  A    between atoms: C33_40  and  N1_50 
REMARK    8  A    between atoms: C34_41  and  C35_42 
REMARK    9  A    between atoms: C35_42  and  C36_43 
REMARK   10  A    between atoms: C36_43  and  O7_44 
REMARK       I    between atoms: N1_50  and  C42_52 
REMARK       I    between atoms: C42_52  and  N2_53 
ROOT
HETATM    1  C3  UNL     1       1.343  12.951  18.101  1.00  0.00     0.019 C 
HETATM    2  C4  UNL     1       0.603  13.907  17.121  1.00  0.00     0.034 C 
HETATM    3  C5  UNL     1      -0.646  14.643  17.652  1.00  0.00     0.153 C 
HETATM    4  C6  UNL     1      -1.846  13.762  18.148  1.00  0.00     0.119 A 
HETATM    5  C7  UNL     1      -2.812  14.607  18.979  1.00  0.00     0.001 C 
HETATM    6  C8  UNL     1      -3.910  14.022  19.488  1.00  0.00    -0.049 C 
HETATM    7  C9  UNL     1      -4.028  12.535  19.349  1.00  0.00     0.043 C 
HETATM    8  C10 UNL     1      -4.019  12.266  17.843  1.00  0.00     0.016 C 
HETATM    9  C11 UNL     1      -5.366  12.685  17.177  1.00  0.00     0.039 C 
HETATM   10  C12 UNL     1      -6.069  14.002  17.624  1.00  0.00     0.123 C 
HETATM   11  C13 UNL     1      -7.486  14.011  16.984  1.00  0.00     0.039 C 
HETATM   12  C14 UNL     1      -8.498  15.135  17.340  1.00  0.00     0.023 C 
HETATM   13  C16 UNL     1      -9.384  14.838  18.572  1.00  0.00     0.101 C 
HETATM   14  C17 UNL     1      -8.706  15.068  19.850  1.00  0.00    -0.101 C 
HETATM   15  C18 UNL     1      -7.950  15.195  20.774  1.00  0.00    -0.066 C 
HETATM   16  C19 UNL     1      -6.839  15.265  21.673  1.00  0.00     0.029 A 
HETATM   17  C20 UNL     1      -7.095  15.579  23.012  1.00  0.00     0.057 A 
HETATM   18  C21 UNL     1      -6.033  15.743  23.901  1.00  0.00     0.067 A 
HETATM   19  C22 UNL     1      -4.726  15.571  23.470  1.00  0.00     0.037 A 
HETATM   20  C23 UNL     1      -4.473  15.231  22.139  1.00  0.00     0.014 A 
HETATM   21  C24 UNL     1      -5.523  15.045  21.211  1.00  0.00    -0.006 A 
HETATM   22  C25 UNL     1      -5.183  14.789  19.733  1.00  0.00     0.185 C 
HETATM   23  O6  UNL     1      -6.219  14.055  19.046  1.00  0.00    -0.371 OA
HETATM   24  C26 UNL     1      -2.735  12.909  17.134  1.00  0.00     0.113 A 
HETATM   25  C27 UNL     1      -1.969  11.832  16.362  1.00  0.00    -0.039 A 
HETATM   26  C28 UNL     1      -1.545  12.085  15.049  1.00  0.00     0.009 A 
HETATM   27  C29 UNL     1      -0.798  11.141  14.328  1.00  0.00     0.012 A 
HETATM   28  C30 UNL     1      -0.496   9.880  14.874  1.00  0.00    -0.003 A 
HETATM   29  C31 UNL     1      -1.005   9.606  16.160  1.00  0.00     0.012 A 
HETATM   30  C32 UNL     1      -1.682  10.575  16.906  1.00  0.00     0.009 A 
HETATM   31  C33 UNL     1       0.401   8.812  14.158  1.00  0.00     0.171 C 
HETATM   32  O8  UNL     1       1.739   8.629  14.787  1.00  0.00    -0.316 OA
HETATM   33  C43 UNL     1       2.134   9.611  15.652  1.00  0.00     0.072 C 
HETATM   34  C44 UNL     1       1.965   9.383  17.018  1.00  0.00     0.037 C 
HETATM   35  C45 UNL     1       1.863  10.484  17.866  1.00  0.00     0.010 C 
HETATM   36  C46 UNL     1       1.977  11.780  17.342  1.00  0.00    -0.054 C 
HETATM   37  C47 UNL     1       2.479  11.943  16.041  1.00  0.00     0.010 C 
HETATM   38  C48 UNL     1       2.547  10.850  15.184  1.00  0.00     0.037 C 
HETATM   39 NA1  UNL     1      -1.906  11.868  16.253  1.00  0.00    -0.230 Na
ENDROOT
BRANCH  31  40
HETATM   40  C34 UNL     1       0.721   9.188  12.667  1.00  0.00     0.070 C 
BRANCH  40  41
HETATM   41  C35 UNL     1       2.099   8.769  12.096  1.00  0.00     0.043 C 
BRANCH  41  42
HETATM   42  C36 UNL     1       2.282   7.330  11.536  1.00  0.00     0.058 C 
HETATM   43  C37 UNL     1       3.670   7.193  10.871  1.00  0.00     0.038 C 
HETATM   44  C38 UNL     1       3.788   7.928   9.537  1.00  0.00     0.003 C 
HETATM   45  C39 UNL     1       2.673   7.535   8.573  1.00  0.00     0.000 C 
HETATM   46  C40 UNL     1       1.294   7.673   9.206  1.00  0.00     0.003 C 
HETATM   47  C41 UNL     1       1.207   6.906  10.522  1.00  0.00     0.038 C 
BRANCH  42  48
HETATM   48  O7  UNL     1       2.282   6.373  12.606  1.00  0.00    -0.390 OA
HETATM   49  H40 UNL     1       1.838   6.794  13.369  1.00  0.00     0.210 HD
ENDBRANCH  42  48
ENDBRANCH  41  42
ENDBRANCH  40  41
ENDBRANCH  31  40
BRANCH  31  50
HETATM   50  N1  UNL     1      -0.293   7.501  14.110  1.00  0.00    -0.331 N 
HETATM   51  C42 UNL     1      -0.293   6.637  15.049  1.00  0.00     0.146 C 
HETATM   52  N2  UNL     1      -0.963   5.475  14.867  1.00  0.00    -0.274 NA
HETATM   53  N3  UNL     1       0.275   6.619  16.270  1.00  0.00    -0.376 N 
HETATM   54  H51 UNL     1      -1.314   5.408  13.915  1.00  0.00     0.127 HD
HETATM   55  H52 UNL     1      -0.412   4.667  15.116  1.00  0.00     0.127 HD
HETATM   56  H53 UNL     1      -0.229   6.081  16.965  1.00  0.00     0.158 HD
HETATM   57  H54 UNL     1       0.644   7.492  16.628  1.00  0.00     0.158 HD
ATOM     58  H1  UNL     1      -0.810   7.273  13.261  1.00  0.00     0.165 HD
ENDBRANCH  31  50
BRANCH   1  59
HETATM   59  C2  UNL     1       2.327  13.638  19.067  1.00  0.00     0.005 C 
HETATM   60  C1  UNL     1       1.916  13.677  20.534  1.00  0.00     0.006 C 
ENDBRANCH   1  59
BRANCH   3  61
HETATM   61  S1  UNL     1      -1.132  16.000  16.511  1.00  0.00     0.108 S 
HETATM   62  O1  UNL     1      -2.307  15.498  15.798  1.00  0.00    -0.595 OA
HETATM   63  O2  UNL     1       0.054  16.147  15.668  1.00  0.00    -0.595 OA
HETATM   64  O3  UNL     1      -1.411  17.163  17.345  1.00  0.00    -0.595 OA
ENDBRANCH   3  61
BRANCH  12  65
HETATM   65  C15 UNL     1      -7.873  16.531  17.373  1.00  0.00     0.169 C 
BRANCH  65  66
HETATM   66  O4  UNL     1      -8.014  17.139  16.090  1.00  0.00    -0.400 OA
HETATM   67  H23 UNL     1      -7.117  17.259  15.717  1.00  0.00     0.209 HD
ENDBRANCH  65  66
ENDBRANCH  12  65
BRANCH  18  68
HETATM   68  O5  UNL     1      -6.230  16.101  25.202  1.00  0.00    -0.361 OA
HETATM   69  H27 UNL     1      -7.185  16.163  25.360  1.00  0.00     0.217 HD
ENDBRANCH  18  68
TORSDOF 10
ENDMDL
MODEL 8
REMARK minimizedAffinity -7.23446751
REMARK CNNscore 0.125608519
REMARK CNNaffinity 6.48182631
REMARK  10 active torsions:
REMARK  status: ('A' for Active; 'I' for Inactive)
REMARK    1  A    between atoms: C2_2  and  C3_3 
REMARK    2  A    between atoms: C5_5  and  S1_6 
REMARK    3  A    between atoms: C14_18  and  C15_19 
REMARK    4  A    between atoms: C15_19  and  O4_20 
REMARK    5  A    between atoms: C21_26  and  O5_27 
REMARK    6  A    between atoms: C33_40  and  C34_41 
REMARK    7  A    between atoms: C33_40  and  N1_50 
REMARK    8  A    between atoms: C34_41  and  C35_42 
REMARK    9  A    between atoms: C35_42  and  C36_43 
REMARK   10  A    between atoms: C36_43  and  O7_44 
REMARK       I    between atoms: N1_50  and  C42_52 
REMARK       I    between atoms: C42_52  and  N2_53 
ROOT
HETATM    1  C3  UNL     1      -6.762  14.699  16.285  1.00  0.00     0.019 C 
HETATM    2  C4  UNL     1      -5.335  15.102  15.813  1.00  0.00     0.034 C 
HETATM    3  C5  UNL     1      -4.452  13.998  15.192  1.00  0.00     0.153 C 
HETATM    4  C6  UNL     1      -4.114  12.756  16.089  1.00  0.00     0.119 A 
HETATM    5  C7  UNL     1      -3.579  11.613  15.226  1.00  0.00     0.001 C 
HETATM    6  C8  UNL     1      -3.229  10.460  15.823  1.00  0.00    -0.049 C 
HETATM    7  C9  UNL     1      -3.546  10.313  17.279  1.00  0.00     0.043 C 
HETATM    8  C10 UNL     1      -2.785  11.442  17.976  1.00  0.00     0.016 C 
HETATM    9  C11 UNL     1      -1.253  11.157  18.025  1.00  0.00     0.039 C 
HETATM   10  C12 UNL     1      -0.545  10.532  16.786  1.00  0.00     0.123 C 
HETATM   11  C13 UNL     1       0.892  10.133  17.224  1.00  0.00     0.039 C 
HETATM   12  C14 UNL     1       1.822   9.360  16.249  1.00  0.00     0.023 C 
HETATM   13  C16 UNL     1       1.695   7.820  16.323  1.00  0.00     0.101 C 
HETATM   14  C17 UNL     1       0.533   7.293  15.605  1.00  0.00    -0.101 C 
HETATM   15  C18 UNL     1      -0.522   7.074  15.074  1.00  0.00    -0.066 C 
HETATM   16  C19 UNL     1      -1.849   7.091  14.540  1.00  0.00     0.029 A 
HETATM   17  C20 UNL     1      -2.314   5.939  13.895  1.00  0.00     0.057 A 
HETATM   18  C21 UNL     1      -3.568   5.944  13.284  1.00  0.00     0.067 A 
HETATM   19  C22 UNL     1      -4.367   7.077  13.336  1.00  0.00     0.037 A 
HETATM   20  C23 UNL     1      -3.914   8.217  14.004  1.00  0.00     0.014 A 
HETATM   21  C24 UNL     1      -2.654   8.247  14.645  1.00  0.00    -0.006 A 
HETATM   22  C25 UNL     1      -2.156   9.564  15.262  1.00  0.00     0.185 C 
HETATM   23  O6  UNL     1      -1.222   9.351  16.342  1.00  0.00    -0.371 OA
HETATM   24  C26 UNL     1      -3.144  12.873  17.351  1.00  0.00     0.113 A 
HETATM   25  C27 UNL     1      -3.636  13.816  18.451  1.00  0.00    -0.039 A 
HETATM   26  C28 UNL     1      -3.129  15.121  18.526  1.00  0.00     0.009 A 
HETATM   27  C29 UNL     1      -3.592  16.030  19.490  1.00  0.00     0.012 A 
HETATM   28  C30 UNL     1      -4.542  15.648  20.455  1.00  0.00    -0.003 A 
HETATM   29  C31 UNL     1      -4.977  14.307  20.423  1.00  0.00     0.012 A 
HETATM   30  C32 UNL     1      -4.572  13.426  19.416  1.00  0.00     0.009 A 
HETATM   31  C33 UNL     1      -5.161  16.632  21.506  1.00  0.00     0.171 C 
HETATM   32  O8  UNL     1      -6.590  16.969  21.249  1.00  0.00    -0.316 OA
HETATM   33  C43 UNL     1      -7.060  16.672  19.999  1.00  0.00     0.072 C 
HETATM   34  C44 UNL     1      -7.781  15.489  19.838  1.00  0.00     0.037 C 
HETATM   35  C45 UNL     1      -7.826  14.906  18.573  1.00  0.00     0.010 C 
HETATM   36  C46 UNL     1      -7.193  15.539  17.492  1.00  0.00    -0.054 C 
HETATM   37  C47 UNL     1      -6.781  16.874  17.635  1.00  0.00     0.010 C 
HETATM   38  C48 UNL     1      -6.703  17.441  18.902  1.00  0.00     0.037 C 
HETATM   39 NA1  UNL     1      -3.611  13.943  18.438  1.00  0.00    -0.230 Na
ENDROOT
BRANCH  31  40
HETATM   40  C34 UNL     1      -4.435  18.024  21.538  1.00  0.00     0.070 C 
BRANCH  40  41
HETATM   41  C35 UNL     1      -3.438  18.293  22.694  1.00  0.00     0.043 C 
BRANCH  41  42
HETATM   42  C36 UNL     1      -1.964  17.819  22.549  1.00  0.00     0.058 C 
HETATM   43  C37 UNL     1      -1.118  18.353  23.726  1.00  0.00     0.038 C 
HETATM   44  C38 UNL     1      -0.838  19.854  23.651  1.00  0.00     0.003 C 
HETATM   45  C39 UNL     1      -0.231  20.250  22.309  1.00  0.00     0.000 C 
HETATM   46  C40 UNL     1      -1.057  19.741  21.133  1.00  0.00     0.003 C 
HETATM   47  C41 UNL     1      -1.293  18.237  21.230  1.00  0.00     0.038 C 
BRANCH  42  48
HETATM   48  O7  UNL     1      -1.886  16.389  22.650  1.00  0.00    -0.390 OA
HETATM   49  H40 UNL     1      -2.776  16.038  22.446  1.00  0.00     0.210 HD
ENDBRANCH  42  48
ENDBRANCH  41  42
ENDBRANCH  40  41
ENDBRANCH  31  40
BRANCH  31  50
HETATM   50  N1  UNL     1      -5.037  16.074  22.875  1.00  0.00    -0.331 N 
HETATM   51  C42 UNL     1      -5.808  16.352  23.853  1.00  0.00     0.146 C 
HETATM   52  N2  UNL     1      -5.573  15.775  25.055  1.00  0.00    -0.274 NA
HETATM   53  N3  UNL     1      -6.879  17.159  23.966  1.00  0.00    -0.376 N 
HETATM   54  H51 UNL     1      -4.708  15.242  25.034  1.00  0.00     0.127 HD
HETATM   55  H52 UNL     1      -5.580  16.440  25.813  1.00  0.00     0.127 HD
HETATM   56  H53 UNL     1      -7.562  16.865  24.655  1.00  0.00     0.158 HD
HETATM   57  H54 UNL     1      -7.296  17.509  23.112  1.00  0.00     0.158 HD
ATOM     58  H1  UNL     1      -4.277  15.416  23.048  1.00  0.00     0.165 HD
ENDBRANCH  31  50
BRANCH   1  59
HETATM   59  C2  UNL     1      -7.831  14.659  15.175  1.00  0.00     0.005 C 
HETATM   60  C1  UNL     1      -8.042  15.950  14.395  1.00  0.00     0.006 C 
ENDBRANCH   1  59
BRANCH   3  61
HETATM   61  S1  UNL     1      -2.995  14.733  14.347  1.00  0.00     0.108 S 
HETATM   62  O1  UNL     1      -2.285  15.478  15.387  1.00  0.00    -0.595 OA
HETATM   63  O2  UNL     1      -3.613  15.582  13.329  1.00  0.00    -0.595 OA
HETATM   64  O3  UNL     1      -2.227  13.620  13.802  1.00  0.00    -0.595 OA
ENDBRANCH   3  61
BRANCH  12  65
HETATM   65  C15 UNL     1       1.786   9.897  14.817  1.00  0.00     0.169 C 
BRANCH  65  66
HETATM   66  O4  UNL     1       2.369  11.199  14.788  1.00  0.00    -0.400 OA
HETATM   67  H23 UNL     1       1.666  11.835  14.545  1.00  0.00     0.209 HD
ENDBRANCH  65  66
ENDBRANCH  12  65
BRANCH  18  68
HETATM   68  O5  UNL     1      -4.040   4.865  12.599  1.00  0.00    -0.361 OA
HETATM   69  H27 UNL     1      -3.388   4.151  12.667  1.00  0.00     0.217 HD
ENDBRANCH  18  68
TORSDOF 10
ENDMDL
MODEL 9
REMARK minimizedAffinity -7.99262094
REMARK CNNscore 0.0975732505
REMARK CNNaffinity 5.81061792
REMARK  10 active torsions:
REMARK  status: ('A' for Active; 'I' for Inactive)
REMARK    1  A    between atoms: C2_2  and  C3_3 
REMARK    2  A    between atoms: C5_5  and  S1_6 
REMARK    3  A    between atoms: C14_18  and  C15_19 
REMARK    4  A    between atoms: C15_19  and  O4_20 
REMARK    5  A    between atoms: C21_26  and  O5_27 
REMARK    6  A    between atoms: C33_40  and  C34_41 
REMARK    7  A    between atoms: C33_40  and  N1_50 
REMARK    8  A    between atoms: C34_41  and  C35_42 
REMARK    9  A    between atoms: C35_42  and  C36_43 
REMARK   10  A    between atoms: C36_43  and  O7_44 
REMARK       I    between atoms: N1_50  and  C42_52 
REMARK       I    between atoms: C42_52  and  N2_53 
ROOT
HETATM    1  C3  UNL     1       8.711   9.646  14.888  1.00  0.00     0.019 C 
HETATM    2  C4  UNL     1       7.523  10.364  14.183  1.00  0.00     0.034 C 
HETATM    3  C5  UNL     1       7.777  10.945  12.775  1.00  0.00     0.153 C 
HETATM    4  C6  UNL     1       8.893  12.040  12.637  1.00  0.00     0.119 A 
HETATM    5  C7  UNL     1       9.276  12.220  11.168  1.00  0.00     0.001 C 
HETATM    6  C8  UNL     1      10.218  13.125  10.851  1.00  0.00    -0.049 C 
HETATM    7  C9  UNL     1      10.953  13.780  11.979  1.00  0.00     0.043 C 
HETATM    8  C10 UNL     1       9.881  14.499  12.799  1.00  0.00     0.016 C 
HETATM    9  C11 UNL     1       9.360  15.775  12.069  1.00  0.00     0.039 C 
HETATM   10  C12 UNL     1       9.121  15.738  10.530  1.00  0.00     0.123 C 
HETATM   11  C13 UNL     1       8.861  17.199  10.065  1.00  0.00     0.039 C 
HETATM   12  C14 UNL     1       8.714  17.525   8.554  1.00  0.00     0.023 C 
HETATM   13  C16 UNL     1      10.042  17.849   7.832  1.00  0.00     0.101 C 
HETATM   14  C17 UNL     1      10.823  16.661   7.481  1.00  0.00    -0.101 C 
HETATM   15  C18 UNL     1      11.360  15.590   7.392  1.00  0.00    -0.066 C 
HETATM   16  C19 UNL     1      11.843  14.251   7.536  1.00  0.00     0.029 A 
HETATM   17  C20 UNL     1      12.801  13.795   6.624  1.00  0.00     0.057 A 
HETATM   18  C21 UNL     1      13.232  12.469   6.676  1.00  0.00     0.067 A 
HETATM   19  C22 UNL     1      12.735  11.609   7.643  1.00  0.00     0.037 A 
HETATM   20  C23 UNL     1      11.798  12.072   8.570  1.00  0.00     0.014 A 
HETATM   21  C24 UNL     1      11.345  13.412   8.557  1.00  0.00    -0.006 A 
HETATM   22  C25 UNL     1      10.227  13.836   9.524  1.00  0.00     0.185 C 
HETATM   23  O6  UNL     1      10.272  15.245   9.837  1.00  0.00    -0.371 OA
HETATM   24  C26 UNL     1       8.710  13.503  13.249  1.00  0.00     0.113 A 
HETATM   25  C27 UNL     1       8.541  13.545  14.769  1.00  0.00    -0.039 A 
HETATM   26  C28 UNL     1       7.258  13.658  15.323  1.00  0.00     0.009 A 
HETATM   27  C29 UNL     1       7.059  13.650  16.712  1.00  0.00     0.012 A 
HETATM   28  C30 UNL     1       8.147  13.586  17.604  1.00  0.00    -0.003 A 
HETATM   29  C31 UNL     1       9.436  13.562  17.033  1.00  0.00     0.012 A 
HETATM   30  C32 UNL     1       9.628  13.493  15.650  1.00  0.00     0.009 A 
HETATM   31  C33 UNL     1       7.993  13.491  19.160  1.00  0.00     0.171 C 
HETATM   32  O8  UNL     1       8.355  12.159  19.723  1.00  0.00    -0.316 OA
HETATM   33  C43 UNL     1       8.437  11.132  18.824  1.00  0.00     0.072 C 
HETATM   34  C44 UNL     1       9.701  10.773  18.357  1.00  0.00     0.037 C 
HETATM   35  C45 UNL     1       9.795  10.132  17.123  1.00  0.00     0.010 C 
HETATM   36  C46 UNL     1       8.628   9.824  16.407  1.00  0.00    -0.054 C 
HETATM   37  C47 UNL     1       7.391   9.897  17.066  1.00  0.00     0.010 C 
HETATM   38  C48 UNL     1       7.292  10.568  18.280  1.00  0.00     0.037 C 
HETATM   39 NA1  UNL     1       8.421  13.526  14.818  1.00  0.00    -0.230 Na
ENDROOT
BRANCH  31  40
HETATM   40  C34 UNL     1       6.516  13.726  19.642  1.00  0.00     0.070 C 
BRANCH  40  41
HETATM   41  C35 UNL     1       5.901  12.693  20.619  1.00  0.00     0.043 C 
BRANCH  41  42
HETATM   42  C36 UNL     1       5.574  13.127  22.075  1.00  0.00     0.058 C 
HETATM   43  C37 UNL     1       5.902  11.980  23.056  1.00  0.00     0.038 C 
HETATM   44  C38 UNL     1       4.920  10.812  22.986  1.00  0.00     0.003 C 
HETATM   45  C39 UNL     1       3.475  11.275  23.142  1.00  0.00     0.000 C 
HETATM   46  C40 UNL     1       3.127  12.401  22.175  1.00  0.00     0.003 C 
HETATM   47  C41 UNL     1       4.114  13.559  22.292  1.00  0.00     0.038 C 
BRANCH  42  48
HETATM   48  O7  UNL     1       6.420  14.216  22.475  1.00  0.00    -0.390 OA
HETATM   49  H40 UNL     1       6.749  14.640  21.656  1.00  0.00     0.210 HD
ENDBRANCH  42  48
ENDBRANCH  41  42
ENDBRANCH  40  41
ENDBRANCH  31  40
BRANCH  31  50
HETATM   50  N1  UNL     1       8.812  14.534  19.826  1.00  0.00    -0.331 N 
HETATM   51  C42 UNL     1       9.335  14.426  20.985  1.00  0.00     0.146 C 
HETATM   52  N2  UNL     1      10.054  15.462  21.477  1.00  0.00    -0.274 NA
HETATM   53  N3  UNL     1       9.323  13.439  21.901  1.00  0.00    -0.376 N 
HETATM   54  H51 UNL     1       9.994  16.267  20.857  1.00  0.00     0.127 HD
HETATM   55  H52 UNL     1       9.793  15.702  22.421  1.00  0.00     0.127 HD
HETATM   56  H53 UNL     1      10.147  13.396  22.490  1.00  0.00     0.158 HD
HETATM   57  H54 UNL     1       8.994  12.528  21.604  1.00  0.00     0.158 HD
ATOM     58  H1  UNL     1       8.969  15.404  19.318  1.00  0.00     0.165 HD
ENDBRANCH  31  50
BRANCH   1  59
HETATM   59  C2  UNL     1       8.929   8.178  14.471  1.00  0.00     0.005 C 
HETATM   60  C1  UNL     1      10.332   7.810  14.005  1.00  0.00     0.006 C 
ENDBRANCH   1  59
BRANCH   3  61
HETATM   61  S1  UNL     1       6.190  11.383  11.960  1.00  0.00     0.108 S 
HETATM   62  O1  UNL     1       6.181  10.627  10.707  1.00  0.00    -0.595 OA
HETATM   63  O2  UNL     1       6.314  12.829  11.777  1.00  0.00    -0.595 OA
HETATM   64  O3  UNL     1       5.129  10.993  12.881  1.00  0.00    -0.595 OA
ENDBRANCH   3  61
BRANCH  12  65
HETATM   65  C15 UNL     1       7.848  16.518   7.794  1.00  0.00     0.169 C 
BRANCH  65  66
HETATM   66  O4  UNL     1       6.511  17.010   7.718  1.00  0.00    -0.400 OA
HETATM   67  H23 UNL     1       5.940  16.403   8.231  1.00  0.00     0.209 HD
ENDBRANCH  65  66
ENDBRANCH  12  65
BRANCH  18  68
HETATM   68  O5  UNL     1      14.124  11.966   5.776  1.00  0.00    -0.361 OA
HETATM   69  H27 UNL     1      14.394  12.682   5.181  1.00  0.00     0.217 HD
ENDBRANCH  18  68
TORSDOF 10
ENDMDL
