MODEL 1
REMARK minimizedAffinity -7.23983908
REMARK CNNscore 0.78471607
REMARK CNNaffinity 7.03354502
REMARK  7 active torsions:
REMARK  status: ('A' for Active; 'I' for Inactive)
REMARK    1  A    between atoms: C2_2  and  C30_32 
REMARK    2  A    between atoms: C3_3  and  C4_4 
REMARK    3  A    between atoms: C4_4  and  O1_5 
REMARK    4  A    between atoms: C4_4  and  C5_6 
REMARK    5  A    between atoms: C5_6  and  C6_7 
REMARK    6  A    between atoms: C6_7  and  C8_9 
REMARK    7  A    between atoms: C30_32  and  O3_33 
ROOT
HETATM    1  C8  UNL     1       4.528  55.376  -8.882  1.00  0.00    -0.002 C 
HETATM    2  C9  UNL     1       3.730  56.521  -8.181  1.00  0.00     0.007 C 
HETATM    3  C10 UNL     1       2.230  56.266  -8.437  1.00  0.00     0.015 C 
HETATM    4  C11 UNL     1       2.206  55.197  -9.545  1.00  0.00    -0.013 C 
HETATM    5  C12 UNL     1       2.418  55.969 -10.895  1.00  0.00     0.021 C 
HETATM    6  C13 UNL     1       0.928  54.376  -9.744  1.00  0.00    -0.070 C 
HETATM    7  C14 UNL     1      -0.274  54.965  -9.677  1.00  0.00    -0.022 C 
HETATM    8  C15 UNL     1      -1.533  54.326 -10.136  1.00  0.00     0.034 C 
HETATM    9  C16 UNL     1      -1.324  53.227 -11.216  1.00  0.00     0.013 C 
HETATM   10  C17 UNL     1      -2.727  52.612 -11.623  1.00  0.00     0.018 C 
HETATM   11  C18 UNL     1      -3.797  53.719 -11.810  1.00  0.00     0.023 C 
HETATM   12  C19 UNL     1      -2.693  51.837 -12.959  1.00  0.00     0.023 C 
HETATM   13  C20 UNL     1      -3.196  51.658 -10.514  1.00  0.00     0.135 C 
HETATM   14  O2  UNL     1      -4.372  51.609 -10.148  1.00  0.00    -0.297 OA
HETATM   15  C21 UNL     1      -2.188  50.682  -9.945  1.00  0.00     0.080 C 
HETATM   16  C22 UNL     1      -0.868  51.349  -9.584  1.00  0.00     0.017 C 
HETATM   17  C23 UNL     1      -0.231  52.189 -10.737  1.00  0.00    -0.031 C 
HETATM   18  C24 UNL     1       0.181  51.212 -11.861  1.00  0.00     0.016 C 
HETATM   19  C25 UNL     1       1.086  52.909 -10.149  1.00  0.00     0.024 C 
HETATM   20  C26 UNL     1       2.406  52.727 -10.944  1.00  0.00     0.010 C 
HETATM   21  C27 UNL     1       3.681  53.280 -10.249  1.00  0.00     0.011 C 
HETATM   22  C28 UNL     1       3.417  54.298  -9.119  1.00  0.00    -0.029 C 
HETATM   23  C29 UNL     1       3.201  53.544  -7.766  1.00  0.00     0.016 C 
ENDROOT
BRANCH   1  24
HETATM   24  C6  UNL     1       5.831  55.003  -8.108  1.00  0.00    -0.011 C 
HETATM   25  C7  UNL     1       6.909  54.444  -9.043  1.00  0.00     0.010 C 
BRANCH  24  26
HETATM   26  C5  UNL     1       6.372  56.248  -7.346  1.00  0.00     0.040 C 
BRANCH  26  27
HETATM   27  C4  UNL     1       6.694  56.022  -5.860  1.00  0.00     0.141 C 
BRANCH  27  28
HETATM   28  C3  UNL     1       7.440  57.191  -5.267  1.00  0.00     0.009 C 
HETATM   29  C2  UNL     1       8.763  57.342  -5.028  1.00  0.00    -0.062 C 
HETATM   30  C1  UNL     1       9.797  56.272  -5.273  1.00  0.00     0.045 C 
BRANCH  29  31
HETATM   31  C30 UNL     1       9.361  58.616  -4.470  1.00  0.00     0.198 C 
BRANCH  31  32
HETATM   32  O3  UNL     1      10.428  59.103  -5.270  1.00  0.00    -0.397 OA
HETATM   33  H48 UNL     1      10.033  59.360  -6.121  1.00  0.00     0.209 HD
ENDBRANCH  31  32
ENDBRANCH  29  31
ENDBRANCH  27  28
BRANCH  27  34
HETATM   34  O1  UNL     1       5.505  55.762  -5.126  1.00  0.00    -0.392 OA
HETATM   35  H6  UNL     1       5.738  55.835  -4.184  1.00  0.00     0.210 HD
ENDBRANCH  27  34
ENDBRANCH  26  27
ENDBRANCH  24  26
ENDBRANCH   1  24
TORSDOF 7
ENDMDL
MODEL 2
REMARK minimizedAffinity -7.43068981
REMARK CNNscore 0.741855562
REMARK CNNaffinity 7.24242163
REMARK  7 active torsions:
REMARK  status: ('A' for Active; 'I' for Inactive)
REMARK    1  A    between atoms: C2_2  and  C30_32 
REMARK    2  A    between atoms: C3_3  and  C4_4 
REMARK    3  A    between atoms: C4_4  and  O1_5 
REMARK    4  A    between atoms: C4_4  and  C5_6 
REMARK    5  A    between atoms: C5_6  and  C6_7 
REMARK    6  A    between atoms: C6_7  and  C8_9 
REMARK    7  A    between atoms: C30_32  and  O3_33 
ROOT
HETATM    1  C8  UNL     1      -2.061  52.206 -10.153  1.00  0.00    -0.002 C 
HETATM    2  C9  UNL     1      -1.910  51.252  -8.926  1.00  0.00     0.007 C 
HETATM    3  C10 UNL     1      -0.539  51.539  -8.279  1.00  0.00     0.015 C 
HETATM    4  C11 UNL     1       0.206  52.389  -9.323  1.00  0.00    -0.013 C 
HETATM    5  C12 UNL     1       0.790  51.377 -10.371  1.00  0.00     0.021 C 
HETATM    6  C13 UNL     1       1.402  53.230  -8.864  1.00  0.00    -0.070 C 
HETATM    7  C14 UNL     1       2.288  52.730  -7.993  1.00  0.00    -0.022 C 
HETATM    8  C15 UNL     1       3.612  53.344  -7.716  1.00  0.00     0.034 C 
HETATM    9  C16 UNL     1       4.156  54.218  -8.882  1.00  0.00     0.013 C 
HETATM   10  C17 UNL     1       5.562  54.825  -8.475  1.00  0.00     0.018 C 
HETATM   11  C18 UNL     1       6.460  53.763  -7.789  1.00  0.00     0.023 C 
HETATM   12  C19 UNL     1       6.378  55.344  -9.680  1.00  0.00     0.023 C 
HETATM   13  C20 UNL     1       5.340  55.988  -7.496  1.00  0.00     0.135 C 
HETATM   14  O2  UNL     1       6.069  56.167  -6.518  1.00  0.00    -0.297 OA
HETATM   15  C21 UNL     1       4.257  56.993  -7.822  1.00  0.00     0.080 C 
HETATM   16  C22 UNL     1       2.941  56.331  -8.206  1.00  0.00     0.017 C 
HETATM   17  C23 UNL     1       3.061  55.263  -9.340  1.00  0.00    -0.031 C 
HETATM   18  C24 UNL     1       3.461  55.998 -10.640  1.00  0.00     0.016 C 
HETATM   19  C25 UNL     1       1.610  54.590  -9.535  1.00  0.00     0.024 C 
HETATM   20  C26 UNL     1       1.036  54.552 -10.977  1.00  0.00     0.010 C 
HETATM   21  C27 UNL     1      -0.435  54.065 -11.092  1.00  0.00     0.011 C 
HETATM   22  C28 UNL     1      -0.960  53.283  -9.869  1.00  0.00    -0.029 C 
HETATM   23  C29 UNL     1      -1.542  54.279  -8.813  1.00  0.00     0.016 C 
ENDROOT
BRANCH   1  24
HETATM   24  C6  UNL     1      -3.542  52.639 -10.388  1.00  0.00    -0.011 C 
HETATM   25  C7  UNL     1      -3.696  54.164 -10.387  1.00  0.00     0.010 C 
BRANCH  24  26
HETATM   26  C5  UNL     1      -4.064  52.045 -11.728  1.00  0.00     0.040 C 
BRANCH  26  27
HETATM   27  C4  UNL     1      -3.296  52.481 -12.986  1.00  0.00     0.141 C 
BRANCH  27  28
HETATM   28  C3  UNL     1      -2.851  51.297 -13.807  1.00  0.00     0.009 C 
HETATM   29  C2  UNL     1      -1.608  50.931 -14.194  1.00  0.00    -0.062 C 
HETATM   30  C1  UNL     1      -0.361  51.729 -13.908  1.00  0.00     0.045 C 
BRANCH  29  31
HETATM   31  C30 UNL     1      -1.326  49.668 -14.980  1.00  0.00     0.198 C 
BRANCH  31  32
HETATM   32  O3  UNL     1      -2.408  49.312 -15.829  1.00  0.00    -0.397 OA
HETATM   33  H48 UNL     1      -2.471  50.017 -16.496  1.00  0.00     0.209 HD
ENDBRANCH  31  32
ENDBRANCH  29  31
ENDBRANCH  27  28
BRANCH  27  34
HETATM   34  O1  UNL     1      -4.084  53.366 -13.770  1.00  0.00    -0.392 OA
HETATM   35  H6  UNL     1      -3.644  53.440 -14.634  1.00  0.00     0.210 HD
ENDBRANCH  27  34
ENDBRANCH  26  27
ENDBRANCH  24  26
ENDBRANCH   1  24
TORSDOF 7
ENDMDL
MODEL 3
REMARK minimizedAffinity -7.82312346
REMARK CNNscore 0.61902678
REMARK CNNaffinity 6.06435919
REMARK  7 active torsions:
REMARK  status: ('A' for Active; 'I' for Inactive)
REMARK    1  A    between atoms: C2_2  and  C30_32 
REMARK    2  A    between atoms: C3_3  and  C4_4 
REMARK    3  A    between atoms: C4_4  and  O1_5 
REMARK    4  A    between atoms: C4_4  and  C5_6 
REMARK    5  A    between atoms: C5_6  and  C6_7 
REMARK    6  A    between atoms: C6_7  and  C8_9 
REMARK    7  A    between atoms: C30_32  and  O3_33 
ROOT
HETATM    1  C8  UNL     1     -11.031  45.661 -27.719  1.00  0.00    -0.002 C 
HETATM    2  C9  UNL     1     -11.612  45.709 -29.168  1.00  0.00     0.007 C 
HETATM    3  C10 UNL     1     -13.147  45.596 -29.058  1.00  0.00     0.015 C 
HETATM    4  C11 UNL     1     -13.395  45.148 -27.606  1.00  0.00    -0.013 C 
HETATM    5  C12 UNL     1     -13.171  43.595 -27.588  1.00  0.00     0.021 C 
HETATM    6  C13 UNL     1     -14.787  45.363 -27.001  1.00  0.00    -0.070 C 
HETATM    7  C14 UNL     1     -15.886  45.125 -27.727  1.00  0.00    -0.022 C 
HETATM    8  C15 UNL     1     -17.251  45.025 -27.151  1.00  0.00     0.034 C 
HETATM    9  C16 UNL     1     -17.272  44.618 -25.650  1.00  0.00     0.013 C 
HETATM   10  C17 UNL     1     -18.772  44.549 -25.142  1.00  0.00     0.018 C 
HETATM   11  C18 UNL     1     -19.686  43.838 -26.173  1.00  0.00     0.023 C 
HETATM   12  C19 UNL     1     -18.938  43.760 -23.825  1.00  0.00     0.023 C 
HETATM   13  C20 UNL     1     -19.292  45.979 -24.927  1.00  0.00     0.135 C 
HETATM   14  O2  UNL     1     -20.436  46.312 -25.244  1.00  0.00    -0.297 OA
HETATM   15  C21 UNL     1     -18.395  46.959 -24.203  1.00  0.00     0.080 C 
HETATM   16  C22 UNL     1     -16.973  46.961 -24.747  1.00  0.00     0.017 C 
HETATM   17  C23 UNL     1     -16.305  45.551 -24.817  1.00  0.00    -0.031 C 
HETATM   18  C24 UNL     1     -16.111  45.048 -23.368  1.00  0.00     0.016 C 
HETATM   19  C25 UNL     1     -14.864  45.725 -25.516  1.00  0.00     0.024 C 
HETATM   20  C26 UNL     1     -13.639  45.130 -24.771  1.00  0.00     0.010 C 
HETATM   21  C27 UNL     1     -12.255  45.479 -25.384  1.00  0.00     0.011 C 
HETATM   22  C28 UNL     1     -12.296  45.969 -26.848  1.00  0.00    -0.029 C 
HETATM   23  C29 UNL     1     -12.523  47.516 -26.883  1.00  0.00     0.016 C 
ENDROOT
BRANCH   1  24
HETATM   24  C6  UNL     1      -9.743  46.529 -27.568  1.00  0.00    -0.011 C 
HETATM   25  C7  UNL     1      -8.534  45.686 -27.149  1.00  0.00     0.010 C 
BRANCH  24  26
HETATM   26  C5  UNL     1      -9.445  47.274 -28.901  1.00  0.00     0.040 C 
BRANCH  26  27
HETATM   27  C4  UNL     1      -8.278  48.272 -28.851  1.00  0.00     0.141 C 
BRANCH  27  28
HETATM   28  C3  UNL     1      -7.280  48.022 -29.954  1.00  0.00     0.009 C 
HETATM   29  C2  UNL     1      -5.936  47.883 -29.891  1.00  0.00    -0.062 C 
HETATM   30  C1  UNL     1      -5.128  48.022 -28.625  1.00  0.00     0.045 C 
BRANCH  29  31
HETATM   31  C30 UNL     1      -5.080  47.578 -31.102  1.00  0.00     0.198 C 
BRANCH  31  32
HETATM   32  O3  UNL     1      -4.553  48.755 -31.696  1.00  0.00    -0.397 OA
HETATM   33  H48 UNL     1      -3.942  49.138 -31.043  1.00  0.00     0.209 HD
ENDBRANCH  31  32
ENDBRANCH  29  31
ENDBRANCH  27  28
BRANCH  27  34
HETATM   34  O1  UNL     1      -8.761  49.608 -28.906  1.00  0.00    -0.392 OA
HETATM   35  H6  UNL     1      -7.990  50.176 -29.080  1.00  0.00     0.210 HD
ENDBRANCH  27  34
ENDBRANCH  26  27
ENDBRANCH  24  26
ENDBRANCH   1  24
TORSDOF 7
ENDMDL
MODEL 4
REMARK minimizedAffinity -7.3922348
REMARK CNNscore 0.462220162
REMARK CNNaffinity 6.37738752
REMARK  7 active torsions:
REMARK  status: ('A' for Active; 'I' for Inactive)
REMARK    1  A    between atoms: C2_2  and  C30_32 
REMARK    2  A    between atoms: C3_3  and  C4_4 
REMARK    3  A    between atoms: C4_4  and  O1_5 
REMARK    4  A    between atoms: C4_4  and  C5_6 
REMARK    5  A    between atoms: C5_6  and  C6_7 
REMARK    6  A    between atoms: C6_7  and  C8_9 
REMARK    7  A    between atoms: C30_32  and  O3_33 
ROOT
HETATM    1  C8  UNL     1       1.339  55.403  -8.994  1.00  0.00    -0.002 C 
HETATM    2  C9  UNL     1       2.424  54.430  -9.557  1.00  0.00     0.007 C 
HETATM    3  C10 UNL     1       3.744  54.727  -8.816  1.00  0.00     0.015 C 
HETATM    4  C11 UNL     1       3.490  56.066  -8.101  1.00  0.00    -0.013 C 
HETATM    5  C12 UNL     1       3.718  57.183  -9.180  1.00  0.00     0.021 C 
HETATM    6  C13 UNL     1       4.393  56.450  -6.924  1.00  0.00    -0.070 C 
HETATM    7  C14 UNL     1       5.712  56.226  -6.979  1.00  0.00    -0.022 C 
HETATM    8  C15 UNL     1       6.691  56.816  -6.031  1.00  0.00     0.034 C 
HETATM    9  C16 UNL     1       6.208  58.139  -5.371  1.00  0.00     0.013 C 
HETATM   10  C17 UNL     1       7.323  58.672  -4.379  1.00  0.00     0.018 C 
HETATM   11  C18 UNL     1       8.737  58.565  -5.007  1.00  0.00     0.023 C 
HETATM   12  C19 UNL     1       7.148  60.160  -4.000  1.00  0.00     0.023 C 
HETATM   13  C20 UNL     1       7.292  57.831  -3.093  1.00  0.00     0.135 C 
HETATM   14  O2  UNL     1       8.323  57.477  -2.519  1.00  0.00    -0.297 OA
HETATM   15  C21 UNL     1       5.944  57.535  -2.472  1.00  0.00     0.080 C 
HETATM   16  C22 UNL     1       4.929  57.032  -3.490  1.00  0.00     0.017 C 
HETATM   17  C23 UNL     1       4.768  57.945  -4.748  1.00  0.00    -0.031 C 
HETATM   18  C24 UNL     1       4.146  59.283  -4.284  1.00  0.00     0.016 C 
HETATM   19  C25 UNL     1       3.752  57.210  -5.760  1.00  0.00     0.024 C 
HETATM   20  C26 UNL     1       2.548  58.040  -6.281  1.00  0.00     0.010 C 
HETATM   21  C27 UNL     1       1.498  57.241  -7.103  1.00  0.00     0.011 C 
HETATM   22  C28 UNL     1       1.997  55.891  -7.658  1.00  0.00    -0.029 C 
HETATM   23  C29 UNL     1       1.780  54.767  -6.593  1.00  0.00     0.016 C 
ENDROOT
BRANCH   1  24
HETATM   24  C6  UNL     1      -0.083  54.761  -8.980  1.00  0.00    -0.011 C 
HETATM   25  C7  UNL     1      -1.110  55.633  -9.710  1.00  0.00     0.010 C 
BRANCH  24  26
HETATM   26  C5  UNL     1      -0.032  53.341  -9.615  1.00  0.00     0.040 C 
BRANCH  26  27
HETATM   27  C4  UNL     1      -1.352  52.555  -9.580  1.00  0.00     0.141 C 
BRANCH  27  28
HETATM   28  C3  UNL     1      -1.954  52.412 -10.955  1.00  0.00     0.009 C 
HETATM   29  C2  UNL     1      -3.113  52.904 -11.449  1.00  0.00    -0.062 C 
HETATM   30  C1  UNL     1      -4.113  53.691 -10.639  1.00  0.00     0.045 C 
BRANCH  29  31
HETATM   31  C30 UNL     1      -3.548  52.709 -12.886  1.00  0.00     0.198 C 
BRANCH  31  32
HETATM   32  O3  UNL     1      -4.282  53.820 -13.379  1.00  0.00    -0.397 OA
HETATM   33  H48 UNL     1      -3.660  54.567 -13.402  1.00  0.00     0.209 HD
ENDBRANCH  31  32
ENDBRANCH  29  31
ENDBRANCH  27  28
BRANCH  27  34
HETATM   34  O1  UNL     1      -1.158  51.280  -8.982  1.00  0.00    -0.392 OA
HETATM   35  H6  UNL     1      -1.957  50.759  -9.174  1.00  0.00     0.210 HD
ENDBRANCH  27  34
ENDBRANCH  26  27
ENDBRANCH  24  26
ENDBRANCH   1  24
TORSDOF 7
ENDMDL
MODEL 5
REMARK minimizedAffinity -7.26296186
REMARK CNNscore 0.460525453
REMARK CNNaffinity 5.89369726
REMARK  7 active torsions:
REMARK  status: ('A' for Active; 'I' for Inactive)
REMARK    1  A    between atoms: C2_2  and  C30_32 
REMARK    2  A    between atoms: C3_3  and  C4_4 
REMARK    3  A    between atoms: C4_4  and  O1_5 
REMARK    4  A    between atoms: C4_4  and  C5_6 
REMARK    5  A    between atoms: C5_6  and  C6_7 
REMARK    6  A    between atoms: C6_7  and  C8_9 
REMARK    7  A    between atoms: C30_32  and  O3_33 
ROOT
HETATM    1  C8  UNL     1     -10.662  44.525 -28.023  1.00  0.00    -0.002 C 
HETATM    2  C9  UNL     1     -11.199  44.928 -29.433  1.00  0.00     0.007 C 
HETATM    3  C10 UNL     1     -12.726  45.116 -29.313  1.00  0.00     0.015 C 
HETATM    4  C11 UNL     1     -13.083  44.496 -27.950  1.00  0.00    -0.013 C 
HETATM    5  C12 UNL     1     -13.182  42.948 -28.191  1.00  0.00     0.021 C 
HETATM    6  C13 UNL     1     -14.409  44.889 -27.292  1.00  0.00    -0.070 C 
HETATM    7  C14 UNL     1     -15.523  45.003 -28.026  1.00  0.00    -0.022 C 
HETATM    8  C15 UNL     1     -16.888  45.091 -27.448  1.00  0.00     0.034 C 
HETATM    9  C16 UNL     1     -17.015  44.457 -26.034  1.00  0.00     0.013 C 
HETATM   10  C17 UNL     1     -18.504  44.614 -25.515  1.00  0.00     0.018 C 
HETATM   11  C18 UNL     1     -19.529  44.284 -26.631  1.00  0.00     0.023 C 
HETATM   12  C19 UNL     1     -18.849  43.669 -24.342  1.00  0.00     0.023 C 
HETATM   13  C20 UNL     1     -18.724  46.064 -25.058  1.00  0.00     0.135 C 
HETATM   14  O2  UNL     1     -19.770  46.672 -25.294  1.00  0.00    -0.297 OA
HETATM   15  C21 UNL     1     -17.655  46.707 -24.201  1.00  0.00     0.080 C 
HETATM   16  C22 UNL     1     -16.255  46.508 -24.764  1.00  0.00     0.017 C 
HETATM   17  C23 UNL     1     -15.890  45.022 -25.077  1.00  0.00    -0.031 C 
HETATM   18  C24 UNL     1     -15.825  44.258 -23.734  1.00  0.00     0.016 C 
HETATM   19  C25 UNL     1     -14.433  45.010 -25.766  1.00  0.00     0.024 C 
HETATM   20  C26 UNL     1     -13.368  44.062 -25.152  1.00  0.00     0.010 C 
HETATM   21  C27 UNL     1     -11.932  44.217 -25.726  1.00  0.00     0.011 C 
HETATM   22  C28 UNL     1     -11.850  44.938 -27.089  1.00  0.00    -0.029 C 
HETATM   23  C29 UNL     1     -11.754  46.483 -26.866  1.00  0.00     0.016 C 
ENDROOT
BRANCH   1  24
HETATM   24  C6  UNL     1      -9.226  45.074 -27.756  1.00  0.00    -0.011 C 
HETATM   25  C7  UNL     1      -8.254  43.958 -27.355  1.00  0.00     0.010 C 
BRANCH  24  26
HETATM   26  C5  UNL     1      -8.699  45.820 -29.017  1.00  0.00     0.040 C 
BRANCH  26  27
HETATM   27  C4  UNL     1      -7.951  47.133 -28.740  1.00  0.00     0.141 C 
BRANCH  27  28
HETATM   28  C3  UNL     1      -8.625  47.945 -27.663  1.00  0.00     0.009 C 
HETATM   29  C2  UNL     1      -8.358  48.018 -26.339  1.00  0.00    -0.062 C 
HETATM   30  C1  UNL     1      -7.303  47.198 -25.640  1.00  0.00     0.045 C 
BRANCH  29  31
HETATM   31  C30 UNL     1      -9.106  48.935 -25.395  1.00  0.00     0.198 C 
BRANCH  31  32
HETATM   32  O3  UNL     1      -9.624  50.079 -26.057  1.00  0.00    -0.397 OA
HETATM   33  H48 UNL     1     -10.298  49.751 -26.678  1.00  0.00     0.209 HD
ENDBRANCH  31  32
ENDBRANCH  29  31
ENDBRANCH  27  28
BRANCH  27  34
HETATM   34  O1  UNL     1      -6.596  46.873 -28.397  1.00  0.00    -0.392 OA
HETATM   35  H6  UNL     1      -6.236  47.701 -28.036  1.00  0.00     0.210 HD
ENDBRANCH  27  34
ENDBRANCH  26  27
ENDBRANCH  24  26
ENDBRANCH   1  24
TORSDOF 7
ENDMDL
MODEL 6
REMARK minimizedAffinity -8.43034554
REMARK CNNscore 0.364028245
REMARK CNNaffinity 6.47811317
REMARK  7 active torsions:
REMARK  status: ('A' for Active; 'I' for Inactive)
REMARK    1  A    between atoms: C2_2  and  C30_32 
REMARK    2  A    between atoms: C3_3  and  C4_4 
REMARK    3  A    between atoms: C4_4  and  O1_5 
REMARK    4  A    between atoms: C4_4  and  C5_6 
REMARK    5  A    between atoms: C5_6  and  C6_7 
REMARK    6  A    between atoms: C6_7  and  C8_9 
REMARK    7  A    between atoms: C30_32  and  O3_33 
ROOT
HETATM    1  C8  UNL     1      -3.057  49.846 -21.811  1.00  0.00    -0.002 C 
HETATM    2  C9  UNL     1      -4.103  50.383 -20.782  1.00  0.00     0.007 C 
HETATM    3  C10 UNL     1      -5.506  50.135 -21.373  1.00  0.00     0.015 C 
HETATM    4  C11 UNL     1      -5.244  49.783 -22.848  1.00  0.00    -0.013 C 
HETATM    5  C12 UNL     1      -5.053  51.152 -23.592  1.00  0.00     0.021 C 
HETATM    6  C13 UNL     1      -6.336  49.047 -23.631  1.00  0.00    -0.070 C 
HETATM    7  C14 UNL     1      -7.623  49.387 -23.484  1.00  0.00    -0.022 C 
HETATM    8  C15 UNL     1      -8.706  48.940 -24.397  1.00  0.00     0.034 C 
HETATM    9  C16 UNL     1      -8.212  48.573 -25.825  1.00  0.00     0.013 C 
HETATM   10  C17 UNL     1      -9.444  48.105 -26.706  1.00  0.00     0.018 C 
HETATM   11  C18 UNL     1     -10.671  49.032 -26.500  1.00  0.00     0.023 C 
HETATM   12  C19 UNL     1      -9.157  48.127 -28.224  1.00  0.00     0.023 C 
HETATM   13  C20 UNL     1      -9.835  46.676 -26.300  1.00  0.00     0.135 C 
HETATM   14  O2  UNL     1     -11.011  46.322 -26.204  1.00  0.00    -0.297 OA
HETATM   15  C21 UNL     1      -8.726  45.660 -26.125  1.00  0.00     0.080 C 
HETATM   16  C22 UNL     1      -7.580  46.187 -25.272  1.00  0.00     0.017 C 
HETATM   17  C23 UNL     1      -7.001  47.560 -25.743  1.00  0.00    -0.031 C 
HETATM   18  C24 UNL     1      -6.326  47.341 -27.116  1.00  0.00     0.016 C 
HETATM   19  C25 UNL     1      -5.888  48.016 -24.670  1.00  0.00     0.024 C 
HETATM   20  C26 UNL     1      -4.492  48.407 -25.223  1.00  0.00     0.010 C 
HETATM   21  C27 UNL     1      -3.400  48.661 -24.147  1.00  0.00     0.011 C 
HETATM   22  C28 UNL     1      -3.937  48.927 -22.725  1.00  0.00    -0.029 C 
HETATM   23  C29 UNL     1      -4.136  47.572 -21.971  1.00  0.00     0.016 C 
ENDROOT
BRANCH   1  24
HETATM   24  C6  UNL     1      -1.782  49.274 -21.116  1.00  0.00    -0.011 C 
HETATM   25  C7  UNL     1      -1.551  47.801 -21.473  1.00  0.00     0.010 C 
BRANCH  24  26
HETATM   26  C5  UNL     1      -0.538  50.124 -21.503  1.00  0.00     0.040 C 
BRANCH  26  27
HETATM   27  C4  UNL     1      -0.831  51.377 -22.342  1.00  0.00     0.141 C 
BRANCH  27  28
HETATM   28  C3  UNL     1       0.205  52.451 -22.124  1.00  0.00     0.009 C 
HETATM   29  C2  UNL     1       0.536  53.118 -20.994  1.00  0.00    -0.062 C 
HETATM   30  C1  UNL     1      -0.162  52.940 -19.669  1.00  0.00     0.045 C 
BRANCH  29  31
HETATM   31  C30 UNL     1       1.651  54.141 -20.936  1.00  0.00     0.198 C 
BRANCH  31  32
HETATM   32  O3  UNL     1       1.703  54.945 -22.105  1.00  0.00    -0.397 OA
HETATM   33  H48 UNL     1       0.882  55.466 -22.112  1.00  0.00     0.209 HD
ENDBRANCH  31  32
ENDBRANCH  29  31
ENDBRANCH  27  28
BRANCH  27  34
HETATM   34  O1  UNL     1      -0.925  51.045 -23.721  1.00  0.00    -0.392 OA
HETATM   35  H6  UNL     1      -0.900  51.884 -24.212  1.00  0.00     0.210 HD
ENDBRANCH  27  34
ENDBRANCH  26  27
ENDBRANCH  24  26
ENDBRANCH   1  24
TORSDOF 7
ENDMDL
MODEL 7
REMARK minimizedAffinity -7.09776354
REMARK CNNscore 0.333891541
REMARK CNNaffinity 6.37294006
REMARK  7 active torsions:
REMARK  status: ('A' for Active; 'I' for Inactive)
REMARK    1  A    between atoms: C2_2  and  C30_32 
REMARK    2  A    between atoms: C3_3  and  C4_4 
REMARK    3  A    between atoms: C4_4  and  O1_5 
REMARK    4  A    between atoms: C4_4  and  C5_6 
REMARK    5  A    between atoms: C5_6  and  C6_7 
REMARK    6  A    between atoms: C6_7  and  C8_9 
REMARK    7  A    between atoms: C30_32  and  O3_33 
ROOT
HETATM    1  C8  UNL     1      -9.283  46.789 -25.233  1.00  0.00    -0.002 C 
HETATM    2  C9  UNL     1     -10.156  46.702 -23.941  1.00  0.00     0.007 C 
HETATM    3  C10 UNL     1      -9.293  47.199 -22.763  1.00  0.00     0.015 C 
HETATM    4  C11 UNL     1      -7.861  47.238 -23.325  1.00  0.00    -0.013 C 
HETATM    5  C12 UNL     1      -7.323  45.765 -23.240  1.00  0.00     0.021 C 
HETATM    6  C13 UNL     1      -6.814  48.093 -22.605  1.00  0.00    -0.070 C 
HETATM    7  C14 UNL     1      -6.760  48.116 -21.267  1.00  0.00    -0.022 C 
HETATM    8  C15 UNL     1      -5.620  48.672 -20.495  1.00  0.00     0.034 C 
HETATM    9  C16 UNL     1      -4.274  48.674 -21.275  1.00  0.00     0.013 C 
HETATM   10  C17 UNL     1      -3.136  49.293 -20.362  1.00  0.00     0.018 C 
HETATM   11  C18 UNL     1      -3.216  48.750 -18.912  1.00  0.00     0.023 C 
HETATM   12  C19 UNL     1      -1.708  48.962 -20.852  1.00  0.00     0.023 C 
HETATM   13  C20 UNL     1      -3.300  50.820 -20.324  1.00  0.00     0.135 C 
HETATM   14  O2  UNL     1      -3.138  51.469 -19.289  1.00  0.00    -0.297 OA
HETATM   15  C21 UNL     1      -3.561  51.538 -21.631  1.00  0.00     0.080 C 
HETATM   16  C22 UNL     1      -4.663  50.880 -22.450  1.00  0.00     0.017 C 
HETATM   17  C23 UNL     1      -4.463  49.350 -22.692  1.00  0.00    -0.031 C 
HETATM   18  C24 UNL     1      -3.221  49.173 -23.595  1.00  0.00     0.016 C 
HETATM   19  C25 UNL     1      -5.766  48.802 -23.467  1.00  0.00     0.024 C 
HETATM   20  C26 UNL     1      -5.526  47.990 -24.767  1.00  0.00     0.010 C 
HETATM   21  C27 UNL     1      -6.806  47.641 -25.577  1.00  0.00     0.011 C 
HETATM   22  C28 UNL     1      -8.126  47.745 -24.784  1.00  0.00    -0.029 C 
HETATM   23  C29 UNL     1      -8.674  49.208 -24.857  1.00  0.00     0.016 C 
ENDROOT
BRANCH   1  24
HETATM   24  C6  UNL     1     -10.131  47.124 -26.500  1.00  0.00    -0.011 C 
HETATM   25  C7  UNL     1      -9.978  46.054 -27.587  1.00  0.00     0.010 C 
BRANCH  24  26
HETATM   26  C5  UNL     1     -11.629  47.285 -26.110  1.00  0.00     0.040 C 
BRANCH  26  27
HETATM   27  C4  UNL     1     -12.585  47.584 -27.275  1.00  0.00     0.141 C 
BRANCH  27  28
HETATM   28  C3  UNL     1     -13.911  46.886 -27.104  1.00  0.00     0.009 C 
HETATM   29  C2  UNL     1     -14.319  45.680 -27.560  1.00  0.00    -0.062 C 
HETATM   30  C1  UNL     1     -13.485  44.777 -28.434  1.00  0.00     0.045 C 
BRANCH  29  31
HETATM   31  C30 UNL     1     -15.682  45.097 -27.248  1.00  0.00     0.198 C 
BRANCH  31  32
HETATM   32  O3  UNL     1     -16.469  44.920 -28.417  1.00  0.00    -0.397 OA
HETATM   33  H48 UNL     1     -16.018  44.240 -28.947  1.00  0.00     0.209 HD
ENDBRANCH  31  32
ENDBRANCH  29  31
ENDBRANCH  27  28
BRANCH  27  34
HETATM   34  O1  UNL     1     -12.772  48.986 -27.420  1.00  0.00    -0.392 OA
HETATM   35  H6  UNL     1     -13.530  49.105 -28.018  1.00  0.00     0.210 HD
ENDBRANCH  27  34
ENDBRANCH  26  27
ENDBRANCH  24  26
ENDBRANCH   1  24
TORSDOF 7
ENDMDL
MODEL 8
REMARK minimizedAffinity -8.92787647
REMARK CNNscore 0.291579396
REMARK CNNaffinity 6.58522415
REMARK  7 active torsions:
REMARK  status: ('A' for Active; 'I' for Inactive)
REMARK    1  A    between atoms: C2_2  and  C30_32 
REMARK    2  A    between atoms: C3_3  and  C4_4 
REMARK    3  A    between atoms: C4_4  and  O1_5 
REMARK    4  A    between atoms: C4_4  and  C5_6 
REMARK    5  A    between atoms: C5_6  and  C6_7 
REMARK    6  A    between atoms: C6_7  and  C8_9 
REMARK    7  A    between atoms: C30_32  and  O3_33 
ROOT
HETATM    1  C8  UNL     1      -1.273  50.755 -22.459  1.00  0.00    -0.002 C 
HETATM    2  C9  UNL     1      -1.560  50.337 -23.937  1.00  0.00     0.007 C 
HETATM    3  C10 UNL     1      -2.821  49.448 -23.931  1.00  0.00     0.015 C 
HETATM    4  C11 UNL     1      -3.034  49.093 -22.449  1.00  0.00    -0.013 C 
HETATM    5  C12 UNL     1      -2.059  47.901 -22.144  1.00  0.00     0.021 C 
HETATM    6  C13 UNL     1      -4.417  48.608 -22.003  1.00  0.00    -0.070 C 
HETATM    7  C14 UNL     1      -5.113  47.752 -22.763  1.00  0.00    -0.022 C 
HETATM    8  C15 UNL     1      -6.310  47.012 -22.289  1.00  0.00     0.034 C 
HETATM    9  C16 UNL     1      -6.359  46.817 -20.747  1.00  0.00     0.013 C 
HETATM   10  C17 UNL     1      -7.675  46.025 -20.356  1.00  0.00     0.018 C 
HETATM   11  C18 UNL     1      -7.926  44.835 -21.318  1.00  0.00     0.023 C 
HETATM   12  C19 UNL     1      -7.624  45.410 -18.939  1.00  0.00     0.023 C 
HETATM   13  C20 UNL     1      -8.875  46.981 -20.433  1.00  0.00     0.135 C 
HETATM   14  O2  UNL     1      -9.963  46.628 -20.893  1.00  0.00    -0.297 OA
HETATM   15  C21 UNL     1      -8.726  48.356 -19.820  1.00  0.00     0.080 C 
HETATM   16  C22 UNL     1      -7.437  49.048 -20.241  1.00  0.00     0.017 C 
HETATM   17  C23 UNL     1      -6.144  48.200 -20.013  1.00  0.00    -0.031 C 
HETATM   18  C24 UNL     1      -5.954  48.031 -18.488  1.00  0.00     0.016 C 
HETATM   19  C25 UNL     1      -4.901  49.031 -20.614  1.00  0.00     0.024 C 
HETATM   20  C26 UNL     1      -3.679  49.250 -19.682  1.00  0.00     0.010 C 
HETATM   21  C27 UNL     1      -2.587  50.207 -20.234  1.00  0.00     0.011 C 
HETATM   22  C28 UNL     1      -2.638  50.443 -21.758  1.00  0.00    -0.029 C 
HETATM   23  C29 UNL     1      -3.609  51.627 -22.079  1.00  0.00     0.016 C 
ENDROOT
BRANCH   1  24
HETATM   24  C6  UNL     1      -0.646  52.181 -22.358  1.00  0.00    -0.011 C 
HETATM   25  C7  UNL     1       0.812  52.130 -21.887  1.00  0.00     0.010 C 
BRANCH  24  26
HETATM   26  C5  UNL     1      -0.742  52.903 -23.734  1.00  0.00     0.040 C 
BRANCH  26  27
HETATM   27  C4  UNL     1       0.585  53.054 -24.493  1.00  0.00     0.141 C 
BRANCH  27  28
HETATM   28  C3  UNL     1       0.421  52.770 -25.966  1.00  0.00     0.009 C 
HETATM   29  C2  UNL     1       1.173  52.003 -26.788  1.00  0.00    -0.062 C 
HETATM   30  C1  UNL     1       2.433  51.291 -26.366  1.00  0.00     0.045 C 
BRANCH  29  31
HETATM   31  C30 UNL     1       0.834  51.779 -28.247  1.00  0.00     0.198 C 
BRANCH  31  32
HETATM   32  O3  UNL     1       0.005  52.807 -28.769  1.00  0.00    -0.397 OA
HETATM   33  H48 UNL     1       0.540  53.619 -28.755  1.00  0.00     0.209 HD
ENDBRANCH  31  32
ENDBRANCH  29  31
ENDBRANCH  27  28
BRANCH  27  34
HETATM   34  O1  UNL     1       1.131  54.351 -24.291  1.00  0.00    -0.392 OA
HETATM   35  H6  UNL     1       1.841  54.459 -24.947  1.00  0.00     0.210 HD
ENDBRANCH  27  34
ENDBRANCH  26  27
ENDBRANCH  24  26
ENDBRANCH   1  24
TORSDOF 7
ENDMDL
MODEL 9
REMARK minimizedAffinity -8.23050308
REMARK CNNscore 0.286365271
REMARK CNNaffinity 6.78232527
REMARK  7 active torsions:
REMARK  status: ('A' for Active; 'I' for Inactive)
REMARK    1  A    between atoms: C2_2  and  C30_32 
REMARK    2  A    between atoms: C3_3  and  C4_4 
REMARK    3  A    between atoms: C4_4  and  O1_5 
REMARK    4  A    between atoms: C4_4  and  C5_6 
REMARK    5  A    between atoms: C5_6  and  C6_7 
REMARK    6  A    between atoms: C6_7  and  C8_9 
REMARK    7  A    between atoms: C30_32  and  O3_33 
ROOT
HETATM    1  C8  UNL     1      -2.160  49.798 -21.500  1.00  0.00    -0.002 C 
HETATM    2  C9  UNL     1      -1.152  50.931 -21.879  1.00  0.00     0.007 C 
HETATM    3  C10 UNL     1      -0.389  51.323 -20.596  1.00  0.00     0.015 C 
HETATM    4  C11 UNL     1      -1.192  50.669 -19.458  1.00  0.00    -0.013 C 
HETATM    5  C12 UNL     1      -2.396  51.633 -19.167  1.00  0.00     0.021 C 
HETATM    6  C13 UNL     1      -0.505  50.460 -18.104  1.00  0.00    -0.070 C 
HETATM    7  C14 UNL     1       0.288  51.410 -17.591  1.00  0.00    -0.022 C 
HETATM    8  C15 UNL     1       0.756  51.424 -16.182  1.00  0.00     0.034 C 
HETATM    9  C16 UNL     1      -0.172  50.649 -15.204  1.00  0.00     0.013 C 
HETATM   10  C17 UNL     1       0.426  50.725 -13.737  1.00  0.00     0.018 C 
HETATM   11  C18 UNL     1       0.921  52.156 -13.402  1.00  0.00     0.023 C 
HETATM   12  C19 UNL     1      -0.600  50.371 -12.637  1.00  0.00     0.023 C 
HETATM   13  C20 UNL     1       1.613  49.756 -13.631  1.00  0.00     0.135 C 
HETATM   14  O2  UNL     1       2.644  50.050 -13.022  1.00  0.00    -0.297 OA
HETATM   15  C21 UNL     1       1.448  48.366 -14.205  1.00  0.00     0.080 C 
HETATM   16  C22 UNL     1       0.865  48.379 -15.612  1.00  0.00     0.017 C 
HETATM   17  C23 UNL     1      -0.459  49.196 -15.756  1.00  0.00    -0.031 C 
HETATM   18  C24 UNL     1      -1.554  48.467 -14.944  1.00  0.00     0.016 C 
HETATM   19  C25 UNL     1      -0.866  49.198 -17.315  1.00  0.00     0.024 C 
HETATM   20  C26 UNL     1      -2.311  48.759 -17.670  1.00  0.00     0.010 C 
HETATM   21  C27 UNL     1      -2.603  48.599 -19.188  1.00  0.00     0.011 C 
HETATM   22  C28 UNL     1      -1.599  49.309 -20.121  1.00  0.00    -0.029 C 
HETATM   23  C29 UNL     1      -0.391  48.361 -20.418  1.00  0.00     0.016 C 
ENDROOT
BRANCH   1  24
HETATM   24  C6  UNL     1      -2.376  48.783 -22.665  1.00  0.00    -0.011 C 
HETATM   25  C7  UNL     1      -2.356  47.333 -22.169  1.00  0.00     0.010 C 
BRANCH  24  26
HETATM   26  C5  UNL     1      -3.718  49.086 -23.392  1.00  0.00     0.040 C 
BRANCH  26  27
HETATM   27  C4  UNL     1      -3.593  49.867 -24.709  1.00  0.00     0.141 C 
BRANCH  27  28
HETATM   28  C3  UNL     1      -4.133  49.082 -25.878  1.00  0.00     0.009 C 
HETATM   29  C2  UNL     1      -3.907  49.237 -27.203  1.00  0.00    -0.062 C 
HETATM   30  C1  UNL     1      -3.063  50.337 -27.796  1.00  0.00     0.045 C 
BRANCH  29  31
HETATM   31  C30 UNL     1      -4.493  48.317 -28.253  1.00  0.00     0.198 C 
BRANCH  31  32
HETATM   32  O3  UNL     1      -4.707  48.982 -29.489  1.00  0.00    -0.397 OA
HETATM   33  H48 UNL     1      -3.827  49.221 -29.825  1.00  0.00     0.209 HD
ENDBRANCH  31  32
ENDBRANCH  29  31
ENDBRANCH  27  28
BRANCH  27  34
HETATM   34  O1  UNL     1      -4.245  51.126 -24.607  1.00  0.00    -0.392 OA
HETATM   35  H6  UNL     1      -4.315  51.478 -25.511  1.00  0.00     0.210 HD
ENDBRANCH  27  34
ENDBRANCH  26  27
ENDBRANCH  24  26
ENDBRANCH   1  24
TORSDOF 7
ENDMDL
