MODEL 1
REMARK minimizedAffinity -9.58683014
REMARK CNNscore 0.349987626
REMARK CNNaffinity 7.40018415
REMARK  15 active torsions:
REMARK  status: ('A' for Active; 'I' for Inactive)
REMARK    1  A    between atoms: C2_2  and  C3_3 
REMARK    2  A    between atoms: C2_2  and  C37_47 
REMARK    3  A    between atoms: C3_3  and  C4_4 
REMARK    4  A    between atoms: C4_4  and  C5_5 
REMARK    5  A    between atoms: C5_5  and  C6_6 
REMARK    6  A    between atoms: C5_5  and  C13_20 
REMARK    7  A    between atoms: C6_6  and  O2_8 
REMARK    8  A    between atoms: O2_8  and  C7_9 
REMARK    9  A    between atoms: C8_11  and  C9_12 
REMARK   10  A    between atoms: C9_12  and  O4_13 
REMARK   11  A    between atoms: C10_14  and  O5_15 
REMARK   12  A    between atoms: C11_16  and  O6_17 
REMARK   13  A    between atoms: C12_18  and  O7_19 
REMARK   14  A    between atoms: C14_21  and  O8_22 
REMARK   15  A    between atoms: O8_22  and  C15_23 
ROOT
HETATM    1  C13 UNL     1       0.793   7.906  13.478  1.00  0.00     0.038 C 
HETATM    2  C14 UNL     1       0.927   8.887  14.683  1.00  0.00     0.138 C 
HETATM    3  C17 UNL     1      -0.463   8.984  15.340  1.00  0.00     0.047 C 
HETATM    4  C18 UNL     1      -1.236   7.755  14.814  1.00  0.00    -0.010 C 
HETATM    5  C19 UNL     1      -0.826   6.532  15.693  1.00  0.00     0.021 C 
HETATM    6  C20 UNL     1      -2.761   7.762  14.852  1.00  0.00    -0.068 C 
HETATM    7  C21 UNL     1      -3.465   7.011  13.965  1.00  0.00    -0.068 C 
HETATM    8  C22 UNL     1      -2.751   6.193  12.877  1.00  0.00     0.036 C 
HETATM    9  C23 UNL     1      -1.219   6.363  12.742  1.00  0.00     0.015 C 
HETATM   10  C24 UNL     1      -0.745   7.710  13.309  1.00  0.00    -0.026 C 
HETATM   11  C25 UNL     1      -1.343   8.840  12.431  1.00  0.00     0.016 C 
HETATM   12  C26 UNL     1      -5.017   6.957  13.973  1.00  0.00    -0.015 C 
HETATM   13  C27 UNL     1      -5.505   7.833  12.790  1.00  0.00     0.020 C 
HETATM   14  C28 UNL     1      -5.509   5.495  13.762  1.00  0.00     0.021 C 
HETATM   15  C29 UNL     1      -6.926   5.192  14.248  1.00  0.00     0.080 C 
HETATM   16  C30 UNL     1      -7.753   6.425  14.525  1.00  0.00     0.135 C 
HETATM   17  O10 UNL     1      -8.899   6.513  14.083  1.00  0.00    -0.297 OA
HETATM   18  C31 UNL     1      -7.148   7.486  15.451  1.00  0.00     0.018 C 
HETATM   19  C32 UNL     1      -7.761   8.862  15.119  1.00  0.00     0.023 C 
HETATM   20  C33 UNL     1      -7.591   7.122  16.886  1.00  0.00     0.023 C 
HETATM   21  C34 UNL     1      -5.583   7.440  15.357  1.00  0.00     0.013 C 
HETATM   22  C35 UNL     1      -4.915   8.750  15.799  1.00  0.00     0.011 C 
HETATM   23  C36 UNL     1      -3.409   8.577  15.947  1.00  0.00     0.036 C 
ENDROOT
BRANCH   1  24
HETATM   24  C5  UNL     1       1.790   8.232  12.323  1.00  0.00     0.093 C 
BRANCH  24  25
HETATM   25  C4  UNL     1       1.117   8.323  10.926  1.00  0.00     0.019 C 
BRANCH  25  26
HETATM   26  C3  UNL     1       0.971   7.022  10.118  1.00  0.00     0.034 C 
BRANCH  26  27
HETATM   27  C2  UNL     1       2.054   6.883   9.051  1.00  0.00    -0.086 C 
HETATM   28  C1  UNL     1       3.015   5.952   9.207  1.00  0.00     0.014 C 
BRANCH  27  29
HETATM   29  C37 UNL     1       1.977   7.822   7.847  1.00  0.00     0.005 C 
HETATM   30  C38 UNL     1       1.898   7.121   6.486  1.00  0.00     0.014 C 
HETATM   31  C39 UNL     1       3.145   8.810   7.841  1.00  0.00     0.014 C 
ENDBRANCH  27  29
ENDBRANCH  26  27
ENDBRANCH  25  26
ENDBRANCH  24  25
BRANCH  24  32
HETATM   32  C6  UNL     1       2.939   9.244  12.444  1.00  0.00     0.266 C 
HETATM   33  O1  UNL     1       2.725  10.421  12.721  1.00  0.00    -0.265 OA
BRANCH  32  34
HETATM   34  O2  UNL     1       4.173   8.743  12.207  1.00  0.00    -0.287 OA
BRANCH  34  35
HETATM   35  C7  UNL     1       4.993   9.526  11.313  1.00  0.00     0.301 C 
HETATM   36  O3  UNL     1       5.785   8.717  10.435  1.00  0.00    -0.348 OA
HETATM   37  C8  UNL     1       6.735   7.865  11.084  1.00  0.00     0.179 C 
HETATM   38  C10 UNL     1       7.107   8.292  12.513  1.00  0.00     0.180 C 
HETATM   39  C11 UNL     1       7.210   9.812  12.565  1.00  0.00     0.183 C 
HETATM   40  C12 UNL     1       5.904  10.489  12.115  1.00  0.00     0.205 C 
BRANCH  37  41
HETATM   41  C9  UNL     1       6.243   6.421  11.030  1.00  0.00     0.198 C 
BRANCH  41  42
HETATM   42  O4  UNL     1       5.705   6.027  12.293  1.00  0.00    -0.398 OA
HETATM   43  H12 UNL     1       5.098   5.277  12.091  1.00  0.00     0.209 HD
ENDBRANCH  41  42
ENDBRANCH  37  41
BRANCH  38  44
HETATM   44  O5  UNL     1       8.358   7.724  12.923  1.00  0.00    -0.390 OA
HETATM   45  H14 UNL     1       8.275   6.761  12.743  1.00  0.00     0.210 HD
ENDBRANCH  38  44
BRANCH  39  46
HETATM   46  O6  UNL     1       7.549  10.207  13.901  1.00  0.00    -0.390 OA
HETATM   47  H16 UNL     1       8.343   9.677  14.119  1.00  0.00     0.210 HD
ENDBRANCH  39  46
BRANCH  40  48
HETATM   48  O7  UNL     1       6.239  11.629  11.297  1.00  0.00    -0.388 OA
HETATM   49  H18 UNL     1       6.654  11.292  10.482  1.00  0.00     0.210 HD
ENDBRANCH  40  48
ENDBRANCH  34  35
ENDBRANCH  32  34
ENDBRANCH  24  32
ENDBRANCH   1  24
BRANCH   2  50
HETATM   50  O8  UNL     1       1.868   8.302  15.605  1.00  0.00    -0.316 OA
BRANCH  50  51
HETATM   51  C15 UNL     1       2.428   9.098  16.548  1.00  0.00     0.255 C 
HETATM   52  C16 UNL     1       3.458   9.990  15.926  1.00  0.00     0.126 C 
HETATM   53  O9  UNL     1       2.114   9.147  17.726  1.00  0.00    -0.266 OA
ENDBRANCH  50  51
ENDBRANCH   2  50
TORSDOF 15
ENDMDL
MODEL 2
REMARK minimizedAffinity -8.12213993
REMARK CNNscore 0.318300664
REMARK CNNaffinity 7.33918762
REMARK  15 active torsions:
REMARK  status: ('A' for Active; 'I' for Inactive)
REMARK    1  A    between atoms: C2_2  and  C3_3 
REMARK    2  A    between atoms: C2_2  and  C37_47 
REMARK    3  A    between atoms: C3_3  and  C4_4 
REMARK    4  A    between atoms: C4_4  and  C5_5 
REMARK    5  A    between atoms: C5_5  and  C6_6 
REMARK    6  A    between atoms: C5_5  and  C13_20 
REMARK    7  A    between atoms: C6_6  and  O2_8 
REMARK    8  A    between atoms: O2_8  and  C7_9 
REMARK    9  A    between atoms: C8_11  and  C9_12 
REMARK   10  A    between atoms: C9_12  and  O4_13 
REMARK   11  A    between atoms: C10_14  and  O5_15 
REMARK   12  A    between atoms: C11_16  and  O6_17 
REMARK   13  A    between atoms: C12_18  and  O7_19 
REMARK   14  A    between atoms: C14_21  and  O8_22 
REMARK   15  A    between atoms: O8_22  and  C15_23 
ROOT
HETATM    1  C13 UNL     1      -0.811   8.615  14.291  1.00  0.00     0.038 C 
HETATM    2  C14 UNL     1      -1.172   7.560  15.381  1.00  0.00     0.138 C 
HETATM    3  C17 UNL     1      -2.008   8.289  16.451  1.00  0.00     0.047 C 
HETATM    4  C18 UNL     1      -2.490   9.583  15.762  1.00  0.00    -0.010 C 
HETATM    5  C19 UNL     1      -3.753   9.223  14.917  1.00  0.00     0.021 C 
HETATM    6  C20 UNL     1      -2.928  10.766  16.621  1.00  0.00    -0.068 C 
HETATM    7  C21 UNL     1      -2.842  12.030  16.129  1.00  0.00    -0.068 C 
HETATM    8  C22 UNL     1      -2.253  12.299  14.734  1.00  0.00     0.036 C 
HETATM    9  C23 UNL     1      -1.639  11.101  13.972  1.00  0.00     0.015 C 
HETATM   10  C24 UNL     1      -1.203   9.982  14.930  1.00  0.00    -0.026 C 
HETATM   11  C25 UNL     1      -0.045  10.522  15.808  1.00  0.00     0.016 C 
HETATM   12  C26 UNL     1      -3.297  13.269  16.945  1.00  0.00    -0.015 C 
HETATM   13  C27 UNL     1      -2.011  13.965  17.464  1.00  0.00     0.020 C 
HETATM   14  C28 UNL     1      -4.081  14.260  16.036  1.00  0.00     0.021 C 
HETATM   15  C29 UNL     1      -5.013  15.233  16.756  1.00  0.00     0.080 C 
HETATM   16  C30 UNL     1      -4.765  15.327  18.243  1.00  0.00     0.135 C 
HETATM   17  O10 UNL     1      -4.679  16.429  18.786  1.00  0.00    -0.297 OA
HETATM   18  C31 UNL     1      -4.735  14.017  19.038  1.00  0.00     0.018 C 
HETATM   19  C32 UNL     1      -3.872  14.206  20.302  1.00  0.00     0.023 C 
HETATM   20  C33 UNL     1      -6.184  13.755  19.508  1.00  0.00     0.023 C 
HETATM   21  C34 UNL     1      -4.265  12.845  18.108  1.00  0.00     0.013 C 
HETATM   22  C35 UNL     1      -3.700  11.649  18.887  1.00  0.00     0.011 C 
HETATM   23  C36 UNL     1      -3.506  10.442  17.978  1.00  0.00     0.036 C 
ENDROOT
BRANCH   1  24
HETATM   24  C5  UNL     1       0.546   8.309  13.584  1.00  0.00     0.093 C 
BRANCH  24  25
HETATM   25  C4  UNL     1       0.532   8.597  12.058  1.00  0.00     0.019 C 
BRANCH  25  26
HETATM   26  C3  UNL     1       1.033   7.486  11.117  1.00  0.00     0.034 C 
BRANCH  26  27
HETATM   27  C2  UNL     1       0.812   7.836   9.648  1.00  0.00    -0.086 C 
HETATM   28  C1  UNL     1      -0.223   8.628   9.309  1.00  0.00     0.014 C 
BRANCH  27  29
HETATM   29  C37 UNL     1       1.800   7.259   8.633  1.00  0.00     0.005 C 
HETATM   30  C38 UNL     1       2.695   6.137   9.171  1.00  0.00     0.014 C 
HETATM   31  C39 UNL     1       2.674   8.358   8.027  1.00  0.00     0.014 C 
ENDBRANCH  27  29
ENDBRANCH  26  27
ENDBRANCH  25  26
ENDBRANCH  24  25
BRANCH  24  32
HETATM   32  C6  UNL     1       1.919   8.633  14.190  1.00  0.00     0.266 C 
HETATM   33  O1  UNL     1       2.187   8.343  15.353  1.00  0.00    -0.265 OA
BRANCH  32  34
HETATM   34  O2  UNL     1       2.781   9.264  13.360  1.00  0.00    -0.287 OA
BRANCH  34  35
HETATM   35  C7  UNL     1       3.886   9.928  14.010  1.00  0.00     0.301 C 
HETATM   36  O3  UNL     1       4.985  10.172  13.124  1.00  0.00    -0.348 OA
HETATM   37  C8  UNL     1       5.591   9.001  12.568  1.00  0.00     0.179 C 
HETATM   38  C10 UNL     1       5.327   7.707  13.355  1.00  0.00     0.180 C 
HETATM   39  C11 UNL     1       5.374   8.017  14.848  1.00  0.00     0.183 C 
HETATM   40  C12 UNL     1       4.364   9.110  15.236  1.00  0.00     0.205 C 
BRANCH  37  41
HETATM   41  C9  UNL     1       5.190   8.868  11.102  1.00  0.00     0.198 C 
BRANCH  41  42
HETATM   42  O4  UNL     1       5.680   9.974  10.344  1.00  0.00    -0.398 OA
HETATM   43  H12 UNL     1       5.720   9.651   9.413  1.00  0.00     0.209 HD
ENDBRANCH  41  42
ENDBRANCH  37  41
BRANCH  38  44
HETATM   44  O5  UNL     1       6.300   6.699  13.055  1.00  0.00    -0.390 OA
HETATM   45  H14 UNL     1       6.316   6.640  12.074  1.00  0.00     0.210 HD
ENDBRANCH  38  44
BRANCH  39  46
HETATM   46  O6  UNL     1       5.118   6.810  15.578  1.00  0.00    -0.390 OA
HETATM   47  H16 UNL     1       5.757   6.164  15.214  1.00  0.00     0.210 HD
ENDBRANCH  39  46
BRANCH  40  48
HETATM   48  O7  UNL     1       4.991   9.993  16.190  1.00  0.00    -0.388 OA
HETATM   49  H18 UNL     1       5.714  10.456  15.727  1.00  0.00     0.210 HD
ENDBRANCH  40  48
ENDBRANCH  34  35
ENDBRANCH  32  34
ENDBRANCH  24  32
ENDBRANCH   1  24
BRANCH   2  50
HETATM   50  O8  UNL     1      -1.968   6.542  14.743  1.00  0.00    -0.316 OA
BRANCH  50  51
HETATM   51  C15 UNL     1      -1.356   5.683  13.892  1.00  0.00     0.255 C 
HETATM   52  C16 UNL     1      -2.104   5.617  12.596  1.00  0.00     0.126 C 
HETATM   53  O9  UNL     1      -0.314   5.084  14.102  1.00  0.00    -0.266 OA
ENDBRANCH  50  51
ENDBRANCH   2  50
TORSDOF 15
ENDMDL
MODEL 3
REMARK minimizedAffinity -9.35121536
REMARK CNNscore 0.257036775
REMARK CNNaffinity 7.2040143
REMARK  15 active torsions:
REMARK  status: ('A' for Active; 'I' for Inactive)
REMARK    1  A    between atoms: C2_2  and  C3_3 
REMARK    2  A    between atoms: C2_2  and  C37_47 
REMARK    3  A    between atoms: C3_3  and  C4_4 
REMARK    4  A    between atoms: C4_4  and  C5_5 
REMARK    5  A    between atoms: C5_5  and  C6_6 
REMARK    6  A    between atoms: C5_5  and  C13_20 
REMARK    7  A    between atoms: C6_6  and  O2_8 
REMARK    8  A    between atoms: O2_8  and  C7_9 
REMARK    9  A    between atoms: C8_11  and  C9_12 
REMARK   10  A    between atoms: C9_12  and  O4_13 
REMARK   11  A    between atoms: C10_14  and  O5_15 
REMARK   12  A    between atoms: C11_16  and  O6_17 
REMARK   13  A    between atoms: C12_18  and  O7_19 
REMARK   14  A    between atoms: C14_21  and  O8_22 
REMARK   15  A    between atoms: O8_22  and  C15_23 
ROOT
HETATM    1  C13 UNL     1      -1.989   6.453  13.129  1.00  0.00     0.038 C 
HETATM    2  C14 UNL     1      -3.122   5.790  13.971  1.00  0.00     0.138 C 
HETATM    3  C17 UNL     1      -3.712   6.890  14.874  1.00  0.00     0.047 C 
HETATM    4  C18 UNL     1      -3.249   8.217  14.235  1.00  0.00    -0.010 C 
HETATM    5  C19 UNL     1      -4.234   8.545  13.068  1.00  0.00     0.021 C 
HETATM    6  C20 UNL     1      -3.224   9.485  15.083  1.00  0.00    -0.068 C 
HETATM    7  C21 UNL     1      -2.369  10.493  14.772  1.00  0.00    -0.068 C 
HETATM    8  C22 UNL     1      -1.375  10.358  13.606  1.00  0.00     0.036 C 
HETATM    9  C23 UNL     1      -1.291   8.987  12.892  1.00  0.00     0.015 C 
HETATM   10  C24 UNL     1      -1.773   7.844  13.798  1.00  0.00    -0.026 C 
HETATM   11  C25 UNL     1      -0.789   7.726  14.991  1.00  0.00     0.016 C 
HETATM   12  C26 UNL     1      -2.317  11.816  15.582  1.00  0.00    -0.015 C 
HETATM   13  C27 UNL     1      -1.052  11.748  16.478  1.00  0.00     0.020 C 
HETATM   14  C28 UNL     1      -2.196  13.036  14.622  1.00  0.00     0.021 C 
HETATM   15  C29 UNL     1      -2.645  14.381  15.192  1.00  0.00     0.080 C 
HETATM   16  C30 UNL     1      -2.795  14.387  16.694  1.00  0.00     0.135 C 
HETATM   17  O10 UNL     1      -2.301  15.297  17.361  1.00  0.00    -0.297 OA
HETATM   18  C31 UNL     1      -3.662  13.290  17.321  1.00  0.00     0.018 C 
HETATM   19  C32 UNL     1      -3.204  13.043  18.773  1.00  0.00     0.023 C 
HETATM   20  C33 UNL     1      -5.102  13.849  17.385  1.00  0.00     0.023 C 
HETATM   21  C34 UNL     1      -3.636  12.011  16.414  1.00  0.00     0.013 C 
HETATM   22  C35 UNL     1      -4.005  10.728  17.171  1.00  0.00     0.011 C 
HETATM   23  C36 UNL     1      -4.227   9.567  16.211  1.00  0.00     0.036 C 
ENDROOT
BRANCH   1  24
HETATM   24  C5  UNL     1      -0.855   5.450  12.752  1.00  0.00     0.093 C 
BRANCH  24  25
HETATM   25  C4  UNL     1      -1.277   4.404  11.685  1.00  0.00     0.019 C 
BRANCH  25  26
HETATM   26  C3  UNL     1      -0.542   3.052  11.680  1.00  0.00     0.034 C 
BRANCH  26  27
HETATM   27  C2  UNL     1      -1.346   1.964  10.974  1.00  0.00    -0.086 C 
HETATM   28  C1  UNL     1      -0.722   0.839  10.576  1.00  0.00     0.014 C 
BRANCH  27  29
HETATM   29  C37 UNL     1      -2.839   2.219  10.764  1.00  0.00     0.005 C 
HETATM   30  C38 UNL     1      -3.183   3.600  10.194  1.00  0.00     0.014 C 
HETATM   31  C39 UNL     1      -3.625   1.993  12.056  1.00  0.00     0.014 C 
ENDBRANCH  27  29
ENDBRANCH  26  27
ENDBRANCH  25  26
ENDBRANCH  24  25
BRANCH  24  32
HETATM   32  C6  UNL     1       0.617   5.850  12.574  1.00  0.00     0.266 C 
HETATM   33  O1  UNL     1       1.395   5.856  13.525  1.00  0.00    -0.265 OA
BRANCH  32  34
HETATM   34  O2  UNL     1       0.970   6.203  11.317  1.00  0.00    -0.287 OA
BRANCH  34  35
HETATM   35  C7  UNL     1       1.270   7.604  11.133  1.00  0.00     0.301 C 
HETATM   36  O3  UNL     1       1.763   7.898   9.820  1.00  0.00    -0.348 OA
HETATM   37  C8  UNL     1       2.993   7.254   9.473  1.00  0.00     0.179 C 
HETATM   38  C10 UNL     1       3.827   6.777  10.673  1.00  0.00     0.180 C 
HETATM   39  C11 UNL     1       3.739   7.818  11.783  1.00  0.00     0.183 C 
HETATM   40  C12 UNL     1       2.283   8.086  12.201  1.00  0.00     0.205 C 
BRANCH  37  41
HETATM   41  C9  UNL     1       2.715   6.124   8.487  1.00  0.00     0.198 C 
BRANCH  41  42
HETATM   42  O4  UNL     1       3.654   5.062   8.661  1.00  0.00    -0.398 OA
HETATM   43  H12 UNL     1       3.211   4.263   8.291  1.00  0.00     0.209 HD
ENDBRANCH  41  42
ENDBRANCH  37  41
BRANCH  38  44
HETATM   44  O5  UNL     1       5.202   6.588  10.317  1.00  0.00    -0.390 OA
HETATM   45  H14 UNL     1       5.185   6.015   9.518  1.00  0.00     0.210 HD
ENDBRANCH  38  44
BRANCH  39  46
HETATM   46  O6  UNL     1       4.510   7.366  12.903  1.00  0.00    -0.390 OA
HETATM   47  H16 UNL     1       5.390   7.157  12.527  1.00  0.00     0.210 HD
ENDBRANCH  39  46
BRANCH  40  48
HETATM   48  O7  UNL     1       2.122   9.505  12.412  1.00  0.00    -0.388 OA
HETATM   49  H18 UNL     1       2.232   9.942  11.548  1.00  0.00     0.210 HD
ENDBRANCH  40  48
ENDBRANCH  34  35
ENDBRANCH  32  34
ENDBRANCH  24  32
ENDBRANCH   1  24
BRANCH   2  50
HETATM   50  O8  UNL     1      -4.123   5.322  13.047  1.00  0.00    -0.316 OA
BRANCH  50  51
HETATM   51  C15 UNL     1      -5.381   5.114  13.507  1.00  0.00     0.255 C 
HETATM   52  C16 UNL     1      -6.155   4.276  12.538  1.00  0.00     0.126 C 
HETATM   53  O9  UNL     1      -5.824   5.491  14.580  1.00  0.00    -0.266 OA
ENDBRANCH  50  51
ENDBRANCH   2  50
TORSDOF 15
ENDMDL
MODEL 4
REMARK minimizedAffinity -7.98545694
REMARK CNNscore 0.236930758
REMARK CNNaffinity 6.27094603
REMARK  15 active torsions:
REMARK  status: ('A' for Active; 'I' for Inactive)
REMARK    1  A    between atoms: C2_2  and  C3_3 
REMARK    2  A    between atoms: C2_2  and  C37_47 
REMARK    3  A    between atoms: C3_3  and  C4_4 
REMARK    4  A    between atoms: C4_4  and  C5_5 
REMARK    5  A    between atoms: C5_5  and  C6_6 
REMARK    6  A    between atoms: C5_5  and  C13_20 
REMARK    7  A    between atoms: C6_6  and  O2_8 
REMARK    8  A    between atoms: O2_8  and  C7_9 
REMARK    9  A    between atoms: C8_11  and  C9_12 
REMARK   10  A    between atoms: C9_12  and  O4_13 
REMARK   11  A    between atoms: C10_14  and  O5_15 
REMARK   12  A    between atoms: C11_16  and  O6_17 
REMARK   13  A    between atoms: C12_18  and  O7_19 
REMARK   14  A    between atoms: C14_21  and  O8_22 
REMARK   15  A    between atoms: O8_22  and  C15_23 
ROOT
HETATM    1  C13 UNL     1       0.109  10.036  14.734  1.00  0.00     0.038 C 
HETATM    2  C14 UNL     1       1.399  10.882  14.960  1.00  0.00     0.138 C 
HETATM    3  C17 UNL     1       1.042  11.981  15.979  1.00  0.00     0.047 C 
HETATM    4  C18 UNL     1      -0.259  11.491  16.649  1.00  0.00    -0.010 C 
HETATM    5  C19 UNL     1       0.142  10.480  17.770  1.00  0.00     0.021 C 
HETATM    6  C20 UNL     1      -1.163  12.501  17.350  1.00  0.00    -0.068 C 
HETATM    7  C21 UNL     1      -2.494  12.252  17.469  1.00  0.00    -0.068 C 
HETATM    8  C22 UNL     1      -3.122  10.990  16.855  1.00  0.00     0.036 C 
HETATM    9  C23 UNL     1      -2.214  10.088  15.986  1.00  0.00     0.015 C 
HETATM   10  C24 UNL     1      -1.023  10.868  15.410  1.00  0.00    -0.026 C 
HETATM   11  C25 UNL     1      -1.574  11.934  14.427  1.00  0.00     0.016 C 
HETATM   12  C26 UNL     1      -3.458  13.230  18.194  1.00  0.00    -0.015 C 
HETATM   13  C27 UNL     1      -4.249  13.983  17.092  1.00  0.00     0.020 C 
HETATM   14  C28 UNL     1      -4.457  12.441  19.090  1.00  0.00     0.021 C 
HETATM   15  C29 UNL     1      -5.100  13.232  20.228  1.00  0.00     0.080 C 
HETATM   16  C30 UNL     1      -4.948  14.728  20.093  1.00  0.00     0.135 C 
HETATM   17  O10 UNL     1      -5.924  15.465  20.244  1.00  0.00    -0.297 OA
HETATM   18  C31 UNL     1      -3.534  15.277  19.870  1.00  0.00     0.018 C 
HETATM   19  C32 UNL     1      -3.621  16.630  19.135  1.00  0.00     0.023 C 
HETATM   20  C33 UNL     1      -2.944  15.554  21.271  1.00  0.00     0.023 C 
HETATM   21  C34 UNL     1      -2.660  14.202  19.135  1.00  0.00     0.013 C 
HETATM   22  C35 UNL     1      -1.450  14.805  18.408  1.00  0.00     0.011 C 
HETATM   23  C36 UNL     1      -0.491  13.719  17.940  1.00  0.00     0.036 C 
ENDROOT
BRANCH   1  24
HETATM   24  C5  UNL     1       0.038   9.417  13.303  1.00  0.00     0.093 C 
BRANCH  24  25
HETATM   25  C4  UNL     1       1.102   8.315  13.048  1.00  0.00     0.019 C 
BRANCH  25  26
HETATM   26  C3  UNL     1       2.295   8.670  12.143  1.00  0.00     0.034 C 
BRANCH  26  27
HETATM   27  C2  UNL     1       2.485   7.656  11.018  1.00  0.00    -0.086 C 
HETATM   28  C1  UNL     1       3.097   6.486  11.284  1.00  0.00     0.014 C 
BRANCH  27  29
HETATM   29  C37 UNL     1       1.954   8.034   9.635  1.00  0.00     0.005 C 
HETATM   30  C38 UNL     1       0.555   7.498   9.313  1.00  0.00     0.014 C 
HETATM   31  C39 UNL     1       2.926   7.608   8.534  1.00  0.00     0.014 C 
ENDBRANCH  27  29
ENDBRANCH  26  27
ENDBRANCH  25  26
ENDBRANCH  24  25
BRANCH  24  32
HETATM   32  C6  UNL     1      -1.274   9.091  12.575  1.00  0.00     0.266 C 
HETATM   33  O1  UNL     1      -1.449   9.413  11.403  1.00  0.00    -0.265 OA
BRANCH  32  34
HETATM   34  O2  UNL     1      -2.203   8.451  13.322  1.00  0.00    -0.287 OA
BRANCH  34  35
HETATM   35  C7  UNL     1      -2.679   7.203  12.773  1.00  0.00     0.301 C 
HETATM   36  O3  UNL     1      -4.052   6.945  13.094  1.00  0.00    -0.348 OA
HETATM   37  C8  UNL     1      -4.336   6.815  14.491  1.00  0.00     0.179 C 
HETATM   38  C10 UNL     1      -3.118   6.477  15.364  1.00  0.00     0.180 C 
HETATM   39  C11 UNL     1      -2.233   5.483  14.619  1.00  0.00     0.183 C 
HETATM   40  C12 UNL     1      -1.791   6.027  13.250  1.00  0.00     0.205 C 
BRANCH  37  41
HETATM   41  C9  UNL     1      -5.060   8.066  14.980  1.00  0.00     0.198 C 
BRANCH  41  42
HETATM   42  O4  UNL     1      -5.749   7.802  16.202  1.00  0.00    -0.398 OA
HETATM   43  H12 UNL     1      -5.859   8.683  16.632  1.00  0.00     0.209 HD
ENDBRANCH  41  42
ENDBRANCH  37  41
BRANCH  38  44
HETATM   44  O5  UNL     1      -3.511   5.905  16.618  1.00  0.00    -0.390 OA
HETATM   45  H14 UNL     1      -4.177   6.527  16.988  1.00  0.00     0.210 HD
ENDBRANCH  38  44
BRANCH  39  46
HETATM   46  O6  UNL     1      -1.094   5.177  15.433  1.00  0.00    -0.390 OA
HETATM   47  H16 UNL     1      -1.474   4.911  16.295  1.00  0.00     0.210 HD
ENDBRANCH  39  46
BRANCH  40  48
HETATM   48  O7  UNL     1      -1.857   4.953  12.289  1.00  0.00    -0.388 OA
HETATM   49  H18 UNL     1      -2.796   4.712  12.185  1.00  0.00     0.210 HD
ENDBRANCH  40  48
ENDBRANCH  34  35
ENDBRANCH  32  34
ENDBRANCH  24  32
ENDBRANCH   1  24
BRANCH   2  50
HETATM   50  O8  UNL     1       2.396  10.001  15.514  1.00  0.00    -0.316 OA
BRANCH  50  51
HETATM   51  C15 UNL     1       2.047   9.205  16.554  1.00  0.00     0.255 C 
HETATM   52  C16 UNL     1       1.451   7.927  16.051  1.00  0.00     0.126 C 
HETATM   53  O9  UNL     1       2.236   9.444  17.736  1.00  0.00    -0.266 OA
ENDBRANCH  50  51
ENDBRANCH   2  50
TORSDOF 15
ENDMDL
MODEL 5
REMARK minimizedAffinity -9.9331522
REMARK CNNscore 0.205745757
REMARK CNNaffinity 6.83929253
REMARK  15 active torsions:
REMARK  status: ('A' for Active; 'I' for Inactive)
REMARK    1  A    between atoms: C2_2  and  C3_3 
REMARK    2  A    between atoms: C2_2  and  C37_47 
REMARK    3  A    between atoms: C3_3  and  C4_4 
REMARK    4  A    between atoms: C4_4  and  C5_5 
REMARK    5  A    between atoms: C5_5  and  C6_6 
REMARK    6  A    between atoms: C5_5  and  C13_20 
REMARK    7  A    between atoms: C6_6  and  O2_8 
REMARK    8  A    between atoms: O2_8  and  C7_9 
REMARK    9  A    between atoms: C8_11  and  C9_12 
REMARK   10  A    between atoms: C9_12  and  O4_13 
REMARK   11  A    between atoms: C10_14  and  O5_15 
REMARK   12  A    between atoms: C11_16  and  O6_17 
REMARK   13  A    between atoms: C12_18  and  O7_19 
REMARK   14  A    between atoms: C14_21  and  O8_22 
REMARK   15  A    between atoms: O8_22  and  C15_23 
ROOT
HETATM    1  C13 UNL     1      -1.751   6.990  13.519  1.00  0.00     0.038 C 
HETATM    2  C14 UNL     1      -3.059   6.864  14.360  1.00  0.00     0.138 C 
HETATM    3  C17 UNL     1      -2.951   7.882  15.511  1.00  0.00     0.047 C 
HETATM    4  C18 UNL     1      -1.842   8.862  15.071  1.00  0.00    -0.010 C 
HETATM    5  C19 UNL     1      -2.494   9.907  14.112  1.00  0.00     0.021 C 
HETATM    6  C20 UNL     1      -1.128   9.702  16.126  1.00  0.00    -0.068 C 
HETATM    7  C21 UNL     1       0.137  10.141  15.901  1.00  0.00    -0.068 C 
HETATM    8  C22 UNL     1       0.893   9.757  14.618  1.00  0.00     0.036 C 
HETATM    9  C23 UNL     1       0.215   8.746  13.662  1.00  0.00     0.015 C 
HETATM   10  C24 UNL     1      -0.809   7.868  14.398  1.00  0.00    -0.026 C 
HETATM   11  C25 UNL     1      -0.044   6.989  15.421  1.00  0.00     0.016 C 
HETATM   12  C26 UNL     1       0.904  11.021  16.925  1.00  0.00    -0.015 C 
HETATM   13  C27 UNL     1       1.931  10.098  17.632  1.00  0.00     0.020 C 
HETATM   14  C28 UNL     1       1.667  12.164  16.194  1.00  0.00     0.021 C 
HETATM   15  C29 UNL     1       2.025  13.380  17.048  1.00  0.00     0.080 C 
HETATM   16  C30 UNL     1       1.908  13.136  18.534  1.00  0.00     0.135 C 
HETATM   17  O10 UNL     1       2.820  13.474  19.289  1.00  0.00    -0.297 OA
HETATM   18  C31 UNL     1       0.585  12.562  19.053  1.00  0.00     0.018 C 
HETATM   19  C32 UNL     1       0.841  11.800  20.369  1.00  0.00     0.023 C 
HETATM   20  C33 UNL     1      -0.317  13.770  19.391  1.00  0.00     0.023 C 
HETATM   21  C34 UNL     1      -0.092  11.699  17.932  1.00  0.00     0.013 C 
HETATM   22  C35 UNL     1      -1.099  10.679  18.484  1.00  0.00     0.011 C 
HETATM   23  C36 UNL     1      -1.921  10.055  17.363  1.00  0.00     0.036 C 
ENDROOT
BRANCH   1  24
HETATM   24  C5  UNL     1      -1.347   5.649  12.832  1.00  0.00     0.093 C 
BRANCH  24  25
HETATM   25  C4  UNL     1      -2.441   4.550  12.918  1.00  0.00     0.019 C 
BRANCH  25  26
HETATM   26  C3  UNL     1      -3.413   4.415  11.733  1.00  0.00     0.034 C 
BRANCH  26  27
HETATM   27  C2  UNL     1      -3.928   2.987  11.572  1.00  0.00    -0.086 C 
HETATM   28  C1  UNL     1      -3.076   1.958  11.744  1.00  0.00     0.014 C 
BRANCH  27  29
HETATM   29  C37 UNL     1      -5.406   2.810  11.225  1.00  0.00     0.005 C 
HETATM   30  C38 UNL     1      -6.377   3.591  12.117  1.00  0.00     0.014 C 
HETATM   31  C39 UNL     1      -5.799   1.331  11.221  1.00  0.00     0.014 C 
ENDBRANCH  27  29
ENDBRANCH  26  27
ENDBRANCH  25  26
ENDBRANCH  24  25
BRANCH  24  32
HETATM   32  C6  UNL     1      -0.590   5.564  11.498  1.00  0.00     0.266 C 
HETATM   33  O1  UNL     1      -0.274   4.481  11.012  1.00  0.00    -0.265 OA
BRANCH  32  34
HETATM   34  O2  UNL     1      -0.293   6.755  10.928  1.00  0.00    -0.287 OA
BRANCH  34  35
HETATM   35  C7  UNL     1       0.979   7.320  11.314  1.00  0.00     0.301 C 
HETATM   36  O3  UNL     1       1.479   8.264  10.358  1.00  0.00    -0.348 OA
HETATM   37  C8  UNL     1       1.740   7.732   9.056  1.00  0.00     0.179 C 
HETATM   38  C10 UNL     1       1.929   6.207   9.013  1.00  0.00     0.180 C 
HETATM   39  C11 UNL     1       2.716   5.769  10.243  1.00  0.00     0.183 C 
HETATM   40  C12 UNL     1       2.022   6.198  11.547  1.00  0.00     0.205 C 
BRANCH  37  41
HETATM   41  C9  UNL     1       0.657   8.201   8.088  1.00  0.00     0.198 C 
BRANCH  41  42
HETATM   42  O4  UNL     1      -0.206   9.147   8.720  1.00  0.00    -0.398 OA
HETATM   43  H12 UNL     1      -0.609   9.661   7.982  1.00  0.00     0.209 HD
ENDBRANCH  41  42
ENDBRANCH  37  41
BRANCH  38  44
HETATM   44  O5  UNL     1       2.634   5.797   7.835  1.00  0.00    -0.390 OA
HETATM   45  H14 UNL     1       2.154   6.218   7.086  1.00  0.00     0.210 HD
ENDBRANCH  38  44
BRANCH  39  46
HETATM   46  O6  UNL     1       2.882   4.346  10.203  1.00  0.00    -0.390 OA
HETATM   47  H16 UNL     1       3.260   4.169   9.318  1.00  0.00     0.210 HD
ENDBRANCH  39  46
BRANCH  40  48
HETATM   48  O7  UNL     1       3.031   6.662  12.470  1.00  0.00    -0.388 OA
HETATM   49  H18 UNL     1       3.414   7.476  12.096  1.00  0.00     0.210 HD
ENDBRANCH  40  48
ENDBRANCH  34  35
ENDBRANCH  32  34
ENDBRANCH  24  32
ENDBRANCH   1  24
BRANCH   2  50
HETATM   50  O8  UNL     1      -4.157   7.214  13.494  1.00  0.00    -0.316 OA
BRANCH  50  51
HETATM   51  C15 UNL     1      -5.384   7.383  14.044  1.00  0.00     0.255 C 
HETATM   52  C16 UNL     1      -5.880   6.089  14.610  1.00  0.00     0.126 C 
HETATM   53  O9  UNL     1      -5.992   8.438  14.135  1.00  0.00    -0.266 OA
ENDBRANCH  50  51
ENDBRANCH   2  50
TORSDOF 15
ENDMDL
MODEL 6
REMARK minimizedAffinity -7.83796597
REMARK CNNscore 0.202081904
REMARK CNNaffinity 7.61409998
REMARK  15 active torsions:
REMARK  status: ('A' for Active; 'I' for Inactive)
REMARK    1  A    between atoms: C2_2  and  C3_3 
REMARK    2  A    between atoms: C2_2  and  C37_47 
REMARK    3  A    between atoms: C3_3  and  C4_4 
REMARK    4  A    between atoms: C4_4  and  C5_5 
REMARK    5  A    between atoms: C5_5  and  C6_6 
REMARK    6  A    between atoms: C5_5  and  C13_20 
REMARK    7  A    between atoms: C6_6  and  O2_8 
REMARK    8  A    between atoms: O2_8  and  C7_9 
REMARK    9  A    between atoms: C8_11  and  C9_12 
REMARK   10  A    between atoms: C9_12  and  O4_13 
REMARK   11  A    between atoms: C10_14  and  O5_15 
REMARK   12  A    between atoms: C11_16  and  O6_17 
REMARK   13  A    between atoms: C12_18  and  O7_19 
REMARK   14  A    between atoms: C14_21  and  O8_22 
REMARK   15  A    between atoms: O8_22  and  C15_23 
ROOT
HETATM    1  C13 UNL     1      -5.834   5.494  13.809  1.00  0.00     0.038 C 
HETATM    2  C14 UNL     1      -6.705   4.291  13.332  1.00  0.00     0.138 C 
HETATM    3  C17 UNL     1      -8.178   4.725  13.462  1.00  0.00     0.047 C 
HETATM    4  C18 UNL     1      -8.129   6.265  13.566  1.00  0.00    -0.010 C 
HETATM    5  C19 UNL     1      -8.016   6.829  12.115  1.00  0.00     0.021 C 
HETATM    6  C20 UNL     1      -9.314   7.009  14.175  1.00  0.00    -0.068 C 
HETATM    7  C21 UNL     1      -9.125   8.219  14.763  1.00  0.00    -0.068 C 
HETATM    8  C22 UNL     1      -7.720   8.833  14.880  1.00  0.00     0.036 C 
HETATM    9  C23 UNL     1      -6.520   7.966  14.429  1.00  0.00     0.015 C 
HETATM   10  C24 UNL     1      -6.851   6.467  14.479  1.00  0.00    -0.026 C 
HETATM   11  C25 UNL     1      -7.084   6.073  15.960  1.00  0.00     0.016 C 
HETATM   12  C26 UNL     1     -10.296   9.034  15.377  1.00  0.00    -0.015 C 
HETATM   13  C27 UNL     1     -10.196   8.877  16.917  1.00  0.00     0.020 C 
HETATM   14  C28 UNL     1     -10.159  10.540  15.008  1.00  0.00     0.021 C 
HETATM   15  C29 UNL     1     -11.444  11.363  15.078  1.00  0.00     0.080 C 
HETATM   16  C30 UNL     1     -12.563  10.684  15.831  1.00  0.00     0.135 C 
HETATM   17  O10 UNL     1     -13.196  11.303  16.687  1.00  0.00    -0.297 OA
HETATM   18  C31 UNL     1     -12.933   9.258  15.410  1.00  0.00     0.018 C 
HETATM   19  C32 UNL     1     -13.566   8.520  16.607  1.00  0.00     0.023 C 
HETATM   20  C33 UNL     1     -14.024   9.388  14.324  1.00  0.00     0.023 C 
HETATM   21  C34 UNL     1     -11.675   8.541  14.807  1.00  0.00     0.013 C 
HETATM   22  C35 UNL     1     -11.775   7.010  14.851  1.00  0.00     0.011 C 
HETATM   23  C36 UNL     1     -10.671   6.362  14.025  1.00  0.00     0.036 C 
ENDROOT
BRANCH   1  24
HETATM   24  C5  UNL     1      -4.477   5.043  14.433  1.00  0.00     0.093 C 
BRANCH  24  25
HETATM   25  C4  UNL     1      -3.548   4.301  13.434  1.00  0.00     0.019 C 
BRANCH  25  26
HETATM   26  C3  UNL     1      -2.992   5.103  12.245  1.00  0.00     0.034 C 
BRANCH  26  27
HETATM   27  C2  UNL     1      -1.829   4.387  11.562  1.00  0.00    -0.086 C 
HETATM   28  C1  UNL     1      -2.086   3.359  10.732  1.00  0.00     0.014 C 
BRANCH  27  29
HETATM   29  C37 UNL     1      -0.418   4.896  11.864  1.00  0.00     0.005 C 
HETATM   30  C38 UNL     1      -0.191   5.346  13.311  1.00  0.00     0.014 C 
HETATM   31  C39 UNL     1      -0.023   6.026  10.912  1.00  0.00     0.014 C 
ENDBRANCH  27  29
ENDBRANCH  26  27
ENDBRANCH  25  26
ENDBRANCH  24  25
BRANCH  24  32
HETATM   32  C6  UNL     1      -3.657   5.898  15.411  1.00  0.00     0.266 C 
HETATM   33  O1  UNL     1      -3.656   5.663  16.616  1.00  0.00    -0.265 OA
BRANCH  32  34
HETATM   34  O2  UNL     1      -2.969   6.917  14.846  1.00  0.00    -0.287 OA
BRANCH  34  35
HETATM   35  C7  UNL     1      -3.155   8.205  15.473  1.00  0.00     0.301 C 
HETATM   36  O3  UNL     1      -3.158   9.285  14.531  1.00  0.00    -0.348 OA
HETATM   37  C8  UNL     1      -1.943   9.454  13.794  1.00  0.00     0.179 C 
HETATM   38  C10 UNL     1      -0.705   8.819  14.447  1.00  0.00     0.180 C 
HETATM   39  C11 UNL     1      -0.776   9.028  15.955  1.00  0.00     0.183 C 
HETATM   40  C12 UNL     1      -2.068   8.445  16.552  1.00  0.00     0.205 C 
BRANCH  37  41
HETATM   41  C9  UNL     1      -2.145   8.968  12.362  1.00  0.00     0.198 C 
BRANCH  41  42
HETATM   42  O4  UNL     1      -1.054   9.373  11.535  1.00  0.00    -0.398 OA
HETATM   43  H12 UNL     1      -1.056   8.742  10.778  1.00  0.00     0.209 HD
ENDBRANCH  41  42
ENDBRANCH  37  41
BRANCH  38  44
HETATM   44  O5  UNL     1       0.508   9.400  13.951  1.00  0.00    -0.390 OA
HETATM   45  H14 UNL     1       0.435   9.353  12.971  1.00  0.00     0.210 HD
ENDBRANCH  38  44
BRANCH  39  46
HETATM   46  O6  UNL     1       0.375   8.427  16.560  1.00  0.00    -0.390 OA
HETATM   47  H16 UNL     1       1.135   8.806  16.071  1.00  0.00     0.210 HD
ENDBRANCH  39  46
BRANCH  40  48
HETATM   48  O7  UNL     1      -2.569   9.365  17.544  1.00  0.00    -0.388 OA
HETATM   49  H18 UNL     1      -2.839  10.177  17.078  1.00  0.00     0.210 HD
ENDBRANCH  40  48
ENDBRANCH  34  35
ENDBRANCH  32  34
ENDBRANCH  24  32
ENDBRANCH   1  24
BRANCH   2  50
HETATM   50  O8  UNL     1      -6.382   4.054  11.948  1.00  0.00    -0.316 OA
BRANCH  50  51
HETATM   51  C15 UNL     1      -6.271   2.772  11.521  1.00  0.00     0.255 C 
HETATM   52  C16 UNL     1      -5.495   2.717  10.242  1.00  0.00     0.126 C 
HETATM   53  O9  UNL     1      -6.681   1.783  12.107  1.00  0.00    -0.266 OA
ENDBRANCH  50  51
ENDBRANCH   2  50
TORSDOF 15
ENDMDL
MODEL 7
REMARK minimizedAffinity -7.37505913
REMARK CNNscore 0.19326511
REMARK CNNaffinity 7.03913832
REMARK  15 active torsions:
REMARK  status: ('A' for Active; 'I' for Inactive)
REMARK    1  A    between atoms: C2_2  and  C3_3 
REMARK    2  A    between atoms: C2_2  and  C37_47 
REMARK    3  A    between atoms: C3_3  and  C4_4 
REMARK    4  A    between atoms: C4_4  and  C5_5 
REMARK    5  A    between atoms: C5_5  and  C6_6 
REMARK    6  A    between atoms: C5_5  and  C13_20 
REMARK    7  A    between atoms: C6_6  and  O2_8 
REMARK    8  A    between atoms: O2_8  and  C7_9 
REMARK    9  A    between atoms: C8_11  and  C9_12 
REMARK   10  A    between atoms: C9_12  and  O4_13 
REMARK   11  A    between atoms: C10_14  and  O5_15 
REMARK   12  A    between atoms: C11_16  and  O6_17 
REMARK   13  A    between atoms: C12_18  and  O7_19 
REMARK   14  A    between atoms: C14_21  and  O8_22 
REMARK   15  A    between atoms: O8_22  and  C15_23 
ROOT
HETATM    1  C13 UNL     1      -5.170 -10.059   5.521  1.00  0.00     0.038 C 
HETATM    2  C14 UNL     1      -4.321 -11.223   6.118  1.00  0.00     0.138 C 
HETATM    3  C17 UNL     1      -3.967 -12.165   4.951  1.00  0.00     0.047 C 
HETATM    4  C18 UNL     1      -4.210 -11.326   3.678  1.00  0.00    -0.010 C 
HETATM    5  C19 UNL     1      -2.942 -10.446   3.447  1.00  0.00     0.021 C 
HETATM    6  C20 UNL     1      -4.430 -12.039   2.347  1.00  0.00    -0.068 C 
HETATM    7  C21 UNL     1      -5.147 -11.434   1.364  1.00  0.00    -0.068 C 
HETATM    8  C22 UNL     1      -5.795 -10.057   1.588  1.00  0.00     0.036 C 
HETATM    9  C23 UNL     1      -5.718  -9.453   3.011  1.00  0.00     0.015 C 
HETATM   10  C24 UNL     1      -5.524 -10.538   4.080  1.00  0.00    -0.026 C 
HETATM   11  C25 UNL     1      -6.794 -11.428   4.101  1.00  0.00     0.016 C 
HETATM   12  C26 UNL     1      -5.381 -12.098  -0.019  1.00  0.00    -0.015 C 
HETATM   13  C27 UNL     1      -6.841 -12.623  -0.026  1.00  0.00     0.020 C 
HETATM   14  C28 UNL     1      -5.211 -11.051  -1.159  1.00  0.00     0.021 C 
HETATM   15  C29 UNL     1      -4.899 -11.618  -2.544  1.00  0.00     0.080 C 
HETATM   16  C30 UNL     1      -5.157 -13.100  -2.668  1.00  0.00     0.135 C 
HETATM   17  O10 UNL     1      -5.789 -13.538  -3.630  1.00  0.00    -0.297 OA
HETATM   18  C31 UNL     1      -4.516 -14.018  -1.622  1.00  0.00     0.018 C 
HETATM   19  C32 UNL     1      -5.352 -15.308  -1.493  1.00  0.00     0.023 C 
HETATM   20  C33 UNL     1      -3.133 -14.424  -2.180  1.00  0.00     0.023 C 
HETATM   21  C34 UNL     1      -4.329 -13.236  -0.276  1.00  0.00     0.013 C 
HETATM   22  C35 UNL     1      -4.207 -14.159   0.945  1.00  0.00     0.011 C 
HETATM   23  C36 UNL     1      -3.764 -13.385   2.179  1.00  0.00     0.036 C 
ENDROOT
BRANCH   1  24
HETATM   24  C5  UNL     1      -6.186  -9.468   6.546  1.00  0.00     0.093 C 
BRANCH  24  25
HETATM   25  C4  UNL     1      -7.351  -8.681   5.887  1.00  0.00     0.019 C 
BRANCH  25  26
HETATM   26  C3  UNL     1      -8.788  -9.133   6.203  1.00  0.00     0.034 C 
BRANCH  26  27
HETATM   27  C2  UNL     1      -9.772  -8.722   5.111  1.00  0.00    -0.086 C 
HETATM   28  C1  UNL     1      -9.358  -8.690   3.830  1.00  0.00     0.014 C 
BRANCH  27  29
HETATM   29  C37 UNL     1     -11.196  -8.372   5.546  1.00  0.00     0.005 C 
HETATM   30  C38 UNL     1     -11.866  -7.263   4.727  1.00  0.00     0.014 C 
HETATM   31  C39 UNL     1     -11.246  -8.008   7.031  1.00  0.00     0.014 C 
ENDBRANCH  27  29
ENDBRANCH  26  27
ENDBRANCH  25  26
ENDBRANCH  24  25
BRANCH  24  32
HETATM   32  C6  UNL     1      -6.669 -10.212   7.800  1.00  0.00     0.266 C 
HETATM   33  O1  UNL     1      -7.055 -11.377   7.740  1.00  0.00    -0.265 OA
BRANCH  32  34
HETATM   34  O2  UNL     1      -6.650  -9.488   8.943  1.00  0.00    -0.287 OA
BRANCH  34  35
HETATM   35  C7  UNL     1      -6.004 -10.129  10.065  1.00  0.00     0.301 C 
HETATM   36  O3  UNL     1      -6.866 -11.047  10.749  1.00  0.00    -0.348 OA
HETATM   37  C8  UNL     1      -8.034 -10.465  11.335  1.00  0.00     0.179 C 
HETATM   38  C10 UNL     1      -7.941  -8.950  11.578  1.00  0.00     0.180 C 
HETATM   39  C11 UNL     1      -6.535  -8.610  12.059  1.00  0.00     0.183 C 
HETATM   40  C12 UNL     1      -5.462  -9.069  11.056  1.00  0.00     0.205 C 
BRANCH  37  41
HETATM   41  C9  UNL     1      -9.259 -10.835  10.504  1.00  0.00     0.198 C 
BRANCH  41  42
HETATM   42  O4  UNL     1      -9.055 -12.081   9.836  1.00  0.00    -0.398 OA
HETATM   43  H12 UNL     1      -9.960 -12.424   9.647  1.00  0.00     0.209 HD
ENDBRANCH  41  42
ENDBRANCH  37  41
BRANCH  38  44
HETATM   44  O5  UNL     1      -8.889  -8.515  12.561  1.00  0.00    -0.390 OA
HETATM   45  H14 UNL     1      -9.754  -8.877  12.263  1.00  0.00     0.210 HD
ENDBRANCH  38  44
BRANCH  39  46
HETATM   46  O6  UNL     1      -6.450  -7.196  12.276  1.00  0.00    -0.390 OA
HETATM   47  H16 UNL     1      -7.207  -6.992  12.863  1.00  0.00     0.210 HD
ENDBRANCH  39  46
BRANCH  40  48
HETATM   48  O7  UNL     1      -4.354  -9.623  11.796  1.00  0.00    -0.388 OA
HETATM   49  H18 UNL     1      -4.671 -10.436  12.231  1.00  0.00     0.210 HD
ENDBRANCH  40  48
ENDBRANCH  34  35
ENDBRANCH  32  34
ENDBRANCH  24  32
ENDBRANCH   1  24
BRANCH   2  50
HETATM   50  O8  UNL     1      -3.120 -10.639   6.661  1.00  0.00    -0.316 OA
BRANCH  50  51
HETATM   51  C15 UNL     1      -3.089  -9.300   6.865  1.00  0.00     0.255 C 
HETATM   52  C16 UNL     1      -3.217  -8.995   8.325  1.00  0.00     0.126 C 
HETATM   53  O9  UNL     1      -2.919  -8.446   6.009  1.00  0.00    -0.266 OA
ENDBRANCH  50  51
ENDBRANCH   2  50
TORSDOF 15
ENDMDL
MODEL 8
REMARK minimizedAffinity -9.86004162
REMARK CNNscore 0.190926939
REMARK CNNaffinity 7.00532866
REMARK  15 active torsions:
REMARK  status: ('A' for Active; 'I' for Inactive)
REMARK    1  A    between atoms: C2_2  and  C3_3 
REMARK    2  A    between atoms: C2_2  and  C37_47 
REMARK    3  A    between atoms: C3_3  and  C4_4 
REMARK    4  A    between atoms: C4_4  and  C5_5 
REMARK    5  A    between atoms: C5_5  and  C6_6 
REMARK    6  A    between atoms: C5_5  and  C13_20 
REMARK    7  A    between atoms: C6_6  and  O2_8 
REMARK    8  A    between atoms: O2_8  and  C7_9 
REMARK    9  A    between atoms: C8_11  and  C9_12 
REMARK   10  A    between atoms: C9_12  and  O4_13 
REMARK   11  A    between atoms: C10_14  and  O5_15 
REMARK   12  A    between atoms: C11_16  and  O6_17 
REMARK   13  A    between atoms: C12_18  and  O7_19 
REMARK   14  A    between atoms: C14_21  and  O8_22 
REMARK   15  A    between atoms: O8_22  and  C15_23 
ROOT
HETATM    1  C13 UNL     1       1.301   6.536  13.016  1.00  0.00     0.038 C 
HETATM    2  C14 UNL     1       0.564   7.641  13.833  1.00  0.00     0.138 C 
HETATM    3  C17 UNL     1      -0.923   7.242  13.888  1.00  0.00     0.047 C 
HETATM    4  C18 UNL     1      -0.945   5.743  13.518  1.00  0.00    -0.010 C 
HETATM    5  C19 UNL     1      -0.606   4.937  14.811  1.00  0.00     0.021 C 
HETATM    6  C20 UNL     1      -2.240   5.120  13.006  1.00  0.00    -0.068 C 
HETATM    7  C21 UNL     1      -2.194   4.029  12.198  1.00  0.00    -0.068 C 
HETATM    8  C22 UNL     1      -0.850   3.439  11.738  1.00  0.00     0.036 C 
HETATM    9  C23 UNL     1       0.437   4.210  12.115  1.00  0.00     0.015 C 
HETATM   10  C24 UNL     1       0.153   5.697  12.378  1.00  0.00    -0.026 C 
HETATM   11  C25 UNL     1      -0.315   6.341  11.047  1.00  0.00     0.016 C 
HETATM   12  C26 UNL     1      -3.478   3.336  11.667  1.00  0.00    -0.015 C 
HETATM   13  C27 UNL     1      -3.636   3.756  10.182  1.00  0.00     0.020 C 
HETATM   14  C28 UNL     1      -3.331   1.788  11.746  1.00  0.00     0.021 C 
HETATM   15  C29 UNL     1      -4.636   0.994  11.762  1.00  0.00     0.080 C 
HETATM   16  C30 UNL     1      -5.843   1.797  11.339  1.00  0.00     0.135 C 
HETATM   17  O10 UNL     1      -6.633   1.338  10.513  1.00  0.00    -0.297 OA
HETATM   18  C31 UNL     1      -6.088   3.131  12.053  1.00  0.00     0.018 C 
HETATM   19  C32 UNL     1      -6.890   4.067  11.125  1.00  0.00     0.023 C 
HETATM   20  C33 UNL     1      -6.984   2.820  13.273  1.00  0.00     0.023 C 
HETATM   21  C34 UNL     1      -4.723   3.728  12.542  1.00  0.00     0.013 C 
HETATM   22  C35 UNL     1      -4.778   5.244  12.775  1.00  0.00     0.011 C 
HETATM   23  C36 UNL     1      -3.530   5.736  13.496  1.00  0.00     0.036 C 
ENDROOT
BRANCH   1  24
HETATM   24  C5  UNL     1       2.547   7.083  12.253  1.00  0.00     0.093 C 
BRANCH  24  25
HETATM   25  C4  UNL     1       2.920   6.252  10.995  1.00  0.00     0.019 C 
BRANCH  25  26
HETATM   26  C3  UNL     1       3.549   7.000   9.806  1.00  0.00     0.034 C 
BRANCH  26  27
HETATM   27  C2  UNL     1       2.900   6.617   8.478  1.00  0.00    -0.086 C 
HETATM   28  C1  UNL     1       2.998   5.347   8.041  1.00  0.00     0.014 C 
BRANCH  27  29
HETATM   29  C37 UNL     1       2.160   7.717   7.715  1.00  0.00     0.005 C 
HETATM   30  C38 UNL     1       0.948   8.305   8.446  1.00  0.00     0.014 C 
HETATM   31  C39 UNL     1       1.732   7.235   6.328  1.00  0.00     0.014 C 
ENDBRANCH  27  29
ENDBRANCH  26  27
ENDBRANCH  25  26
ENDBRANCH  24  25
BRANCH  24  32
HETATM   32  C6  UNL     1       2.825   8.576  12.026  1.00  0.00     0.266 C 
HETATM   33  O1  UNL     1       1.924   9.352  11.720  1.00  0.00    -0.265 OA
BRANCH  32  34
HETATM   34  O2  UNL     1       4.117   8.949  12.171  1.00  0.00    -0.287 OA
BRANCH  34  35
HETATM   35  C7  UNL     1       4.478   9.409  13.492  1.00  0.00     0.301 C 
HETATM   36  O3  UNL     1       5.544  10.366  13.474  1.00  0.00    -0.348 OA
HETATM   37  C8  UNL     1       6.785   9.887  12.946  1.00  0.00     0.179 C 
HETATM   38  C10 UNL     1       6.936   8.358  12.953  1.00  0.00     0.180 C 
HETATM   39  C11 UNL     1       6.333   7.805  14.239  1.00  0.00     0.183 C 
HETATM   40  C12 UNL     1       4.857   8.210  14.398  1.00  0.00     0.205 C 
BRANCH  37  41
HETATM   41  C9  UNL     1       7.007  10.476  11.555  1.00  0.00     0.198 C 
BRANCH  41  42
HETATM   42  O4  UNL     1       5.931  11.345  11.200  1.00  0.00    -0.398 OA
HETATM   43  H12 UNL     1       6.302  11.947  10.513  1.00  0.00     0.209 HD
ENDBRANCH  41  42
ENDBRANCH  37  41
BRANCH  38  44
HETATM   44  O5  UNL     1       8.311   7.964  12.874  1.00  0.00    -0.390 OA
HETATM   45  H14 UNL     1       8.676   8.454  12.103  1.00  0.00     0.210 HD
ENDBRANCH  38  44
BRANCH  39  46
HETATM   46  O6  UNL     1       6.468   6.379  14.238  1.00  0.00    -0.390 OA
HETATM   47  H16 UNL     1       7.418   6.223  14.062  1.00  0.00     0.210 HD
ENDBRANCH  39  46
BRANCH  40  48
HETATM   48  O7  UNL     1       4.625   8.558  15.779  1.00  0.00    -0.388 OA
HETATM   49  H18 UNL     1       5.140   9.364  15.967  1.00  0.00     0.210 HD
ENDBRANCH  40  48
ENDBRANCH  34  35
ENDBRANCH  32  34
ENDBRANCH  24  32
ENDBRANCH   1  24
BRANCH   2  50
HETATM   50  O8  UNL     1       1.124   7.635  15.161  1.00  0.00    -0.316 OA
BRANCH  50  51
HETATM   51  C15 UNL     1       1.121   8.792  15.868  1.00  0.00     0.255 C 
HETATM   52  C16 UNL     1      -0.265   9.107  16.338  1.00  0.00     0.126 C 
HETATM   53  O9  UNL     1       2.100   9.465  16.148  1.00  0.00    -0.266 OA
ENDBRANCH  50  51
ENDBRANCH   2  50
TORSDOF 15
ENDMDL
MODEL 9
REMARK minimizedAffinity -7.89658451
REMARK CNNscore 0.185541108
REMARK CNNaffinity 6.65278387
REMARK  15 active torsions:
REMARK  status: ('A' for Active; 'I' for Inactive)
REMARK    1  A    between atoms: C2_2  and  C3_3 
REMARK    2  A    between atoms: C2_2  and  C37_47 
REMARK    3  A    between atoms: C3_3  and  C4_4 
REMARK    4  A    between atoms: C4_4  and  C5_5 
REMARK    5  A    between atoms: C5_5  and  C6_6 
REMARK    6  A    between atoms: C5_5  and  C13_20 
REMARK    7  A    between atoms: C6_6  and  O2_8 
REMARK    8  A    between atoms: O2_8  and  C7_9 
REMARK    9  A    between atoms: C8_11  and  C9_12 
REMARK   10  A    between atoms: C9_12  and  O4_13 
REMARK   11  A    between atoms: C10_14  and  O5_15 
REMARK   12  A    between atoms: C11_16  and  O6_17 
REMARK   13  A    between atoms: C12_18  and  O7_19 
REMARK   14  A    between atoms: C14_21  and  O8_22 
REMARK   15  A    between atoms: O8_22  and  C15_23 
ROOT
HETATM    1  C13 UNL     1      -0.839   9.666  14.593  1.00  0.00     0.038 C 
HETATM    2  C14 UNL     1       0.533  10.407  14.597  1.00  0.00     0.138 C 
HETATM    3  C17 UNL     1       0.407  11.576  15.593  1.00  0.00     0.047 C 
HETATM    4  C18 UNL     1      -0.824  11.229  16.457  1.00  0.00    -0.010 C 
HETATM    5  C19 UNL     1      -0.354  10.238  17.568  1.00  0.00     0.021 C 
HETATM    6  C20 UNL     1      -1.540  12.343  17.215  1.00  0.00    -0.068 C 
HETATM    7  C21 UNL     1      -2.857  12.215  17.524  1.00  0.00    -0.068 C 
HETATM    8  C22 UNL     1      -3.662  10.986  17.071  1.00  0.00     0.036 C 
HETATM    9  C23 UNL     1      -2.957   9.972  16.139  1.00  0.00     0.015 C 
HETATM   10  C24 UNL     1      -1.798  10.621  15.367  1.00  0.00    -0.026 C 
HETATM   11  C25 UNL     1      -2.393  11.686  14.409  1.00  0.00     0.016 C 
HETATM   12  C26 UNL     1      -3.632  13.303  18.317  1.00  0.00    -0.015 C 
HETATM   13  C27 UNL     1      -4.505  14.072  17.291  1.00  0.00     0.020 C 
HETATM   14  C28 UNL     1      -4.557  12.643  19.380  1.00  0.00     0.021 C 
HETATM   15  C29 UNL     1      -4.972  13.535  20.549  1.00  0.00     0.080 C 
HETATM   16  C30 UNL     1      -4.723  15.005  20.312  1.00  0.00     0.135 C 
HETATM   17  O10 UNL     1      -5.607  15.829  20.552  1.00  0.00    -0.297 OA
HETATM   18  C31 UNL     1      -3.314  15.420  19.873  1.00  0.00     0.018 C 
HETATM   19  C32 UNL     1      -3.394  16.742  19.083  1.00  0.00     0.023 C 
HETATM   20  C33 UNL     1      -2.517  15.707  21.165  1.00  0.00     0.023 C 
HETATM   21  C34 UNL     1      -2.637  14.243  19.088  1.00  0.00     0.013 C 
HETATM   22  C35 UNL     1      -1.495  14.708  18.174  1.00  0.00     0.011 C 
HETATM   23  C36 UNL     1      -0.699  13.523  17.642  1.00  0.00     0.036 C 
ENDROOT
BRANCH   1  24
HETATM   24  C5  UNL     1      -1.155   8.993  13.220  1.00  0.00     0.093 C 
BRANCH  24  25
HETATM   25  C4  UNL     1       0.064   8.270  12.586  1.00  0.00     0.019 C 
BRANCH  25  26
HETATM   26  C3  UNL     1      -0.159   7.525  11.258  1.00  0.00     0.034 C 
BRANCH  26  27
HETATM   27  C2  UNL     1       1.154   7.065  10.630  1.00  0.00    -0.086 C 
HETATM   28  C1  UNL     1       1.717   5.916  11.051  1.00  0.00     0.014 C 
BRANCH  27  29
HETATM   29  C37 UNL     1       1.755   7.949   9.537  1.00  0.00     0.005 C 
HETATM   30  C38 UNL     1       0.774   8.375   8.440  1.00  0.00     0.014 C 
HETATM   31  C39 UNL     1       2.974   7.283   8.896  1.00  0.00     0.014 C 
ENDBRANCH  27  29
ENDBRANCH  26  27
ENDBRANCH  25  26
ENDBRANCH  24  25
BRANCH  24  32
HETATM   32  C6  UNL     1      -2.459   8.241  12.915  1.00  0.00     0.266 C 
HETATM   33  O1  UNL     1      -3.523   8.838  12.779  1.00  0.00    -0.265 OA
BRANCH  32  34
HETATM   34  O2  UNL     1      -2.340   6.895  12.829  1.00  0.00    -0.287 OA
BRANCH  34  35
HETATM   35  C7  UNL     1      -2.438   6.189  14.085  1.00  0.00     0.301 C 
HETATM   36  O3  UNL     1      -2.516   4.768  13.916  1.00  0.00    -0.348 OA
HETATM   37  C8  UNL     1      -3.658   4.302  13.190  1.00  0.00     0.179 C 
HETATM   38  C10 UNL     1      -4.835   5.289  13.145  1.00  0.00     0.180 C 
HETATM   39  C11 UNL     1      -4.958   5.976  14.500  1.00  0.00     0.183 C 
HETATM   40  C12 UNL     1      -3.657   6.695  14.897  1.00  0.00     0.205 C 
BRANCH  37  41
HETATM   41  C9  UNL     1      -3.228   3.863  11.794  1.00  0.00     0.198 C 
BRANCH  41  42
HETATM   42  O4  UNL     1      -1.849   4.164  11.574  1.00  0.00    -0.398 OA
HETATM   43  H12 UNL     1      -1.561   3.549  10.860  1.00  0.00     0.209 HD
ENDBRANCH  41  42
ENDBRANCH  37  41
BRANCH  38  44
HETATM   44  O5  UNL     1      -6.068   4.625  12.843  1.00  0.00    -0.390 OA
HETATM   45  H14 UNL     1      -5.885   4.097  12.033  1.00  0.00     0.210 HD
ENDBRANCH  38  44
BRANCH  39  46
HETATM   46  O6  UNL     1      -6.051   6.902  14.451  1.00  0.00    -0.390 OA
HETATM   47  H16 UNL     1      -6.807   6.372  14.125  1.00  0.00     0.210 HD
ENDBRANCH  39  46
BRANCH  40  48
HETATM   48  O7  UNL     1      -3.424   6.473  16.304  1.00  0.00    -0.388 OA
HETATM   49  H18 UNL     1      -3.246   5.522  16.423  1.00  0.00     0.210 HD
ENDBRANCH  40  48
ENDBRANCH  34  35
ENDBRANCH  32  34
ENDBRANCH  24  32
ENDBRANCH   1  24
BRANCH   2  50
HETATM   50  O8  UNL     1       1.523   9.468  15.061  1.00  0.00    -0.316 OA
BRANCH  50  51
HETATM   51  C15 UNL     1       1.288   8.801  16.217  1.00  0.00     0.255 C 
HETATM   52  C16 UNL     1       0.471   7.575  15.949  1.00  0.00     0.126 C 
HETATM   53  O9  UNL     1       1.719   9.099  17.319  1.00  0.00    -0.266 OA
ENDBRANCH  50  51
ENDBRANCH   2  50
TORSDOF 15
ENDMDL
