MODEL 1
REMARK minimizedAffinity -9.88619518
REMARK CNNscore 0.41595304
REMARK CNNaffinity 7.71070242
REMARK  10 active torsions:
REMARK  status: ('A' for Active; 'I' for Inactive)
REMARK    1  A    between atoms: C2_2  and  C3_3 
REMARK    2  A    between atoms: C4_4  and  C18_19 
REMARK    3  A    between atoms: C19_20  and  O1_21 
REMARK    4  A    between atoms: N2_22  and  C20_23 
REMARK    5  A    between atoms: C20_23  and  C21_24 
REMARK    6  A    between atoms: C21_24  and  O3_26 
REMARK    7  A    between atoms: O3_26  and  C22_27 
REMARK    8  A    between atoms: C32_37  and  C33_38 
REMARK    9  A    between atoms: C39_46  and  O6_47 
REMARK   10  A    between atoms: C45_53  and  O7_54 
ROOT
HETATM    1  C21 UNL     1      -1.060  52.750 -10.645  1.00  0.00     0.222 C 
HETATM    2  O2  UNL     1      -2.031  52.659  -9.908  1.00  0.00    -0.287 OA
ENDROOT
BRANCH   1   3
HETATM    3  C20 UNL     1      -0.132  51.579 -10.975  1.00  0.00     0.328 C 
BRANCH   3   4
HETATM    4  N2  UNL     1      -0.766  50.432 -11.870  1.00  0.00    -0.023 N 
HETATM    5  C6  UNL     1       0.391  49.455 -12.301  1.00  0.00     0.214 C 
HETATM    6  C5  UNL     1      -0.276  48.115 -12.684  1.00  0.00     0.041 C 
HETATM    7  C7  UNL     1       1.205  49.986 -13.524  1.00  0.00     0.109 C 
HETATM    8  C4  UNL     1      -1.716  48.387 -13.151  1.00  0.00     0.004 C 
HETATM    9  C3  UNL     1      -2.520  48.598 -11.850  1.00  0.00     0.047 C 
HETATM   10  C45 UNL     1      -1.802  49.695 -11.005  1.00  0.00     0.329 C 
HETATM   11  N1  UNL     1       2.289  50.959 -13.209  1.00  0.00    -0.279 NA
HETATM   12  C15 UNL     1       0.322  50.708 -14.581  1.00  0.00     0.035 C 
HETATM   13  C8  UNL     1       3.500  50.443 -12.567  1.00  0.00     0.117 C 
HETATM   14  C9  UNL     1       2.518  51.517 -14.511  1.00  0.00     0.018 A 
HETATM   15  C10 UNL     1       3.646  52.190 -14.964  1.00  0.00     0.024 A 
HETATM   16  C14 UNL     1       1.402  51.374 -15.361  1.00  0.00    -0.024 A 
HETATM   17  C11 UNL     1       3.649  52.694 -16.271  1.00  0.00     0.002 A 
HETATM   18  C12 UNL     1       2.536  52.530 -17.109  1.00  0.00     0.001 A 
HETATM   19  C13 UNL     1       1.395  51.870 -16.655  1.00  0.00     0.010 A 
HETATM   20  C16 UNL     1      -0.578  51.780 -13.965  1.00  0.00     0.053 C 
HETATM   21  C19 UNL     1      -0.734  49.778 -15.186  1.00  0.00     0.139 C 
HETATM   22  C17 UNL     1      -1.498  50.924 -13.138  1.00  0.00     0.202 C 
HETATM   23  C18 UNL     1      -1.774  49.666 -14.026  1.00  0.00     0.051 C 
BRANCH   9  24
HETATM   24  C2  UNL     1      -4.008  48.936 -12.057  1.00  0.00     0.005 C 
HETATM   25  C1  UNL     1      -4.530  49.997 -11.097  1.00  0.00     0.005 C 
ENDBRANCH   9  24
BRANCH  10  26
HETATM   26  O7  UNL     1      -1.185  49.158  -9.854  1.00  0.00    -0.369 OA
HETATM   27  H61 UNL     1      -1.601  48.297  -9.625  1.00  0.00     0.212 HD
ENDBRANCH  10  26
BRANCH  21  28
HETATM   28  O1  UNL     1      -0.239  48.516 -15.572  1.00  0.00    -0.394 OA
HETATM   29  H24 UNL     1      -0.154  48.499 -16.550  1.00  0.00     0.210 HD
ENDBRANCH  21  28
ENDBRANCH   3   4
ENDBRANCH   1   3
BRANCH   1  30
HETATM   30  O3  UNL     1      -0.642  53.882 -11.277  1.00  0.00     0.000 OA
HETATM   31 BR1  UNL     1      -1.507  54.903 -10.156  1.00  0.00    -0.148 Br
BRANCH  30  32
HETATM   32  C22 UNL     1      -0.111  54.930 -10.427  1.00  0.00    -0.009 C 
HETATM   33  C23 UNL     1      -0.806  54.818  -9.081  1.00  0.00     0.006 C 
HETATM   34  C24 UNL     1       0.019  55.499  -7.996  1.00  0.00     0.010 C 
HETATM   35  C25 UNL     1       1.361  54.759  -7.728  1.00  0.00    -0.036 C 
HETATM   36  C26 UNL     1       1.017  53.537  -6.822  1.00  0.00     0.016 C 
HETATM   37  C27 UNL     1       2.366  55.701  -6.955  1.00  0.00     0.001 C 
HETATM   38  C43 UNL     1       1.988  54.203  -9.054  1.00  0.00    -0.005 C 
HETATM   39  C28 UNL     1       2.683  57.025  -7.697  1.00  0.00     0.007 C 
HETATM   40  C40 UNL     1       3.652  54.944  -6.559  1.00  0.00     0.025 C 
HETATM   41  C29 UNL     1       4.143  57.484  -7.583  1.00  0.00     0.013 C 
HETATM   42  C30 UNL     1       4.730  57.344  -6.159  1.00  0.00    -0.005 C 
HETATM   43  C31 UNL     1       3.994  58.379  -5.270  1.00  0.00     0.019 C 
HETATM   44  C32 UNL     1       6.278  57.625  -6.237  1.00  0.00     0.028 C 
HETATM   45  C39 UNL     1       4.600  55.847  -5.682  1.00  0.00     0.070 C 
HETATM   46  C37 UNL     1       6.904  56.231  -6.391  1.00  0.00     0.013 C 
HETATM   47  C38 UNL     1       6.037  55.312  -5.543  1.00  0.00     0.040 C 
HETATM   48  C41 UNL     1       4.264  54.179  -7.763  1.00  0.00     0.008 C 
HETATM   49  C42 UNL     1       3.528  54.314  -9.102  1.00  0.00     0.006 C 
HETATM   50  C44 UNL     1       1.418  54.828 -10.355  1.00  0.00     0.156 C 
BRANCH  44  51
HETATM   51  C33 UNL     1       6.917  58.421  -5.127  1.00  0.00    -0.045 A 
HETATM   52  C34 UNL     1       8.225  58.507  -4.899  1.00  0.00     0.087 A 
HETATM   53  C35 UNL     1       8.420  59.347  -3.719  1.00  0.00     0.283 A 
HETATM   54  O4  UNL     1       9.494  59.604  -3.213  1.00  0.00    -0.260 OA
HETATM   55  O5  UNL     1       7.205  59.755  -3.271  1.00  0.00    -0.314 OA
HETATM   56  C36 UNL     1       6.179  59.209  -4.104  1.00  0.00     0.213 A 
ENDBRANCH  44  51
BRANCH  45  57
HETATM   57  O6  UNL     1       4.043  55.856  -4.353  1.00  0.00    -0.389 OA
HETATM   58  H51 UNL     1       3.987  54.938  -4.039  1.00  0.00     0.210 HD
ENDBRANCH  45  57
ENDBRANCH  30  32
ENDBRANCH   1  30
TORSDOF 10
ENDMDL
MODEL 2
REMARK minimizedAffinity -11.4490499
REMARK CNNscore 0.359895557
REMARK CNNaffinity 6.96546745
REMARK  10 active torsions:
REMARK  status: ('A' for Active; 'I' for Inactive)
REMARK    1  A    between atoms: C2_2  and  C3_3 
REMARK    2  A    between atoms: C4_4  and  C18_19 
REMARK    3  A    between atoms: C19_20  and  O1_21 
REMARK    4  A    between atoms: N2_22  and  C20_23 
REMARK    5  A    between atoms: C20_23  and  C21_24 
REMARK    6  A    between atoms: C21_24  and  O3_26 
REMARK    7  A    between atoms: O3_26  and  C22_27 
REMARK    8  A    between atoms: C32_37  and  C33_38 
REMARK    9  A    between atoms: C39_46  and  O6_47 
REMARK   10  A    between atoms: C45_53  and  O7_54 
ROOT
HETATM    1  C21 UNL     1     -10.141  45.821 -24.416  1.00  0.00     0.222 C 
HETATM    2  O2  UNL     1     -11.109  46.207 -23.776  1.00  0.00    -0.287 OA
ENDROOT
BRANCH   1   3
HETATM    3  C20 UNL     1     -10.212  45.374 -25.878  1.00  0.00     0.328 C 
BRANCH   3   4
HETATM    4  N2  UNL     1     -11.531  45.788 -26.658  1.00  0.00    -0.023 N 
HETATM    5  C6  UNL     1     -11.507  45.079 -28.064  1.00  0.00     0.214 C 
HETATM    6  C5  UNL     1     -12.966  45.041 -28.570  1.00  0.00     0.041 C 
HETATM    7  C7  UNL     1     -10.627  45.839 -29.108  1.00  0.00     0.109 C 
HETATM    8  C4  UNL     1     -13.746  46.208 -27.940  1.00  0.00     0.004 C 
HETATM    9  C3  UNL     1     -14.064  45.741 -26.503  1.00  0.00     0.047 C 
HETATM   10  C45 UNL     1     -12.729  45.299 -25.827  1.00  0.00     0.329 C 
HETATM   11  N1  UNL     1      -9.166  45.551 -29.057  1.00  0.00    -0.279 NA
HETATM   12  C15 UNL     1     -10.729  47.386 -28.985  1.00  0.00     0.035 C 
HETATM   13  C8  UNL     1      -8.712  44.250 -29.552  1.00  0.00     0.117 C 
HETATM   14  C9  UNL     1      -8.659  46.664 -29.808  1.00  0.00     0.018 A 
HETATM   15  C10 UNL     1      -7.428  46.775 -30.444  1.00  0.00     0.024 A 
HETATM   16  C14 UNL     1      -9.550  47.758 -29.816  1.00  0.00    -0.024 A 
HETATM   17  C11 UNL     1      -7.113  47.974 -31.095  1.00  0.00     0.002 A 
HETATM   18  C12 UNL     1      -8.017  49.048 -31.106  1.00  0.00     0.001 A 
HETATM   19  C13 UNL     1      -9.247  48.948 -30.457  1.00  0.00     0.010 A 
HETATM   20  C16 UNL     1     -10.502  47.880 -27.555  1.00  0.00     0.053 C 
HETATM   21  C19 UNL     1     -12.153  47.895 -29.227  1.00  0.00     0.139 C 
HETATM   22  C17 UNL     1     -11.713  47.307 -26.871  1.00  0.00     0.202 C 
HETATM   23  C18 UNL     1     -12.874  47.489 -27.902  1.00  0.00     0.051 C 
BRANCH   9  24
HETATM   24  C2  UNL     1     -14.814  46.772 -25.639  1.00  0.00     0.005 C 
HETATM   25  C1  UNL     1     -16.127  46.248 -25.071  1.00  0.00     0.005 C 
ENDBRANCH   9  24
BRANCH  10  26
HETATM   26  O7  UNL     1     -12.663  43.900 -25.649  1.00  0.00    -0.369 OA
HETATM   27  H61 UNL     1     -13.570  43.521 -25.659  1.00  0.00     0.212 HD
ENDBRANCH  10  26
BRANCH  21  28
HETATM   28  O1  UNL     1     -12.780  47.335 -30.359  1.00  0.00    -0.394 OA
HETATM   29  H24 UNL     1     -12.782  48.004 -31.078  1.00  0.00     0.210 HD
ENDBRANCH  21  28
ENDBRANCH   3   4
ENDBRANCH   1   3
BRANCH   1  30
HETATM   30  O3  UNL     1      -8.867  45.718 -23.948  1.00  0.00     0.000 OA
HETATM   31 BR1  UNL     1      -8.198  46.275 -25.461  1.00  0.00    -0.148 Br
BRANCH  30  32
HETATM   32  C22 UNL     1      -8.005  46.862 -24.180  1.00  0.00    -0.009 C 
HETATM   33  C23 UNL     1      -8.695  48.076 -23.581  1.00  0.00     0.006 C 
HETATM   34  C24 UNL     1      -7.684  49.184 -23.309  1.00  0.00     0.010 C 
HETATM   35  C25 UNL     1      -6.678  48.797 -22.186  1.00  0.00    -0.036 C 
HETATM   36  C26 UNL     1      -7.420  49.024 -20.833  1.00  0.00     0.016 C 
HETATM   37  C27 UNL     1      -5.409  49.737 -22.235  1.00  0.00     0.001 C 
HETATM   38  C43 UNL     1      -6.283  47.282 -22.262  1.00  0.00    -0.005 C 
HETATM   39  C28 UNL     1      -4.656  49.706 -23.590  1.00  0.00     0.007 C 
HETATM   40  C40 UNL     1      -4.461  49.462 -21.048  1.00  0.00     0.025 C 
HETATM   41  C29 UNL     1      -3.128  49.762 -23.471  1.00  0.00     0.013 C 
HETATM   42  C30 UNL     1      -2.622  50.794 -22.435  1.00  0.00    -0.005 C 
HETATM   43  C31 UNL     1      -2.956  52.197 -23.004  1.00  0.00     0.019 C 
HETATM   44  C32 UNL     1      -1.072  50.583 -22.249  1.00  0.00     0.028 C 
HETATM   45  C39 UNL     1      -3.259  50.479 -21.027  1.00  0.00     0.070 C 
HETATM   46  C37 UNL     1      -0.964  49.646 -21.036  1.00  0.00     0.013 C 
HETATM   47  C38 UNL     1      -2.094  50.068 -20.109  1.00  0.00     0.040 C 
HETATM   48  C41 UNL     1      -4.152  47.948 -20.897  1.00  0.00     0.008 C 
HETATM   49  C42 UNL     1      -4.799  47.014 -21.927  1.00  0.00     0.006 C 
HETATM   50  C44 UNL     1      -6.605  46.592 -23.614  1.00  0.00     0.156 C 
BRANCH  44  51
HETATM   51  C33 UNL     1      -0.196  51.803 -22.110  1.00  0.00    -0.045 A 
HETATM   52  C34 UNL     1       0.156  52.368 -20.958  1.00  0.00     0.087 A 
HETATM   53  C35 UNL     1       0.978  53.536 -21.265  1.00  0.00     0.283 A 
HETATM   54  O4  UNL     1       1.439  54.303 -20.443  1.00  0.00    -0.260 OA
HETATM   55  O5  UNL     1       1.107  53.634 -22.613  1.00  0.00    -0.314 OA
HETATM   56  C36 UNL     1       0.385  52.573 -23.242  1.00  0.00     0.213 A 
ENDBRANCH  44  51
BRANCH  45  57
HETATM   57  O6  UNL     1      -3.777  51.714 -20.494  1.00  0.00    -0.389 OA
HETATM   58  H51 UNL     1      -4.145  51.536 -19.612  1.00  0.00     0.210 HD
ENDBRANCH  45  57
ENDBRANCH  30  32
ENDBRANCH   1  30
TORSDOF 10
ENDMDL
MODEL 3
REMARK minimizedAffinity -9.88724422
REMARK CNNscore 0.359442025
REMARK CNNaffinity 6.77802801
REMARK  10 active torsions:
REMARK  status: ('A' for Active; 'I' for Inactive)
REMARK    1  A    between atoms: C2_2  and  C3_3 
REMARK    2  A    between atoms: C4_4  and  C18_19 
REMARK    3  A    between atoms: C19_20  and  O1_21 
REMARK    4  A    between atoms: N2_22  and  C20_23 
REMARK    5  A    between atoms: C20_23  and  C21_24 
REMARK    6  A    between atoms: C21_24  and  O3_26 
REMARK    7  A    between atoms: O3_26  and  C22_27 
REMARK    8  A    between atoms: C32_37  and  C33_38 
REMARK    9  A    between atoms: C39_46  and  O6_47 
REMARK   10  A    between atoms: C45_53  and  O7_54 
ROOT
HETATM    1  C21 UNL     1     -10.881  44.519 -30.109  1.00  0.00     0.222 C 
HETATM    2  O2  UNL     1     -11.814  45.305 -30.020  1.00  0.00    -0.287 OA
ENDROOT
BRANCH   1   3
HETATM    3  C20 UNL     1      -9.995  44.390 -31.350  1.00  0.00     0.328 C 
BRANCH   3   4
HETATM    4  N2  UNL     1      -9.116  45.665 -31.700  1.00  0.00    -0.023 N 
HETATM    5  C6  UNL     1      -8.741  45.592 -33.228  1.00  0.00     0.214 C 
HETATM    6  C5  UNL     1      -8.379  47.027 -33.668  1.00  0.00     0.041 C 
HETATM    7  C7  UNL     1      -7.523  44.652 -33.505  1.00  0.00     0.109 C 
HETATM    8  C4  UNL     1      -7.870  47.812 -32.447  1.00  0.00     0.004 C 
HETATM    9  C3  UNL     1      -9.145  48.202 -31.669  1.00  0.00     0.047 C 
HETATM   10  C45 UNL     1      -9.977  46.907 -31.415  1.00  0.00     0.329 C 
HETATM   11  N1  UNL     1      -7.837  43.200 -33.622  1.00  0.00    -0.279 NA
HETATM   12  C15 UNL     1      -6.426  44.731 -32.407  1.00  0.00     0.035 C 
HETATM   13  C8  UNL     1      -8.522  42.748 -34.836  1.00  0.00     0.117 C 
HETATM   14  C9  UNL     1      -6.526  42.641 -33.456  1.00  0.00     0.018 A 
HETATM   15  C10 UNL     1      -6.082  41.380 -33.838  1.00  0.00     0.024 A 
HETATM   16  C14 UNL     1      -5.654  43.510 -32.769  1.00  0.00    -0.024 A 
HETATM   17  C11 UNL     1      -4.762  41.015 -33.545  1.00  0.00     0.002 A 
HETATM   18  C12 UNL     1      -3.902  41.897 -32.873  1.00  0.00     0.001 A 
HETATM   19  C13 UNL     1      -4.347  43.157 -32.473  1.00  0.00     0.010 A 
HETATM   20  C16 UNL     1      -6.991  44.559 -30.995  1.00  0.00     0.053 C 
HETATM   21  C19 UNL     1      -5.821  46.133 -32.290  1.00  0.00     0.139 C 
HETATM   22  C17 UNL     1      -7.818  45.809 -30.876  1.00  0.00     0.202 C 
HETATM   23  C18 UNL     1      -6.959  46.920 -31.565  1.00  0.00     0.051 C 
BRANCH   9  24
HETATM   24  C2  UNL     1      -8.893  48.971 -30.358  1.00  0.00     0.005 C 
HETATM   25  C1  UNL     1      -8.529  48.070 -29.185  1.00  0.00     0.005 C 
ENDBRANCH   9  24
BRANCH  10  26
HETATM   26  O7  UNL     1     -11.156  46.874 -32.189  1.00  0.00    -0.369 OA
HETATM   27  H61 UNL     1     -11.399  47.787 -32.464  1.00  0.00     0.212 HD
ENDBRANCH  10  26
BRANCH  21  28
HETATM   28  O1  UNL     1      -5.483  46.720 -33.527  1.00  0.00    -0.394 OA
HETATM   29  H24 UNL     1      -4.508  46.678 -33.636  1.00  0.00     0.210 HD
ENDBRANCH  21  28
ENDBRANCH   3   4
ENDBRANCH   1   3
BRANCH   1  30
HETATM   30  O3  UNL     1     -10.485  43.640 -29.147  1.00  0.00     0.000 OA
HETATM   31 BR1  UNL     1      -9.848  44.922 -28.148  1.00  0.00    -0.148 Br
BRANCH  30  32
HETATM   32  C22 UNL     1     -10.847  43.977 -27.783  1.00  0.00    -0.009 C 
HETATM   33  C23 UNL     1     -10.516  45.445 -27.577  1.00  0.00     0.006 C 
HETATM   34  C24 UNL     1     -11.310  46.013 -26.407  1.00  0.00     0.010 C 
HETATM   35  C25 UNL     1     -12.836  46.065 -26.705  1.00  0.00    -0.036 C 
HETATM   36  C26 UNL     1     -13.070  47.329 -27.588  1.00  0.00     0.016 C 
HETATM   37  C27 UNL     1     -13.655  46.223 -25.363  1.00  0.00     0.001 C 
HETATM   38  C43 UNL     1     -13.307  44.817 -27.530  1.00  0.00    -0.005 C 
HETATM   39  C28 UNL     1     -13.401  45.090 -24.335  1.00  0.00     0.007 C 
HETATM   40  C40 UNL     1     -15.161  46.414 -25.644  1.00  0.00     0.025 C 
HETATM   41  C29 UNL     1     -14.648  44.640 -23.562  1.00  0.00     0.013 C 
HETATM   42  C30 UNL     1     -15.536  45.811 -23.079  1.00  0.00    -0.005 C 
HETATM   43  C31 UNL     1     -14.730  46.561 -21.987  1.00  0.00     0.019 C 
HETATM   44  C32 UNL     1     -16.878  45.209 -22.515  1.00  0.00     0.028 C 
HETATM   45  C39 UNL     1     -15.960  46.693 -24.315  1.00  0.00     0.070 C 
HETATM   46  C37 UNL     1     -17.844  45.263 -23.709  1.00  0.00     0.013 C 
HETATM   47  C38 UNL     1     -17.487  46.544 -24.448  1.00  0.00     0.040 C 
HETATM   48  C41 UNL     1     -15.705  45.338 -26.622  1.00  0.00     0.008 C 
HETATM   49  C42 UNL     1     -14.698  44.291 -27.113  1.00  0.00     0.006 C 
HETATM   50  C44 UNL     1     -12.317  43.622 -27.523  1.00  0.00     0.156 C 
BRANCH  44  51
HETATM   51  C33 UNL     1     -17.470  45.822 -21.271  1.00  0.00    -0.045 A 
HETATM   52  C34 UNL     1     -18.375  46.797 -21.252  1.00  0.00     0.087 A 
HETATM   53  C35 UNL     1     -18.658  47.118 -19.854  1.00  0.00     0.283 A 
HETATM   54  O4  UNL     1     -19.414  47.990 -19.477  1.00  0.00    -0.260 OA
HETATM   55  O5  UNL     1     -17.910  46.307 -19.063  1.00  0.00    -0.314 OA
HETATM   56  C36 UNL     1     -17.112  45.445 -19.877  1.00  0.00     0.213 A 
ENDBRANCH  44  51
BRANCH  45  57
HETATM   57  O6  UNL     1     -15.718  48.072 -23.974  1.00  0.00    -0.389 OA
HETATM   58  H51 UNL     1     -16.005  48.627 -24.719  1.00  0.00     0.210 HD
ENDBRANCH  45  57
ENDBRANCH  30  32
ENDBRANCH   1  30
TORSDOF 10
ENDMDL
MODEL 4
REMARK minimizedAffinity -10.2728682
REMARK CNNscore 0.352122068
REMARK CNNaffinity 6.73119593
REMARK  10 active torsions:
REMARK  status: ('A' for Active; 'I' for Inactive)
REMARK    1  A    between atoms: C2_2  and  C3_3 
REMARK    2  A    between atoms: C4_4  and  C18_19 
REMARK    3  A    between atoms: C19_20  and  O1_21 
REMARK    4  A    between atoms: N2_22  and  C20_23 
REMARK    5  A    between atoms: C20_23  and  C21_24 
REMARK    6  A    between atoms: C21_24  and  O3_26 
REMARK    7  A    between atoms: O3_26  and  C22_27 
REMARK    8  A    between atoms: C32_37  and  C33_38 
REMARK    9  A    between atoms: C39_46  and  O6_47 
REMARK   10  A    between atoms: C45_53  and  O7_54 
ROOT
HETATM    1  C21 UNL     1     -10.684  46.247 -29.341  1.00  0.00     0.222 C 
HETATM    2  O2  UNL     1     -10.926  45.125 -28.921  1.00  0.00    -0.287 OA
ENDROOT
BRANCH   1   3
HETATM    3  C20 UNL     1     -10.089  46.527 -30.723  1.00  0.00     0.328 C 
BRANCH   3   4
HETATM    4  N2  UNL     1      -8.523  46.781 -30.757  1.00  0.00    -0.023 N 
HETATM    5  C6  UNL     1      -8.131  47.207 -32.221  1.00  0.00     0.214 C 
HETATM    6  C5  UNL     1      -6.779  47.948 -32.124  1.00  0.00     0.041 C 
HETATM    7  C7  UNL     1      -7.974  45.986 -33.183  1.00  0.00     0.109 C 
HETATM    8  C4  UNL     1      -6.020  47.444 -30.885  1.00  0.00     0.004 C 
HETATM    9  C3  UNL     1      -6.683  48.167 -29.693  1.00  0.00     0.047 C 
HETATM   10  C45 UNL     1      -8.221  47.916 -29.765  1.00  0.00     0.329 C 
HETATM   11  N1  UNL     1      -9.234  45.468 -33.786  1.00  0.00    -0.279 NA
HETATM   12  C15 UNL     1      -7.324  44.749 -32.502  1.00  0.00     0.035 C 
HETATM   13  C8  UNL     1      -9.866  46.273 -34.835  1.00  0.00     0.117 C 
HETATM   14  C9  UNL     1      -8.792  44.179 -34.235  1.00  0.00     0.018 A 
HETATM   15  C10 UNL     1      -9.372  43.367 -35.203  1.00  0.00     0.024 A 
HETATM   16  C14 UNL     1      -7.660  43.723 -33.528  1.00  0.00    -0.024 A 
HETATM   17  C11 UNL     1      -8.798  42.117 -35.464  1.00  0.00     0.002 A 
HETATM   18  C12 UNL     1      -7.663  41.684 -34.762  1.00  0.00     0.001 A 
HETATM   19  C13 UNL     1      -7.086  42.487 -33.779  1.00  0.00     0.010 A 
HETATM   20  C16 UNL     1      -8.008  44.375 -31.186  1.00  0.00     0.053 C 
HETATM   21  C19 UNL     1      -5.907  45.039 -32.001  1.00  0.00     0.139 C 
HETATM   22  C17 UNL     1      -7.657  45.571 -30.344  1.00  0.00     0.202 C 
HETATM   23  C18 UNL     1      -6.180  45.909 -30.733  1.00  0.00     0.051 C 
BRANCH   9  24
HETATM   24  C2  UNL     1      -6.118  47.789 -28.311  1.00  0.00     0.005 C 
HETATM   25  C1  UNL     1      -4.679  48.241 -28.098  1.00  0.00     0.005 C 
ENDBRANCH   9  24
BRANCH  10  26
HETATM   26  O7  UNL     1      -8.932  49.081 -30.123  1.00  0.00    -0.369 OA
HETATM   27  H61 UNL     1      -8.388  49.877 -29.924  1.00  0.00     0.212 HD
ENDBRANCH  10  26
BRANCH  21  28
HETATM   28  O1  UNL     1      -5.092  45.713 -32.934  1.00  0.00    -0.394 OA
HETATM   29  H24 UNL     1      -4.459  45.068 -33.319  1.00  0.00     0.210 HD
ENDBRANCH  21  28
ENDBRANCH   3   4
ENDBRANCH   1   3
BRANCH   1  30
HETATM   30  O3  UNL     1     -10.890  47.412 -28.667  1.00  0.00     0.000 OA
HETATM   31 BR1  UNL     1     -12.459  47.633 -29.400  1.00  0.00    -0.148 Br
BRANCH  30  32
HETATM   32  C22 UNL     1     -12.176  47.552 -28.008  1.00  0.00    -0.009 C 
HETATM   33  C23 UNL     1     -13.118  46.538 -28.636  1.00  0.00     0.006 C 
HETATM   34  C24 UNL     1     -14.285  46.245 -27.702  1.00  0.00     0.010 C 
HETATM   35  C25 UNL     1     -13.832  45.507 -26.409  1.00  0.00    -0.036 C 
HETATM   36  C26 UNL     1     -13.654  44.006 -26.798  1.00  0.00     0.016 C 
HETATM   37  C27 UNL     1     -14.943  45.615 -25.292  1.00  0.00     0.001 C 
HETATM   38  C43 UNL     1     -12.444  46.032 -25.902  1.00  0.00    -0.005 C 
HETATM   39  C28 UNL     1     -15.312  47.073 -24.913  1.00  0.00     0.007 C 
HETATM   40  C40 UNL     1     -14.575  44.776 -24.050  1.00  0.00     0.025 C 
HETATM   41  C29 UNL     1     -15.576  47.294 -23.418  1.00  0.00     0.013 C 
HETATM   42  C30 UNL     1     -16.433  46.184 -22.766  1.00  0.00    -0.005 C 
HETATM   43  C31 UNL     1     -17.856  46.308 -23.369  1.00  0.00     0.019 C 
HETATM   44  C32 UNL     1     -16.428  46.410 -21.207  1.00  0.00     0.028 C 
HETATM   45  C39 UNL     1     -15.737  44.786 -22.987  1.00  0.00     0.070 C 
HETATM   46  C37 UNL     1     -15.286  45.516 -20.702  1.00  0.00     0.013 C 
HETATM   47  C38 UNL     1     -15.327  44.282 -21.591  1.00  0.00     0.040 C 
HETATM   48  C41 UNL     1     -13.128  45.068 -23.567  1.00  0.00     0.008 C 
HETATM   49  C42 UNL     1     -12.342  46.117 -24.362  1.00  0.00     0.006 C 
HETATM   50  C44 UNL     1     -12.011  47.401 -26.490  1.00  0.00     0.156 C 
BRANCH  44  51
HETATM   51  C33 UNL     1     -17.711  46.186 -20.447  1.00  0.00    -0.045 A 
HETATM   52  C34 UNL     1     -18.220  44.997 -20.136  1.00  0.00     0.087 A 
HETATM   53  C35 UNL     1     -19.480  45.220 -19.430  1.00  0.00     0.283 A 
HETATM   54  O4  UNL     1     -20.224  44.345 -19.033  1.00  0.00    -0.260 OA
HETATM   55  O5  UNL     1     -19.689  46.558 -19.327  1.00  0.00    -0.314 OA
HETATM   56  C36 UNL     1     -18.614  47.260 -19.954  1.00  0.00     0.213 A 
ENDBRANCH  44  51
BRANCH  45  57
HETATM   57  O6  UNL     1     -16.739  43.868 -23.469  1.00  0.00    -0.389 OA
HETATM   58  H51 UNL     1     -16.326  42.995 -23.579  1.00  0.00     0.210 HD
ENDBRANCH  45  57
ENDBRANCH  30  32
ENDBRANCH   1  30
TORSDOF 10
ENDMDL
MODEL 5
REMARK minimizedAffinity -10.4473972
REMARK CNNscore 0.293641925
REMARK CNNaffinity 6.96464109
REMARK  10 active torsions:
REMARK  status: ('A' for Active; 'I' for Inactive)
REMARK    1  A    between atoms: C2_2  and  C3_3 
REMARK    2  A    between atoms: C4_4  and  C18_19 
REMARK    3  A    between atoms: C19_20  and  O1_21 
REMARK    4  A    between atoms: N2_22  and  C20_23 
REMARK    5  A    between atoms: C20_23  and  C21_24 
REMARK    6  A    between atoms: C21_24  and  O3_26 
REMARK    7  A    between atoms: O3_26  and  C22_27 
REMARK    8  A    between atoms: C32_37  and  C33_38 
REMARK    9  A    between atoms: C39_46  and  O6_47 
REMARK   10  A    between atoms: C45_53  and  O7_54 
ROOT
HETATM    1  C21 UNL     1      -9.747  45.368 -24.364  1.00  0.00     0.222 C 
HETATM    2  O2  UNL     1      -9.380  44.393 -25.005  1.00  0.00    -0.287 OA
ENDROOT
BRANCH   1   3
HETATM    3  C20 UNL     1     -11.006  46.174 -24.692  1.00  0.00     0.328 C 
BRANCH   3   4
HETATM    4  N2  UNL     1     -11.212  46.533 -26.224  1.00  0.00    -0.023 N 
HETATM    5  C6  UNL     1     -12.585  47.290 -26.367  1.00  0.00     0.214 C 
HETATM    6  C5  UNL     1     -12.524  48.080 -27.692  1.00  0.00     0.041 C 
HETATM    7  C7  UNL     1     -13.808  46.319 -26.409  1.00  0.00     0.109 C 
HETATM    8  C4  UNL     1     -11.554  47.373 -28.653  1.00  0.00     0.004 C 
HETATM    9  C3  UNL     1     -10.146  47.776 -28.163  1.00  0.00     0.047 C 
HETATM   10  C45 UNL     1     -10.046  47.445 -26.642  1.00  0.00     0.329 C 
HETATM   11  N1  UNL     1     -14.320  45.861 -25.087  1.00  0.00    -0.279 NA
HETATM   12  C15 UNL     1     -13.523  45.009 -27.197  1.00  0.00     0.035 C 
HETATM   13  C8  UNL     1     -15.058  46.828 -24.271  1.00  0.00     0.117 C 
HETATM   14  C9  UNL     1     -15.105  44.730 -25.494  1.00  0.00     0.018 A 
HETATM   15  C10 UNL     1     -16.134  44.110 -24.795  1.00  0.00     0.024 A 
HETATM   16  C14 UNL     1     -14.692  44.209 -26.737  1.00  0.00    -0.024 A 
HETATM   17  C11 UNL     1     -16.749  42.986 -25.361  1.00  0.00     0.002 A 
HETATM   18  C12 UNL     1     -16.336  42.488 -26.606  1.00  0.00     0.001 A 
HETATM   19  C13 UNL     1     -15.294  43.097 -27.305  1.00  0.00     0.010 A 
HETATM   20  C16 UNL     1     -12.238  44.315 -26.742  1.00  0.00     0.053 C 
HETATM   21  C19 UNL     1     -13.183  45.278 -28.666  1.00  0.00     0.139 C 
HETATM   22  C17 UNL     1     -11.211  45.322 -27.183  1.00  0.00     0.202 C 
HETATM   23  C18 UNL     1     -11.727  45.834 -28.568  1.00  0.00     0.051 C 
BRANCH   9  24
HETATM   24  C2  UNL     1      -8.983  47.147 -28.951  1.00  0.00     0.005 C 
HETATM   25  C1  UNL     1      -7.713  47.988 -28.937  1.00  0.00     0.005 C 
ENDBRANCH   9  24
BRANCH  10  26
HETATM   26  O7  UNL     1     -10.027  48.610 -25.847  1.00  0.00    -0.369 OA
HETATM   27  H61 UNL     1      -9.737  49.378 -26.389  1.00  0.00     0.212 HD
ENDBRANCH  10  26
BRANCH  21  28
HETATM   28  O1  UNL     1     -14.052  46.190 -29.301  1.00  0.00    -0.394 OA
HETATM   29  H24 UNL     1     -14.659  45.686 -29.887  1.00  0.00     0.210 HD
ENDBRANCH  21  28
ENDBRANCH   3   4
ENDBRANCH   1   3
BRANCH   1  30
HETATM   30  O3  UNL     1      -9.112  45.894 -23.281  1.00  0.00     0.000 OA
HETATM   31 BR1  UNL     1      -7.590  45.975 -24.133  1.00  0.00    -0.148 Br
BRANCH  30  32
HETATM   32  C22 UNL     1      -8.284  47.060 -23.529  1.00  0.00    -0.009 C 
HETATM   33  C23 UNL     1      -8.860  48.205 -22.712  1.00  0.00     0.006 C 
HETATM   34  C24 UNL     1      -7.807  49.284 -22.491  1.00  0.00     0.010 C 
HETATM   35  C25 UNL     1      -6.644  48.792 -21.582  1.00  0.00    -0.036 C 
HETATM   36  C26 UNL     1      -7.165  48.878 -20.114  1.00  0.00     0.016 C 
HETATM   37  C27 UNL     1      -5.388  49.737 -21.733  1.00  0.00     0.001 C 
HETATM   38  C43 UNL     1      -6.282  47.293 -21.868  1.00  0.00    -0.005 C 
HETATM   39  C28 UNL     1      -4.854  49.846 -23.185  1.00  0.00     0.007 C 
HETATM   40  C40 UNL     1      -4.271  49.349 -20.740  1.00  0.00     0.025 C 
HETATM   41  C29 UNL     1      -3.325  49.897 -23.299  1.00  0.00     0.013 C 
HETATM   42  C30 UNL     1      -2.653  50.822 -22.256  1.00  0.00    -0.005 C 
HETATM   43  C31 UNL     1      -3.056  52.274 -22.623  1.00  0.00     0.019 C 
HETATM   44  C32 UNL     1      -1.096  50.601 -22.334  1.00  0.00     0.028 C 
HETATM   45  C39 UNL     1      -3.069  50.365 -20.805  1.00  0.00     0.070 C 
HETATM   46  C37 UNL     1      -0.813  49.548 -21.252  1.00  0.00     0.013 C 
HETATM   47  C38 UNL     1      -1.780  49.870 -20.123  1.00  0.00     0.040 C 
HETATM   48  C41 UNL     1      -3.959  47.829 -20.790  1.00  0.00     0.008 C 
HETATM   49  C42 UNL     1      -4.767  47.000 -21.796  1.00  0.00     0.006 C 
HETATM   50  C44 UNL     1      -6.816  46.741 -23.217  1.00  0.00     0.156 C 
BRANCH  44  51
HETATM   51  C33 UNL     1      -0.196  51.805 -22.211  1.00  0.00    -0.045 A 
HETATM   52  C34 UNL     1       0.270  52.302 -21.069  1.00  0.00     0.087 A 
HETATM   53  C35 UNL     1       1.075  53.480 -21.387  1.00  0.00     0.283 A 
HETATM   54  O4  UNL     1       1.620  54.195 -20.572  1.00  0.00    -0.260 OA
HETATM   55  O5  UNL     1       1.076  53.652 -22.734  1.00  0.00    -0.314 OA
HETATM   56  C36 UNL     1       0.285  52.633 -23.349  1.00  0.00     0.213 A 
ENDBRANCH  44  51
BRANCH  45  57
HETATM   57  O6  UNL     1      -3.485  51.538 -20.077  1.00  0.00    -0.389 OA
HETATM   58  H51 UNL     1      -3.714  51.271 -19.171  1.00  0.00     0.210 HD
ENDBRANCH  45  57
ENDBRANCH  30  32
ENDBRANCH   1  30
TORSDOF 10
ENDMDL
MODEL 6
REMARK minimizedAffinity -11.5825615
REMARK CNNscore 0.281681478
REMARK CNNaffinity 7.71041059
REMARK  10 active torsions:
REMARK  status: ('A' for Active; 'I' for Inactive)
REMARK    1  A    between atoms: C2_2  and  C3_3 
REMARK    2  A    between atoms: C4_4  and  C18_19 
REMARK    3  A    between atoms: C19_20  and  O1_21 
REMARK    4  A    between atoms: N2_22  and  C20_23 
REMARK    5  A    between atoms: C20_23  and  C21_24 
REMARK    6  A    between atoms: C21_24  and  O3_26 
REMARK    7  A    between atoms: O3_26  and  C22_27 
REMARK    8  A    between atoms: C32_37  and  C33_38 
REMARK    9  A    between atoms: C39_46  and  O6_47 
REMARK   10  A    between atoms: C45_53  and  O7_54 
ROOT
HETATM    1  C21 UNL     1      -4.117  48.586 -26.793  1.00  0.00     0.222 C 
HETATM    2  O2  UNL     1      -3.324  48.736 -27.711  1.00  0.00    -0.287 OA
ENDROOT
BRANCH   1   3
HETATM    3  C20 UNL     1      -3.700  48.402 -25.331  1.00  0.00     0.328 C 
BRANCH   3   4
HETATM    4  N2  UNL     1      -3.927  49.660 -24.390  1.00  0.00    -0.023 N 
HETATM    5  C6  UNL     1      -4.023  50.939 -25.303  1.00  0.00     0.214 C 
HETATM    6  C5  UNL     1      -4.755  52.021 -24.480  1.00  0.00     0.041 C 
HETATM    7  C7  UNL     1      -2.621  51.484 -25.726  1.00  0.00     0.109 C 
HETATM    8  C4  UNL     1      -4.526  51.753 -22.983  1.00  0.00     0.004 C 
HETATM    9  C3  UNL     1      -5.496  50.604 -22.633  1.00  0.00     0.047 C 
HETATM   10  C45 UNL     1      -5.248  49.435 -23.636  1.00  0.00     0.329 C 
HETATM   11  N1  UNL     1      -1.995  50.821 -26.905  1.00  0.00    -0.279 NA
HETATM   12  C15 UNL     1      -1.555  51.374 -24.599  1.00  0.00     0.035 C 
HETATM   13  C8  UNL     1      -2.558  51.111 -28.226  1.00  0.00     0.117 C 
HETATM   14  C9  UNL     1      -0.635  51.252 -26.749  1.00  0.00     0.018 A 
HETATM   15  C10 UNL     1       0.362  51.296 -27.716  1.00  0.00     0.024 A 
HETATM   16  C14 UNL     1      -0.334  51.610 -25.419  1.00  0.00    -0.024 A 
HETATM   17  C11 UNL     1       1.644  51.717 -27.342  1.00  0.00     0.002 A 
HETATM   18  C12 UNL     1       1.924  52.083 -26.017  1.00  0.00     0.001 A 
HETATM   19  C13 UNL     1       0.932  52.026 -25.038  1.00  0.00     0.010 A 
HETATM   20  C16 UNL     1      -1.481  49.971 -23.993  1.00  0.00     0.053 C 
HETATM   21  C19 UNL     1      -1.935  52.188 -23.359  1.00  0.00     0.139 C 
HETATM   22  C17 UNL     1      -2.828  49.888 -23.329  1.00  0.00     0.202 C 
HETATM   23  C18 UNL     1      -3.062  51.311 -22.726  1.00  0.00     0.051 C 
BRANCH   9  24
HETATM   24  C2  UNL     1      -5.421  50.116 -21.174  1.00  0.00     0.005 C 
HETATM   25  C1  UNL     1      -6.786  49.929 -20.525  1.00  0.00     0.005 C 
ENDBRANCH   9  24
BRANCH  10  26
HETATM   26  O7  UNL     1      -6.314  49.285 -24.548  1.00  0.00    -0.369 OA
HETATM   27  H61 UNL     1      -7.129  49.693 -24.178  1.00  0.00     0.212 HD
ENDBRANCH  10  26
BRANCH  21  28
HETATM   28  O1  UNL     1      -2.383  53.494 -23.643  1.00  0.00    -0.394 OA
HETATM   29  H24 UNL     1      -1.665  54.126 -23.419  1.00  0.00     0.210 HD
ENDBRANCH  21  28
ENDBRANCH   3   4
ENDBRANCH   1   3
BRANCH   1  30
HETATM   30  O3  UNL     1      -5.473  48.550 -26.909  1.00  0.00     0.000 OA
HETATM   31 BR1  UNL     1      -5.379  47.996 -28.563  1.00  0.00    -0.148 Br
BRANCH  30  32
HETATM   32  C22 UNL     1      -6.034  47.341 -27.483  1.00  0.00    -0.009 C 
HETATM   33  C23 UNL     1      -7.305  47.023 -26.714  1.00  0.00     0.006 C 
HETATM   34  C24 UNL     1      -8.215  46.119 -27.537  1.00  0.00     0.010 C 
HETATM   35  C25 UNL     1      -8.773  46.841 -28.798  1.00  0.00    -0.036 C 
HETATM   36  C26 UNL     1      -9.956  47.732 -28.309  1.00  0.00     0.016 C 
HETATM   37  C27 UNL     1      -9.325  45.788 -29.838  1.00  0.00     0.001 C 
HETATM   38  C43 UNL     1      -7.702  47.788 -29.442  1.00  0.00    -0.005 C 
HETATM   39  C28 UNL     1      -8.269  44.750 -30.301  1.00  0.00     0.007 C 
HETATM   40  C40 UNL     1     -10.006  46.484 -31.035  1.00  0.00     0.025 C 
HETATM   41  C29 UNL     1      -8.355  44.375 -31.786  1.00  0.00     0.013 C 
HETATM   42  C30 UNL     1      -9.801  44.146 -32.288  1.00  0.00    -0.005 C 
HETATM   43  C31 UNL     1     -10.313  42.856 -31.596  1.00  0.00     0.019 C 
HETATM   44  C32 UNL     1      -9.759  44.001 -33.856  1.00  0.00     0.028 C 
HETATM   45  C39 UNL     1     -10.663  45.436 -32.009  1.00  0.00     0.070 C 
HETATM   46  C37 UNL     1     -10.043  45.420 -34.371  1.00  0.00     0.013 C 
HETATM   47  C38 UNL     1     -11.048  46.003 -33.388  1.00  0.00     0.040 C 
HETATM   48  C41 UNL     1      -9.108  47.597 -31.640  1.00  0.00     0.008 C 
HETATM   49  C42 UNL     1      -7.736  47.796 -30.987  1.00  0.00     0.006 C 
HETATM   50  C44 UNL     1      -6.241  47.519 -28.993  1.00  0.00     0.156 C 
BRANCH  44  51
HETATM   51  C33 UNL     1     -10.647  42.968 -34.502  1.00  0.00    -0.045 A 
HETATM   52  C34 UNL     1     -11.959  43.092 -34.688  1.00  0.00     0.087 A 
HETATM   53  C35 UNL     1     -12.440  41.863 -35.316  1.00  0.00     0.283 A 
HETATM   54  O4  UNL     1     -13.599  41.627 -35.593  1.00  0.00    -0.260 OA
HETATM   55  O5  UNL     1     -11.386  41.028 -35.501  1.00  0.00    -0.314 OA
HETATM   56  C36 UNL     1     -10.195  41.644 -35.006  1.00  0.00     0.213 A 
ENDBRANCH  44  51
BRANCH  45  57
HETATM   57  O6  UNL     1     -11.894  45.016 -31.389  1.00  0.00    -0.389 OA
HETATM   58  H51 UNL     1     -12.446  45.802 -31.241  1.00  0.00     0.210 HD
ENDBRANCH  45  57
ENDBRANCH  30  32
ENDBRANCH   1  30
TORSDOF 10
ENDMDL
MODEL 7
REMARK minimizedAffinity -10.7362633
REMARK CNNscore 0.242409706
REMARK CNNaffinity 7.63897657
REMARK  10 active torsions:
REMARK  status: ('A' for Active; 'I' for Inactive)
REMARK    1  A    between atoms: C2_2  and  C3_3 
REMARK    2  A    between atoms: C4_4  and  C18_19 
REMARK    3  A    between atoms: C19_20  and  O1_21 
REMARK    4  A    between atoms: N2_22  and  C20_23 
REMARK    5  A    between atoms: C20_23  and  C21_24 
REMARK    6  A    between atoms: C21_24  and  O3_26 
REMARK    7  A    between atoms: O3_26  and  C22_27 
REMARK    8  A    between atoms: C32_37  and  C33_38 
REMARK    9  A    between atoms: C39_46  and  O6_47 
REMARK   10  A    between atoms: C45_53  and  O7_54 
ROOT
HETATM    1  C21 UNL     1       1.574  50.262 -13.979  1.00  0.00     0.222 C 
HETATM    2  O2  UNL     1       2.275  49.260 -13.954  1.00  0.00    -0.287 OA
ENDROOT
BRANCH   1   3
HETATM    3  C20 UNL     1       1.954  51.581 -13.303  1.00  0.00     0.328 C 
BRANCH   3   4
HETATM    4  N2  UNL     1       2.230  51.498 -11.743  1.00  0.00    -0.023 N 
HETATM    5  C6  UNL     1       1.235  50.444 -11.128  1.00  0.00     0.214 C 
HETATM    6  C5  UNL     1       1.844  49.983  -9.786  1.00  0.00     0.041 C 
HETATM    7  C7  UNL     1      -0.186  51.040 -10.864  1.00  0.00     0.109 C 
HETATM    8  C4  UNL     1       2.739  51.104  -9.231  1.00  0.00     0.004 C 
HETATM    9  C3  UNL     1       4.049  51.003 -10.043  1.00  0.00     0.047 C 
HETATM   10  C45 UNL     1       3.686  51.035 -11.559  1.00  0.00     0.329 C 
HETATM   11  N1  UNL     1      -1.106  51.068 -12.035  1.00  0.00    -0.279 NA
HETATM   12  C15 UNL     1      -0.149  52.509 -10.356  1.00  0.00     0.035 C 
HETATM   13  C8  UNL     1      -1.673  49.793 -12.485  1.00  0.00     0.117 C 
HETATM   14  C9  UNL     1      -2.088  52.004 -11.567  1.00  0.00     0.018 A 
HETATM   15  C10 UNL     1      -3.392  52.171 -12.020  1.00  0.00     0.024 A 
HETATM   16  C14 UNL     1      -1.583  52.856 -10.564  1.00  0.00    -0.024 A 
HETATM   17  C11 UNL     1      -4.178  53.178 -11.447  1.00  0.00     0.002 A 
HETATM   18  C12 UNL     1      -3.665  54.009 -10.440  1.00  0.00     0.001 A 
HETATM   19  C13 UNL     1      -2.353  53.857  -9.993  1.00  0.00     0.010 A 
HETATM   20  C16 UNL     1       0.713  53.415 -11.235  1.00  0.00     0.053 C 
HETATM   21  C19 UNL     1       0.588  52.642  -9.020  1.00  0.00     0.139 C 
HETATM   22  C17 UNL     1       2.075  52.831 -10.980  1.00  0.00     0.202 C 
HETATM   23  C18 UNL     1       2.080  52.490  -9.454  1.00  0.00     0.051 C 
BRANCH   9  24
HETATM   24  C2  UNL     1       5.107  52.067  -9.698  1.00  0.00     0.005 C 
HETATM   25  C1  UNL     1       4.560  53.489  -9.692  1.00  0.00     0.005 C 
ENDBRANCH   9  24
BRANCH  10  26
HETATM   26  O7  UNL     1       3.883  49.782 -12.178  1.00  0.00    -0.369 OA
HETATM   27  H61 UNL     1       4.515  49.246 -11.649  1.00  0.00     0.212 HD
ENDBRANCH  10  26
BRANCH  21  28
HETATM   28  O1  UNL     1       0.218  51.679  -8.059  1.00  0.00    -0.394 OA
HETATM   29  H24 UNL     1      -0.363  52.108  -7.393  1.00  0.00     0.210 HD
ENDBRANCH  21  28
ENDBRANCH   3   4
ENDBRANCH   1   3
BRANCH   1  30
HETATM   30  O3  UNL     1       0.362  50.371 -14.591  1.00  0.00     0.000 OA
HETATM   31 BR1  UNL     1       1.098  50.826 -16.108  1.00  0.00    -0.148 Br
BRANCH  30  32
HETATM   32  C22 UNL     1       0.235  49.718 -15.880  1.00  0.00    -0.009 C 
HETATM   33  C23 UNL     1      -0.833  48.647 -15.741  1.00  0.00     0.006 C 
HETATM   34  C24 UNL     1      -1.399  48.277 -17.107  1.00  0.00     0.010 C 
HETATM   35  C25 UNL     1      -2.197  49.448 -17.748  1.00  0.00    -0.036 C 
HETATM   36  C26 UNL     1      -3.603  49.447 -17.070  1.00  0.00     0.016 C 
HETATM   37  C27 UNL     1      -2.380  49.207 -19.299  1.00  0.00     0.001 C 
HETATM   38  C43 UNL     1      -1.529  50.834 -17.449  1.00  0.00    -0.005 C 
HETATM   39  C28 UNL     1      -1.044  49.052 -20.072  1.00  0.00     0.007 C 
HETATM   40  C40 UNL     1      -3.285  50.286 -19.932  1.00  0.00     0.025 C 
HETATM   41  C29 UNL     1      -1.030  49.711 -21.457  1.00  0.00     0.013 C 
HETATM   42  C30 UNL     1      -2.321  49.470 -22.274  1.00  0.00    -0.005 C 
HETATM   43  C31 UNL     1      -2.347  47.961 -22.632  1.00  0.00     0.019 C 
HETATM   44  C32 UNL     1      -2.268  50.382 -23.557  1.00  0.00     0.028 C 
HETATM   45  C39 UNL     1      -3.566  49.978 -21.450  1.00  0.00     0.070 C 
HETATM   46  C37 UNL     1      -3.031  51.651 -23.146  1.00  0.00     0.013 C 
HETATM   47  C38 UNL     1      -4.152  51.162 -22.242  1.00  0.00     0.040 C 
HETATM   48  C41 UNL     1      -2.834  51.718 -19.538  1.00  0.00     0.008 C 
HETATM   49  C42 UNL     1      -1.598  51.821 -18.636  1.00  0.00     0.006 C 
HETATM   50  C44 UNL     1      -0.054  50.756 -16.972  1.00  0.00     0.156 C 
BRANCH  44  51
HETATM   51  C33 UNL     1      -2.765  49.812 -24.862  1.00  0.00    -0.045 A 
HETATM   52  C34 UNL     1      -2.571  50.355 -26.060  1.00  0.00     0.087 A 
HETATM   53  C35 UNL     1      -3.235  49.509 -27.049  1.00  0.00     0.283 A 
HETATM   54  O4  UNL     1      -3.286  49.734 -28.242  1.00  0.00    -0.260 OA
HETATM   55  O5  UNL     1      -3.810  48.460 -26.406  1.00  0.00    -0.314 OA
HETATM   56  C36 UNL     1      -3.569  48.568 -25.002  1.00  0.00     0.213 A 
ENDBRANCH  44  51
BRANCH  45  57
HETATM   57  O6  UNL     1      -4.566  48.940 -21.479  1.00  0.00    -0.389 OA
HETATM   58  H51 UNL     1      -5.349  49.256 -20.999  1.00  0.00     0.210 HD
ENDBRANCH  45  57
ENDBRANCH  30  32
ENDBRANCH   1  30
TORSDOF 10
ENDMDL
MODEL 8
REMARK minimizedAffinity -10.8672371
REMARK CNNscore 0.229157075
REMARK CNNaffinity 7.60117769
REMARK  10 active torsions:
REMARK  status: ('A' for Active; 'I' for Inactive)
REMARK    1  A    between atoms: C2_2  and  C3_3 
REMARK    2  A    between atoms: C4_4  and  C18_19 
REMARK    3  A    between atoms: C19_20  and  O1_21 
REMARK    4  A    between atoms: N2_22  and  C20_23 
REMARK    5  A    between atoms: C20_23  and  C21_24 
REMARK    6  A    between atoms: C21_24  and  O3_26 
REMARK    7  A    between atoms: O3_26  and  C22_27 
REMARK    8  A    between atoms: C32_37  and  C33_38 
REMARK    9  A    between atoms: C39_46  and  O6_47 
REMARK   10  A    between atoms: C45_53  and  O7_54 
ROOT
HETATM    1  C21 UNL     1      -1.321  49.798 -16.001  1.00  0.00     0.222 C 
HETATM    2  O2  UNL     1      -1.481  50.901 -16.505  1.00  0.00    -0.287 OA
ENDROOT
BRANCH   1   3
HETATM    3  C20 UNL     1      -1.539  49.505 -14.515  1.00  0.00     0.328 C 
BRANCH   3   4
HETATM    4  N2  UNL     1      -0.255  49.648 -13.592  1.00  0.00    -0.023 N 
HETATM    5  C6  UNL     1      -0.671  49.273 -12.120  1.00  0.00     0.214 C 
HETATM    6  C5  UNL     1       0.626  48.897 -11.372  1.00  0.00     0.041 C 
HETATM    7  C7  UNL     1      -1.365  50.456 -11.371  1.00  0.00     0.109 C 
HETATM    8  C4  UNL     1       1.813  49.623 -12.029  1.00  0.00     0.004 C 
HETATM    9  C3  UNL     1       2.121  48.806 -13.302  1.00  0.00     0.047 C 
HETATM   10  C45 UNL     1       0.801  48.663 -14.121  1.00  0.00     0.329 C 
HETATM   11  N1  UNL     1      -2.824  50.619 -11.627  1.00  0.00    -0.279 NA
HETATM   12  C15 UNL     1      -0.748  51.842 -11.708  1.00  0.00     0.035 C 
HETATM   13  C8  UNL     1      -3.734  49.642 -11.025  1.00  0.00     0.117 C 
HETATM   14  C9  UNL     1      -3.019  51.959 -11.152  1.00  0.00     0.018 A 
HETATM   15  C10 UNL     1      -4.209  52.562 -10.762  1.00  0.00     0.024 A 
HETATM   16  C14 UNL     1      -1.826  52.711 -11.158  1.00  0.00    -0.024 A 
HETATM   17  C11 UNL     1      -4.185  53.904 -10.363  1.00  0.00     0.002 A 
HETATM   18  C12 UNL     1      -2.986  54.634 -10.361  1.00  0.00     0.001 A 
HETATM   19  C13 UNL     1      -1.791  54.040 -10.767  1.00  0.00     0.010 A 
HETATM   20  C16 UNL     1      -0.635  52.087 -13.214  1.00  0.00     0.053 C 
HETATM   21  C19 UNL     1       0.727  51.934 -11.305  1.00  0.00     0.139 C 
HETATM   22  C17 UNL     1       0.390  51.051 -13.585  1.00  0.00     0.202 C 
HETATM   23  C18 UNL     1       1.421  51.074 -12.409  1.00  0.00     0.051 C 
BRANCH   9  24
HETATM   24  C2  UNL     1       3.262  49.368 -14.170  1.00  0.00     0.005 C 
HETATM   25  C1  UNL     1       4.482  49.798 -13.367  1.00  0.00     0.005 C 
ENDBRANCH   9  24
BRANCH  10  26
HETATM   26  O7  UNL     1       0.300  47.345 -14.093  1.00  0.00    -0.369 OA
HETATM   27  H61 UNL     1       1.025  46.718 -13.870  1.00  0.00     0.212 HD
ENDBRANCH  10  26
BRANCH  21  28
HETATM   28  O1  UNL     1       1.002  51.448 -10.010  1.00  0.00    -0.394 OA
HETATM   29  H24 UNL     1       1.142  52.214  -9.412  1.00  0.00     0.210 HD
ENDBRANCH  21  28
ENDBRANCH   3   4
ENDBRANCH   1   3
BRANCH   1  30
HETATM   30  O3  UNL     1      -0.924  48.673 -16.656  1.00  0.00     0.000 OA
HETATM   31 BR1  UNL     1      -2.560  48.068 -16.739  1.00  0.00    -0.148 Br
BRANCH  30  32
HETATM   32  C22 UNL     1      -1.688  48.316 -17.836  1.00  0.00    -0.009 C 
HETATM   33  C23 UNL     1      -3.032  49.017 -17.734  1.00  0.00     0.006 C 
HETATM   34  C24 UNL     1      -3.678  49.135 -19.109  1.00  0.00     0.010 C 
HETATM   35  C25 UNL     1      -2.886  50.089 -20.050  1.00  0.00    -0.036 C 
HETATM   36  C26 UNL     1      -3.286  51.541 -19.642  1.00  0.00     0.016 C 
HETATM   37  C27 UNL     1      -3.301  49.850 -21.555  1.00  0.00     0.001 C 
HETATM   38  C43 UNL     1      -1.338  49.949 -19.844  1.00  0.00    -0.005 C 
HETATM   39  C28 UNL     1      -3.080  48.395 -22.044  1.00  0.00     0.007 C 
HETATM   40  C40 UNL     1      -2.630  50.877 -22.492  1.00  0.00     0.025 C 
HETATM   41  C29 UNL     1      -2.570  48.279 -23.486  1.00  0.00     0.013 C 
HETATM   42  C30 UNL     1      -3.283  49.229 -24.478  1.00  0.00    -0.005 C 
HETATM   43  C31 UNL     1      -4.743  48.723 -24.607  1.00  0.00     0.019 C 
HETATM   44  C32 UNL     1      -2.513  49.175 -25.850  1.00  0.00     0.028 C 
HETATM   45  C39 UNL     1      -3.138  50.717 -23.974  1.00  0.00     0.070 C 
HETATM   46  C37 UNL     1      -1.530  50.353 -25.775  1.00  0.00     0.013 C 
HETATM   47  C38 UNL     1      -2.278  51.444 -25.024  1.00  0.00     0.040 C 
HETATM   48  C41 UNL     1      -1.102  50.974 -22.240  1.00  0.00     0.008 C 
HETATM   49  C42 UNL     1      -0.530  50.051 -21.157  1.00  0.00     0.006 C 
HETATM   50  C44 UNL     1      -0.894  48.659 -19.104  1.00  0.00     0.156 C 
BRANCH  44  51
HETATM   51  C33 UNL     1      -3.320  49.182 -27.124  1.00  0.00    -0.045 A 
HETATM   52  C34 UNL     1      -4.156  48.222 -27.508  1.00  0.00     0.087 A 
HETATM   53  C35 UNL     1      -4.709  48.601 -28.807  1.00  0.00     0.283 A 
HETATM   54  O4  UNL     1      -5.481  47.930 -29.461  1.00  0.00    -0.260 OA
HETATM   55  O5  UNL     1      -4.188  49.803 -29.165  1.00  0.00    -0.314 OA
HETATM   56  C36 UNL     1      -3.283  50.254 -28.156  1.00  0.00     0.213 A 
ENDBRANCH  44  51
BRANCH  45  57
HETATM   57  O6  UNL     1      -4.443  51.327 -24.029  1.00  0.00    -0.389 OA
HETATM   58  H51 UNL     1      -4.358  52.254 -23.749  1.00  0.00     0.210 HD
ENDBRANCH  45  57
ENDBRANCH  30  32
ENDBRANCH   1  30
TORSDOF 10
ENDMDL
MODEL 9
REMARK minimizedAffinity -10.6110144
REMARK CNNscore 0.174703658
REMARK CNNaffinity 7.5773387
REMARK  10 active torsions:
REMARK  status: ('A' for Active; 'I' for Inactive)
REMARK    1  A    between atoms: C2_2  and  C3_3 
REMARK    2  A    between atoms: C4_4  and  C18_19 
REMARK    3  A    between atoms: C19_20  and  O1_21 
REMARK    4  A    between atoms: N2_22  and  C20_23 
REMARK    5  A    between atoms: C20_23  and  C21_24 
REMARK    6  A    between atoms: C21_24  and  O3_26 
REMARK    7  A    between atoms: O3_26  and  C22_27 
REMARK    8  A    between atoms: C32_37  and  C33_38 
REMARK    9  A    between atoms: C39_46  and  O6_47 
REMARK   10  A    between atoms: C45_53  and  O7_54 
ROOT
HETATM    1  C21 UNL     1       0.203  50.763 -16.609  1.00  0.00     0.222 C 
HETATM    2  O2  UNL     1       0.939  51.733 -16.722  1.00  0.00    -0.287 OA
ENDROOT
BRANCH   1   3
HETATM    3  C20 UNL     1      -0.413  50.314 -15.282  1.00  0.00     0.328 C 
BRANCH   3   4
HETATM    4  N2  UNL     1       0.600  50.171 -14.069  1.00  0.00    -0.023 N 
HETATM    5  C6  UNL     1      -0.155  49.455 -12.887  1.00  0.00     0.214 C 
HETATM    6  C5  UNL     1       0.928  48.853 -11.965  1.00  0.00     0.041 C 
HETATM    7  C7  UNL     1      -1.042  50.436 -12.056  1.00  0.00     0.109 C 
HETATM    8  C4  UNL     1       2.221  49.676 -12.107  1.00  0.00     0.004 C 
HETATM    9  C3  UNL     1       2.853  49.194 -13.430  1.00  0.00     0.047 C 
HETATM   10  C45 UNL     1       1.779  49.312 -14.555  1.00  0.00     0.329 C 
HETATM   11  N1  UNL     1      -2.397  50.714 -12.611  1.00  0.00    -0.279 NA
HETATM   12  C15 UNL     1      -0.397  51.838 -11.870  1.00  0.00     0.035 C 
HETATM   13  C8  UNL     1      -3.401  49.651 -12.516  1.00  0.00     0.117 C 
HETATM   14  C9  UNL     1      -2.737  51.898 -11.874  1.00  0.00     0.018 A 
HETATM   15  C10 UNL     1      -4.002  52.427 -11.647  1.00  0.00     0.024 A 
HETATM   16  C14 UNL     1      -1.599  52.580 -11.398  1.00  0.00    -0.024 A 
HETATM   17  C11 UNL     1      -4.111  53.624 -10.928  1.00  0.00     0.002 A 
HETATM   18  C12 UNL     1      -2.969  54.284 -10.449  1.00  0.00     0.001 A 
HETATM   19  C13 UNL     1      -1.697  53.766 -10.687  1.00  0.00     0.010 A 
HETATM   20  C16 UNL     1       0.076  52.449 -13.190  1.00  0.00     0.053 C 
HETATM   21  C19 UNL     1       0.931  51.770 -11.110  1.00  0.00     0.139 C 
HETATM   22  C17 UNL     1       1.187  51.502 -13.549  1.00  0.00     0.202 C 
HETATM   23  C18 UNL     1       1.897  51.190 -12.191  1.00  0.00     0.051 C 
BRANCH   9  24
HETATM   24  C2  UNL     1       4.157  49.913 -13.823  1.00  0.00     0.005 C 
HETATM   25  C1  UNL     1       3.936  51.130 -14.712  1.00  0.00     0.005 C 
ENDBRANCH   9  24
BRANCH  10  26
HETATM   26  O7  UNL     1       1.321  48.049 -14.985  1.00  0.00    -0.369 OA
HETATM   27  H61 UNL     1       1.985  47.360 -14.758  1.00  0.00     0.212 HD
ENDBRANCH  10  26
BRANCH  21  28
HETATM   28  O1  UNL     1       0.892  50.963  -9.954  1.00  0.00    -0.394 OA
HETATM   29  H24 UNL     1       0.861  51.548  -9.165  1.00  0.00     0.210 HD
ENDBRANCH  21  28
ENDBRANCH   3   4
ENDBRANCH   1   3
BRANCH   1  30
HETATM   30  O3  UNL     1      -0.180  49.933 -17.618  1.00  0.00     0.000 OA
HETATM   31 BR1  UNL     1      -1.599  49.417 -16.740  1.00  0.00    -0.148 Br
BRANCH  30  32
HETATM   32  C22 UNL     1      -1.569  50.022 -18.028  1.00  0.00    -0.009 C 
HETATM   33  C23 UNL     1      -1.800  51.433 -18.541  1.00  0.00     0.006 C 
HETATM   34  C24 UNL     1      -3.023  51.478 -19.449  1.00  0.00     0.010 C 
HETATM   35  C25 UNL     1      -2.802  50.686 -20.770  1.00  0.00    -0.036 C 
HETATM   36  C26 UNL     1      -1.967  51.613 -21.706  1.00  0.00     0.016 C 
HETATM   37  C27 UNL     1      -4.186  50.374 -21.465  1.00  0.00     0.001 C 
HETATM   38  C43 UNL     1      -1.966  49.381 -20.528  1.00  0.00    -0.005 C 
HETATM   39  C28 UNL     1      -5.168  49.568 -20.576  1.00  0.00     0.007 C 
HETATM   40  C40 UNL     1      -3.985  49.709 -22.844  1.00  0.00     0.025 C 
HETATM   41  C29 UNL     1      -5.988  48.512 -21.329  1.00  0.00     0.013 C 
HETATM   42  C30 UNL     1      -6.547  49.008 -22.683  1.00  0.00    -0.005 C 
HETATM   43  C31 UNL     1      -7.619  50.081 -22.357  1.00  0.00     0.019 C 
HETATM   44  C32 UNL     1      -7.159  47.772 -23.444  1.00  0.00     0.028 C 
HETATM   45  C39 UNL     1      -5.358  49.511 -23.589  1.00  0.00     0.070 C 
HETATM   46  C37 UNL     1      -6.016  47.286 -24.348  1.00  0.00     0.013 C 
HETATM   47  C38 UNL     1      -5.297  48.551 -24.791  1.00  0.00     0.040 C 
HETATM   48  C41 UNL     1      -3.005  48.509 -22.766  1.00  0.00     0.008 C 
HETATM   49  C42 UNL     1      -2.436  48.181 -21.380  1.00  0.00     0.006 C 
HETATM   50  C44 UNL     1      -1.891  48.922 -19.048  1.00  0.00     0.156 C 
BRANCH  44  51
HETATM   51  C33 UNL     1      -8.447  47.966 -24.204  1.00  0.00    -0.045 A 
HETATM   52  C34 UNL     1      -9.527  47.196 -24.093  1.00  0.00     0.087 A 
HETATM   53  C35 UNL     1     -10.537  47.705 -25.018  1.00  0.00     0.283 A 
HETATM   54  O4  UNL     1     -11.633  47.213 -25.196  1.00  0.00    -0.260 OA
HETATM   55  O5  UNL     1     -10.031  48.789 -25.659  1.00  0.00    -0.314 OA
HETATM   56  C36 UNL     1      -8.696  49.032 -25.211  1.00  0.00     0.213 A 
ENDBRANCH  44  51
BRANCH  45  57
HETATM   57  O6  UNL     1      -5.726  50.799 -24.121  1.00  0.00    -0.389 OA
HETATM   58  H51 UNL     1      -5.011  51.104 -24.705  1.00  0.00     0.210 HD
ENDBRANCH  45  57
ENDBRANCH  30  32
ENDBRANCH   1  30
TORSDOF 10
ENDMDL
