MODEL 1
REMARK minimizedAffinity -7.39936733
REMARK CNNscore 0.600104988
REMARK CNNaffinity 6.82119989
REMARK  7 active torsions:
REMARK  status: ('A' for Active; 'I' for Inactive)
REMARK    1  A    between atoms: C7_7  and  O1_8 
REMARK    2  A    between atoms: C19_21  and  O3_22 
REMARK    3  A    between atoms: C20_23  and  C22_25 
REMARK    4  A    between atoms: C22_25  and  O4_26 
REMARK    5  A    between atoms: C22_25  and  C23_27 
REMARK    6  A    between atoms: C23_27  and  O5_28 
REMARK    7  A    between atoms: C32_37  and  O6_38 
ROOT
HETATM    1  C1  UNL     1       3.686  56.776 -10.693  1.00  0.00     0.015 C 
HETATM    2  C2  UNL     1       4.029  55.584  -9.764  1.00  0.00    -0.043 C 
HETATM    3  C3  UNL     1       5.540  55.219 -10.047  1.00  0.00     0.010 C 
HETATM    4  C4  UNL     1       6.168  53.961  -9.382  1.00  0.00     0.012 C 
HETATM    5  C5  UNL     1       5.296  53.363  -8.371  1.00  0.00     0.082 C 
HETATM    6  C6  UNL     1       4.312  53.169  -7.708  1.00  0.00    -0.151 C 
HETATM    7  C7  UNL     1       2.996  53.272  -7.060  1.00  0.00     0.196 C 
HETATM    8  C8  UNL     1       2.035  54.364  -7.730  1.00  0.00     0.037 C 
HETATM    9  C9  UNL     1       2.554  55.845  -7.575  1.00  0.00     0.031 C 
HETATM   10  C10 UNL     1       3.891  56.096  -8.306  1.00  0.00     0.019 C 
HETATM   11  C11 UNL     1       2.532  56.422  -6.127  1.00  0.00    -0.062 C 
HETATM   12  C12 UNL     1       3.569  57.116  -5.612  1.00  0.00     0.054 C 
HETATM   13  C13 UNL     1       3.529  57.821  -4.302  1.00  0.00     0.155 C 
HETATM   14  O2  UNL     1       4.569  58.321  -3.880  1.00  0.00    -0.293 OA
HETATM   15  C14 UNL     1       2.172  57.929  -3.596  1.00  0.00     0.077 C 
HETATM   16  C15 UNL     1       2.194  58.611  -2.160  1.00  0.00    -0.028 C 
HETATM   17  C16 UNL     1       3.312  57.996  -1.253  1.00  0.00     0.016 C 
HETATM   18  C17 UNL     1       2.543  60.129  -2.371  1.00  0.00     0.013 C 
HETATM   19  C18 UNL     1       1.327  60.997  -2.651  1.00  0.00     0.033 C 
HETATM   20  C19 UNL     1       0.359  61.039  -1.470  1.00  0.00     0.129 C 
HETATM   21  C20 UNL     1       0.321  59.753  -0.587  1.00  0.00     0.014 C 
HETATM   22  C21 UNL     1       1.283  59.861   0.637  1.00  0.00     0.021 C 
HETATM   23  C24 UNL     1       0.774  58.466  -1.437  1.00  0.00     0.008 C 
HETATM   24  C25 UNL     1      -0.295  57.936  -2.415  1.00  0.00     0.007 C 
HETATM   25  C26 UNL     1       0.095  56.572  -2.974  1.00  0.00     0.011 C 
HETATM   26  C27 UNL     1       1.442  56.552  -3.738  1.00  0.00    -0.021 C 
HETATM   27  C28 UNL     1       2.296  55.437  -3.064  1.00  0.00     0.017 C 
HETATM   28  C29 UNL     1       1.223  56.250  -5.326  1.00  0.00    -0.010 C 
HETATM   29  C30 UNL     1       0.203  57.257  -5.948  1.00  0.00     0.021 C 
HETATM   30  C31 UNL     1       0.655  54.822  -5.523  1.00  0.00     0.047 C 
HETATM   31  C32 UNL     1       0.652  54.313  -6.966  1.00  0.00     0.132 C 
HETATM   32  C33 UNL     1       1.832  54.082  -9.321  1.00  0.00    -0.026 C 
HETATM   33  C34 UNL     1       1.404  52.625  -9.661  1.00  0.00     0.010 C 
HETATM   34  C35 UNL     1       0.849  52.673 -11.086  1.00  0.00     0.001 C 
HETATM   35  C36 UNL     1       0.299  54.083 -11.271  1.00  0.00     0.001 C 
HETATM   36  C37 UNL     1       0.641  54.843  -9.984  1.00  0.00     0.010 C 
HETATM   37  C38 UNL     1       3.121  54.390 -10.167  1.00  0.00     0.019 C 
ENDROOT
BRANCH  21  38
HETATM   38  C22 UNL     1      -1.130  59.570   0.023  1.00  0.00     0.152 C 
BRANCH  38  39
HETATM   39  O4  UNL     1      -1.266  58.293   0.673  1.00  0.00    -0.393 OA
HETATM   40  H28 UNL     1      -1.764  57.727   0.044  1.00  0.00     0.210 HD
ENDBRANCH  38  39
BRANCH  38  41
HETATM   41  C23 UNL     1      -2.324  59.651  -0.949  1.00  0.00     0.196 C 
BRANCH  41  42
HETATM   42  O5  UNL     1      -3.064  60.843  -0.678  1.00  0.00    -0.398 OA
HETATM   43  H31 UNL     1      -3.882  60.573  -0.202  1.00  0.00     0.209 HD
ENDBRANCH  41  42
ENDBRANCH  38  41
ENDBRANCH  21  38
BRANCH  20  44
HETATM   44  O3  UNL     1       0.644  62.195  -0.665  1.00  0.00    -0.395 OA
HETATM   45  H23 UNL     1       1.612  62.303  -0.632  1.00  0.00     0.210 HD
ENDBRANCH  20  44
BRANCH  31  46
HETATM   46  O6  UNL     1       0.114  52.987  -6.950  1.00  0.00    -0.395 OA
HETATM   47  H46 UNL     1      -0.751  53.022  -6.505  1.00  0.00     0.210 HD
ENDBRANCH  31  46
BRANCH   7  48
HETATM   48  O1  UNL     1       3.239  53.542  -5.681  1.00  0.00    -0.383 OA
HETATM   49  H9  UNL     1       4.171  53.350  -5.497  1.00  0.00     0.211 HD
ENDBRANCH   7  48
TORSDOF 7
ENDMDL
MODEL 2
REMARK minimizedAffinity -7.44157743
REMARK CNNscore 0.496284395
REMARK CNNaffinity 6.50218725
REMARK  7 active torsions:
REMARK  status: ('A' for Active; 'I' for Inactive)
REMARK    1  A    between atoms: C7_7  and  O1_8 
REMARK    2  A    between atoms: C19_21  and  O3_22 
REMARK    3  A    between atoms: C20_23  and  C22_25 
REMARK    4  A    between atoms: C22_25  and  O4_26 
REMARK    5  A    between atoms: C22_25  and  C23_27 
REMARK    6  A    between atoms: C23_27  and  O5_28 
REMARK    7  A    between atoms: C32_37  and  O6_38 
ROOT
HETATM    1  C1  UNL     1       5.727  66.249 -11.556  1.00  0.00     0.015 C 
HETATM    2  C2  UNL     1       6.353  66.917 -12.806  1.00  0.00    -0.043 C 
HETATM    3  C3  UNL     1       5.615  68.302 -12.988  1.00  0.00     0.010 C 
HETATM    4  C4  UNL     1       5.902  69.172 -14.245  1.00  0.00     0.012 C 
HETATM    5  C5  UNL     1       7.025  68.666 -15.035  1.00  0.00     0.082 C 
HETATM    6  C6  UNL     1       7.903  67.929 -15.397  1.00  0.00    -0.151 C 
HETATM    7  C7  UNL     1       8.899  66.853 -15.497  1.00  0.00     0.196 C 
HETATM    8  C8  UNL     1       8.677  65.674 -14.436  1.00  0.00     0.037 C 
HETATM    9  C9  UNL     1       8.881  66.123 -12.937  1.00  0.00     0.031 C 
HETATM   10  C10 UNL     1       7.848  67.175 -12.477  1.00  0.00     0.019 C 
HETATM   11  C11 UNL     1      10.342  66.484 -12.533  1.00  0.00    -0.062 C 
HETATM   12  C12 UNL     1      10.638  67.580 -11.802  1.00  0.00     0.054 C 
HETATM   13  C13 UNL     1      11.990  67.877 -11.256  1.00  0.00     0.155 C 
HETATM   14  O2  UNL     1      12.170  68.961 -10.707  1.00  0.00    -0.293 OA
HETATM   15  C14 UNL     1      13.053  66.776 -11.361  1.00  0.00     0.077 C 
HETATM   16  C15 UNL     1      14.505  67.170 -10.846  1.00  0.00    -0.028 C 
HETATM   17  C16 UNL     1      14.973  68.537 -11.447  1.00  0.00     0.016 C 
HETATM   18  C17 UNL     1      14.413  67.348  -9.288  1.00  0.00     0.013 C 
HETATM   19  C18 UNL     1      14.603  66.053  -8.517  1.00  0.00     0.033 C 
HETATM   20  C19 UNL     1      16.001  65.466  -8.702  1.00  0.00     0.129 C 
HETATM   21  C20 UNL     1      16.677  65.763 -10.077  1.00  0.00     0.014 C 
HETATM   22  C21 UNL     1      17.587  67.028 -10.014  1.00  0.00     0.021 C 
HETATM   23  C24 UNL     1      15.568  66.030 -11.210  1.00  0.00     0.008 C 
HETATM   24  C25 UNL     1      14.863  64.759 -11.728  1.00  0.00     0.007 C 
HETATM   25  C26 UNL     1      14.038  65.054 -12.976  1.00  0.00     0.011 C 
HETATM   26  C27 UNL     1      12.935  66.123 -12.778  1.00  0.00    -0.021 C 
HETATM   27  C28 UNL     1      13.187  67.203 -13.873  1.00  0.00     0.017 C 
HETATM   28  C29 UNL     1      11.445  65.474 -12.920  1.00  0.00    -0.010 C 
HETATM   29  C30 UNL     1      11.274  64.259 -11.954  1.00  0.00     0.021 C 
HETATM   30  C31 UNL     1      11.222  64.963 -14.365  1.00  0.00     0.047 C 
HETATM   31  C32 UNL     1       9.781  64.576 -14.707  1.00  0.00     0.132 C 
HETATM   32  C33 UNL     1       7.183  65.038 -14.556  1.00  0.00    -0.026 C 
HETATM   33  C34 UNL     1       6.781  64.621 -16.000  1.00  0.00     0.010 C 
HETATM   34  C35 UNL     1       5.587  63.677 -15.847  1.00  0.00     0.001 C 
HETATM   35  C36 UNL     1       5.755  63.012 -14.486  1.00  0.00     0.001 C 
HETATM   36  C37 UNL     1       6.987  63.662 -13.845  1.00  0.00     0.010 C 
HETATM   37  C38 UNL     1       6.061  66.007 -14.030  1.00  0.00     0.019 C 
ENDROOT
BRANCH  21  38
HETATM   38  C22 UNL     1      17.636  64.563 -10.468  1.00  0.00     0.152 C 
BRANCH  38  39
HETATM   39  O4  UNL     1      17.569  64.280 -11.877  1.00  0.00    -0.393 OA
HETATM   40  H28 UNL     1      17.000  63.485 -11.961  1.00  0.00     0.210 HD
ENDBRANCH  38  39
BRANCH  38  41
HETATM   41  C23 UNL     1      17.393  63.207  -9.777  1.00  0.00     0.196 C 
BRANCH  41  42
HETATM   42  O5  UNL     1      17.419  62.172 -10.762  1.00  0.00    -0.398 OA
HETATM   43  H31 UNL     1      16.485  61.898 -10.916  1.00  0.00     0.209 HD
ENDBRANCH  41  42
ENDBRANCH  38  41
ENDBRANCH  21  38
BRANCH  20  44
HETATM   44  O3  UNL     1      16.844  65.899  -7.621  1.00  0.00    -0.395 OA
HETATM   45  H23 UNL     1      16.620  66.826  -7.424  1.00  0.00     0.210 HD
ENDBRANCH  20  44
BRANCH  31  46
HETATM   46  O6  UNL     1       9.767  64.147 -16.072  1.00  0.00    -0.395 OA
HETATM   47  H46 UNL     1      10.436  63.447 -16.172  1.00  0.00     0.210 HD
ENDBRANCH  31  46
BRANCH   7  48
HETATM   48  O1  UNL     1      10.180  67.466 -15.362  1.00  0.00    -0.383 OA
HETATM   49  H9  UNL     1      10.069  68.421 -15.481  1.00  0.00     0.211 HD
ENDBRANCH   7  48
TORSDOF 7
ENDMDL
MODEL 3
REMARK minimizedAffinity -8.60499001
REMARK CNNscore 0.474466056
REMARK CNNaffinity 6.62156487
REMARK  7 active torsions:
REMARK  status: ('A' for Active; 'I' for Inactive)
REMARK    1  A    between atoms: C7_7  and  O1_8 
REMARK    2  A    between atoms: C19_21  and  O3_22 
REMARK    3  A    between atoms: C20_23  and  C22_25 
REMARK    4  A    between atoms: C22_25  and  O4_26 
REMARK    5  A    between atoms: C22_25  and  C23_27 
REMARK    6  A    between atoms: C23_27  and  O5_28 
REMARK    7  A    between atoms: C32_37  and  O6_38 
ROOT
HETATM    1  C1  UNL     1     -11.586  42.937 -28.697  1.00  0.00     0.015 C 
HETATM    2  C2  UNL     1     -12.178  44.343 -28.422  1.00  0.00    -0.043 C 
HETATM    3  C3  UNL     1     -13.715  44.128 -28.122  1.00  0.00     0.010 C 
HETATM    4  C4  UNL     1     -14.647  45.361 -27.945  1.00  0.00     0.012 C 
HETATM    5  C5  UNL     1     -13.907  46.620 -27.875  1.00  0.00     0.082 C 
HETATM    6  C6  UNL     1     -12.979  47.383 -27.920  1.00  0.00    -0.151 C 
HETATM    7  C7  UNL     1     -11.637  47.981 -27.984  1.00  0.00     0.196 C 
HETATM    8  C8  UNL     1     -10.491  46.941 -28.396  1.00  0.00     0.037 C 
HETATM    9  C9  UNL     1     -10.253  45.804 -27.328  1.00  0.00     0.031 C 
HETATM   10  C10 UNL     1     -11.479  44.883 -27.146  1.00  0.00     0.019 C 
HETATM   11  C11 UNL     1      -9.629  46.265 -25.976  1.00  0.00    -0.062 C 
HETATM   12  C12 UNL     1     -10.097  45.838 -24.784  1.00  0.00     0.054 C 
HETATM   13  C13 UNL     1      -9.435  46.120 -23.481  1.00  0.00     0.155 C 
HETATM   14  O2  UNL     1     -10.013  45.783 -22.451  1.00  0.00    -0.293 OA
HETATM   15  C14 UNL     1      -8.040  46.758 -23.518  1.00  0.00     0.077 C 
HETATM   16  C15 UNL     1      -7.412  47.123 -22.105  1.00  0.00    -0.028 C 
HETATM   17  C16 UNL     1      -8.427  47.913 -21.214  1.00  0.00     0.016 C 
HETATM   18  C17 UNL     1      -7.100  45.768 -21.371  1.00  0.00     0.013 C 
HETATM   19  C18 UNL     1      -5.737  45.192 -21.714  1.00  0.00     0.033 C 
HETATM   20  C19 UNL     1      -4.592  46.092 -21.250  1.00  0.00     0.129 C 
HETATM   21  C20 UNL     1      -4.908  47.620 -21.228  1.00  0.00     0.014 C 
HETATM   22  C21 UNL     1      -5.395  48.091 -19.823  1.00  0.00     0.021 C 
HETATM   23  C24 UNL     1      -6.070  47.977 -22.279  1.00  0.00     0.008 C 
HETATM   24  C25 UNL     1      -5.615  48.000 -23.754  1.00  0.00     0.007 C 
HETATM   25  C26 UNL     1      -6.686  48.608 -24.653  1.00  0.00     0.011 C 
HETATM   26  C27 UNL     1      -8.046  47.869 -24.621  1.00  0.00    -0.021 C 
HETATM   27  C28 UNL     1      -9.110  48.951 -24.266  1.00  0.00     0.017 C 
HETATM   28  C29 UNL     1      -8.376  47.165 -26.055  1.00  0.00    -0.010 C 
HETATM   29  C30 UNL     1      -7.204  46.231 -26.498  1.00  0.00     0.021 C 
HETATM   30  C31 UNL     1      -8.558  48.245 -27.150  1.00  0.00     0.047 C 
HETATM   31  C32 UNL     1      -9.130  47.742 -28.477  1.00  0.00     0.132 C 
HETATM   32  C33 UNL     1     -10.826  46.217 -29.814  1.00  0.00    -0.026 C 
HETATM   33  C34 UNL     1     -11.176  47.202 -30.966  1.00  0.00     0.010 C 
HETATM   34  C35 UNL     1     -11.022  46.403 -32.262  1.00  0.00     0.001 C 
HETATM   35  C36 UNL     1      -9.975  45.335 -31.971  1.00  0.00     0.001 C 
HETATM   36  C37 UNL     1      -9.624  45.480 -30.485  1.00  0.00     0.010 C 
HETATM   37  C38 UNL     1     -12.013  45.190 -29.713  1.00  0.00     0.019 C 
ENDROOT
BRANCH  21  38
HETATM   38  C22 UNL     1      -3.583  48.440 -21.520  1.00  0.00     0.152 C 
BRANCH  38  39
HETATM   39  O4  UNL     1      -3.879  49.716 -22.116  1.00  0.00    -0.393 OA
HETATM   40  H28 UNL     1      -3.692  49.612 -23.073  1.00  0.00     0.210 HD
ENDBRANCH  38  39
BRANCH  38  41
HETATM   41  C23 UNL     1      -2.542  47.796 -22.456  1.00  0.00     0.196 C 
BRANCH  41  42
HETATM   42  O5  UNL     1      -1.670  46.968 -21.684  1.00  0.00    -0.398 OA
HETATM   43  H31 UNL     1      -0.817  47.452 -21.594  1.00  0.00     0.209 HD
ENDBRANCH  41  42
ENDBRANCH  38  41
ENDBRANCH  21  38
BRANCH  20  44
HETATM   44  O3  UNL     1      -4.137  45.652 -19.961  1.00  0.00    -0.395 OA
HETATM   45  H23 UNL     1      -4.919  45.387 -19.444  1.00  0.00     0.210 HD
ENDBRANCH  20  44
BRANCH  31  46
HETATM   46  O6  UNL     1      -9.240  48.870 -29.350  1.00  0.00    -0.395 OA
HETATM   47  H46 UNL     1      -8.368  49.300 -29.393  1.00  0.00     0.210 HD
ENDBRANCH  31  46
BRANCH   7  48
HETATM   48  O1  UNL     1     -11.393  48.577 -26.711  1.00  0.00    -0.383 OA
HETATM   49  H9  UNL     1     -12.239  48.639 -26.242  1.00  0.00     0.211 HD
ENDBRANCH   7  48
TORSDOF 7
ENDMDL
MODEL 4
REMARK minimizedAffinity -7.77928066
REMARK CNNscore 0.451135337
REMARK CNNaffinity 6.16851234
REMARK  7 active torsions:
REMARK  status: ('A' for Active; 'I' for Inactive)
REMARK    1  A    between atoms: C7_7  and  O1_8 
REMARK    2  A    between atoms: C19_21  and  O3_22 
REMARK    3  A    between atoms: C20_23  and  C22_25 
REMARK    4  A    between atoms: C22_25  and  O4_26 
REMARK    5  A    between atoms: C22_25  and  C23_27 
REMARK    6  A    between atoms: C23_27  and  O5_28 
REMARK    7  A    between atoms: C32_37  and  O6_38 
ROOT
HETATM    1  C1  UNL     1       3.564  64.591 -32.425  1.00  0.00     0.015 C 
HETATM    2  C2  UNL     1       4.533  64.261 -33.588  1.00  0.00    -0.043 C 
HETATM    3  C3  UNL     1       4.572  62.685 -33.703  1.00  0.00     0.010 C 
HETATM    4  C4  UNL     1       5.569  62.007 -34.685  1.00  0.00     0.012 C 
HETATM    5  C5  UNL     1       6.232  62.967 -35.567  1.00  0.00     0.082 C 
HETATM    6  C6  UNL     1       6.570  64.026 -36.024  1.00  0.00    -0.151 C 
HETATM    7  C7  UNL     1       6.699  65.455 -36.347  1.00  0.00     0.196 C 
HETATM    8  C8  UNL     1       5.939  66.415 -35.315  1.00  0.00     0.037 C 
HETATM    9  C9  UNL     1       4.370  66.252 -35.334  1.00  0.00     0.031 C 
HETATM   10  C10 UNL     1       3.904  64.851 -34.879  1.00  0.00     0.019 C 
HETATM   11  C11 UNL     1       3.655  66.743 -36.629  1.00  0.00    -0.062 C 
HETATM   12  C12 UNL     1       2.687  66.021 -37.235  1.00  0.00     0.054 C 
HETATM   13  C13 UNL     1       1.867  66.520 -38.372  1.00  0.00     0.155 C 
HETATM   14  O2  UNL     1       1.097  65.735 -38.921  1.00  0.00    -0.293 OA
HETATM   15  C14 UNL     1       1.993  68.004 -38.740  1.00  0.00     0.077 C 
HETATM   16  C15 UNL     1       1.166  68.470 -40.015  1.00  0.00    -0.028 C 
HETATM   17  C16 UNL     1       1.402  67.512 -41.230  1.00  0.00     0.016 C 
HETATM   18  C17 UNL     1      -0.357  68.384 -39.639  1.00  0.00     0.013 C 
HETATM   19  C18 UNL     1      -0.886  69.639 -38.965  1.00  0.00     0.033 C 
HETATM   20  C19 UNL     1      -0.839  70.858 -39.885  1.00  0.00     0.129 C 
HETATM   21  C20 UNL     1       0.313  70.859 -40.938  1.00  0.00     0.014 C 
HETATM   22  C21 UNL     1      -0.150  70.269 -42.305  1.00  0.00     0.021 C 
HETATM   23  C24 UNL     1       1.550  69.968 -40.428  1.00  0.00     0.008 C 
HETATM   24  C25 UNL     1       2.417  70.638 -39.342  1.00  0.00     0.007 C 
HETATM   25  C26 UNL     1       3.710  69.862 -39.112  1.00  0.00     0.011 C 
HETATM   26  C27 UNL     1       3.507  68.392 -38.671  1.00  0.00    -0.021 C 
HETATM   27  C28 UNL     1       4.314  67.528 -39.687  1.00  0.00     0.017 C 
HETATM   28  C29 UNL     1       4.030  68.149 -37.145  1.00  0.00    -0.010 C 
HETATM   29  C30 UNL     1       3.359  69.161 -36.161  1.00  0.00     0.021 C 
HETATM   30  C31 UNL     1       5.562  68.359 -37.067  1.00  0.00     0.047 C 
HETATM   31  C32 UNL     1       6.219  67.907 -35.760  1.00  0.00     0.132 C 
HETATM   32  C33 UNL     1       6.438  66.161 -33.786  1.00  0.00    -0.026 C 
HETATM   33  C34 UNL     1       7.983  66.198 -33.606  1.00  0.00     0.010 C 
HETATM   34  C35 UNL     1       8.225  66.383 -32.106  1.00  0.00     0.001 C 
HETATM   35  C36 UNL     1       7.009  67.135 -31.578  1.00  0.00     0.001 C 
HETATM   36  C37 UNL     1       6.050  67.277 -32.766  1.00  0.00     0.010 C 
HETATM   37  C38 UNL     1       5.941  64.790 -33.200  1.00  0.00     0.019 C 
ENDROOT
BRANCH  21  38
HETATM   38  C22 UNL     1       0.753  72.351 -41.241  1.00  0.00     0.152 C 
BRANCH  38  39
HETATM   39  O4  UNL     1      -0.390  73.218 -41.361  1.00  0.00    -0.393 OA
HETATM   40  H28 UNL     1      -0.517  73.356 -42.324  1.00  0.00     0.210 HD
ENDBRANCH  38  39
BRANCH  38  41
HETATM   41  C23 UNL     1       1.579  72.602 -42.517  1.00  0.00     0.196 C 
BRANCH  41  42
HETATM   42  O5  UNL     1       2.294  71.411 -42.851  1.00  0.00    -0.398 OA
HETATM   43  H31 UNL     1       3.235  71.559 -42.599  1.00  0.00     0.209 HD
ENDBRANCH  41  42
ENDBRANCH  38  41
ENDBRANCH  21  38
BRANCH  20  44
HETATM   44  O3  UNL     1      -2.113  71.012 -40.532  1.00  0.00    -0.395 OA
HETATM   45  H23 UNL     1      -2.443  70.123 -40.755  1.00  0.00     0.210 HD
ENDBRANCH  20  44
BRANCH  31  46
HETATM   46  O6  UNL     1       7.622  68.162 -35.876  1.00  0.00    -0.395 OA
HETATM   47  H46 UNL     1       7.735  69.100 -36.112  1.00  0.00     0.210 HD
ENDBRANCH  31  46
BRANCH   7  48
HETATM   48  O1  UNL     1       6.226  65.617 -37.683  1.00  0.00    -0.383 OA
HETATM   49  H9  UNL     1       6.177  64.740 -38.092  1.00  0.00     0.211 HD
ENDBRANCH   7  48
TORSDOF 7
ENDMDL
MODEL 5
REMARK minimizedAffinity -7.29596901
REMARK CNNscore 0.428919315
REMARK CNNaffinity 6.82560873
REMARK  7 active torsions:
REMARK  status: ('A' for Active; 'I' for Inactive)
REMARK    1  A    between atoms: C7_7  and  O1_8 
REMARK    2  A    between atoms: C19_21  and  O3_22 
REMARK    3  A    between atoms: C20_23  and  C22_25 
REMARK    4  A    between atoms: C22_25  and  O4_26 
REMARK    5  A    between atoms: C22_25  and  C23_27 
REMARK    6  A    between atoms: C23_27  and  O5_28 
REMARK    7  A    between atoms: C32_37  and  O6_38 
ROOT
HETATM    1  C1  UNL     1       0.754  54.872  -5.733  1.00  0.00     0.015 C 
HETATM    2  C2  UNL     1       1.724  55.436  -6.802  1.00  0.00    -0.043 C 
HETATM    3  C3  UNL     1       2.201  56.846  -6.272  1.00  0.00     0.010 C 
HETATM    4  C4  UNL     1       3.078  57.757  -7.179  1.00  0.00     0.012 C 
HETATM    5  C5  UNL     1       3.539  57.071  -8.386  1.00  0.00     0.082 C 
HETATM    6  C6  UNL     1       3.646  56.212  -9.220  1.00  0.00    -0.151 C 
HETATM    7  C7  UNL     1       3.582  54.950  -9.971  1.00  0.00     0.196 C 
HETATM    8  C8  UNL     1       2.540  53.896  -9.364  1.00  0.00     0.037 C 
HETATM    9  C9  UNL     1       2.936  53.364  -7.933  1.00  0.00     0.031 C 
HETATM   10  C10 UNL     1       2.941  54.473  -6.858  1.00  0.00     0.019 C 
HETATM   11  C11 UNL     1       4.199  52.453  -7.875  1.00  0.00    -0.062 C 
HETATM   12  C12 UNL     1       5.154  52.604  -6.933  1.00  0.00     0.054 C 
HETATM   13  C13 UNL     1       6.289  51.660  -6.740  1.00  0.00     0.155 C 
HETATM   14  O2  UNL     1       7.163  51.960  -5.930  1.00  0.00    -0.293 OA
HETATM   15  C14 UNL     1       6.255  50.342  -7.523  1.00  0.00     0.077 C 
HETATM   16  C15 UNL     1       7.529  49.407  -7.354  1.00  0.00    -0.028 C 
HETATM   17  C16 UNL     1       8.858  50.209  -7.556  1.00  0.00     0.016 C 
HETATM   18  C17 UNL     1       7.523  48.875  -5.875  1.00  0.00     0.013 C 
HETATM   19  C18 UNL     1       6.700  47.613  -5.688  1.00  0.00     0.033 C 
HETATM   20  C19 UNL     1       7.270  46.427  -6.465  1.00  0.00     0.129 C 
HETATM   21  C20 UNL     1       8.016  46.787  -7.787  1.00  0.00     0.014 C 
HETATM   22  C21 UNL     1       9.552  46.941  -7.562  1.00  0.00     0.021 C 
HETATM   23  C24 UNL     1       7.480  48.181  -8.382  1.00  0.00     0.008 C 
HETATM   24  C25 UNL     1       6.103  48.094  -9.074  1.00  0.00     0.007 C 
HETATM   25  C26 UNL     1       5.791  49.373  -9.845  1.00  0.00     0.011 C 
HETATM   26  C27 UNL     1       5.770  50.656  -8.978  1.00  0.00    -0.021 C 
HETATM   27  C28 UNL     1       6.764  51.645  -9.657  1.00  0.00     0.017 C 
HETATM   28  C29 UNL     1       4.270  51.292  -8.891  1.00  0.00    -0.010 C 
HETATM   29  C30 UNL     1       3.242  50.225  -8.397  1.00  0.00     0.021 C 
HETATM   30  C31 UNL     1       3.814  51.773 -10.291  1.00  0.00     0.047 C 
HETATM   31  C32 UNL     1       2.544  52.627 -10.308  1.00  0.00     0.132 C 
HETATM   32  C33 UNL     1       1.045  54.532  -9.252  1.00  0.00    -0.026 C 
HETATM   33  C34 UNL     1       0.531  55.188 -10.566  1.00  0.00     0.010 C 
HETATM   34  C35 UNL     1      -0.985  55.317 -10.405  1.00  0.00     0.001 C 
HETATM   35  C36 UNL     1      -1.401  54.189  -9.468  1.00  0.00     0.001 C 
HETATM   36  C37 UNL     1      -0.103  53.498  -9.033  1.00  0.00     0.010 C 
HETATM   37  C38 UNL     1       0.926  55.619  -8.122  1.00  0.00     0.019 C 
ENDROOT
BRANCH  21  38
HETATM   38  C22 UNL     1       7.851  45.605  -8.829  1.00  0.00     0.152 C 
BRANCH  38  39
HETATM   39  O4  UNL     1       8.066  46.062 -10.177  1.00  0.00    -0.393 OA
HETATM   40  H28 UNL     1       7.173  46.160 -10.570  1.00  0.00     0.210 HD
ENDBRANCH  38  39
BRANCH  38  41
HETATM   41  C23 UNL     1       6.493  44.877  -8.868  1.00  0.00     0.196 C 
BRANCH  41  42
HETATM   42  O5  UNL     1       6.406  44.117 -10.076  1.00  0.00    -0.398 OA
HETATM   43  H31 UNL     1       5.800  44.605 -10.680  1.00  0.00     0.209 HD
ENDBRANCH  41  42
ENDBRANCH  38  41
ENDBRANCH  21  38
BRANCH  20  44
HETATM   44  O3  UNL     1       8.120  45.658  -5.599  1.00  0.00    -0.395 OA
HETATM   45  H23 UNL     1       8.615  46.282  -5.038  1.00  0.00     0.210 HD
ENDBRANCH  20  44
BRANCH  31  46
HETATM   46  O6  UNL     1       2.289  52.988 -11.668  1.00  0.00    -0.395 OA
HETATM   47  H46 UNL     1       2.264  52.169 -12.194  1.00  0.00     0.210 HD
ENDBRANCH  31  46
BRANCH   7  48
HETATM   48  O1  UNL     1       4.910  54.431 -10.014  1.00  0.00    -0.383 OA
HETATM   49  H9  UNL     1       5.518  55.142  -9.759  1.00  0.00     0.211 HD
ENDBRANCH   7  48
TORSDOF 7
ENDMDL
MODEL 6
REMARK minimizedAffinity -7.36208296
REMARK CNNscore 0.404562503
REMARK CNNaffinity 6.70234632
REMARK  7 active torsions:
REMARK  status: ('A' for Active; 'I' for Inactive)
REMARK    1  A    between atoms: C7_7  and  O1_8 
REMARK    2  A    between atoms: C19_21  and  O3_22 
REMARK    3  A    between atoms: C20_23  and  C22_25 
REMARK    4  A    between atoms: C22_25  and  O4_26 
REMARK    5  A    between atoms: C22_25  and  C23_27 
REMARK    6  A    between atoms: C23_27  and  O5_28 
REMARK    7  A    between atoms: C32_37  and  O6_38 
ROOT
HETATM    1  C1  UNL     1      -7.835  46.812 -22.443  1.00  0.00     0.015 C 
HETATM    2  C2  UNL     1      -7.974  47.387 -21.011  1.00  0.00    -0.043 C 
HETATM    3  C3  UNL     1      -7.362  48.843 -21.053  1.00  0.00     0.010 C 
HETATM    4  C4  UNL     1      -7.208  49.655 -19.735  1.00  0.00     0.012 C 
HETATM    5  C5  UNL     1      -7.870  49.014 -18.599  1.00  0.00     0.082 C 
HETATM    6  C6  UNL     1      -8.456  48.178 -17.964  1.00  0.00    -0.151 C 
HETATM    7  C7  UNL     1      -9.221  46.995 -17.544  1.00  0.00     0.196 C 
HETATM    8  C8  UNL     1      -9.326  45.866 -18.674  1.00  0.00     0.037 C 
HETATM    9  C9  UNL     1     -10.152  46.312 -19.942  1.00  0.00     0.031 C 
HETATM   10  C10 UNL     1      -9.494  47.481 -20.709  1.00  0.00     0.019 C 
HETATM   11  C11 UNL     1     -11.681  46.514 -19.718  1.00  0.00    -0.062 C 
HETATM   12  C12 UNL     1     -12.347  47.582 -20.207  1.00  0.00     0.054 C 
HETATM   13  C13 UNL     1     -13.827  47.734 -20.158  1.00  0.00     0.155 C 
HETATM   14  O2  UNL     1     -14.314  48.800 -20.527  1.00  0.00    -0.293 OA
HETATM   15  C14 UNL     1     -14.649  46.519 -19.709  1.00  0.00     0.077 C 
HETATM   16  C15 UNL     1     -16.216  46.756 -19.586  1.00  0.00    -0.028 C 
HETATM   17  C16 UNL     1     -16.536  48.053 -18.771  1.00  0.00     0.016 C 
HETATM   18  C17 UNL     1     -16.769  46.969 -21.042  1.00  0.00     0.013 C 
HETATM   19  C18 UNL     1     -17.124  45.672 -21.751  1.00  0.00     0.033 C 
HETATM   20  C19 UNL     1     -18.269  44.929 -21.065  1.00  0.00     0.129 C 
HETATM   21  C20 UNL     1     -18.368  45.128 -19.521  1.00  0.00     0.014 C 
HETATM   22  C21 UNL     1     -19.346  46.284 -19.146  1.00  0.00     0.021 C 
HETATM   23  C24 UNL     1     -16.932  45.499 -18.902  1.00  0.00     0.008 C 
HETATM   24  C25 UNL     1     -15.960  44.307 -18.779  1.00  0.00     0.007 C 
HETATM   25  C26 UNL     1     -14.739  44.673 -17.941  1.00  0.00     0.011 C 
HETATM   26  C27 UNL     1     -13.914  45.861 -18.494  1.00  0.00    -0.021 C 
HETATM   27  C28 UNL     1     -13.813  46.888 -17.326  1.00  0.00     0.017 C 
HETATM   28  C29 UNL     1     -12.435  45.381 -18.987  1.00  0.00    -0.010 C 
HETATM   29  C30 UNL     1     -12.546  44.208 -20.013  1.00  0.00     0.021 C 
HETATM   30  C31 UNL     1     -11.609  44.876 -17.780  1.00  0.00     0.047 C 
HETATM   31  C32 UNL     1     -10.121  44.647 -18.055  1.00  0.00     0.132 C 
HETATM   32  C33 UNL     1      -7.854  45.399 -19.190  1.00  0.00    -0.026 C 
HETATM   33  C34 UNL     1      -6.874  45.008 -18.047  1.00  0.00     0.010 C 
HETATM   34  C35 UNL     1      -5.754  44.205 -18.713  1.00  0.00     0.001 C 
HETATM   35  C36 UNL     1      -6.383  43.547 -19.935  1.00  0.00     0.001 C 
HETATM   36  C37 UNL     1      -7.825  44.066 -20.000  1.00  0.00     0.010 C 
HETATM   37  C38 UNL     1      -7.133  46.496 -20.056  1.00  0.00     0.019 C 
ENDROOT
BRANCH  21  38
HETATM   38  C22 UNL     1     -18.972  43.822 -18.855  1.00  0.00     0.152 C 
BRANCH  38  39
HETATM   39  O4  UNL     1     -18.411  43.595 -17.550  1.00  0.00    -0.393 OA
HETATM   40  H28 UNL     1     -17.742  42.886 -17.668  1.00  0.00     0.210 HD
ENDBRANCH  38  39
BRANCH  38  41
HETATM   41  C23 UNL     1     -18.783  42.490 -19.607  1.00  0.00     0.196 C 
BRANCH  41  42
HETATM   42  O5  UNL     1     -19.970  41.706 -19.472  1.00  0.00    -0.398 OA
HETATM   43  H31 UNL     1     -19.774  40.996 -18.819  1.00  0.00     0.209 HD
ENDBRANCH  41  42
ENDBRANCH  38  41
ENDBRANCH  21  38
BRANCH  20  44
HETATM   44  O3  UNL     1     -19.510  45.282 -21.700  1.00  0.00    -0.395 OA
HETATM   45  H23 UNL     1     -19.473  46.232 -21.915  1.00  0.00     0.210 HD
ENDBRANCH  20  44
BRANCH  31  46
HETATM   46  O6  UNL     1      -9.523  44.201 -16.834  1.00  0.00    -0.395 OA
HETATM   47  H46 UNL     1     -10.026  43.429 -16.521  1.00  0.00     0.210 HD
ENDBRANCH  31  46
BRANCH   7  48
HETATM   48  O1  UNL     1     -10.503  47.463 -17.128  1.00  0.00    -0.383 OA
HETATM   49  H9  UNL     1     -10.447  48.423 -17.006  1.00  0.00     0.211 HD
ENDBRANCH   7  48
TORSDOF 7
ENDMDL
MODEL 7
REMARK minimizedAffinity -8.78683949
REMARK CNNscore 0.402875572
REMARK CNNaffinity 6.4568038
REMARK  7 active torsions:
REMARK  status: ('A' for Active; 'I' for Inactive)
REMARK    1  A    between atoms: C7_7  and  O1_8 
REMARK    2  A    between atoms: C19_21  and  O3_22 
REMARK    3  A    between atoms: C20_23  and  C22_25 
REMARK    4  A    between atoms: C22_25  and  O4_26 
REMARK    5  A    between atoms: C22_25  and  C23_27 
REMARK    6  A    between atoms: C23_27  and  O5_28 
REMARK    7  A    between atoms: C32_37  and  O6_38 
ROOT
HETATM    1  C1  UNL     1      -6.816  43.318 -30.812  1.00  0.00     0.015 C 
HETATM    2  C2  UNL     1      -7.867  44.106 -31.635  1.00  0.00    -0.043 C 
HETATM    3  C3  UNL     1      -8.092  43.289 -32.969  1.00  0.00     0.010 C 
HETATM    4  C4  UNL     1      -8.986  43.881 -34.096  1.00  0.00     0.012 C 
HETATM    5  C5  UNL     1      -9.701  45.084 -33.673  1.00  0.00     0.082 C 
HETATM    6  C6  UNL     1     -10.031  46.012 -32.984  1.00  0.00    -0.151 C 
HETATM    7  C7  UNL     1     -10.228  46.951 -31.869  1.00  0.00     0.196 C 
HETATM    8  C8  UNL     1      -9.234  46.701 -30.639  1.00  0.00     0.037 C 
HETATM    9  C9  UNL     1      -9.466  45.324 -29.905  1.00  0.00     0.031 C 
HETATM   10  C10 UNL     1      -9.180  44.104 -30.808  1.00  0.00     0.019 C 
HETATM   11  C11 UNL     1     -10.802  45.197 -29.112  1.00  0.00    -0.062 C 
HETATM   12  C12 UNL     1     -11.579  44.095 -29.182  1.00  0.00     0.054 C 
HETATM   13  C13 UNL     1     -12.772  43.862 -28.323  1.00  0.00     0.155 C 
HETATM   14  O2  UNL     1     -13.472  42.879 -28.554  1.00  0.00    -0.293 OA
HETATM   15  C14 UNL     1     -13.010  44.836 -27.162  1.00  0.00     0.077 C 
HETATM   16  C15 UNL     1     -14.343  44.601 -26.328  1.00  0.00    -0.028 C 
HETATM   17  C16 UNL     1     -15.585  44.448 -27.267  1.00  0.00     0.016 C 
HETATM   18  C17 UNL     1     -14.172  43.246 -25.550  1.00  0.00     0.013 C 
HETATM   19  C18 UNL     1     -13.481  43.401 -24.207  1.00  0.00     0.033 C 
HETATM   20  C19 UNL     1     -14.295  44.246 -23.228  1.00  0.00     0.129 C 
HETATM   21  C20 UNL     1     -15.187  45.350 -23.876  1.00  0.00     0.014 C 
HETATM   22  C21 UNL     1     -16.643  44.847 -24.123  1.00  0.00     0.021 C 
HETATM   23  C24 UNL     1     -14.591  45.801 -25.298  1.00  0.00     0.008 C 
HETATM   24  C25 UNL     1     -13.356  46.722 -25.211  1.00  0.00     0.007 C 
HETATM   25  C26 UNL     1     -13.019  47.325 -26.571  1.00  0.00     0.011 C 
HETATM   26  C27 UNL     1     -12.719  46.284 -27.678  1.00  0.00    -0.021 C 
HETATM   27  C28 UNL     1     -13.685  46.623 -28.854  1.00  0.00     0.017 C 
HETATM   28  C29 UNL     1     -11.160  46.355 -28.155  1.00  0.00    -0.010 C 
HETATM   29  C30 UNL     1     -10.199  46.214 -26.932  1.00  0.00     0.021 C 
HETATM   30  C31 UNL     1     -10.871  47.719 -28.829  1.00  0.00     0.047 C 
HETATM   31  C32 UNL     1      -9.528  47.817 -29.557  1.00  0.00     0.132 C 
HETATM   32  C33 UNL     1      -7.677  46.746 -31.112  1.00  0.00    -0.026 C 
HETATM   33  C34 UNL     1      -7.298  48.010 -31.937  1.00  0.00     0.010 C 
HETATM   34  C35 UNL     1      -5.770  48.089 -31.902  1.00  0.00     0.001 C 
HETATM   35  C36 UNL     1      -5.348  47.424 -30.597  1.00  0.00     0.001 C 
HETATM   36  C37 UNL     1      -6.636  46.889 -29.959  1.00  0.00     0.010 C 
HETATM   37  C38 UNL     1      -7.263  45.496 -31.972  1.00  0.00     0.019 C 
ENDROOT
BRANCH  21  38
HETATM   38  C22 UNL     1     -15.320  46.576 -22.881  1.00  0.00     0.152 C 
BRANCH  38  39
HETATM   39  O4  UNL     1     -15.317  47.827 -23.592  1.00  0.00    -0.393 OA
HETATM   40  H28 UNL     1     -14.414  48.194 -23.479  1.00  0.00     0.210 HD
ENDBRANCH  38  39
BRANCH  38  41
HETATM   41  C23 UNL     1     -14.236  46.732 -21.797  1.00  0.00     0.196 C 
BRANCH  41  42
HETATM   42  O5  UNL     1     -13.840  48.103 -21.727  1.00  0.00    -0.398 OA
HETATM   43  H31 UNL     1     -12.960  48.172 -22.164  1.00  0.00     0.209 HD
ENDBRANCH  41  42
ENDBRANCH  38  41
ENDBRANCH  21  38
BRANCH  20  44
HETATM   44  O3  UNL     1     -15.087  43.378 -22.399  1.00  0.00    -0.395 OA
HETATM   45  H23 UNL     1     -15.415  42.652 -22.958  1.00  0.00     0.210 HD
ENDBRANCH  20  44
BRANCH  31  46
HETATM   46  O6  UNL     1      -9.444  49.128 -30.124  1.00  0.00    -0.395 OA
HETATM   47  H46 UNL     1      -9.593  49.771 -29.409  1.00  0.00     0.210 HD
ENDBRANCH  31  46
BRANCH   7  48
HETATM   48  O1  UNL     1     -11.598  46.849 -31.485  1.00  0.00    -0.383 OA
HETATM   49  H9  UNL     1     -12.074  46.387 -32.192  1.00  0.00     0.211 HD
ENDBRANCH   7  48
TORSDOF 7
ENDMDL
MODEL 8
REMARK minimizedAffinity -7.77232695
REMARK CNNscore 0.396799773
REMARK CNNaffinity 6.79822588
REMARK  7 active torsions:
REMARK  status: ('A' for Active; 'I' for Inactive)
REMARK    1  A    between atoms: C7_7  and  O1_8 
REMARK    2  A    between atoms: C19_21  and  O3_22 
REMARK    3  A    between atoms: C20_23  and  C22_25 
REMARK    4  A    between atoms: C22_25  and  O4_26 
REMARK    5  A    between atoms: C22_25  and  C23_27 
REMARK    6  A    between atoms: C23_27  and  O5_28 
REMARK    7  A    between atoms: C32_37  and  O6_38 
ROOT
HETATM    1  C1  UNL     1      -0.183  57.026  -7.518  1.00  0.00     0.015 C 
HETATM    2  C2  UNL     1       0.429  55.729  -6.930  1.00  0.00    -0.043 C 
HETATM    3  C3  UNL     1      -0.169  55.573  -5.476  1.00  0.00     0.010 C 
HETATM    4  C4  UNL     1       0.352  54.443  -4.543  1.00  0.00     0.012 C 
HETATM    5  C5  UNL     1       1.227  53.498  -5.237  1.00  0.00     0.082 C 
HETATM    6  C6  UNL     1       1.897  53.023  -6.115  1.00  0.00    -0.151 C 
HETATM    7  C7  UNL     1       2.537  52.719  -7.403  1.00  0.00     0.196 C 
HETATM    8  C8  UNL     1       2.349  53.871  -8.500  1.00  0.00     0.037 C 
HETATM    9  C9  UNL     1       0.852  54.072  -8.958  1.00  0.00     0.031 C 
HETATM   10  C10 UNL     1      -0.068  54.555  -7.816  1.00  0.00     0.019 C 
HETATM   11  C11 UNL     1       0.236  52.904  -9.786  1.00  0.00    -0.062 C 
HETATM   12  C12 UNL     1      -1.003  52.424  -9.544  1.00  0.00     0.054 C 
HETATM   13  C13 UNL     1      -1.693  51.428 -10.408  1.00  0.00     0.155 C 
HETATM   14  O2  UNL     1      -2.770  50.975 -10.027  1.00  0.00    -0.293 OA
HETATM   15  C14 UNL     1      -1.039  51.081 -11.751  1.00  0.00     0.077 C 
HETATM   16  C15 UNL     1      -1.763  49.947 -12.598  1.00  0.00    -0.028 C 
HETATM   17  C16 UNL     1      -2.073  48.689 -11.721  1.00  0.00     0.016 C 
HETATM   18  C17 UNL     1      -3.139  50.534 -13.079  1.00  0.00     0.013 C 
HETATM   19  C18 UNL     1      -3.045  51.306 -14.385  1.00  0.00     0.033 C 
HETATM   20  C19 UNL     1      -2.635  50.417 -15.557  1.00  0.00     0.129 C 
HETATM   21  C20 UNL     1      -1.712  49.212 -15.195  1.00  0.00     0.014 C 
HETATM   22  C21 UNL     1      -2.533  47.911 -14.938  1.00  0.00     0.021 C 
HETATM   23  C24 UNL     1      -0.874  49.519 -13.858  1.00  0.00     0.008 C 
HETATM   24  C25 UNL     1       0.312  50.487 -14.054  1.00  0.00     0.007 C 
HETATM   25  C26 UNL     1       1.213  50.512 -12.824  1.00  0.00     0.011 C 
HETATM   26  C27 UNL     1       0.502  50.942 -11.516  1.00  0.00    -0.021 C 
HETATM   27  C28 UNL     1       0.774  49.802 -10.490  1.00  0.00     0.017 C 
HETATM   28  C29 UNL     1       1.069  52.373 -10.973  1.00  0.00    -0.010 C 
HETATM   29  C30 UNL     1       0.976  53.465 -12.086  1.00  0.00     0.021 C 
HETATM   30  C31 UNL     1       2.557  52.237 -10.568  1.00  0.00     0.047 C 
HETATM   31  C32 UNL     1       3.136  53.426  -9.797  1.00  0.00     0.132 C 
HETATM   32  C33 UNL     1       2.889  55.306  -7.955  1.00  0.00    -0.026 C 
HETATM   33  C34 UNL     1       4.333  55.266  -7.377  1.00  0.00     0.010 C 
HETATM   34  C35 UNL     1       4.809  56.720  -7.338  1.00  0.00     0.001 C 
HETATM   35  C36 UNL     1       4.061  57.433  -8.458  1.00  0.00     0.001 C 
HETATM   36  C37 UNL     1       3.099  56.397  -9.052  1.00  0.00     0.010 C 
HETATM   37  C38 UNL     1       1.967  55.925  -6.841  1.00  0.00     0.019 C 
ENDROOT
BRANCH  21  38
HETATM   38  C22 UNL     1      -0.761  48.885 -16.419  1.00  0.00     0.152 C 
BRANCH  38  39
HETATM   39  O4  UNL     1       0.560  48.528 -15.973  1.00  0.00    -0.393 OA
HETATM   40  H28 UNL     1       1.113  49.325 -16.117  1.00  0.00     0.210 HD
ENDBRANCH  38  39
BRANCH  38  41
HETATM   41  C23 UNL     1      -0.541  49.996 -17.464  1.00  0.00     0.196 C 
BRANCH  41  42
HETATM   42  O5  UNL     1       0.687  50.670 -17.176  1.00  0.00    -0.398 OA
HETATM   43  H31 UNL     1       0.451  51.537 -16.773  1.00  0.00     0.209 HD
ENDBRANCH  41  42
ENDBRANCH  38  41
ENDBRANCH  21  38
BRANCH  20  44
HETATM   44  O3  UNL     1      -3.814  49.962 -16.242  1.00  0.00    -0.395 OA
HETATM   45  H23 UNL     1      -4.491  49.768 -15.570  1.00  0.00     0.210 HD
ENDBRANCH  20  44
BRANCH  31  46
HETATM   46  O6  UNL     1       4.501  53.117  -9.498  1.00  0.00    -0.395 OA
HETATM   47  H46 UNL     1       4.945  52.890 -10.334  1.00  0.00     0.210 HD
ENDBRANCH  31  46
BRANCH   7  48
HETATM   48  O1  UNL     1       2.008  51.468  -7.839  1.00  0.00    -0.383 OA
HETATM   49  H9  UNL     1       1.568  51.049  -7.083  1.00  0.00     0.211 HD
ENDBRANCH   7  48
TORSDOF 7
ENDMDL
MODEL 9
REMARK minimizedAffinity -8.62237644
REMARK CNNscore 0.382721901
REMARK CNNaffinity 6.11040878
REMARK  7 active torsions:
REMARK  status: ('A' for Active; 'I' for Inactive)
REMARK    1  A    between atoms: C7_7  and  O1_8 
REMARK    2  A    between atoms: C19_21  and  O3_22 
REMARK    3  A    between atoms: C20_23  and  C22_25 
REMARK    4  A    between atoms: C22_25  and  O4_26 
REMARK    5  A    between atoms: C22_25  and  C23_27 
REMARK    6  A    between atoms: C23_27  and  O5_28 
REMARK    7  A    between atoms: C32_37  and  O6_38 
ROOT
HETATM    1  C1  UNL     1      -8.184  43.958 -23.854  1.00  0.00     0.015 C 
HETATM    2  C2  UNL     1      -8.353  45.485 -24.056  1.00  0.00    -0.043 C 
HETATM    3  C3  UNL     1      -7.143  46.171 -23.305  1.00  0.00     0.010 C 
HETATM    4  C4  UNL     1      -7.086  47.720 -23.184  1.00  0.00     0.012 C 
HETATM    5  C5  UNL     1      -8.105  48.386 -23.996  1.00  0.00     0.082 C 
HETATM    6  C6  UNL     1      -9.063  48.520 -24.709  1.00  0.00    -0.151 C 
HETATM    7  C7  UNL     1     -10.198  48.294 -25.617  1.00  0.00     0.196 C 
HETATM    8  C8  UNL     1     -10.626  46.755 -25.736  1.00  0.00     0.037 C 
HETATM    9  C9  UNL     1      -9.529  45.842 -26.407  1.00  0.00     0.031 C 
HETATM   10  C10 UNL     1      -8.227  45.755 -25.579  1.00  0.00     0.019 C 
HETATM   11  C11 UNL     1      -9.271  46.096 -27.923  1.00  0.00    -0.062 C 
HETATM   12  C12 UNL     1      -8.026  46.169 -28.441  1.00  0.00     0.054 C 
HETATM   13  C13 UNL     1      -7.734  46.247 -29.898  1.00  0.00     0.155 C 
HETATM   14  O2  UNL     1      -6.571  46.429 -30.248  1.00  0.00    -0.293 OA
HETATM   15  C14 UNL     1      -8.903  46.030 -30.868  1.00  0.00     0.077 C 
HETATM   16  C15 UNL     1      -8.562  46.211 -32.409  1.00  0.00    -0.028 C 
HETATM   17  C16 UNL     1      -7.785  47.544 -32.670  1.00  0.00     0.016 C 
HETATM   18  C17 UNL     1      -7.612  45.027 -32.817  1.00  0.00     0.013 C 
HETATM   19  C18 UNL     1      -8.355  43.769 -33.235  1.00  0.00     0.033 C 
HETATM   20  C19 UNL     1      -9.188  43.979 -34.499  1.00  0.00     0.129 C 
HETATM   21  C20 UNL     1      -9.742  45.423 -34.706  1.00  0.00     0.014 C 
HETATM   22  C21 UNL     1      -8.795  46.285 -35.596  1.00  0.00     0.021 C 
HETATM   23  C24 UNL     1      -9.893  46.181 -33.297  1.00  0.00     0.008 C 
HETATM   24  C25 UNL     1     -11.109  45.736 -32.457  1.00  0.00     0.007 C 
HETATM   25  C26 UNL     1     -11.343  46.678 -31.281  1.00  0.00     0.011 C 
HETATM   26  C27 UNL     1     -10.148  46.792 -30.302  1.00  0.00    -0.021 C 
HETATM   27  C28 UNL     1      -9.826  48.313 -30.200  1.00  0.00     0.017 C 
HETATM   28  C29 UNL     1     -10.512  46.166 -28.841  1.00  0.00    -0.010 C 
HETATM   29  C30 UNL     1     -11.027  44.697 -28.978  1.00  0.00     0.021 C 
HETATM   30  C31 UNL     1     -11.632  46.998 -28.169  1.00  0.00     0.047 C 
HETATM   31  C32 UNL     1     -11.883  46.685 -26.692  1.00  0.00     0.132 C 
HETATM   32  C33 UNL     1     -10.967  46.117 -24.278  1.00  0.00    -0.026 C 
HETATM   33  C34 UNL     1     -11.976  46.951 -23.437  1.00  0.00     0.010 C 
HETATM   34  C35 UNL     1     -12.493  46.009 -22.348  1.00  0.00     0.001 C 
HETATM   35  C36 UNL     1     -12.403  44.605 -22.935  1.00  0.00     0.001 C 
HETATM   36  C37 UNL     1     -11.742  44.762 -24.310  1.00  0.00     0.010 C 
HETATM   37  C38 UNL     1      -9.688  45.910 -23.386  1.00  0.00     0.019 C 
ENDROOT
BRANCH  21  38
HETATM   38  C22 UNL     1     -11.121  45.355 -35.485  1.00  0.00     0.152 C 
BRANCH  38  39
HETATM   39  O4  UNL     1     -12.139  46.116 -34.810  1.00  0.00    -0.393 OA
HETATM   40  H28 UNL     1     -12.694  45.458 -34.339  1.00  0.00     0.210 HD
ENDBRANCH  38  39
BRANCH  38  41
HETATM   41  C23 UNL     1     -11.744  43.963 -35.705  1.00  0.00     0.196 C 
BRANCH  41  42
HETATM   42  O5  UNL     1     -12.486  43.596 -34.540  1.00  0.00    -0.398 OA
HETATM   43  H31 UNL     1     -11.950  42.926 -34.057  1.00  0.00     0.209 HD
ENDBRANCH  41  42
ENDBRANCH  38  41
ENDBRANCH  21  38
BRANCH  20  44
HETATM   44  O3  UNL     1      -8.423  43.563 -35.643  1.00  0.00    -0.395 OA
HETATM   45  H23 UNL     1      -7.500  43.837 -35.498  1.00  0.00     0.210 HD
ENDBRANCH  20  44
BRANCH  31  46
HETATM   46  O6  UNL     1     -12.929  47.552 -26.243  1.00  0.00    -0.395 OA
HETATM   47  H46 UNL     1     -13.688  47.438 -26.842  1.00  0.00     0.210 HD
ENDBRANCH  31  46
BRANCH   7  48
HETATM   48  O1  UNL     1      -9.831  48.851 -26.877  1.00  0.00    -0.383 OA
HETATM   49  H9  UNL     1      -9.062  49.424 -26.740  1.00  0.00     0.211 HD
ENDBRANCH   7  48
TORSDOF 7
ENDMDL
