MODEL 1
REMARK minimizedAffinity -9.42382526
REMARK  6 active torsions:
REMARK  status: ('A' for Active; 'I' for Inactive)
REMARK    1  A    between atoms: C2_2  and  C30_32 
REMARK    2  A    between atoms: C3_3  and  C4_4 
REMARK    3  A    between atoms: C4_4  and  C5_6 
REMARK    4  A    between atoms: C5_6  and  C6_7 
REMARK    5  A    between atoms: C6_7  and  C8_9 
REMARK    6  A    between atoms: C30_32  and  O4_34 
ROOT
HETATM    1  C8  UNL     1      -2.891   7.639  14.097  1.00  0.00    -0.001 C 
HETATM    2  C9  UNL     1      -3.176   8.214  12.698  1.00  0.00     0.007 C 
HETATM    3  C10 UNL     1      -1.859   8.831  12.191  1.00  0.00     0.015 C 
HETATM    4  C11 UNL     1      -0.825   8.704  13.345  1.00  0.00    -0.013 C 
HETATM    5  C12 UNL     1      -0.965  10.006  14.192  1.00  0.00     0.021 C 
HETATM    6  C13 UNL     1       0.631   8.488  12.861  1.00  0.00    -0.070 C 
HETATM    7  C14 UNL     1       1.663   9.268  13.224  1.00  0.00    -0.022 C 
HETATM    8  C15 UNL     1       3.100   9.003  12.916  1.00  0.00     0.034 C 
HETATM    9  C16 UNL     1       3.450   7.611  12.313  1.00  0.00     0.013 C 
HETATM   10  C17 UNL     1       4.895   7.667  11.683  1.00  0.00     0.018 C 
HETATM   11  C18 UNL     1       5.494   6.279  11.382  1.00  0.00     0.023 C 
HETATM   12  C19 UNL     1       5.893   8.352  12.653  1.00  0.00     0.023 C 
HETATM   13  C20 UNL     1       4.830   8.470  10.374  1.00  0.00     0.135 C 
HETATM   14  O2  UNL     1       5.718   9.263  10.051  1.00  0.00    -0.297 OA
HETATM   15  C21 UNL     1       3.691   8.184   9.414  1.00  0.00     0.080 C 
HETATM   16  C22 UNL     1       2.330   8.087  10.103  1.00  0.00     0.017 C 
HETATM   17  C23 UNL     1       2.314   7.144  11.343  1.00  0.00    -0.031 C 
HETATM   18  C24 UNL     1       2.490   5.691  10.835  1.00  0.00     0.016 C 
HETATM   19  C25 UNL     1       0.896   7.227  12.053  1.00  0.00     0.024 C 
HETATM   20  C26 UNL     1       0.554   6.057  12.998  1.00  0.00     0.010 C 
HETATM   21  C27 UNL     1      -0.928   6.118  13.386  1.00  0.00     0.011 C 
HETATM   22  C28 UNL     1      -1.342   7.423  14.119  1.00  0.00    -0.029 C 
HETATM   23  C29 UNL     1      -0.822   7.347  15.570  1.00  0.00     0.016 C 
ENDROOT
BRANCH   1  24
HETATM   24  C6  UNL     1      -3.814   6.478  14.572  1.00  0.00    -0.007 C 
HETATM   25  C7  UNL     1      -5.267   6.796  14.163  1.00  0.00     0.011 C 
BRANCH  24  26
HETATM   26  C5  UNL     1      -3.459   5.071  14.049  1.00  0.00     0.087 C 
BRANCH  26  27
HETATM   27  C4  UNL     1      -4.231   4.681  12.796  1.00  0.00     0.150 C 
HETATM   28  O1  UNL     1      -3.791   4.842  11.662  1.00  0.00    -0.293 OA
BRANCH  27  29
HETATM   29  C3  UNL     1      -5.598   4.132  13.023  1.00  0.00     0.063 C 
HETATM   30  C2  UNL     1      -6.110   3.058  12.392  1.00  0.00     0.015 C 
HETATM   31  C1  UNL     1      -5.407   2.170  11.412  1.00  0.00     0.055 C 
BRANCH  30  32
HETATM   32  C30 UNL     1      -7.510   2.735  12.751  1.00  0.00     0.171 C 
HETATM   33  O3  UNL     1      -8.364   3.526  13.113  1.00  0.00    -0.646 OA
BRANCH  32  34
HETATM   34  O4  UNL     1      -7.784   1.427  12.630  1.00  0.00    -0.773 OA
HETATM   35  H44 UNL     1      -8.730   1.358  12.874  1.00  0.00     0.167 HD
ENDBRANCH  32  34
ENDBRANCH  30  32
ENDBRANCH  27  29
ENDBRANCH  26  27
ENDBRANCH  24  26
ENDBRANCH   1  24
TORSDOF 6
ENDMDL
MODEL 2
REMARK minimizedAffinity -9.38798618
REMARK  6 active torsions:
REMARK  status: ('A' for Active; 'I' for Inactive)
REMARK    1  A    between atoms: C2_2  and  C30_32 
REMARK    2  A    between atoms: C3_3  and  C4_4 
REMARK    3  A    between atoms: C4_4  and  C5_6 
REMARK    4  A    between atoms: C5_6  and  C6_7 
REMARK    5  A    between atoms: C6_7  and  C8_9 
REMARK    6  A    between atoms: C30_32  and  O4_34 
ROOT
HETATM    1  C8  UNL     1      -8.957   6.340  14.873  1.00  0.00    -0.001 C 
HETATM    2  C9  UNL     1      -8.331   6.111  16.259  1.00  0.00     0.007 C 
HETATM    3  C10 UNL     1      -6.948   5.472  16.026  1.00  0.00     0.015 C 
HETATM    4  C11 UNL     1      -6.811   5.236  14.495  1.00  0.00    -0.013 C 
HETATM    5  C12 UNL     1      -7.378   3.808  14.229  1.00  0.00     0.021 C 
HETATM    6  C13 UNL     1      -5.363   5.386  13.966  1.00  0.00    -0.070 C 
HETATM    7  C14 UNL     1      -4.721   4.437  13.263  1.00  0.00    -0.022 C 
HETATM    8  C15 UNL     1      -3.395   4.600  12.597  1.00  0.00     0.034 C 
HETATM    9  C16 UNL     1      -2.808   6.041  12.530  1.00  0.00     0.013 C 
HETATM   10  C17 UNL     1      -1.271   5.959  12.183  1.00  0.00     0.018 C 
HETATM   11  C18 UNL     1      -0.664   7.303  11.738  1.00  0.00     0.023 C 
HETATM   12  C19 UNL     1      -1.022   4.977  11.009  1.00  0.00     0.023 C 
HETATM   13  C20 UNL     1      -0.513   5.463  13.426  1.00  0.00     0.135 C 
HETATM   14  O2  UNL     1       0.421   4.663  13.343  1.00  0.00    -0.297 OA
HETATM   15  C21 UNL     1      -0.866   6.071  14.770  1.00  0.00     0.080 C 
HETATM   16  C22 UNL     1      -2.372   6.171  15.012  1.00  0.00     0.017 C 
HETATM   17  C23 UNL     1      -3.159   6.826  13.837  1.00  0.00    -0.031 C 
HETATM   18  C24 UNL     1      -2.771   8.325  13.784  1.00  0.00     0.016 C 
HETATM   19  C25 UNL     1      -4.717   6.752  14.138  1.00  0.00     0.024 C 
HETATM   20  C26 UNL     1      -5.599   7.726  13.329  1.00  0.00     0.010 C 
HETATM   21  C27 UNL     1      -7.017   7.749  13.912  1.00  0.00     0.011 C 
HETATM   22  C28 UNL     1      -7.736   6.373  13.896  1.00  0.00    -0.029 C 
HETATM   23  C29 UNL     1      -8.185   6.081  12.449  1.00  0.00     0.016 C 
ENDROOT
BRANCH   1  24
HETATM   24  C6  UNL     1     -10.025   7.470  14.772  1.00  0.00    -0.007 C 
HETATM   25  C7  UNL     1      -9.329   8.833  14.957  1.00  0.00     0.011 C 
BRANCH  24  26
HETATM   26  C5  UNL     1     -10.844   7.515  13.466  1.00  0.00     0.087 C 
BRANCH  26  27
HETATM   27  C4  UNL     1     -12.311   7.158  13.661  1.00  0.00     0.150 C 
HETATM   28  O1  UNL     1     -12.685   6.217  14.356  1.00  0.00    -0.293 OA
BRANCH  27  29
HETATM   29  C3  UNL     1     -13.287   7.993  12.904  1.00  0.00     0.063 C 
HETATM   30  C2  UNL     1     -14.585   7.683  12.721  1.00  0.00     0.015 C 
HETATM   31  C1  UNL     1     -15.318   6.505  13.286  1.00  0.00     0.055 C 
BRANCH  30  32
HETATM   32  C30 UNL     1     -15.342   8.647  11.891  1.00  0.00     0.171 C 
HETATM   33  O3  UNL     1     -16.141   8.372  11.011  1.00  0.00    -0.646 OA
BRANCH  32  34
HETATM   34  O4  UNL     1     -15.074   9.923  12.208  1.00  0.00    -0.773 OA
HETATM   35  H44 UNL     1     -15.647  10.444  11.608  1.00  0.00     0.167 HD
ENDBRANCH  32  34
ENDBRANCH  30  32
ENDBRANCH  27  29
ENDBRANCH  26  27
ENDBRANCH  24  26
ENDBRANCH   1  24
TORSDOF 6
ENDMDL
MODEL 3
REMARK minimizedAffinity -9.20580006
REMARK  6 active torsions:
REMARK  status: ('A' for Active; 'I' for Inactive)
REMARK    1  A    between atoms: C2_2  and  C30_32 
REMARK    2  A    between atoms: C3_3  and  C4_4 
REMARK    3  A    between atoms: C4_4  and  C5_6 
REMARK    4  A    between atoms: C5_6  and  C6_7 
REMARK    5  A    between atoms: C6_7  and  C8_9 
REMARK    6  A    between atoms: C30_32  and  O4_34 
ROOT
HETATM    1  C8  UNL     1      -9.059   6.194  14.591  1.00  0.00    -0.001 C 
HETATM    2  C9  UNL     1      -8.489   6.023  16.010  1.00  0.00     0.007 C 
HETATM    3  C10 UNL     1      -7.086   5.404  15.858  1.00  0.00     0.015 C 
HETATM    4  C11 UNL     1      -6.879   5.120  14.343  1.00  0.00    -0.013 C 
HETATM    5  C12 UNL     1      -7.408   3.673  14.102  1.00  0.00     0.021 C 
HETATM    6  C13 UNL     1      -5.412   5.281  13.871  1.00  0.00    -0.070 C 
HETATM    7  C14 UNL     1      -4.723   4.322  13.229  1.00  0.00    -0.022 C 
HETATM    8  C15 UNL     1      -3.373   4.488  12.616  1.00  0.00     0.034 C 
HETATM    9  C16 UNL     1      -2.810   5.938  12.524  1.00  0.00     0.013 C 
HETATM   10  C17 UNL     1      -1.258   5.874  12.246  1.00  0.00     0.018 C 
HETATM   11  C18 UNL     1      -0.657   7.215  11.782  1.00  0.00     0.023 C 
HETATM   12  C19 UNL     1      -0.941   4.860  11.118  1.00  0.00     0.023 C 
HETATM   13  C20 UNL     1      -0.545   5.436  13.537  1.00  0.00     0.135 C 
HETATM   14  O2  UNL     1       0.406   4.652  13.521  1.00  0.00    -0.297 OA
HETATM   15  C21 UNL     1      -0.968   6.081  14.843  1.00  0.00     0.080 C 
HETATM   16  C22 UNL     1      -2.484   6.159  15.017  1.00  0.00     0.017 C 
HETATM   17  C23 UNL     1      -3.231   6.759  13.788  1.00  0.00    -0.031 C 
HETATM   18  C24 UNL     1      -2.869   8.262  13.700  1.00  0.00     0.016 C 
HETATM   19  C25 UNL     1      -4.799   6.665  14.024  1.00  0.00     0.024 C 
HETATM   20  C26 UNL     1      -5.663   7.593  13.146  1.00  0.00     0.010 C 
HETATM   21  C27 UNL     1      -7.105   7.608  13.667  1.00  0.00     0.011 C 
HETATM   22  C28 UNL     1      -7.797   6.218  13.667  1.00  0.00    -0.029 C 
HETATM   23  C29 UNL     1      -8.179   5.870  12.213  1.00  0.00     0.016 C 
ENDROOT
BRANCH   1  24
HETATM   24  C6  UNL     1     -10.142   7.298  14.406  1.00  0.00    -0.007 C 
HETATM   25  C7  UNL     1     -11.532   6.632  14.360  1.00  0.00     0.011 C 
BRANCH  24  26
HETATM   26  C5  UNL     1     -10.170   8.408  15.477  1.00  0.00     0.087 C 
BRANCH  26  27
HETATM   27  C4  UNL     1     -10.217   9.812  14.889  1.00  0.00     0.150 C 
HETATM   28  O1  UNL     1      -9.576  10.752  15.349  1.00  0.00    -0.293 OA
BRANCH  27  29
HETATM   29  C3  UNL     1     -11.144  10.000  13.737  1.00  0.00     0.063 C 
HETATM   30  C2  UNL     1     -12.474  10.179  13.842  1.00  0.00     0.015 C 
HETATM   31  C1  UNL     1     -13.270  10.299  15.106  1.00  0.00     0.055 C 
BRANCH  30  32
HETATM   32  C30 UNL     1     -13.190  10.294  12.551  1.00  0.00     0.171 C 
HETATM   33  O3  UNL     1     -14.351  10.634  12.396  1.00  0.00    -0.646 OA
BRANCH  32  34
HETATM   34  O4  UNL     1     -12.411   9.989  11.501  1.00  0.00    -0.773 OA
HETATM   35  H44 UNL     1     -12.994  10.124  10.725  1.00  0.00     0.167 HD
ENDBRANCH  32  34
ENDBRANCH  30  32
ENDBRANCH  27  29
ENDBRANCH  26  27
ENDBRANCH  24  26
ENDBRANCH   1  24
TORSDOF 6
ENDMDL
MODEL 4
REMARK minimizedAffinity -9.18472767
REMARK  6 active torsions:
REMARK  status: ('A' for Active; 'I' for Inactive)
REMARK    1  A    between atoms: C2_2  and  C30_32 
REMARK    2  A    between atoms: C3_3  and  C4_4 
REMARK    3  A    between atoms: C4_4  and  C5_6 
REMARK    4  A    between atoms: C5_6  and  C6_7 
REMARK    5  A    between atoms: C6_7  and  C8_9 
REMARK    6  A    between atoms: C30_32  and  O4_34 
ROOT
HETATM    1  C8  UNL     1       0.202   7.199  13.094  1.00  0.00    -0.001 C 
HETATM    2  C9  UNL     1       0.297   6.323  14.355  1.00  0.00     0.007 C 
HETATM    3  C10 UNL     1      -0.936   6.647  15.220  1.00  0.00     0.015 C 
HETATM    4  C11 UNL     1      -1.702   7.795  14.503  1.00  0.00    -0.013 C 
HETATM    5  C12 UNL     1      -1.111   9.124  15.067  1.00  0.00     0.021 C 
HETATM    6  C13 UNL     1      -3.240   7.729  14.682  1.00  0.00    -0.070 C 
HETATM    7  C14 UNL     1      -3.981   8.743  15.161  1.00  0.00    -0.022 C 
HETATM    8  C15 UNL     1      -5.473   8.784  15.198  1.00  0.00     0.034 C 
HETATM    9  C16 UNL     1      -6.231   7.661  14.430  1.00  0.00     0.013 C 
HETATM   10  C17 UNL     1      -7.732   7.625  14.915  1.00  0.00     0.018 C 
HETATM   11  C18 UNL     1      -8.662   6.816  13.990  1.00  0.00     0.023 C 
HETATM   12  C19 UNL     1      -8.330   9.055  14.964  1.00  0.00     0.023 C 
HETATM   13  C20 UNL     1      -7.779   7.008  16.323  1.00  0.00     0.135 C 
HETATM   14  O2  UNL     1      -8.526   7.446  17.201  1.00  0.00    -0.297 OA
HETATM   15  C21 UNL     1      -6.959   5.759  16.585  1.00  0.00     0.080 C 
HETATM   16  C22 UNL     1      -5.535   5.845  16.038  1.00  0.00     0.017 C 
HETATM   17  C23 UNL     1      -5.455   6.308  14.552  1.00  0.00    -0.031 C 
HETATM   18  C24 UNL     1      -6.040   5.176  13.671  1.00  0.00     0.016 C 
HETATM   19  C25 UNL     1      -3.933   6.491  14.136  1.00  0.00     0.024 C 
HETATM   20  C26 UNL     1      -3.654   6.502  12.619  1.00  0.00     0.010 C 
HETATM   21  C27 UNL     1      -2.145   6.401  12.367  1.00  0.00     0.011 C 
HETATM   22  C28 UNL     1      -1.316   7.559  12.986  1.00  0.00    -0.029 C 
HETATM   23  C29 UNL     1      -1.518   8.815  12.112  1.00  0.00     0.016 C 
ENDROOT
BRANCH   1  24
HETATM   24  C6  UNL     1       0.938   6.672  11.826  1.00  0.00    -0.007 C 
HETATM   25  C7  UNL     1      -0.060   5.869  10.967  1.00  0.00     0.011 C 
BRANCH  24  26
HETATM   26  C5  UNL     1       1.599   7.740  10.932  1.00  0.00     0.087 C 
BRANCH  26  27
HETATM   27  C4  UNL     1       3.098   7.533  10.753  1.00  0.00     0.150 C 
HETATM   28  O1  UNL     1       3.915   8.443  10.851  1.00  0.00    -0.293 OA
BRANCH  27  29
HETATM   29  C3  UNL     1       3.521   6.150  10.392  1.00  0.00     0.063 C 
HETATM   30  C2  UNL     1       3.291   5.562   9.203  1.00  0.00     0.015 C 
HETATM   31  C1  UNL     1       2.646   6.181   8.001  1.00  0.00     0.055 C 
BRANCH  30  32
HETATM   32  C30 UNL     1       3.766   4.163   9.100  1.00  0.00     0.171 C 
HETATM   33  O3  UNL     1       4.663   3.755   8.382  1.00  0.00    -0.646 OA
BRANCH  32  34
HETATM   34  O4  UNL     1       3.098   3.331   9.915  1.00  0.00    -0.773 OA
HETATM   35  H44 UNL     1       3.519   2.460   9.763  1.00  0.00     0.167 HD
ENDBRANCH  32  34
ENDBRANCH  30  32
ENDBRANCH  27  29
ENDBRANCH  26  27
ENDBRANCH  24  26
ENDBRANCH   1  24
TORSDOF 6
ENDMDL
MODEL 5
REMARK minimizedAffinity -9.01982021
REMARK  6 active torsions:
REMARK  status: ('A' for Active; 'I' for Inactive)
REMARK    1  A    between atoms: C2_2  and  C30_32 
REMARK    2  A    between atoms: C3_3  and  C4_4 
REMARK    3  A    between atoms: C4_4  and  C5_6 
REMARK    4  A    between atoms: C5_6  and  C6_7 
REMARK    5  A    between atoms: C6_7  and  C8_9 
REMARK    6  A    between atoms: C30_32  and  O4_34 
ROOT
HETATM    1  C8  UNL     1      -2.082   7.167  13.037  1.00  0.00    -0.001 C 
HETATM    2  C9  UNL     1      -2.052   8.387  12.099  1.00  0.00     0.007 C 
HETATM    3  C10 UNL     1      -0.625   8.966  12.162  1.00  0.00     0.015 C 
HETATM    4  C11 UNL     1       0.153   8.136  13.223  1.00  0.00    -0.013 C 
HETATM    5  C12 UNL     1      -0.069   8.863  14.584  1.00  0.00     0.021 C 
HETATM    6  C13 UNL     1       1.659   7.966  12.902  1.00  0.00    -0.070 C 
HETATM    7  C14 UNL     1       2.647   8.302  13.749  1.00  0.00    -0.022 C 
HETATM    8  C15 UNL     1       4.097   8.007  13.550  1.00  0.00     0.034 C 
HETATM    9  C16 UNL     1       4.471   7.051  12.379  1.00  0.00     0.013 C 
HETATM   10  C17 UNL     1       6.013   7.187  12.072  1.00  0.00     0.018 C 
HETATM   11  C18 UNL     1       6.571   6.051  11.193  1.00  0.00     0.023 C 
HETATM   12  C19 UNL     1       6.842   7.151  13.381  1.00  0.00     0.023 C 
HETATM   13  C20 UNL     1       6.255   8.527  11.356  1.00  0.00     0.135 C 
HETATM   14  O2  UNL     1       7.235   9.231  11.607  1.00  0.00    -0.297 OA
HETATM   15  C21 UNL     1       5.309   8.922  10.238  1.00  0.00     0.080 C 
HETATM   16  C22 UNL     1       3.837   8.709  10.586  1.00  0.00     0.017 C 
HETATM   17  C23 UNL     1       3.521   7.296  11.161  1.00  0.00    -0.031 C 
HETATM   18  C24 UNL     1       3.702   6.268  10.016  1.00  0.00     0.016 C 
HETATM   19  C25 UNL     1       1.999   7.236  11.611  1.00  0.00     0.024 C 
HETATM   20  C26 UNL     1       1.407   5.820  11.775  1.00  0.00     0.010 C 
HETATM   21  C27 UNL     1      -0.116   5.909  11.932  1.00  0.00     0.011 C 
HETATM   22  C28 UNL     1      -0.583   6.736  13.159  1.00  0.00    -0.029 C 
HETATM   23  C29 UNL     1      -0.363   5.883  14.427  1.00  0.00     0.016 C 
ENDROOT
BRANCH   1  24
HETATM   24  C6  UNL     1      -3.150   6.078  12.725  1.00  0.00    -0.007 C 
HETATM   25  C7  UNL     1      -2.469   4.906  11.991  1.00  0.00     0.011 C 
BRANCH  24  26
HETATM   26  C5  UNL     1      -3.917   5.512  13.937  1.00  0.00     0.087 C 
BRANCH  26  27
HETATM   27  C4  UNL     1      -5.063   6.404  14.396  1.00  0.00     0.150 C 
HETATM   28  O1  UNL     1      -4.922   7.306  15.216  1.00  0.00    -0.293 OA
BRANCH  27  29
HETATM   29  C3  UNL     1      -6.402   6.082  13.826  1.00  0.00     0.063 C 
HETATM   30  C2  UNL     1      -6.728   4.914  13.241  1.00  0.00     0.015 C 
HETATM   31  C1  UNL     1      -5.860   3.700  13.110  1.00  0.00     0.055 C 
BRANCH  30  32
HETATM   32  C30 UNL     1      -8.108   4.849  12.707  1.00  0.00     0.171 C 
HETATM   33  O3  UNL     1      -8.673   5.715  12.061  1.00  0.00    -0.646 OA
BRANCH  32  34
HETATM   34  O4  UNL     1      -8.719   3.690  12.996  1.00  0.00    -0.773 OA
HETATM   35  H44 UNL     1      -9.599   3.773  12.574  1.00  0.00     0.167 HD
ENDBRANCH  32  34
ENDBRANCH  30  32
ENDBRANCH  27  29
ENDBRANCH  26  27
ENDBRANCH  24  26
ENDBRANCH   1  24
TORSDOF 6
ENDMDL
MODEL 6
REMARK minimizedAffinity -8.76068783
REMARK  6 active torsions:
REMARK  status: ('A' for Active; 'I' for Inactive)
REMARK    1  A    between atoms: C2_2  and  C30_32 
REMARK    2  A    between atoms: C3_3  and  C4_4 
REMARK    3  A    between atoms: C4_4  and  C5_6 
REMARK    4  A    between atoms: C5_6  and  C6_7 
REMARK    5  A    between atoms: C6_7  and  C8_9 
REMARK    6  A    between atoms: C30_32  and  O4_34 
ROOT
HETATM    1  C8  UNL     1      -6.481   4.939  14.264  1.00  0.00    -0.001 C 
HETATM    2  C9  UNL     1      -7.307   4.329  15.411  1.00  0.00     0.007 C 
HETATM    3  C10 UNL     1      -8.240   5.439  15.931  1.00  0.00     0.015 C 
HETATM    4  C11 UNL     1      -7.884   6.734  15.147  1.00  0.00    -0.013 C 
HETATM    5  C12 UNL     1      -6.775   7.448  15.979  1.00  0.00     0.021 C 
HETATM    6  C13 UNL     1      -9.096   7.663  14.890  1.00  0.00    -0.070 C 
HETATM    7  C14 UNL     1      -9.134   8.960  15.243  1.00  0.00    -0.022 C 
HETATM    8  C15 UNL     1     -10.208   9.928  14.873  1.00  0.00     0.034 C 
HETATM    9  C16 UNL     1     -11.253   9.457  13.820  1.00  0.00     0.013 C 
HETATM   10  C17 UNL     1     -12.505  10.418  13.867  1.00  0.00     0.018 C 
HETATM   11  C18 UNL     1     -13.437  10.281  12.647  1.00  0.00     0.023 C 
HETATM   12  C19 UNL     1     -12.059  11.903  13.889  1.00  0.00     0.023 C 
HETATM   13  C20 UNL     1     -13.311  10.112  15.140  1.00  0.00     0.135 C 
HETATM   14  O2  UNL     1     -13.823  11.006  15.818  1.00  0.00    -0.297 OA
HETATM   15  C21 UNL     1     -13.566   8.659  15.494  1.00  0.00     0.080 C 
HETATM   16  C22 UNL     1     -12.323   7.779  15.370  1.00  0.00     0.017 C 
HETATM   17  C23 UNL     1     -11.568   7.937  14.016  1.00  0.00    -0.031 C 
HETATM   18  C24 UNL     1     -12.463   7.339  12.902  1.00  0.00     0.016 C 
HETATM   19  C25 UNL     1     -10.228   7.085  14.055  1.00  0.00     0.024 C 
HETATM   20  C26 UNL     1      -9.602   6.766  12.681  1.00  0.00     0.010 C 
HETATM   21  C27 UNL     1      -8.495   5.718  12.846  1.00  0.00     0.011 C 
HETATM   22  C28 UNL     1      -7.334   6.157  13.779  1.00  0.00    -0.029 C 
HETATM   23  C29 UNL     1      -6.455   7.167  13.011  1.00  0.00     0.016 C 
ENDROOT
BRANCH   1  24
HETATM   24  C6  UNL     1      -5.927   3.944  13.202  1.00  0.00    -0.007 C 
HETATM   25  C7  UNL     1      -7.089   3.472  12.305  1.00  0.00     0.011 C 
BRANCH  24  26
HETATM   26  C5  UNL     1      -4.799   4.477  12.295  1.00  0.00     0.087 C 
BRANCH  26  27
HETATM   27  C4  UNL     1      -3.417   4.368  12.925  1.00  0.00     0.150 C 
HETATM   28  O1  UNL     1      -3.147   4.828  14.031  1.00  0.00    -0.293 OA
BRANCH  27  29
HETATM   29  C3  UNL     1      -2.375   3.708  12.088  1.00  0.00     0.063 C 
HETATM   30  C2  UNL     1      -2.446   2.446  11.626  1.00  0.00     0.015 C 
HETATM   31  C1  UNL     1      -3.588   1.491  11.788  1.00  0.00     0.055 C 
BRANCH  30  32
HETATM   32  C30 UNL     1      -1.262   1.999  10.856  1.00  0.00     0.171 C 
HETATM   33  O3  UNL     1      -1.274   1.339   9.831  1.00  0.00    -0.646 OA
BRANCH  32  34
HETATM   34  O4  UNL     1      -0.107   2.410  11.402  1.00  0.00    -0.773 OA
HETATM   35  H44 UNL     1       0.580   2.068  10.793  1.00  0.00     0.167 HD
ENDBRANCH  32  34
ENDBRANCH  30  32
ENDBRANCH  27  29
ENDBRANCH  26  27
ENDBRANCH  24  26
ENDBRANCH   1  24
TORSDOF 6
ENDMDL
MODEL 7
REMARK minimizedAffinity -8.75608253
REMARK  6 active torsions:
REMARK  status: ('A' for Active; 'I' for Inactive)
REMARK    1  A    between atoms: C2_2  and  C30_32 
REMARK    2  A    between atoms: C3_3  and  C4_4 
REMARK    3  A    between atoms: C4_4  and  C5_6 
REMARK    4  A    between atoms: C5_6  and  C6_7 
REMARK    5  A    between atoms: C6_7  and  C8_9 
REMARK    6  A    between atoms: C30_32  and  O4_34 
ROOT
HETATM    1  C8  UNL     1      -1.312   6.820  12.940  1.00  0.00    -0.001 C 
HETATM    2  C9  UNL     1      -0.672   5.797  13.895  1.00  0.00     0.007 C 
HETATM    3  C10 UNL     1       0.833   5.760  13.569  1.00  0.00     0.015 C 
HETATM    4  C11 UNL     1       1.054   6.694  12.346  1.00  0.00    -0.013 C 
HETATM    5  C12 UNL     1       0.884   5.796  11.082  1.00  0.00     0.021 C 
HETATM    6  C13 UNL     1       2.422   7.421  12.352  1.00  0.00    -0.070 C 
HETATM    7  C14 UNL     1       3.302   7.370  11.337  1.00  0.00    -0.022 C 
HETATM    8  C15 UNL     1       4.551   8.180  11.231  1.00  0.00     0.034 C 
HETATM    9  C16 UNL     1       4.743   9.325  12.269  1.00  0.00     0.013 C 
HETATM   10  C17 UNL     1       6.254   9.779  12.267  1.00  0.00     0.018 C 
HETATM   11  C18 UNL     1       6.498  11.126  12.975  1.00  0.00     0.023 C 
HETATM   12  C19 UNL     1       6.771   9.967  10.817  1.00  0.00     0.023 C 
HETATM   13  C20 UNL     1       7.094   8.696  12.966  1.00  0.00     0.135 C 
HETATM   14  O2  UNL     1       8.205   8.363  12.550  1.00  0.00    -0.297 OA
HETATM   15  C21 UNL     1       6.570   8.112  14.265  1.00  0.00     0.080 C 
HETATM   16  C22 UNL     1       5.086   7.750  14.210  1.00  0.00     0.017 C 
HETATM   17  C23 UNL     1       4.177   8.889  13.661  1.00  0.00    -0.031 C 
HETATM   18  C24 UNL     1       4.162  10.030  14.710  1.00  0.00     0.016 C 
HETATM   19  C25 UNL     1       2.687   8.357  13.522  1.00  0.00     0.024 C 
HETATM   20  C26 UNL     1       1.596   9.444  13.430  1.00  0.00     0.010 C 
HETATM   21  C27 UNL     1       0.211   8.805  13.585  1.00  0.00     0.011 C 
HETATM   22  C28 UNL     1      -0.124   7.740  12.505  1.00  0.00    -0.029 C 
HETATM   23  C29 UNL     1      -0.456   8.476  11.190  1.00  0.00     0.016 C 
ENDROOT
BRANCH   1  24
HETATM   24  C6  UNL     1      -2.635   7.486  13.421  1.00  0.00    -0.007 C 
HETATM   25  C7  UNL     1      -2.665   8.948  12.934  1.00  0.00     0.011 C 
BRANCH  24  26
HETATM   26  C5  UNL     1      -3.942   6.798  12.976  1.00  0.00     0.087 C 
BRANCH  26  27
HETATM   27  C4  UNL     1      -4.742   6.215  14.133  1.00  0.00     0.150 C 
HETATM   28  O1  UNL     1      -4.261   6.015  15.245  1.00  0.00    -0.293 OA
BRANCH  27  29
HETATM   29  C3  UNL     1      -6.151   5.841  13.822  1.00  0.00     0.063 C 
HETATM   30  C2  UNL     1      -6.524   4.726  13.166  1.00  0.00     0.015 C 
HETATM   31  C1  UNL     1      -5.631   3.622  12.688  1.00  0.00     0.055 C 
BRANCH  30  32
HETATM   32  C30 UNL     1      -7.981   4.600  12.933  1.00  0.00     0.171 C 
HETATM   33  O3  UNL     1      -8.696   5.411  12.370  1.00  0.00    -0.646 OA
BRANCH  32  34
HETATM   34  O4  UNL     1      -8.480   3.449  13.410  1.00  0.00    -0.773 OA
HETATM   35  H44 UNL     1      -9.431   3.486  13.175  1.00  0.00     0.167 HD
ENDBRANCH  32  34
ENDBRANCH  30  32
ENDBRANCH  27  29
ENDBRANCH  26  27
ENDBRANCH  24  26
ENDBRANCH   1  24
TORSDOF 6
ENDMDL
MODEL 8
REMARK minimizedAffinity -8.66258335
REMARK  6 active torsions:
REMARK  status: ('A' for Active; 'I' for Inactive)
REMARK    1  A    between atoms: C2_2  and  C30_32 
REMARK    2  A    between atoms: C3_3  and  C4_4 
REMARK    3  A    between atoms: C4_4  and  C5_6 
REMARK    4  A    between atoms: C5_6  and  C6_7 
REMARK    5  A    between atoms: C6_7  and  C8_9 
REMARK    6  A    between atoms: C30_32  and  O4_34 
ROOT
HETATM    1  C8  UNL     1      -4.472   7.833  14.875  1.00  0.00    -0.001 C 
HETATM    2  C9  UNL     1      -4.983   8.258  13.487  1.00  0.00     0.007 C 
HETATM    3  C10 UNL     1      -3.758   8.741  12.687  1.00  0.00     0.015 C 
HETATM    4  C11 UNL     1      -2.540   8.692  13.652  1.00  0.00    -0.013 C 
HETATM    5  C12 UNL     1      -2.483  10.088  14.345  1.00  0.00     0.021 C 
HETATM    6  C13 UNL     1      -1.202   8.344  12.952  1.00  0.00    -0.070 C 
HETATM    7  C14 UNL     1      -0.096   9.103  13.033  1.00  0.00    -0.022 C 
HETATM    8  C15 UNL     1       1.253   8.728  12.515  1.00  0.00     0.034 C 
HETATM    9  C16 UNL     1       1.443   7.258  12.035  1.00  0.00     0.013 C 
HETATM   10  C17 UNL     1       2.755   7.164  11.163  1.00  0.00     0.018 C 
HETATM   11  C18 UNL     1       3.243   5.721  10.933  1.00  0.00     0.023 C 
HETATM   12  C19 UNL     1       3.931   7.901  11.853  1.00  0.00     0.023 C 
HETATM   13  C20 UNL     1       2.483   7.815   9.796  1.00  0.00     0.135 C 
HETATM   14  O2  UNL     1       3.324   8.517   9.230  1.00  0.00    -0.297 OA
HETATM   15  C21 UNL     1       1.182   7.482   9.091  1.00  0.00     0.080 C 
HETATM   16  C22 UNL     1      -0.037   7.538  10.011  1.00  0.00     0.017 C 
HETATM   17  C23 UNL     1       0.138   6.746  11.341  1.00  0.00    -0.031 C 
HETATM   18  C24 UNL     1       0.173   5.237  10.992  1.00  0.00     0.016 C 
HETATM   19  C25 UNL     1      -1.127   6.986  12.271  1.00  0.00     0.024 C 
HETATM   20  C26 UNL     1      -1.332   5.952  13.397  1.00  0.00     0.010 C 
HETATM   21  C27 UNL     1      -2.718   6.137  14.026  1.00  0.00     0.011 C 
HETATM   22  C28 UNL     1      -2.952   7.537  14.654  1.00  0.00    -0.029 C 
HETATM   23  C29 UNL     1      -2.184   7.600  15.991  1.00  0.00     0.016 C 
ENDROOT
BRANCH   1  24
HETATM   24  C6  UNL     1      -5.333   6.785  15.641  1.00  0.00    -0.007 C 
HETATM   25  C7  UNL     1      -6.753   7.354  15.839  1.00  0.00     0.011 C 
BRANCH  24  26
HETATM   26  C5  UNL     1      -5.454   5.394  14.985  1.00  0.00     0.087 C 
BRANCH  26  27
HETATM   27  C4  UNL     1      -6.207   5.416  13.662  1.00  0.00     0.150 C 
HETATM   28  O1  UNL     1      -7.344   5.862  13.545  1.00  0.00    -0.293 OA
BRANCH  27  29
HETATM   29  C3  UNL     1      -5.496   4.802  12.503  1.00  0.00     0.063 C 
HETATM   30  C2  UNL     1      -5.741   3.572  12.015  1.00  0.00     0.015 C 
HETATM   31  C1  UNL     1      -6.800   2.616  12.472  1.00  0.00     0.055 C 
BRANCH  30  32
HETATM   32  C30 UNL     1      -4.870   3.165  10.888  1.00  0.00     0.171 C 
HETATM   33  O3  UNL     1      -3.657   3.278  10.836  1.00  0.00    -0.646 OA
BRANCH  32  34
HETATM   34  O4  UNL     1      -5.560   2.621   9.874  1.00  0.00    -0.773 OA
HETATM   35  H44 UNL     1      -4.872   2.383   9.218  1.00  0.00     0.167 HD
ENDBRANCH  32  34
ENDBRANCH  30  32
ENDBRANCH  27  29
ENDBRANCH  26  27
ENDBRANCH  24  26
ENDBRANCH   1  24
TORSDOF 6
ENDMDL
MODEL 9
REMARK minimizedAffinity -8.61209583
REMARK  6 active torsions:
REMARK  status: ('A' for Active; 'I' for Inactive)
REMARK    1  A    between atoms: C2_2  and  C30_32 
REMARK    2  A    between atoms: C3_3  and  C4_4 
REMARK    3  A    between atoms: C4_4  and  C5_6 
REMARK    4  A    between atoms: C5_6  and  C6_7 
REMARK    5  A    between atoms: C6_7  and  C8_9 
REMARK    6  A    between atoms: C30_32  and  O4_34 
ROOT
HETATM    1  C8  UNL     1       0.332   8.147  13.792  1.00  0.00    -0.001 C 
HETATM    2  C9  UNL     1       0.399   7.122  14.939  1.00  0.00     0.007 C 
HETATM    3  C10 UNL     1      -0.925   7.237  15.720  1.00  0.00     0.015 C 
HETATM    4  C11 UNL     1      -1.726   8.407  15.083  1.00  0.00    -0.013 C 
HETATM    5  C12 UNL     1      -1.300   9.691  15.859  1.00  0.00     0.021 C 
HETATM    6  C13 UNL     1      -3.261   8.203  15.111  1.00  0.00    -0.070 C 
HETATM    7  C14 UNL     1      -4.124   9.086  15.641  1.00  0.00    -0.022 C 
HETATM    8  C15 UNL     1      -5.612   9.008  15.546  1.00  0.00     0.034 C 
HETATM    9  C16 UNL     1      -6.205   7.942  14.578  1.00  0.00     0.013 C 
HETATM   10  C17 UNL     1      -7.732   7.729  14.914  1.00  0.00     0.018 C 
HETATM   11  C18 UNL     1      -8.509   6.980  13.814  1.00  0.00     0.023 C 
HETATM   12  C19 UNL     1      -8.454   9.091  15.085  1.00  0.00     0.023 C 
HETATM   13  C20 UNL     1      -7.840   6.931  16.224  1.00  0.00     0.135 C 
HETATM   14  O2  UNL     1      -8.691   7.192  17.077  1.00  0.00    -0.297 OA
HETATM   15  C21 UNL     1      -6.939   5.725  16.404  1.00  0.00     0.080 C 
HETATM   16  C22 UNL     1      -5.487   5.989  16.005  1.00  0.00     0.017 C 
HETATM   17  C23 UNL     1      -5.327   6.647  14.602  1.00  0.00    -0.031 C 
HETATM   18  C24 UNL     1      -5.738   5.599  13.537  1.00  0.00     0.016 C 
HETATM   19  C25 UNL     1      -3.798   6.998  14.353  1.00  0.00     0.024 C 
HETATM   20  C26 UNL     1      -3.398   7.229  12.881  1.00  0.00     0.010 C 
HETATM   21  C27 UNL     1      -1.870   7.276  12.759  1.00  0.00     0.011 C 
HETATM   22  C28 UNL     1      -1.198   8.402  13.590  1.00  0.00    -0.029 C 
HETATM   23  C29 UNL     1      -1.436   9.744  12.865  1.00  0.00     0.016 C 
ENDROOT
BRANCH   1  24
HETATM   24  C6  UNL     1       1.211   7.848  12.542  1.00  0.00    -0.007 C 
HETATM   25  C7  UNL     1       2.542   8.614  12.672  1.00  0.00     0.011 C 
BRANCH  24  26
HETATM   26  C5  UNL     1       1.530   6.362  12.275  1.00  0.00     0.087 C 
BRANCH  26  27
HETATM   27  C4  UNL     1       1.126   5.900  10.882  1.00  0.00     0.150 C 
HETATM   28  O1  UNL     1       0.277   5.035  10.683  1.00  0.00    -0.293 OA
BRANCH  27  29
HETATM   29  C3  UNL     1       1.870   6.526   9.751  1.00  0.00     0.063 C 
HETATM   30  C2  UNL     1       1.396   7.519   8.976  1.00  0.00     0.015 C 
HETATM   31  C1  UNL     1       0.088   8.234   9.127  1.00  0.00     0.055 C 
BRANCH  30  32
HETATM   32  C30 UNL     1       2.303   7.941   7.884  1.00  0.00     0.171 C 
HETATM   33  O3  UNL     1       2.116   7.786   6.689  1.00  0.00    -0.646 OA
BRANCH  32  34
HETATM   34  O4  UNL     1       3.406   8.554   8.339  1.00  0.00    -0.773 OA
HETATM   35  H44 UNL     1       3.898   8.794   7.526  1.00  0.00     0.167 HD
ENDBRANCH  32  34
ENDBRANCH  30  32
ENDBRANCH  27  29
ENDBRANCH  26  27
ENDBRANCH  24  26
ENDBRANCH   1  24
TORSDOF 6
ENDMDL
