MODEL 1
REMARK minimizedAffinity -8.03749466
REMARK CNNscore 0.620087028
REMARK CNNaffinity 6.62861967
REMARK  12 active torsions:
REMARK  status: ('A' for Active; 'I' for Inactive)
REMARK    1  A    between atoms: C3_3  and  O1_4 
REMARK    2  A    between atoms: N1_14  and  O2_16 
REMARK    3  A    between atoms: O2_16  and  C13_17 
REMARK    4  A    between atoms: C13_17  and  C14_18 
REMARK       I    between atoms: C14_18  and  N2_20 
REMARK    5  A    between atoms: N2_20  and  C15_21 
REMARK    6  A    between atoms: C15_21  and  C16_22 
REMARK    7  A    between atoms: C15_21  and  C23_33 
REMARK       I    between atoms: C16_22  and  N3_24 
REMARK    8  A    between atoms: N3_24  and  C17_25 
REMARK    9  A    between atoms: C17_25  and  C18_26 
REMARK   10  A    between atoms: C17_25  and  C19_29 
REMARK   11  A    between atoms: C18_26  and  O6_28 
REMARK   12  A    between atoms: C19_29  and  C21_31 
ROOT
HETATM    1  C1  UNL     1      -2.829   5.303  12.500  1.00  0.00     0.015 C 
HETATM    2  C2  UNL     1      -3.149   6.311  13.071  1.00  0.00    -0.078 C 
HETATM    3  C3  UNL     1      -3.546   7.560  13.750  1.00  0.00     0.128 C 
HETATM    4  C4  UNL     1      -4.927   8.031  13.251  1.00  0.00     0.052 C 
HETATM    5  C5  UNL     1      -5.610   8.738  14.425  1.00  0.00     0.010 C 
HETATM    6  C6  UNL     1      -4.679   8.613  15.640  1.00  0.00     0.002 C 
HETATM    7  C7  UNL     1      -4.055   9.952  16.116  1.00  0.00    -0.004 C 
HETATM    8  C8  UNL     1      -3.512  10.916  15.043  1.00  0.00     0.010 C 
HETATM    9  C9  UNL     1      -3.122  12.258  15.658  1.00  0.00     0.035 C 
HETATM   10  C10 UNL     1      -2.134  12.109  16.790  1.00  0.00    -0.069 C 
HETATM   11  C11 UNL     1      -1.068  12.927  16.858  1.00  0.00     0.030 C 
HETATM   12  C12 UNL     1      -0.140  12.923  18.020  1.00  0.00     0.032 C 
HETATM   13  N1  UNL     1       0.903  13.703  17.962  1.00  0.00    -0.271 N 
ATOM     14  H1  UNL     1       1.127  14.301  17.167  1.00  0.00     0.194 HD
HETATM   15  C26 UNL     1      -0.503  12.055  19.210  1.00  0.00     0.060 C 
HETATM   16  C27 UNL     1      -1.190  10.784  18.722  1.00  0.00     0.020 C 
HETATM   17  C28 UNL     1      -2.447  11.045  17.845  1.00  0.00    -0.016 C 
HETATM   18  C29 UNL     1      -3.563  11.611  18.763  1.00  0.00     0.020 C 
HETATM   19  C30 UNL     1      -2.970   9.690  17.197  1.00  0.00     0.002 C 
HETATM   20  C31 UNL     1      -1.881   8.783  16.583  1.00  0.00     0.007 C 
HETATM   21  C32 UNL     1      -2.426   7.431  16.113  1.00  0.00     0.014 C 
HETATM   22  C33 UNL     1      -3.733   7.431  15.295  1.00  0.00     0.003 C 
HETATM   23  C34 UNL     1      -4.484   6.105  15.640  1.00  0.00     0.020 C 
ENDROOT
BRANCH   3  24
HETATM   24  O1  UNL     1      -2.543   8.517  13.436  1.00  0.00    -0.377 OA
HETATM   25  H2  UNL     1      -2.929   9.186  12.838  1.00  0.00     0.211 HD
ENDBRANCH   3  24
BRANCH  13  26
HETATM   26  O2  UNL     1       1.678  13.617  19.127  1.00  0.00    -0.271 OA
BRANCH  26  27
HETATM   27  C13 UNL     1       3.034  13.371  18.760  1.00  0.00     0.303 C 
BRANCH  27  28
HETATM   28  C14 UNL     1       3.591  12.188  19.550  1.00  0.00     0.244 C 
HETATM   29  O3  UNL     1       3.537  11.033  19.131  1.00  0.00    -0.271 OA
HETATM   30  N2  UNL     1       4.189  12.524  20.750  1.00  0.00    -0.346 N 
HETATM   31  H16 UNL     1       4.487  13.495  20.821  1.00  0.00     0.163 HD
BRANCH  30  32
HETATM   32  C15 UNL     1       4.985  11.542  21.474  1.00  0.00     0.180 C 
BRANCH  32  33
HETATM   33  C16 UNL     1       6.390  12.140  21.720  1.00  0.00     0.241 C 
HETATM   34  O4  UNL     1       7.267  12.144  20.857  1.00  0.00    -0.271 OA
HETATM   35  N3  UNL     1       6.568  12.701  22.969  1.00  0.00    -0.344 N 
HETATM   36  H18 UNL     1       5.727  12.955  23.476  1.00  0.00     0.163 HD
BRANCH  35  37
HETATM   37  C17 UNL     1       7.784  13.465  23.278  1.00  0.00     0.186 C 
BRANCH  37  38
HETATM   38  C18 UNL     1       8.979  12.564  22.952  1.00  0.00     0.163 C 
HETATM   39  O5  UNL     1       9.146  11.415  23.339  1.00  0.00    -0.648 OA
BRANCH  38  40
HETATM   40  O6  UNL     1       9.880  13.146  22.138  1.00  0.00    -0.775 OA
HETATM   41  H20 UNL     1      10.590  12.479  22.035  1.00  0.00     0.167 HD
ENDBRANCH  38  40
ENDBRANCH  37  38
BRANCH  37  42
HETATM   42  C19 UNL     1       7.801  14.813  22.520  1.00  0.00     0.014 C 
HETATM   43  C20 UNL     1       8.798  14.829  21.350  1.00  0.00     0.012 C 
BRANCH  42  44
HETATM   44  C21 UNL     1       8.076  16.036  23.420  1.00  0.00     0.002 C 
HETATM   45  C22 UNL     1       8.526  17.275  22.654  1.00  0.00     0.005 C 
ENDBRANCH  42  44
ENDBRANCH  37  42
ENDBRANCH  35  37
ENDBRANCH  32  33
BRANCH  32  46
HETATM   46  C23 UNL     1       4.323  11.090  22.797  1.00  0.00     0.009 C 
HETATM   47  C24 UNL     1       3.071  11.899  23.154  1.00  0.00     0.012 C 
HETATM   48  C25 UNL     1       3.978   9.598  22.753  1.00  0.00     0.012 C 
ENDBRANCH  32  46
ENDBRANCH  30  32
ENDBRANCH  27  28
ENDBRANCH  26  27
ENDBRANCH  13  26
TORSDOF 12
ENDMDL
MODEL 2
REMARK minimizedAffinity -8.01245403
REMARK CNNscore 0.330320418
REMARK CNNaffinity 6.97513437
REMARK  12 active torsions:
REMARK  status: ('A' for Active; 'I' for Inactive)
REMARK    1  A    between atoms: C3_3  and  O1_4 
REMARK    2  A    between atoms: N1_14  and  O2_16 
REMARK    3  A    between atoms: O2_16  and  C13_17 
REMARK    4  A    between atoms: C13_17  and  C14_18 
REMARK       I    between atoms: C14_18  and  N2_20 
REMARK    5  A    between atoms: N2_20  and  C15_21 
REMARK    6  A    between atoms: C15_21  and  C16_22 
REMARK    7  A    between atoms: C15_21  and  C23_33 
REMARK       I    between atoms: C16_22  and  N3_24 
REMARK    8  A    between atoms: N3_24  and  C17_25 
REMARK    9  A    between atoms: C17_25  and  C18_26 
REMARK   10  A    between atoms: C17_25  and  C19_29 
REMARK   11  A    between atoms: C18_26  and  O6_28 
REMARK   12  A    between atoms: C19_29  and  C21_31 
ROOT
HETATM    1  C1  UNL     1      -0.932  10.153  13.652  1.00  0.00     0.015 C 
HETATM    2  C2  UNL     1      -1.677   9.214  13.745  1.00  0.00    -0.078 C 
HETATM    3  C3  UNL     1      -2.581   8.051  13.838  1.00  0.00     0.128 C 
HETATM    4  C4  UNL     1      -1.799   6.739  13.634  1.00  0.00     0.052 C 
HETATM    5  C5  UNL     1      -2.493   5.668  14.480  1.00  0.00     0.010 C 
HETATM    6  C6  UNL     1      -3.629   6.356  15.250  1.00  0.00     0.002 C 
HETATM    7  C7  UNL     1      -5.056   5.930  14.815  1.00  0.00    -0.004 C 
HETATM    8  C8  UNL     1      -5.344   5.810  13.305  1.00  0.00     0.010 C 
HETATM    9  C9  UNL     1      -6.718   5.192  13.055  1.00  0.00     0.035 C 
HETATM   10  C10 UNL     1      -7.825   5.947  13.751  1.00  0.00    -0.069 C 
HETATM   11  C11 UNL     1      -8.962   6.225  13.088  1.00  0.00     0.030 C 
HETATM   12  C12 UNL     1     -10.140   6.837  13.759  1.00  0.00     0.032 C 
HETATM   13  N1  UNL     1     -11.170   7.134  13.017  1.00  0.00    -0.271 N 
ATOM     14  H1  UNL     1     -11.212   6.984  12.009  1.00  0.00     0.194 HD
HETATM   15  C26 UNL     1     -10.078   7.023  15.263  1.00  0.00     0.060 C 
HETATM   16  C27 UNL     1      -8.649   7.359  15.676  1.00  0.00     0.020 C 
HETATM   17  C28 UNL     1      -7.598   6.307  15.222  1.00  0.00    -0.016 C 
HETATM   18  C29 UNL     1      -7.817   5.019  16.058  1.00  0.00     0.020 C 
HETATM   19  C30 UNL     1      -6.123   6.834  15.491  1.00  0.00     0.002 C 
HETATM   20  C31 UNL     1      -5.853   8.298  15.075  1.00  0.00     0.007 C 
HETATM   21  C32 UNL     1      -4.467   8.793  15.497  1.00  0.00     0.014 C 
HETATM   22  C33 UNL     1      -3.264   7.865  15.231  1.00  0.00     0.003 C 
HETATM   23  C34 UNL     1      -2.232   8.120  16.376  1.00  0.00     0.020 C 
ENDROOT
BRANCH   3  24
HETATM   24  O1  UNL     1      -3.552   8.224  12.814  1.00  0.00    -0.377 OA
HETATM   25  H2  UNL     1      -3.399   7.549  12.125  1.00  0.00     0.211 HD
ENDBRANCH   3  24
BRANCH  13  26
HETATM   26  O2  UNL     1     -12.213   7.683  13.776  1.00  0.00    -0.271 OA
BRANCH  26  27
HETATM   27  C13 UNL     1     -13.113   6.640  14.145  1.00  0.00     0.303 C 
BRANCH  27  28
HETATM   28  C14 UNL     1     -14.373   6.698  13.285  1.00  0.00     0.244 C 
HETATM   29  O3  UNL     1     -14.367   7.132  12.134  1.00  0.00    -0.271 OA
HETATM   30  N2  UNL     1     -15.509   6.192  13.890  1.00  0.00    -0.346 N 
HETATM   31  H16 UNL     1     -15.332   5.557  14.666  1.00  0.00     0.163 HD
BRANCH  30  32
HETATM   32  C15 UNL     1     -16.711   5.945  13.104  1.00  0.00     0.180 C 
BRANCH  32  33
HETATM   33  C16 UNL     1     -17.136   4.472  13.315  1.00  0.00     0.241 C 
HETATM   34  O4  UNL     1     -17.892   3.885  12.543  1.00  0.00    -0.271 OA
HETATM   35  N3  UNL     1     -16.569   3.860  14.415  1.00  0.00    -0.344 N 
HETATM   36  H18 UNL     1     -15.726   4.285  14.787  1.00  0.00     0.163 HD
BRANCH  35  37
HETATM   37  C17 UNL     1     -16.735   2.417  14.636  1.00  0.00     0.186 C 
BRANCH  37  38
HETATM   38  C18 UNL     1     -15.351   1.776  14.489  1.00  0.00     0.163 C 
HETATM   39  O5  UNL     1     -14.397   1.935  15.238  1.00  0.00    -0.648 OA
BRANCH  38  40
HETATM   40  O6  UNL     1     -15.255   0.952  13.429  1.00  0.00    -0.775 OA
HETATM   41  H20 UNL     1     -14.328   0.637  13.441  1.00  0.00     0.167 HD
ENDBRANCH  38  40
ENDBRANCH  37  38
BRANCH  37  42
HETATM   42  C19 UNL     1     -17.404   2.138  16.002  1.00  0.00     0.014 C 
HETATM   43  C20 UNL     1     -17.045   0.757  16.574  1.00  0.00     0.012 C 
BRANCH  42  44
HETATM   44  C21 UNL     1     -18.941   2.283  15.990  1.00  0.00     0.002 C 
HETATM   45  C22 UNL     1     -19.595   2.014  17.340  1.00  0.00     0.005 C 
ENDBRANCH  42  44
ENDBRANCH  37  42
ENDBRANCH  35  37
ENDBRANCH  32  33
BRANCH  32  46
HETATM   46  C23 UNL     1     -17.862   6.920  13.445  1.00  0.00     0.009 C 
HETATM   47  C24 UNL     1     -18.583   7.462  12.206  1.00  0.00     0.012 C 
HETATM   48  C25 UNL     1     -18.876   6.259  14.385  1.00  0.00     0.012 C 
ENDBRANCH  32  46
ENDBRANCH  30  32
ENDBRANCH  27  28
ENDBRANCH  26  27
ENDBRANCH  13  26
TORSDOF 12
ENDMDL
MODEL 3
REMARK minimizedAffinity -7.63123798
REMARK CNNscore 0.295485079
REMARK CNNaffinity 6.2599411
REMARK  12 active torsions:
REMARK  status: ('A' for Active; 'I' for Inactive)
REMARK    1  A    between atoms: C3_3  and  O1_4 
REMARK    2  A    between atoms: N1_14  and  O2_16 
REMARK    3  A    between atoms: O2_16  and  C13_17 
REMARK    4  A    between atoms: C13_17  and  C14_18 
REMARK       I    between atoms: C14_18  and  N2_20 
REMARK    5  A    between atoms: N2_20  and  C15_21 
REMARK    6  A    between atoms: C15_21  and  C16_22 
REMARK    7  A    between atoms: C15_21  and  C23_33 
REMARK       I    between atoms: C16_22  and  N3_24 
REMARK    8  A    between atoms: N3_24  and  C17_25 
REMARK    9  A    between atoms: C17_25  and  C18_26 
REMARK   10  A    between atoms: C17_25  and  C19_29 
REMARK   11  A    between atoms: C18_26  and  O6_28 
REMARK   12  A    between atoms: C19_29  and  C21_31 
ROOT
HETATM    1  C1  UNL     1      -0.297   8.461   8.223  1.00  0.00     0.015 C 
HETATM    2  C2  UNL     1       0.420   8.123   9.126  1.00  0.00    -0.078 C 
HETATM    3  C3  UNL     1       1.280   7.706  10.251  1.00  0.00     0.128 C 
HETATM    4  C4  UNL     1       0.683   6.476  10.963  1.00  0.00     0.052 C 
HETATM    5  C5  UNL     1       1.859   5.651  11.493  1.00  0.00     0.010 C 
HETATM    6  C6  UNL     1       3.150   6.339  11.025  1.00  0.00     0.002 C 
HETATM    7  C7  UNL     1       3.996   6.968  12.164  1.00  0.00    -0.004 C 
HETATM    8  C8  UNL     1       3.256   7.765  13.256  1.00  0.00     0.010 C 
HETATM    9  C9  UNL     1       4.199   8.140  14.397  1.00  0.00     0.035 C 
HETATM   10  C10 UNL     1       5.413   8.897  13.915  1.00  0.00    -0.069 C 
HETATM   11  C11 UNL     1       5.824   9.993  14.579  1.00  0.00     0.030 C 
HETATM   12  C12 UNL     1       7.090  10.696  14.240  1.00  0.00     0.032 C 
HETATM   13  N1  UNL     1       7.367  11.789  14.895  1.00  0.00    -0.271 N 
ATOM     14  H1  UNL     1       6.765  12.196  15.611  1.00  0.00     0.194 HD
HETATM   15  C26 UNL     1       7.992  10.062  13.198  1.00  0.00     0.060 C 
HETATM   16  C27 UNL     1       7.139   9.378  12.135  1.00  0.00     0.020 C 
HETATM   17  C28 UNL     1       6.151   8.321  12.703  1.00  0.00    -0.016 C 
HETATM   18  C29 UNL     1       6.981   7.106  13.196  1.00  0.00     0.020 C 
HETATM   19  C30 UNL     1       5.153   7.820  11.573  1.00  0.00     0.002 C 
HETATM   20  C31 UNL     1       4.537   8.929  10.691  1.00  0.00     0.007 C 
HETATM   21  C32 UNL     1       3.707   8.376   9.529  1.00  0.00     0.014 C 
HETATM   22  C33 UNL     1       2.712   7.239   9.838  1.00  0.00     0.003 C 
HETATM   23  C34 UNL     1       2.640   6.340   8.561  1.00  0.00     0.020 C 
ENDROOT
BRANCH   3  24
HETATM   24  O1  UNL     1       1.343   8.819  11.133  1.00  0.00    -0.377 OA
HETATM   25  H2  UNL     1       0.850   8.598  11.947  1.00  0.00     0.211 HD
ENDBRANCH   3  24
BRANCH  13  26
HETATM   26  O2  UNL     1       8.593  12.336  14.492  1.00  0.00    -0.271 OA
BRANCH  26  27
HETATM   27  C13 UNL     1       9.471  12.374  15.615  1.00  0.00     0.303 C 
BRANCH  27  28
HETATM   28  C14 UNL     1       8.944  13.347  16.668  1.00  0.00     0.244 C 
HETATM   29  O3  UNL     1       8.147  14.244  16.396  1.00  0.00    -0.271 OA
HETATM   30  N2  UNL     1       9.405  13.116  17.951  1.00  0.00    -0.346 N 
HETATM   31  H16 UNL     1       9.753  12.174  18.116  1.00  0.00     0.163 HD
BRANCH  30  32
HETATM   32  C15 UNL     1       8.790  13.793  19.085  1.00  0.00     0.180 C 
BRANCH  32  33
HETATM   33  C16 UNL     1       8.434  12.731  20.152  1.00  0.00     0.241 C 
HETATM   34  O4  UNL     1       8.939  11.609  20.162  1.00  0.00    -0.271 OA
HETATM   35  N3  UNL     1       7.537  13.155  21.111  1.00  0.00    -0.344 N 
HETATM   36  H18 UNL     1       7.437  14.157  21.228  1.00  0.00     0.163 HD
BRANCH  35  37
HETATM   37  C17 UNL     1       7.248  12.320  22.286  1.00  0.00     0.186 C 
BRANCH  37  38
HETATM   38  C18 UNL     1       8.481  12.378  23.194  1.00  0.00     0.163 C 
HETATM   39  O5  UNL     1       8.931  13.376  23.741  1.00  0.00    -0.648 OA
BRANCH  38  40
HETATM   40  O6  UNL     1       9.060  11.177  23.385  1.00  0.00    -0.775 OA
HETATM   41  H20 UNL     1       9.835  11.362  23.954  1.00  0.00     0.167 HD
ENDBRANCH  38  40
ENDBRANCH  37  38
BRANCH  37  42
HETATM   42  C19 UNL     1       5.945  12.774  22.983  1.00  0.00     0.014 C 
HETATM   43  C20 UNL     1       4.789  11.778  22.802  1.00  0.00     0.012 C 
BRANCH  42  44
HETATM   44  C21 UNL     1       5.460  14.177  22.555  1.00  0.00     0.002 C 
HETATM   45  C22 UNL     1       3.977  14.419  22.812  1.00  0.00     0.005 C 
ENDBRANCH  42  44
ENDBRANCH  37  42
ENDBRANCH  35  37
ENDBRANCH  32  33
BRANCH  32  46
HETATM   46  C23 UNL     1       9.683  14.910  19.674  1.00  0.00     0.009 C 
HETATM   47  C24 UNL     1       9.564  16.240  18.922  1.00  0.00     0.012 C 
HETATM   48  C25 UNL     1       9.375  15.127  21.160  1.00  0.00     0.012 C 
ENDBRANCH  32  46
ENDBRANCH  30  32
ENDBRANCH  27  28
ENDBRANCH  26  27
ENDBRANCH  13  26
TORSDOF 12
ENDMDL
MODEL 4
REMARK minimizedAffinity -9.67026806
REMARK CNNscore 0.295112252
REMARK CNNaffinity 7.19768667
REMARK  12 active torsions:
REMARK  status: ('A' for Active; 'I' for Inactive)
REMARK    1  A    between atoms: C3_3  and  O1_4 
REMARK    2  A    between atoms: N1_14  and  O2_16 
REMARK    3  A    between atoms: O2_16  and  C13_17 
REMARK    4  A    between atoms: C13_17  and  C14_18 
REMARK       I    between atoms: C14_18  and  N2_20 
REMARK    5  A    between atoms: N2_20  and  C15_21 
REMARK    6  A    between atoms: C15_21  and  C16_22 
REMARK    7  A    between atoms: C15_21  and  C23_33 
REMARK       I    between atoms: C16_22  and  N3_24 
REMARK    8  A    between atoms: N3_24  and  C17_25 
REMARK    9  A    between atoms: C17_25  and  C18_26 
REMARK   10  A    between atoms: C17_25  and  C19_29 
REMARK   11  A    between atoms: C18_26  and  O6_28 
REMARK   12  A    between atoms: C19_29  and  C21_31 
ROOT
HETATM    1  C1  UNL     1     -14.260  10.234  11.986  1.00  0.00     0.015 C 
HETATM    2  C2  UNL     1     -13.392   9.957  12.770  1.00  0.00    -0.078 C 
HETATM    3  C3  UNL     1     -12.324   9.641  13.738  1.00  0.00     0.128 C 
HETATM    4  C4  UNL     1     -12.579  10.359  15.079  1.00  0.00     0.052 C 
HETATM    5  C5  UNL     1     -12.019   9.457  16.183  1.00  0.00     0.010 C 
HETATM    6  C6  UNL     1     -11.511   8.172  15.512  1.00  0.00     0.002 C 
HETATM    7  C7  UNL     1      -9.971   7.986  15.556  1.00  0.00    -0.004 C 
HETATM    8  C8  UNL     1      -9.087   9.211  15.248  1.00  0.00     0.010 C 
HETATM    9  C9  UNL     1      -7.617   8.912  15.529  1.00  0.00     0.035 C 
HETATM   10  C10 UNL     1      -7.123   7.696  14.783  1.00  0.00    -0.069 C 
HETATM   11  C11 UNL     1      -5.935   7.737  14.151  1.00  0.00     0.030 C 
HETATM   12  C12 UNL     1      -5.331   6.533  13.522  1.00  0.00     0.032 C 
HETATM   13  N1  UNL     1      -4.211   6.689  12.873  1.00  0.00    -0.271 N 
ATOM     14  H1  UNL     1      -3.734   7.584  12.760  1.00  0.00     0.194 HD
HETATM   15  C26 UNL     1      -6.032   5.204  13.725  1.00  0.00     0.060 C 
HETATM   16  C27 UNL     1      -7.540   5.423  13.763  1.00  0.00     0.020 C 
HETATM   17  C28 UNL     1      -8.002   6.444  14.841  1.00  0.00    -0.016 C 
HETATM   18  C29 UNL     1      -7.796   5.794  16.235  1.00  0.00     0.020 C 
HETATM   19  C30 UNL     1      -9.545   6.784  14.669  1.00  0.00     0.002 C 
HETATM   20  C31 UNL     1     -10.008   7.060  13.221  1.00  0.00     0.007 C 
HETATM   21  C32 UNL     1     -11.525   7.230  13.102  1.00  0.00     0.014 C 
HETATM   22  C33 UNL     1     -12.227   8.134  14.135  1.00  0.00     0.003 C 
HETATM   23  C34 UNL     1     -13.657   7.542  14.359  1.00  0.00     0.020 C 
ENDROOT
BRANCH   3  24
HETATM   24  O1  UNL     1     -11.111  10.091  13.148  1.00  0.00    -0.377 OA
HETATM   25  H2  UNL     1     -10.791  10.866  13.649  1.00  0.00     0.211 HD
ENDBRANCH   3  24
BRANCH  13  26
HETATM   26  O2  UNL     1      -3.743   5.476  12.349  1.00  0.00    -0.271 OA
BRANCH  26  27
HETATM   27  C13 UNL     1      -2.644   5.027  13.138  1.00  0.00     0.303 C 
BRANCH  27  28
HETATM   28  C14 UNL     1      -1.348   5.677  12.661  1.00  0.00     0.244 C 
HETATM   29  O3  UNL     1      -1.337   6.669  11.934  1.00  0.00    -0.271 OA
HETATM   30  N2  UNL     1      -0.194   5.084  13.139  1.00  0.00    -0.346 N 
HETATM   31  H16 UNL     1      -0.318   4.526  13.981  1.00  0.00     0.163 HD
BRANCH  30  32
HETATM   32  C15 UNL     1       1.093   5.749  12.981  1.00  0.00     0.180 C 
BRANCH  32  33
HETATM   33  C16 UNL     1       1.576   5.534  11.527  1.00  0.00     0.241 C 
HETATM   34  O4  UNL     1       0.830   5.135  10.634  1.00  0.00    -0.271 OA
HETATM   35  N3  UNL     1       2.899   5.863  11.304  1.00  0.00    -0.344 N 
HETATM   36  H18 UNL     1       3.332   6.484  11.979  1.00  0.00     0.163 HD
BRANCH  35  37
HETATM   37  C17 UNL     1       3.444   5.885   9.940  1.00  0.00     0.186 C 
BRANCH  37  38
HETATM   38  C18 UNL     1       3.417   4.443   9.420  1.00  0.00     0.163 C 
HETATM   39  O5  UNL     1       3.914   4.040   8.377  1.00  0.00    -0.648 OA
BRANCH  38  40
HETATM   40  O6  UNL     1       2.793   3.588  10.253  1.00  0.00    -0.775 OA
HETATM   41  H20 UNL     1       2.827   2.724   9.793  1.00  0.00     0.167 HD
ENDBRANCH  38  40
ENDBRANCH  37  38
BRANCH  37  42
HETATM   42  C19 UNL     1       2.666   6.878   9.047  1.00  0.00     0.014 C 
HETATM   43  C20 UNL     1       1.396   7.422   9.720  1.00  0.00     0.012 C 
BRANCH  42  44
HETATM   44  C21 UNL     1       2.286   6.312   7.661  1.00  0.00     0.002 C 
HETATM   45  C22 UNL     1       1.935   7.382   6.635  1.00  0.00     0.005 C 
ENDBRANCH  42  44
ENDBRANCH  37  42
ENDBRANCH  35  37
ENDBRANCH  32  33
BRANCH  32  46
HETATM   46  C23 UNL     1       1.041   7.252  13.343  1.00  0.00     0.009 C 
HETATM   47  C24 UNL     1       0.280   8.096  12.314  1.00  0.00     0.012 C 
HETATM   48  C25 UNL     1       0.428   7.456  14.733  1.00  0.00     0.012 C 
ENDBRANCH  32  46
ENDBRANCH  30  32
ENDBRANCH  27  28
ENDBRANCH  26  27
ENDBRANCH  13  26
TORSDOF 12
ENDMDL
MODEL 5
REMARK minimizedAffinity -7.58914852
REMARK CNNscore 0.274238169
REMARK CNNaffinity 6.62393045
REMARK  12 active torsions:
REMARK  status: ('A' for Active; 'I' for Inactive)
REMARK    1  A    between atoms: C3_3  and  O1_4 
REMARK    2  A    between atoms: N1_14  and  O2_16 
REMARK    3  A    between atoms: O2_16  and  C13_17 
REMARK    4  A    between atoms: C13_17  and  C14_18 
REMARK       I    between atoms: C14_18  and  N2_20 
REMARK    5  A    between atoms: N2_20  and  C15_21 
REMARK    6  A    between atoms: C15_21  and  C16_22 
REMARK    7  A    between atoms: C15_21  and  C23_33 
REMARK       I    between atoms: C16_22  and  N3_24 
REMARK    8  A    between atoms: N3_24  and  C17_25 
REMARK    9  A    between atoms: C17_25  and  C18_26 
REMARK   10  A    between atoms: C17_25  and  C19_29 
REMARK   11  A    between atoms: C18_26  and  O6_28 
REMARK   12  A    between atoms: C19_29  and  C21_31 
ROOT
HETATM    1  C1  UNL     1      -7.192   6.765  16.494  1.00  0.00     0.015 C 
HETATM    2  C2  UNL     1      -6.209   6.574  15.830  1.00  0.00    -0.078 C 
HETATM    3  C3  UNL     1      -5.001   6.317  15.022  1.00  0.00     0.128 C 
HETATM    4  C4  UNL     1      -5.194   5.066  14.142  1.00  0.00     0.052 C 
HETATM    5  C5  UNL     1      -4.388   5.292  12.860  1.00  0.00     0.010 C 
HETATM    6  C6  UNL     1      -3.788   6.703  12.937  1.00  0.00     0.002 C 
HETATM    7  C7  UNL     1      -2.243   6.742  13.074  1.00  0.00    -0.004 C 
HETATM    8  C8  UNL     1      -1.581   5.756  14.057  1.00  0.00     0.010 C 
HETATM    9  C9  UNL     1      -0.060   5.785  13.923  1.00  0.00     0.035 C 
HETATM   10  C10 UNL     1       0.508   7.173  14.096  1.00  0.00    -0.069 C 
HETATM   11  C11 UNL     1       1.596   7.358  14.867  1.00  0.00     0.030 C 
HETATM   12  C12 UNL     1       2.283   8.672  14.962  1.00  0.00     0.032 C 
HETATM   13  N1  UNL     1       3.287   8.770  15.789  1.00  0.00    -0.271 N 
ATOM     14  H1  UNL     1       3.617   8.007  16.381  1.00  0.00     0.194 HD
HETATM   15  C26 UNL     1       1.804   9.788  14.053  1.00  0.00     0.060 C 
HETATM   16  C27 UNL     1       0.294   9.679  13.866  1.00  0.00     0.020 C 
HETATM   17  C28 UNL     1      -0.175   8.301  13.319  1.00  0.00    -0.016 C 
HETATM   18  C29 UNL     1       0.281   8.192  11.840  1.00  0.00     0.020 C 
HETATM   19  C30 UNL     1      -1.760   8.190  13.364  1.00  0.00     0.002 C 
HETATM   20  C31 UNL     1      -2.423   8.670  14.674  1.00  0.00     0.007 C 
HETATM   21  C32 UNL     1      -3.953   8.679  14.600  1.00  0.00     0.014 C 
HETATM   22  C33 UNL     1      -4.649   7.442  13.997  1.00  0.00     0.003 C 
HETATM   23  C34 UNL     1      -5.945   7.951  13.288  1.00  0.00     0.020 C 
ENDROOT
BRANCH   3  24
HETATM   24  O1  UNL     1      -3.940   6.123  15.949  1.00  0.00    -0.377 OA
HETATM   25  H2  UNL     1      -3.675   5.183  15.924  1.00  0.00     0.211 HD
ENDBRANCH   3  24
BRANCH  13  26
HETATM   26  O2  UNL     1       3.854  10.051  15.765  1.00  0.00    -0.271 OA
BRANCH  26  27
HETATM   27  C13 UNL     1       5.246   9.933  15.476  1.00  0.00     0.303 C 
BRANCH  27  28
HETATM   28  C14 UNL     1       5.998  11.164  15.976  1.00  0.00     0.244 C 
HETATM   29  O3  UNL     1       5.899  12.263  15.432  1.00  0.00    -0.271 OA
HETATM   30  N2  UNL     1       6.767  10.952  17.105  1.00  0.00    -0.346 N 
HETATM   31  H16 UNL     1       6.500  10.139  17.656  1.00  0.00     0.163 HD
BRANCH  30  32
HETATM   32  C15 UNL     1       7.323  12.083  17.837  1.00  0.00     0.180 C 
BRANCH  32  33
HETATM   33  C16 UNL     1       6.802  12.025  19.293  1.00  0.00     0.241 C 
HETATM   34  O4  UNL     1       5.662  11.658  19.572  1.00  0.00    -0.271 OA
HETATM   35  N3  UNL     1       7.729  12.380  20.252  1.00  0.00    -0.344 N 
HETATM   36  H18 UNL     1       8.705  12.338  19.978  1.00  0.00     0.163 HD
BRANCH  35  37
HETATM   37  C17 UNL     1       7.435  12.197  21.680  1.00  0.00     0.186 C 
BRANCH  37  38
HETATM   38  C18 UNL     1       8.777  12.011  22.397  1.00  0.00     0.163 C 
HETATM   39  O5  UNL     1       8.975  11.334  23.396  1.00  0.00    -0.648 OA
BRANCH  38  40
HETATM   40  O6  UNL     1       9.794  12.663  21.801  1.00  0.00    -0.775 OA
HETATM   41  H20 UNL     1      10.572  12.480  22.368  1.00  0.00     0.167 HD
ENDBRANCH  38  40
ENDBRANCH  37  38
BRANCH  37  42
HETATM   42  C19 UNL     1       6.599  13.376  22.230  1.00  0.00     0.014 C 
HETATM   43  C20 UNL     1       7.429  14.358  23.072  1.00  0.00     0.012 C 
BRANCH  42  44
HETATM   44  C21 UNL     1       5.365  12.941  23.051  1.00  0.00     0.002 C 
HETATM   45  C22 UNL     1       5.046  11.455  22.939  1.00  0.00     0.005 C 
ENDBRANCH  42  44
ENDBRANCH  37  42
ENDBRANCH  35  37
ENDBRANCH  32  33
BRANCH  32  46
HETATM   46  C23 UNL     1       8.869  12.125  17.791  1.00  0.00     0.009 C 
HETATM   47  C24 UNL     1       9.460  13.380  18.443  1.00  0.00     0.012 C 
HETATM   48  C25 UNL     1       9.468  10.873  18.444  1.00  0.00     0.012 C 
ENDBRANCH  32  46
ENDBRANCH  30  32
ENDBRANCH  27  28
ENDBRANCH  26  27
ENDBRANCH  13  26
TORSDOF 12
ENDMDL
MODEL 6
REMARK minimizedAffinity -6.92843962
REMARK CNNscore 0.272012204
REMARK CNNaffinity 6.2512393
REMARK  12 active torsions:
REMARK  status: ('A' for Active; 'I' for Inactive)
REMARK    1  A    between atoms: C3_3  and  O1_4 
REMARK    2  A    between atoms: N1_14  and  O2_16 
REMARK    3  A    between atoms: O2_16  and  C13_17 
REMARK    4  A    between atoms: C13_17  and  C14_18 
REMARK       I    between atoms: C14_18  and  N2_20 
REMARK    5  A    between atoms: N2_20  and  C15_21 
REMARK    6  A    between atoms: C15_21  and  C16_22 
REMARK    7  A    between atoms: C15_21  and  C23_33 
REMARK       I    between atoms: C16_22  and  N3_24 
REMARK    8  A    between atoms: N3_24  and  C17_25 
REMARK    9  A    between atoms: C17_25  and  C18_26 
REMARK   10  A    between atoms: C17_25  and  C19_29 
REMARK   11  A    between atoms: C18_26  and  O6_28 
REMARK   12  A    between atoms: C19_29  and  C21_31 
ROOT
HETATM    1  C1  UNL     1      -5.652  17.589  14.370  1.00  0.00     0.015 C 
HETATM    2  C2  UNL     1      -5.261  16.850  15.232  1.00  0.00    -0.078 C 
HETATM    3  C3  UNL     1      -4.774  15.962  16.305  1.00  0.00     0.128 C 
HETATM    4  C4  UNL     1      -5.368  16.380  17.666  1.00  0.00     0.052 C 
HETATM    5  C5  UNL     1      -5.522  15.104  18.498  1.00  0.00     0.010 C 
HETATM    6  C6  UNL     1      -5.105  13.923  17.610  1.00  0.00     0.002 C 
HETATM    7  C7  UNL     1      -3.801  13.210  18.054  1.00  0.00    -0.004 C 
HETATM    8  C8  UNL     1      -2.608  14.087  18.481  1.00  0.00     0.010 C 
HETATM    9  C9  UNL     1      -1.487  13.238  19.075  1.00  0.00     0.035 C 
HETATM   10  C10 UNL     1      -1.035  12.143  18.140  1.00  0.00    -0.069 C 
HETATM   11  C11 UNL     1       0.279  11.919  17.959  1.00  0.00     0.030 C 
HETATM   12  C12 UNL     1       0.784  10.768  17.164  1.00  0.00     0.032 C 
HETATM   13  N1  UNL     1       2.073  10.676  16.987  1.00  0.00    -0.271 N 
ATOM     14  H1  UNL     1       2.750  11.349  17.347  1.00  0.00     0.194 HD
HETATM   15  C26 UNL     1      -0.229   9.756  16.664  1.00  0.00     0.060 C 
HETATM   16  C27 UNL     1      -1.530  10.470  16.313  1.00  0.00     0.020 C 
HETATM   17  C28 UNL     1      -2.131  11.298  17.484  1.00  0.00    -0.016 C 
HETATM   18  C29 UNL     1      -2.657  10.304  18.552  1.00  0.00     0.020 C 
HETATM   19  C30 UNL     1      -3.351  12.183  16.979  1.00  0.00     0.002 C 
HETATM   20  C31 UNL     1      -3.118  12.940  15.652  1.00  0.00     0.007 C 
HETATM   21  C32 UNL     1      -4.376  13.650  15.142  1.00  0.00     0.014 C 
HETATM   22  C33 UNL     1      -5.200  14.466  16.158  1.00  0.00     0.003 C 
HETATM   23  C34 UNL     1      -6.695  14.372  15.711  1.00  0.00     0.020 C 
ENDROOT
BRANCH   3  24
HETATM   24  O1  UNL     1      -3.358  16.090  16.312  1.00  0.00    -0.377 OA
HETATM   25  H2  UNL     1      -3.093  16.562  17.125  1.00  0.00     0.211 HD
ENDBRANCH   3  24
BRANCH  13  26
HETATM   26  O2  UNL     1       2.413   9.539  16.241  1.00  0.00    -0.271 OA
BRANCH  26  27
HETATM   27  C13 UNL     1       3.276   9.928  15.176  1.00  0.00     0.303 C 
BRANCH  27  28
HETATM   28  C14 UNL     1       4.319   8.843  14.915  1.00  0.00     0.244 C 
HETATM   29  O3  UNL     1       4.599   7.983  15.749  1.00  0.00    -0.271 OA
HETATM   30  N2  UNL     1       4.893   8.884  13.658  1.00  0.00    -0.346 N 
HETATM   31  H16 UNL     1       4.351   9.386  12.957  1.00  0.00     0.163 HD
BRANCH  30  32
HETATM   32  C15 UNL     1       5.701   7.768  13.183  1.00  0.00     0.180 C 
BRANCH  32  33
HETATM   33  C16 UNL     1       5.181   7.350  11.787  1.00  0.00     0.241 C 
HETATM   34  O4  UNL     1       5.930   6.975  10.887  1.00  0.00    -0.271 OA
HETATM   35  N3  UNL     1       3.808   7.394  11.646  1.00  0.00    -0.344 N 
HETATM   36  H18 UNL     1       3.263   7.381  12.502  1.00  0.00     0.163 HD
BRANCH  35  37
HETATM   37  C17 UNL     1       3.162   6.853  10.443  1.00  0.00     0.186 C 
BRANCH  37  38
HETATM   38  C18 UNL     1       2.287   5.677  10.891  1.00  0.00     0.163 C 
HETATM   39  O5  UNL     1       1.959   4.718  10.206  1.00  0.00    -0.648 OA
BRANCH  38  40
HETATM   40  O6  UNL     1       1.901   5.760  12.178  1.00  0.00    -0.775 OA
HETATM   41  H20 UNL     1       1.338   4.971  12.320  1.00  0.00     0.167 HD
ENDBRANCH  38  40
ENDBRANCH  37  38
BRANCH  37  42
HETATM   42  C19 UNL     1       2.379   7.953   9.690  1.00  0.00     0.014 C 
HETATM   43  C20 UNL     1       0.857   7.745   9.736  1.00  0.00     0.012 C 
BRANCH  42  44
HETATM   44  C21 UNL     1       2.808   8.132   8.217  1.00  0.00     0.002 C 
HETATM   45  C22 UNL     1       1.944   7.360   7.227  1.00  0.00     0.005 C 
ENDBRANCH  42  44
ENDBRANCH  37  42
ENDBRANCH  35  37
ENDBRANCH  32  33
BRANCH  32  46
HETATM   46  C23 UNL     1       7.213   8.093  13.149  1.00  0.00     0.009 C 
HETATM   47  C24 UNL     1       7.508   9.575  12.893  1.00  0.00     0.012 C 
HETATM   48  C25 UNL     1       7.895   7.647  14.447  1.00  0.00     0.012 C 
ENDBRANCH  32  46
ENDBRANCH  30  32
ENDBRANCH  27  28
ENDBRANCH  26  27
ENDBRANCH  13  26
TORSDOF 12
ENDMDL
MODEL 7
REMARK minimizedAffinity -7.63924503
REMARK CNNscore 0.239935592
REMARK CNNaffinity 6.75419807
REMARK  12 active torsions:
REMARK  status: ('A' for Active; 'I' for Inactive)
REMARK    1  A    between atoms: C3_3  and  O1_4 
REMARK    2  A    between atoms: N1_14  and  O2_16 
REMARK    3  A    between atoms: O2_16  and  C13_17 
REMARK    4  A    between atoms: C13_17  and  C14_18 
REMARK       I    between atoms: C14_18  and  N2_20 
REMARK    5  A    between atoms: N2_20  and  C15_21 
REMARK    6  A    between atoms: C15_21  and  C16_22 
REMARK    7  A    between atoms: C15_21  and  C23_33 
REMARK       I    between atoms: C16_22  and  N3_24 
REMARK    8  A    between atoms: N3_24  and  C17_25 
REMARK    9  A    between atoms: C17_25  and  C18_26 
REMARK   10  A    between atoms: C17_25  and  C19_29 
REMARK   11  A    between atoms: C18_26  and  O6_28 
REMARK   12  A    between atoms: C19_29  and  C21_31 
ROOT
HETATM    1  C1  UNL     1      -0.514   9.979  13.638  1.00  0.00     0.015 C 
HETATM    2  C2  UNL     1      -1.286   9.060  13.702  1.00  0.00    -0.078 C 
HETATM    3  C3  UNL     1      -2.226   7.923  13.758  1.00  0.00     0.128 C 
HETATM    4  C4  UNL     1      -1.502   6.605  13.415  1.00  0.00     0.052 C 
HETATM    5  C5  UNL     1      -2.189   5.496  14.217  1.00  0.00     0.010 C 
HETATM    6  C6  UNL     1      -3.257   6.160  15.097  1.00  0.00     0.002 C 
HETATM    7  C7  UNL     1      -4.720   5.814  14.710  1.00  0.00    -0.004 C 
HETATM    8  C8  UNL     1      -5.091   5.818  13.214  1.00  0.00     0.010 C 
HETATM    9  C9  UNL     1      -6.497   5.264  12.995  1.00  0.00     0.035 C 
HETATM   10  C10 UNL     1      -7.538   5.999  13.805  1.00  0.00    -0.069 C 
HETATM   11  C11 UNL     1      -8.698   6.362  13.228  1.00  0.00     0.030 C 
HETATM   12  C12 UNL     1      -9.816   6.959  14.006  1.00  0.00     0.032 C 
HETATM   13  N1  UNL     1     -10.873   7.343  13.345  1.00  0.00    -0.271 N 
ATOM     14  H1  UNL     1     -10.973   7.272  12.333  1.00  0.00     0.194 HD
HETATM   15  C26 UNL     1      -9.669   7.029  15.514  1.00  0.00     0.060 C 
HETATM   16  C27 UNL     1      -8.209   7.286  15.871  1.00  0.00     0.020 C 
HETATM   17  C28 UNL     1      -7.222   6.239  15.283  1.00  0.00    -0.016 C 
HETATM   18  C29 UNL     1      -7.443   4.899  16.033  1.00  0.00     0.020 C 
HETATM   19  C30 UNL     1      -5.716   6.698  15.510  1.00  0.00     0.002 C 
HETATM   20  C31 UNL     1      -5.417   8.179  15.188  1.00  0.00     0.007 C 
HETATM   21  C32 UNL     1      -3.994   8.596  15.568  1.00  0.00     0.014 C 
HETATM   22  C33 UNL     1      -2.840   7.654  15.169  1.00  0.00     0.003 C 
HETATM   23  C34 UNL     1      -1.741   7.789  16.271  1.00  0.00     0.020 C 
ENDROOT
BRANCH   3  24
HETATM   24  O1  UNL     1      -3.242   8.204  12.805  1.00  0.00    -0.377 OA
HETATM   25  H2  UNL     1      -3.150   7.578  12.060  1.00  0.00     0.211 HD
ENDBRANCH   3  24
BRANCH  13  26
HETATM   26  O2  UNL     1     -11.854   7.867  14.199  1.00  0.00    -0.271 OA
BRANCH  26  27
HETATM   27  C13 UNL     1     -12.657   8.789  13.466  1.00  0.00     0.303 C 
BRANCH  27  28
HETATM   28  C14 UNL     1     -13.770   8.051  12.724  1.00  0.00     0.244 C 
HETATM   29  O3  UNL     1     -13.756   6.832  12.560  1.00  0.00    -0.271 OA
HETATM   30  N2  UNL     1     -14.805   8.856  12.287  1.00  0.00    -0.346 N 
HETATM   31  H16 UNL     1     -14.887   9.747  12.771  1.00  0.00     0.163 HD
BRANCH  30  32
HETATM   32  C15 UNL     1     -16.043   8.259  11.802  1.00  0.00     0.180 C 
BRANCH  32  33
HETATM   33  C16 UNL     1     -16.763   7.592  12.997  1.00  0.00     0.241 C 
HETATM   34  O4  UNL     1     -17.265   8.242  13.913  1.00  0.00    -0.271 OA
HETATM   35  N3  UNL     1     -16.831   6.215  12.934  1.00  0.00    -0.344 N 
HETATM   36  H18 UNL     1     -16.706   5.796  12.019  1.00  0.00     0.163 HD
BRANCH  35  37
HETATM   37  C17 UNL     1     -17.641   5.461  13.901  1.00  0.00     0.186 C 
BRANCH  37  38
HETATM   38  C18 UNL     1     -18.298   4.307  13.136  1.00  0.00     0.163 C 
HETATM   39  O5  UNL     1     -17.718   3.440  12.496  1.00  0.00    -0.648 OA
BRANCH  38  40
HETATM   40  O6  UNL     1     -19.640   4.292  13.243  1.00  0.00    -0.775 OA
HETATM   41  H20 UNL     1     -19.925   3.531  12.696  1.00  0.00     0.167 HD
ENDBRANCH  38  40
ENDBRANCH  37  38
BRANCH  37  42
HETATM   42  C19 UNL     1     -16.784   4.998  15.102  1.00  0.00     0.014 C 
HETATM   43  C20 UNL     1     -15.332   4.677  14.714  1.00  0.00     0.012 C 
BRANCH  42  44
HETATM   44  C21 UNL     1     -17.371   3.789  15.862  1.00  0.00     0.002 C 
HETATM   45  C22 UNL     1     -17.649   4.065  17.335  1.00  0.00     0.005 C 
ENDBRANCH  42  44
ENDBRANCH  37  42
ENDBRANCH  35  37
ENDBRANCH  32  33
BRANCH  32  46
HETATM   46  C23 UNL     1     -16.961   9.279  11.087  1.00  0.00     0.009 C 
HETATM   47  C24 UNL     1     -18.424   8.829  11.013  1.00  0.00     0.012 C 
HETATM   48  C25 UNL     1     -16.876  10.654  11.760  1.00  0.00     0.012 C 
ENDBRANCH  32  46
ENDBRANCH  30  32
ENDBRANCH  27  28
ENDBRANCH  26  27
ENDBRANCH  13  26
TORSDOF 12
ENDMDL
MODEL 8
REMARK minimizedAffinity -7.48450327
REMARK CNNscore 0.23757036
REMARK CNNaffinity 5.63947535
REMARK  12 active torsions:
REMARK  status: ('A' for Active; 'I' for Inactive)
REMARK    1  A    between atoms: C3_3  and  O1_4 
REMARK    2  A    between atoms: N1_14  and  O2_16 
REMARK    3  A    between atoms: O2_16  and  C13_17 
REMARK    4  A    between atoms: C13_17  and  C14_18 
REMARK       I    between atoms: C14_18  and  N2_20 
REMARK    5  A    between atoms: N2_20  and  C15_21 
REMARK    6  A    between atoms: C15_21  and  C16_22 
REMARK    7  A    between atoms: C15_21  and  C23_33 
REMARK       I    between atoms: C16_22  and  N3_24 
REMARK    8  A    between atoms: N3_24  and  C17_25 
REMARK    9  A    between atoms: C17_25  and  C18_26 
REMARK   10  A    between atoms: C17_25  and  C19_29 
REMARK   11  A    between atoms: C18_26  and  O6_28 
REMARK   12  A    between atoms: C19_29  and  C21_31 
ROOT
HETATM    1  C1  UNL     1      -0.942   4.888  11.024  1.00  0.00     0.015 C 
HETATM    2  C2  UNL     1       0.160   5.364  11.082  1.00  0.00    -0.078 C 
HETATM    3  C3  UNL     1       1.522   5.927  11.158  1.00  0.00     0.128 C 
HETATM    4  C4  UNL     1       2.505   5.080  10.324  1.00  0.00     0.052 C 
HETATM    5  C5  UNL     1       3.573   6.036   9.785  1.00  0.00     0.010 C 
HETATM    6  C6  UNL     1       3.182   7.455  10.222  1.00  0.00     0.002 C 
HETATM    7  C7  UNL     1       4.140   8.099  11.259  1.00  0.00    -0.004 C 
HETATM    8  C8  UNL     1       4.626   7.225  12.432  1.00  0.00     0.010 C 
HETATM    9  C9  UNL     1       5.708   7.939  13.238  1.00  0.00     0.035 C 
HETATM   10  C10 UNL     1       5.260   9.293  13.732  1.00  0.00    -0.069 C 
HETATM   11  C11 UNL     1       5.512   9.657  15.003  1.00  0.00     0.030 C 
HETATM   12  C12 UNL     1       5.223  11.026  15.506  1.00  0.00     0.032 C 
HETATM   13  N1  UNL     1       5.437  11.261  16.771  1.00  0.00    -0.271 N 
ATOM     14  H1  UNL     1       5.774  10.564  17.434  1.00  0.00     0.194 HD
HETATM   15  C26 UNL     1       4.755  12.063  14.503  1.00  0.00     0.060 C 
HETATM   16  C27 UNL     1       3.884  11.391  13.447  1.00  0.00     0.020 C 
HETATM   17  C28 UNL     1       4.580  10.211  12.713  1.00  0.00    -0.016 C 
HETATM   18  C29 UNL     1       5.689  10.801  11.802  1.00  0.00     0.020 C 
HETATM   19  C30 UNL     1       3.543   9.429  11.796  1.00  0.00     0.002 C 
HETATM   20  C31 UNL     1       2.179   9.120  12.452  1.00  0.00     0.007 C 
HETATM   21  C32 UNL     1       1.174   8.503  11.474  1.00  0.00     0.014 C 
HETATM   22  C33 UNL     1       1.670   7.363  10.562  1.00  0.00     0.003 C 
HETATM   23  C34 UNL     1       0.873   7.475   9.221  1.00  0.00     0.020 C 
ENDROOT
BRANCH   3  24
HETATM   24  O1  UNL     1       1.881   5.908  12.533  1.00  0.00    -0.377 OA
HETATM   25  H2  UNL     1       2.579   5.236  12.662  1.00  0.00     0.211 HD
ENDBRANCH   3  24
BRANCH  13  26
HETATM   26  O2  UNL     1       5.144  12.591  17.106  1.00  0.00    -0.271 OA
BRANCH  26  27
HETATM   27  C13 UNL     1       3.767  12.842  16.835  1.00  0.00     0.303 C 
BRANCH  27  28
HETATM   28  C14 UNL     1       2.890  12.203  17.908  1.00  0.00     0.244 C 
HETATM   29  O3  UNL     1       2.751  12.697  19.027  1.00  0.00    -0.271 OA
HETATM   30  N2  UNL     1       2.239  11.050  17.512  1.00  0.00    -0.346 N 
HETATM   31  H16 UNL     1       2.142  10.939  16.504  1.00  0.00     0.163 HD
BRANCH  30  32
HETATM   32  C15 UNL     1       1.177  10.486  18.336  1.00  0.00     0.180 C 
BRANCH  32  33
HETATM   33  C16 UNL     1       1.450  10.868  19.810  1.00  0.00     0.241 C 
HETATM   34  O4  UNL     1       0.838  11.768  20.383  1.00  0.00    -0.271 OA
HETATM   35  N3  UNL     1       2.405  10.095  20.439  1.00  0.00    -0.344 N 
HETATM   36  H18 UNL     1       2.604   9.192  20.023  1.00  0.00     0.163 HD
BRANCH  35  37
HETATM   37  C17 UNL     1       2.635  10.222  21.885  1.00  0.00     0.186 C 
BRANCH  37  38
HETATM   38  C18 UNL     1       2.508   8.819  22.487  1.00  0.00     0.163 C 
HETATM   39  O5  UNL     1       3.195   8.352  23.385  1.00  0.00    -0.648 OA
BRANCH  38  40
HETATM   40  O6  UNL     1       1.509   8.096  21.946  1.00  0.00    -0.775 OA
HETATM   41  H20 UNL     1       1.557   7.228  22.398  1.00  0.00     0.167 HD
ENDBRANCH  38  40
ENDBRANCH  37  38
BRANCH  37  42
HETATM   42  C19 UNL     1       3.996  10.897  22.173  1.00  0.00     0.014 C 
HETATM   43  C20 UNL     1       4.716  10.299  23.392  1.00  0.00     0.012 C 
BRANCH  42  44
HETATM   44  C21 UNL     1       3.912  12.428  22.352  1.00  0.00     0.002 C 
HETATM   45  C22 UNL     1       2.939  12.867  23.439  1.00  0.00     0.005 C 
ENDBRANCH  42  44
ENDBRANCH  37  42
ENDBRANCH  35  37
ENDBRANCH  32  33
BRANCH  32  46
HETATM   46  C23 UNL     1      -0.234  10.934  17.886  1.00  0.00     0.009 C 
HETATM   47  C24 UNL     1      -1.207  11.128  19.054  1.00  0.00     0.012 C 
HETATM   48  C25 UNL     1      -0.158  12.220  17.057  1.00  0.00     0.012 C 
ENDBRANCH  32  46
ENDBRANCH  30  32
ENDBRANCH  27  28
ENDBRANCH  26  27
ENDBRANCH  13  26
TORSDOF 12
ENDMDL
MODEL 9
REMARK minimizedAffinity -7.86566973
REMARK CNNscore 0.220812619
REMARK CNNaffinity 6.51324415
REMARK  12 active torsions:
REMARK  status: ('A' for Active; 'I' for Inactive)
REMARK    1  A    between atoms: C3_3  and  O1_4 
REMARK    2  A    between atoms: N1_14  and  O2_16 
REMARK    3  A    between atoms: O2_16  and  C13_17 
REMARK    4  A    between atoms: C13_17  and  C14_18 
REMARK       I    between atoms: C14_18  and  N2_20 
REMARK    5  A    between atoms: N2_20  and  C15_21 
REMARK    6  A    between atoms: C15_21  and  C16_22 
REMARK    7  A    between atoms: C15_21  and  C23_33 
REMARK       I    between atoms: C16_22  and  N3_24 
REMARK    8  A    between atoms: N3_24  and  C17_25 
REMARK    9  A    between atoms: C17_25  and  C18_26 
REMARK   10  A    between atoms: C17_25  and  C19_29 
REMARK   11  A    between atoms: C18_26  and  O6_28 
REMARK   12  A    between atoms: C19_29  and  C21_31 
ROOT
HETATM    1  C1  UNL     1      -7.550   7.053  16.762  1.00  0.00     0.015 C 
HETATM    2  C2  UNL     1      -6.679   6.684  16.021  1.00  0.00    -0.078 C 
HETATM    3  C3  UNL     1      -5.609   6.208  15.122  1.00  0.00     0.128 C 
HETATM    4  C4  UNL     1      -6.005   4.868  14.471  1.00  0.00     0.052 C 
HETATM    5  C5  UNL     1      -5.362   4.838  13.082  1.00  0.00     0.010 C 
HETATM    6  C6  UNL     1      -4.659   6.187  12.872  1.00  0.00     0.002 C 
HETATM    7  C7  UNL     1      -3.111   6.106  12.815  1.00  0.00    -0.004 C 
HETATM    8  C8  UNL     1      -2.395   5.214  13.848  1.00  0.00     0.010 C 
HETATM    9  C9  UNL     1      -0.907   5.088  13.529  1.00  0.00     0.035 C 
HETATM   10  C10 UNL     1      -0.225   6.431  13.421  1.00  0.00    -0.069 C 
HETATM   11  C11 UNL     1       0.965   6.625  14.017  1.00  0.00     0.030 C 
HETATM   12  C12 UNL     1       1.750   7.873  13.829  1.00  0.00     0.032 C 
HETATM   13  N1  UNL     1       2.859   7.997  14.505  1.00  0.00    -0.271 N 
ATOM     14  H1  UNL     1       3.210   7.299  15.161  1.00  0.00     0.194 HD
HETATM   15  C26 UNL     1       1.235   8.887  12.826  1.00  0.00     0.060 C 
HETATM   16  C27 UNL     1      -0.290   8.888  12.841  1.00  0.00     0.020 C 
HETATM   17  C28 UNL     1      -0.924   7.494  12.569  1.00  0.00    -0.016 C 
HETATM   18  C29 UNL     1      -0.676   7.138  11.080  1.00  0.00     0.020 C 
HETATM   19  C30 UNL     1      -2.493   7.532  12.821  1.00  0.00     0.002 C 
HETATM   20  C31 UNL     1      -2.941   8.249  14.114  1.00  0.00     0.007 C 
HETATM   21  C32 UNL     1      -4.463   8.385  14.224  1.00  0.00     0.014 C 
HETATM   22  C33 UNL     1      -5.317   7.142  13.904  1.00  0.00     0.003 C 
HETATM   23  C34 UNL     1      -6.657   7.658  13.287  1.00  0.00     0.020 C 
ENDROOT
BRANCH   3  24
HETATM   24  O1  UNL     1      -4.452   6.053  15.933  1.00  0.00    -0.377 OA
HETATM   25  H2  UNL     1      -4.259   5.099  16.019  1.00  0.00     0.211 HD
ENDBRANCH   3  24
BRANCH  13  26
HETATM   26  O2  UNL     1       3.507   9.206  14.219  1.00  0.00    -0.271 OA
BRANCH  26  27
HETATM   27  C13 UNL     1       4.003   9.761  15.435  1.00  0.00     0.303 C 
BRANCH  27  28
HETATM   28  C14 UNL     1       2.923   9.727  16.514  1.00  0.00     0.244 C 
HETATM   29  O3  UNL     1       2.467   8.674  16.957  1.00  0.00    -0.271 OA
HETATM   30  N2  UNL     1       2.527  10.969  16.975  1.00  0.00    -0.346 N 
HETATM   31  H16 UNL     1       3.196  11.718  16.810  1.00  0.00     0.163 HD
BRANCH  30  32
HETATM   32  C15 UNL     1       1.704  11.079  18.173  1.00  0.00     0.180 C 
BRANCH  32  33
HETATM   33  C16 UNL     1       2.538  10.591  19.382  1.00  0.00     0.241 C 
HETATM   34  O4  UNL     1       2.296   9.538  19.969  1.00  0.00    -0.271 OA
HETATM   35  N3  UNL     1       3.595  11.411  19.722  1.00  0.00    -0.344 N 
HETATM   36  H18 UNL     1       3.922  12.051  19.006  1.00  0.00     0.163 HD
BRANCH  35  37
HETATM   37  C17 UNL     1       4.578  10.985  20.727  1.00  0.00     0.186 C 
BRANCH  37  38
HETATM   38  C18 UNL     1       5.967  11.312  20.166  1.00  0.00     0.163 C 
HETATM   39  O5  UNL     1       6.673  10.566  19.502  1.00  0.00    -0.648 OA
BRANCH  38  40
HETATM   40  O6  UNL     1       6.374  12.564  20.448  1.00  0.00    -0.775 OA
HETATM   41  H20 UNL     1       7.270  12.628  20.058  1.00  0.00     0.167 HD
ENDBRANCH  38  40
ENDBRANCH  37  38
BRANCH  37  42
HETATM   42  C19 UNL     1       4.294  11.643  22.097  1.00  0.00     0.014 C 
HETATM   43  C20 UNL     1       5.575  12.044  22.847  1.00  0.00     0.012 C 
BRANCH  42  44
HETATM   44  C21 UNL     1       3.420  10.785  23.036  1.00  0.00     0.002 C 
HETATM   45  C22 UNL     1       3.747   9.297  22.992  1.00  0.00     0.005 C 
ENDBRANCH  42  44
ENDBRANCH  37  42
ENDBRANCH  35  37
ENDBRANCH  32  33
BRANCH  32  46
HETATM   46  C23 UNL     1       1.163  12.510  18.400  1.00  0.00     0.009 C 
HETATM   47  C24 UNL     1       0.444  13.086  17.175  1.00  0.00     0.012 C 
HETATM   48  C25 UNL     1       0.230  12.554  19.615  1.00  0.00     0.012 C 
ENDBRANCH  32  46
ENDBRANCH  30  32
ENDBRANCH  27  28
ENDBRANCH  26  27
ENDBRANCH  13  26
TORSDOF 12
ENDMDL
