MODEL 1
REMARK minimizedAffinity -7.6995163
REMARK CNNscore 0.578932822
REMARK CNNaffinity 6.27554178
REMARK  15 active torsions:
REMARK  status: ('A' for Active; 'I' for Inactive)
REMARK    1  A    between atoms: N1_2  and  C2_3 
REMARK    2  A    between atoms: C2_3  and  C3_4 
REMARK    3  A    between atoms: C3_4  and  C4_5 
REMARK    4  A    between atoms: C4_5  and  C5_6 
REMARK    5  A    between atoms: C4_5  and  C6_9 
REMARK    6  A    between atoms: C5_6  and  O2_8 
REMARK    7  A    between atoms: C6_9  and  C7_11 
REMARK    8  A    between atoms: C7_11  and  O4_12 
REMARK    9  A    between atoms: C7_11  and  C8_13 
REMARK   10  A    between atoms: C8_13  and  C9_14 
REMARK   11  A    between atoms: C9_14  and  C11_16 
REMARK   12  A    between atoms: C13_18  and  O5_19 
REMARK   13  A    between atoms: C16_22  and  O6_23 
REMARK   14  A    between atoms: C34_43  and  C35_44 
REMARK   15  A    between atoms: C36_45  and  C37_46 
ROOT
HETATM    1  C11 UNL     1     -16.906   4.970  14.454  1.00  0.00     0.002 C 
HETATM    2  C12 UNL     1     -16.785   5.112  15.999  1.00  0.00     0.049 C 
HETATM    3  C13 UNL     1     -16.583   6.614  16.308  1.00  0.00     0.088 C 
HETATM    4  C14 UNL     1     -15.434   6.917  17.215  1.00  0.00     0.011 C 
HETATM    5  C15 UNL     1     -14.716   8.043  17.082  1.00  0.00     0.015 C 
HETATM    6  C16 UNL     1     -14.908   9.063  15.981  1.00  0.00     0.108 C 
HETATM    7  C17 UNL     1     -15.505   8.466  14.732  1.00  0.00    -0.018 C 
HETATM    8  C18 UNL     1     -15.188   8.910  13.493  1.00  0.00     0.003 C 
HETATM    9  C19 UNL     1     -15.692   8.086  12.308  1.00  0.00     0.157 C 
HETATM   10  O7  UNL     1     -15.711   8.551  11.170  1.00  0.00    -0.293 OA
HETATM   11  C20 UNL     1     -16.181   6.644  12.520  1.00  0.00     0.094 C 
HETATM   12  C21 UNL     1     -15.998   6.145  13.959  1.00  0.00    -0.019 C 
HETATM   13  C22 UNL     1     -14.499   5.744  14.115  1.00  0.00     0.017 C 
HETATM   14  C23 UNL     1     -16.481   7.305  14.905  1.00  0.00     0.026 C 
HETATM   15  C24 UNL     1     -17.902   7.875  14.543  1.00  0.00     0.025 C 
HETATM   16  C25 UNL     1     -14.420  10.227  13.228  1.00  0.00    -0.007 C 
HETATM   17  C26 UNL     1     -13.324  10.014  12.144  1.00  0.00     0.021 C 
HETATM   18  C27 UNL     1     -15.461  11.240  12.672  1.00  0.00     0.022 C 
HETATM   19  C28 UNL     1     -16.367  11.804  13.754  1.00  0.00     0.080 C 
HETATM   20  C29 UNL     1     -15.578  12.610  14.748  1.00  0.00     0.135 C 
HETATM   21  O8  UNL     1     -16.123  13.549  15.345  1.00  0.00    -0.297 OA
HETATM   22  C30 UNL     1     -14.087  12.302  14.934  1.00  0.00     0.018 C 
HETATM   23  C31 UNL     1     -13.710  12.653  16.389  1.00  0.00     0.023 C 
HETATM   24  C32 UNL     1     -13.308  13.324  14.059  1.00  0.00     0.023 C 
HETATM   25  C33 UNL     1     -13.676  10.827  14.516  1.00  0.00     0.025 C 
HETATM   26  C34 UNL     1     -13.561   9.785  15.678  1.00  0.00     0.057 C 
ENDROOT
BRANCH   1  27
HETATM   27  C9  UNL     1     -16.627   3.512  13.955  1.00  0.00    -0.011 C 
HETATM   28  C10 UNL     1     -17.676   3.073  12.928  1.00  0.00     0.010 C 
BRANCH  27  29
HETATM   29  C8  UNL     1     -16.543   2.531  15.162  1.00  0.00     0.044 C 
BRANCH  29  30
HETATM   30  C7  UNL     1     -15.295   1.637  15.284  1.00  0.00     0.188 C 
BRANCH  30  31
HETATM   31  C6  UNL     1     -15.347   0.673  16.485  1.00  0.00     0.169 C 
HETATM   32  O3  UNL     1     -14.729   0.915  17.525  1.00  0.00    -0.294 OA
BRANCH  31  33
HETATM   33  C4  UNL     1     -16.114  -0.622  16.290  1.00  0.00     0.157 C 
BRANCH  33  34
HETATM   34  C3  UNL     1     -15.165  -1.730  15.790  1.00  0.00     0.053 C 
BRANCH  34  35
HETATM   35  C2  UNL     1     -15.548  -2.244  14.396  1.00  0.00     0.270 C 
BRANCH  35  36
HETATM   36  N1  UNL     1     -14.514  -2.001  13.384  1.00  0.00     0.079 N 
HETATM   37  C1  UNL     1     -15.023  -2.148  12.020  1.00  0.00     0.306 C 
HETATM   38  H4  UNL     1     -13.759  -2.678  13.514  1.00  0.00     0.315 HD
ENDBRANCH  35  36
ENDBRANCH  34  35
ENDBRANCH  33  34
BRANCH  33  39
HETATM   39  C5  UNL     1     -16.817  -1.019  17.563  1.00  0.00     0.151 C 
HETATM   40  O1  UNL     1     -16.384  -1.695  18.477  1.00  0.00    -0.649 OA
BRANCH  39  41
HETATM   41  O2  UNL     1     -18.072  -0.520  17.628  1.00  0.00    -0.776 OA
HETATM   42  H10 UNL     1     -18.389  -0.787  18.516  1.00  0.00     0.167 HD
ENDBRANCH  39  41
ENDBRANCH  33  39
ENDBRANCH  31  33
ENDBRANCH  30  31
BRANCH  30  43
HETATM   43  O4  UNL     1     -14.988   1.033  14.040  1.00  0.00    -0.388 OA
HETATM   44  H12 UNL     1     -15.686   0.393  13.818  1.00  0.00     0.210 HD
ENDBRANCH  30  43
ENDBRANCH  29  30
ENDBRANCH  27  29
ENDBRANCH   1  27
BRANCH   3  45
HETATM   45  O5  UNL     1     -17.714   7.097  17.039  1.00  0.00    -0.385 OA
HETATM   46  H22 UNL     1     -17.803   6.573  17.851  1.00  0.00     0.211 HD
ENDBRANCH   3  45
BRANCH   6  47
HETATM   47  O6  UNL     1     -15.838  10.013  16.488  1.00  0.00    -0.380 OA
HETATM   48  H25 UNL     1     -16.638   9.514  16.746  1.00  0.00     0.211 HD
ENDBRANCH   6  47
BRANCH  26  49
HETATM   49  C35 UNL     1     -12.404   8.819  15.402  1.00  0.00    -0.017 C 
HETATM   50  C36 UNL     1     -11.215   9.211  14.914  1.00  0.00     0.008 C 
BRANCH  50  51
HETATM   51  C37 UNL     1     -10.074   8.310  14.681  1.00  0.00    -0.036 A 
HETATM   52  C38 UNL     1      -8.869   8.567  15.340  1.00  0.00     0.011 A 
HETATM   53  C39 UNL     1      -7.773   7.713  15.183  1.00  0.00     0.001 A 
HETATM   54  C40 UNL     1      -7.887   6.581  14.379  1.00  0.00     0.000 A 
HETATM   55  C41 UNL     1      -9.092   6.299  13.733  1.00  0.00     0.001 A 
HETATM   56  C42 UNL     1     -10.178   7.163  13.883  1.00  0.00     0.011 A 
ENDBRANCH  50  51
ENDBRANCH  26  49
TORSDOF 15
ENDMDL
MODEL 2
REMARK minimizedAffinity -7.49741173
REMARK CNNscore 0.371982902
REMARK CNNaffinity 6.38678694
REMARK  15 active torsions:
REMARK  status: ('A' for Active; 'I' for Inactive)
REMARK    1  A    between atoms: N1_2  and  C2_3 
REMARK    2  A    between atoms: C2_3  and  C3_4 
REMARK    3  A    between atoms: C3_4  and  C4_5 
REMARK    4  A    between atoms: C4_5  and  C5_6 
REMARK    5  A    between atoms: C4_5  and  C6_9 
REMARK    6  A    between atoms: C5_6  and  O2_8 
REMARK    7  A    between atoms: C6_9  and  C7_11 
REMARK    8  A    between atoms: C7_11  and  O4_12 
REMARK    9  A    between atoms: C7_11  and  C8_13 
REMARK   10  A    between atoms: C8_13  and  C9_14 
REMARK   11  A    between atoms: C9_14  and  C11_16 
REMARK   12  A    between atoms: C13_18  and  O5_19 
REMARK   13  A    between atoms: C16_22  and  O6_23 
REMARK   14  A    between atoms: C34_43  and  C35_44 
REMARK   15  A    between atoms: C36_45  and  C37_46 
ROOT
HETATM    1  C11 UNL     1      -0.216   9.197  14.689  1.00  0.00     0.002 C 
HETATM    2  C12 UNL     1      -1.509   8.896  15.500  1.00  0.00     0.049 C 
HETATM    3  C13 UNL     1      -1.934  10.212  16.193  1.00  0.00     0.088 C 
HETATM    4  C14 UNL     1      -2.213  10.088  17.656  1.00  0.00     0.011 C 
HETATM    5  C15 UNL     1      -1.945  11.090  18.507  1.00  0.00     0.015 C 
HETATM    6  C16 UNL     1      -1.266  12.387  18.125  1.00  0.00     0.108 C 
HETATM    7  C17 UNL     1      -0.378  12.244  16.914  1.00  0.00    -0.018 C 
HETATM    8  C18 UNL     1       0.765  12.956  16.765  1.00  0.00     0.003 C 
HETATM    9  C19 UNL     1       1.681  12.566  15.605  1.00  0.00     0.157 C 
HETATM   10  O7  UNL     1       2.571  13.320  15.215  1.00  0.00    -0.293 OA
HETATM   11  C20 UNL     1       1.510  11.208  14.906  1.00  0.00     0.094 C 
HETATM   12  C21 UNL     1       0.447  10.317  15.560  1.00  0.00    -0.019 C 
HETATM   13  C22 UNL     1       1.103   9.674  16.821  1.00  0.00     0.017 C 
HETATM   14  C23 UNL     1      -0.797  11.234  15.849  1.00  0.00     0.026 C 
HETATM   15  C24 UNL     1      -1.268  12.082  14.609  1.00  0.00     0.025 C 
HETATM   16  C25 UNL     1       1.137  14.170  17.651  1.00  0.00    -0.007 C 
HETATM   17  C26 UNL     1       2.633  14.100  18.074  1.00  0.00     0.021 C 
HETATM   18  C27 UNL     1       0.940  15.435  16.769  1.00  0.00     0.022 C 
HETATM   19  C28 UNL     1      -0.523  15.811  16.599  1.00  0.00     0.080 C 
HETATM   20  C29 UNL     1      -1.135  16.194  17.918  1.00  0.00     0.135 C 
HETATM   21  O8  UNL     1      -2.071  17.004  17.945  1.00  0.00    -0.297 OA
HETATM   22  C30 UNL     1      -0.523  15.633  19.208  1.00  0.00     0.018 C 
HETATM   23  C31 UNL     1      -1.653  15.517  20.254  1.00  0.00     0.023 C 
HETATM   24  C32 UNL     1       0.429  16.729  19.763  1.00  0.00     0.023 C 
HETATM   25  C33 UNL     1       0.285  14.283  19.005  1.00  0.00     0.025 C 
HETATM   26  C34 UNL     1      -0.480  12.960  19.341  1.00  0.00     0.057 C 
ENDROOT
BRANCH   1  27
HETATM   27  C9  UNL     1       0.598   7.904  14.342  1.00  0.00    -0.011 C 
HETATM   28  C10 UNL     1      -0.034   6.667  14.989  1.00  0.00     0.010 C 
BRANCH  27  29
HETATM   29  C8  UNL     1       2.092   8.078  14.747  1.00  0.00     0.044 C 
BRANCH  29  30
HETATM   30  C7  UNL     1       3.161   7.948  13.646  1.00  0.00     0.188 C 
BRANCH  30  31
HETATM   31  C6  UNL     1       4.604   7.990  14.185  1.00  0.00     0.169 C 
HETATM   32  O3  UNL     1       4.862   7.654  15.345  1.00  0.00    -0.294 OA
BRANCH  31  33
HETATM   33  C4  UNL     1       5.666   8.551  13.257  1.00  0.00     0.157 C 
BRANCH  33  34
HETATM   34  C3  UNL     1       6.782   9.228  14.076  1.00  0.00     0.053 C 
BRANCH  34  35
HETATM   35  C2  UNL     1       8.010   8.324  14.252  1.00  0.00     0.270 C 
BRANCH  35  36
HETATM   36  N1  UNL     1       8.030   7.617  15.537  1.00  0.00     0.079 N 
HETATM   37  C1  UNL     1       9.167   8.008  16.372  1.00  0.00     0.306 C 
HETATM   38  H4  UNL     1       8.098   6.612  15.360  1.00  0.00     0.315 HD
ENDBRANCH  35  36
ENDBRANCH  34  35
ENDBRANCH  33  34
BRANCH  33  39
HETATM   39  C5  UNL     1       6.208   7.471  12.357  1.00  0.00     0.151 C 
HETATM   40  O1  UNL     1       6.804   7.602  11.305  1.00  0.00    -0.649 OA
BRANCH  39  41
HETATM   41  O2  UNL     1       5.971   6.233  12.849  1.00  0.00    -0.776 OA
HETATM   42  H10 UNL     1       6.425   5.636  12.218  1.00  0.00     0.167 HD
ENDBRANCH  39  41
ENDBRANCH  33  39
ENDBRANCH  31  33
ENDBRANCH  30  31
BRANCH  30  43
HETATM   43  O4  UNL     1       2.869   6.858  12.791  1.00  0.00    -0.388 OA
HETATM   44  H12 UNL     1       2.976   6.028  13.287  1.00  0.00     0.210 HD
ENDBRANCH  30  43
ENDBRANCH  29  30
ENDBRANCH  27  29
ENDBRANCH   1  27
BRANCH   3  45
HETATM   45  O5  UNL     1      -3.190  10.638  15.655  1.00  0.00    -0.385 OA
HETATM   46  H22 UNL     1      -3.841   9.933  15.796  1.00  0.00     0.211 HD
ENDBRANCH   3  45
BRANCH   6  47
HETATM   47  O6  UNL     1      -2.312  13.289  17.783  1.00  0.00    -0.380 OA
HETATM   48  H25 UNL     1      -2.833  12.861  17.076  1.00  0.00     0.211 HD
ENDBRANCH   6  47
BRANCH  26  49
HETATM   49  C35 UNL     1       0.480  11.946  19.975  1.00  0.00    -0.017 C 
HETATM   50  C36 UNL     1       1.455  12.291  20.832  1.00  0.00     0.008 C 
BRANCH  50  51
HETATM   51  C37 UNL     1       2.361  11.332  21.487  1.00  0.00    -0.036 A 
HETATM   52  C38 UNL     1       2.067   9.968  21.412  1.00  0.00     0.011 A 
HETATM   53  C39 UNL     1       2.922   9.020  21.981  1.00  0.00     0.001 A 
HETATM   54  C40 UNL     1       4.093   9.434  22.612  1.00  0.00     0.000 A 
HETATM   55  C41 UNL     1       4.411  10.791  22.676  1.00  0.00     0.001 A 
HETATM   56  C42 UNL     1       3.546  11.734  22.118  1.00  0.00     0.011 A 
ENDBRANCH  50  51
ENDBRANCH  26  49
TORSDOF 15
ENDMDL
MODEL 3
REMARK minimizedAffinity -8.30347443
REMARK CNNscore 0.351509631
REMARK CNNaffinity 6.59165001
REMARK  15 active torsions:
REMARK  status: ('A' for Active; 'I' for Inactive)
REMARK    1  A    between atoms: N1_2  and  C2_3 
REMARK    2  A    between atoms: C2_3  and  C3_4 
REMARK    3  A    between atoms: C3_4  and  C4_5 
REMARK    4  A    between atoms: C4_5  and  C5_6 
REMARK    5  A    between atoms: C4_5  and  C6_9 
REMARK    6  A    between atoms: C5_6  and  O2_8 
REMARK    7  A    between atoms: C6_9  and  C7_11 
REMARK    8  A    between atoms: C7_11  and  O4_12 
REMARK    9  A    between atoms: C7_11  and  C8_13 
REMARK   10  A    between atoms: C8_13  and  C9_14 
REMARK   11  A    between atoms: C9_14  and  C11_16 
REMARK   12  A    between atoms: C13_18  and  O5_19 
REMARK   13  A    between atoms: C16_22  and  O6_23 
REMARK   14  A    between atoms: C34_43  and  C35_44 
REMARK   15  A    between atoms: C36_45  and  C37_46 
ROOT
HETATM    1  C11 UNL     1       8.276  11.242  16.296  1.00  0.00     0.002 C 
HETATM    2  C12 UNL     1       7.107  12.105  15.740  1.00  0.00     0.049 C 
HETATM    3  C13 UNL     1       6.914  13.296  16.708  1.00  0.00     0.088 C 
HETATM    4  C14 UNL     1       5.505  13.514  17.158  1.00  0.00     0.011 C 
HETATM    5  C15 UNL     1       5.227  13.978  18.386  1.00  0.00     0.015 C 
HETATM    6  C16 UNL     1       6.257  14.239  19.463  1.00  0.00     0.108 C 
HETATM    7  C17 UNL     1       7.495  13.392  19.301  1.00  0.00    -0.018 C 
HETATM    8  C18 UNL     1       8.207  12.939  20.360  1.00  0.00     0.003 C 
HETATM    9  C19 UNL     1       9.309  11.920  20.073  1.00  0.00     0.157 C 
HETATM   10  O7  UNL     1      10.184  11.676  20.902  1.00  0.00    -0.293 OA
HETATM   11  C20 UNL     1       9.337  11.167  18.734  1.00  0.00     0.094 C 
HETATM   12  C21 UNL     1       8.130  11.473  17.838  1.00  0.00    -0.019 C 
HETATM   13  C22 UNL     1       6.935  10.628  18.379  1.00  0.00     0.017 C 
HETATM   14  C23 UNL     1       7.919  13.031  17.880  1.00  0.00     0.026 C 
HETATM   15  C24 UNL     1       9.226  13.860  17.593  1.00  0.00     0.025 C 
HETATM   16  C25 UNL     1       8.010  13.455  21.806  1.00  0.00    -0.007 C 
HETATM   17  C26 UNL     1       7.998  12.270  22.814  1.00  0.00     0.021 C 
HETATM   18  C27 UNL     1       9.240  14.353  22.125  1.00  0.00     0.022 C 
HETATM   19  C28 UNL     1       9.159  15.717  21.462  1.00  0.00     0.080 C 
HETATM   20  C29 UNL     1       7.993  16.505  21.993  1.00  0.00     0.135 C 
HETATM   21  O8  UNL     1       8.050  17.742  22.016  1.00  0.00    -0.297 OA
HETATM   22  C30 UNL     1       6.794  15.747  22.577  1.00  0.00     0.018 C 
HETATM   23  C31 UNL     1       5.535  16.611  22.350  1.00  0.00     0.023 C 
HETATM   24  C32 UNL     1       6.991  15.720  24.119  1.00  0.00     0.023 C 
HETATM   25  C33 UNL     1       6.643  14.263  22.037  1.00  0.00     0.025 C 
HETATM   26  C34 UNL     1       5.620  14.050  20.872  1.00  0.00     0.057 C 
ENDROOT
BRANCH   1  27
HETATM   27  C9  UNL     1       8.277   9.782  15.729  1.00  0.00    -0.011 C 
HETATM   28  C10 UNL     1       9.699   9.327  15.387  1.00  0.00     0.010 C 
BRANCH  27  29
HETATM   29  C8  UNL     1       7.318   9.675  14.506  1.00  0.00     0.044 C 
BRANCH  29  30
HETATM   30  C7  UNL     1       6.553   8.354  14.298  1.00  0.00     0.188 C 
BRANCH  30  31
HETATM   31  C6  UNL     1       7.120   7.492  13.154  1.00  0.00     0.169 C 
HETATM   32  O3  UNL     1       8.319   7.530  12.860  1.00  0.00    -0.294 OA
BRANCH  31  33
HETATM   33  C4  UNL     1       6.122   6.675  12.354  1.00  0.00     0.157 C 
BRANCH  33  34
HETATM   34  C3  UNL     1       4.831   7.487  12.129  1.00  0.00     0.053 C 
BRANCH  34  35
HETATM   35  C2  UNL     1       3.782   6.707  11.325  1.00  0.00     0.270 C 
BRANCH  35  36
HETATM   36  N1  UNL     1       4.088   6.629   9.892  1.00  0.00     0.079 N 
HETATM   37  C1  UNL     1       2.922   6.256   9.092  1.00  0.00     0.306 C 
HETATM   38  H4  UNL     1       4.811   5.921   9.747  1.00  0.00     0.315 HD
ENDBRANCH  35  36
ENDBRANCH  34  35
ENDBRANCH  33  34
BRANCH  33  39
HETATM   39  C5  UNL     1       6.732   6.219  11.053  1.00  0.00     0.151 C 
HETATM   40  O1  UNL     1       6.844   5.082  10.637  1.00  0.00    -0.649 OA
BRANCH  39  41
HETATM   41  O2  UNL     1       7.177   7.257  10.309  1.00  0.00    -0.776 OA
HETATM   42  H10 UNL     1       7.481   6.840   9.476  1.00  0.00     0.167 HD
ENDBRANCH  39  41
ENDBRANCH  33  39
ENDBRANCH  31  33
ENDBRANCH  30  31
BRANCH  30  43
HETATM   43  O4  UNL     1       6.377   7.679  15.531  1.00  0.00    -0.388 OA
HETATM   44  H12 UNL     1       7.242   7.373  15.851  1.00  0.00     0.210 HD
ENDBRANCH  30  43
ENDBRANCH  29  30
ENDBRANCH  27  29
ENDBRANCH   1  27
BRANCH   3  45
HETATM   45  O5  UNL     1       7.230  14.512  16.023  1.00  0.00    -0.385 OA
HETATM   46  H22 UNL     1       6.655  14.585  15.244  1.00  0.00     0.211 HD
ENDBRANCH   3  45
BRANCH   6  47
HETATM   47  O6  UNL     1       6.646  15.599  19.309  1.00  0.00    -0.380 OA
HETATM   48  H25 UNL     1       6.961  15.699  18.390  1.00  0.00     0.211 HD
ENDBRANCH   6  47
BRANCH  26  49
HETATM   49  C35 UNL     1       4.908  12.703  21.040  1.00  0.00    -0.017 C 
HETATM   50  C36 UNL     1       4.506  12.225  22.229  1.00  0.00     0.008 C 
BRANCH  50  51
HETATM   51  C37 UNL     1       3.782  10.956  22.412  1.00  0.00    -0.036 A 
HETATM   52  C38 UNL     1       3.414  10.570  23.704  1.00  0.00     0.011 A 
HETATM   53  C39 UNL     1       2.688   9.396  23.921  1.00  0.00     0.001 A 
HETATM   54  C40 UNL     1       2.305   8.609  22.836  1.00  0.00     0.000 A 
HETATM   55  C41 UNL     1       2.645   8.993  21.538  1.00  0.00     0.001 A 
HETATM   56  C42 UNL     1       3.383  10.159  21.330  1.00  0.00     0.011 A 
ENDBRANCH  50  51
ENDBRANCH  26  49
TORSDOF 15
ENDMDL
MODEL 4
REMARK minimizedAffinity -7.31399345
REMARK CNNscore 0.270098418
REMARK CNNaffinity 6.58754969
REMARK  15 active torsions:
REMARK  status: ('A' for Active; 'I' for Inactive)
REMARK    1  A    between atoms: N1_2  and  C2_3 
REMARK    2  A    between atoms: C2_3  and  C3_4 
REMARK    3  A    between atoms: C3_4  and  C4_5 
REMARK    4  A    between atoms: C4_5  and  C5_6 
REMARK    5  A    between atoms: C4_5  and  C6_9 
REMARK    6  A    between atoms: C5_6  and  O2_8 
REMARK    7  A    between atoms: C6_9  and  C7_11 
REMARK    8  A    between atoms: C7_11  and  O4_12 
REMARK    9  A    between atoms: C7_11  and  C8_13 
REMARK   10  A    between atoms: C8_13  and  C9_14 
REMARK   11  A    between atoms: C9_14  and  C11_16 
REMARK   12  A    between atoms: C13_18  and  O5_19 
REMARK   13  A    between atoms: C16_22  and  O6_23 
REMARK   14  A    between atoms: C34_43  and  C35_44 
REMARK   15  A    between atoms: C36_45  and  C37_46 
ROOT
HETATM    1  C11 UNL     1     -12.766  -8.638  14.895  1.00  0.00     0.002 C 
HETATM    2  C12 UNL     1     -11.572  -7.647  15.011  1.00  0.00     0.049 C 
HETATM    3  C13 UNL     1     -12.165  -6.241  15.262  1.00  0.00     0.088 C 
HETATM    4  C14 UNL     1     -11.640  -5.170  14.362  1.00  0.00     0.011 C 
HETATM    5  C15 UNL     1     -12.413  -4.149  13.963  1.00  0.00     0.015 C 
HETATM    6  C16 UNL     1     -13.886  -4.006  14.284  1.00  0.00     0.108 C 
HETATM    7  C17 UNL     1     -14.557  -5.333  14.536  1.00  0.00    -0.018 C 
HETATM    8  C18 UNL     1     -15.847  -5.569  14.197  1.00  0.00     0.003 C 
HETATM    9  C19 UNL     1     -16.343  -7.011  14.308  1.00  0.00     0.157 C 
HETATM   10  O7  UNL     1     -17.544  -7.273  14.308  1.00  0.00    -0.293 OA
HETATM   11  C20 UNL     1     -15.338  -8.169  14.411  1.00  0.00     0.094 C 
HETATM   12  C21 UNL     1     -13.877  -7.721  14.283  1.00  0.00    -0.019 C 
HETATM   13  C22 UNL     1     -13.597  -7.510  12.762  1.00  0.00     0.017 C 
HETATM   14  C23 UNL     1     -13.718  -6.436  15.176  1.00  0.00     0.026 C 
HETATM   15  C24 UNL     1     -14.267  -6.604  16.641  1.00  0.00     0.025 C 
HETATM   16  C25 UNL     1     -16.840  -4.455  13.787  1.00  0.00    -0.007 C 
HETATM   17  C26 UNL     1     -17.672  -4.892  12.547  1.00  0.00     0.021 C 
HETATM   18  C27 UNL     1     -17.815  -4.270  14.985  1.00  0.00     0.022 C 
HETATM   19  C28 UNL     1     -17.189  -3.502  16.138  1.00  0.00     0.080 C 
HETATM   20  C29 UNL     1     -16.855  -2.095  15.727  1.00  0.00     0.135 C 
HETATM   21  O8  UNL     1     -16.858  -1.193  16.576  1.00  0.00    -0.297 OA
HETATM   22  C30 UNL     1     -16.603  -1.797  14.243  1.00  0.00     0.018 C 
HETATM   23  C31 UNL     1     -15.612  -0.617  14.161  1.00  0.00     0.023 C 
HETATM   24  C32 UNL     1     -17.936  -1.245  13.666  1.00  0.00     0.023 C 
HETATM   25  C33 UNL     1     -16.144  -3.062  13.401  1.00  0.00     0.025 C 
HETATM   26  C34 UNL     1     -14.606  -3.210  13.155  1.00  0.00     0.057 C 
ENDROOT
BRANCH   1  27
HETATM   27  C9  UNL     1     -12.379  -9.972  14.172  1.00  0.00    -0.011 C 
HETATM   28  C10 UNL     1     -13.184 -11.152  14.727  1.00  0.00     0.010 C 
BRANCH  27  29
HETATM   29  C8  UNL     1     -10.843 -10.216  14.267  1.00  0.00     0.044 C 
BRANCH  29  30
HETATM   30  C7  UNL     1     -10.041 -10.309  12.955  1.00  0.00     0.188 C 
BRANCH  30  31
HETATM   31  C6  UNL     1      -8.576  -9.854  13.099  1.00  0.00     0.169 C 
HETATM   32  O3  UNL     1      -8.025  -9.817  14.203  1.00  0.00    -0.294 OA
BRANCH  31  33
HETATM   33  C4  UNL     1      -7.884  -9.369  11.839  1.00  0.00     0.157 C 
BRANCH  33  34
HETATM   34  C3  UNL     1      -8.930  -8.949  10.787  1.00  0.00     0.053 C 
BRANCH  34  35
HETATM   35  C2  UNL     1      -8.285  -8.430   9.495  1.00  0.00     0.270 C 
BRANCH  35  36
HETATM   36  N1  UNL     1      -9.219  -8.365   8.365  1.00  0.00     0.079 N 
HETATM   37  C1  UNL     1     -10.617  -8.378   8.796  1.00  0.00     0.306 C 
HETATM   38  H4  UNL     1      -9.066  -9.177   7.763  1.00  0.00     0.315 HD
ENDBRANCH  35  36
ENDBRANCH  34  35
ENDBRANCH  33  34
BRANCH  33  39
HETATM   39  C5  UNL     1      -6.928  -8.248  12.157  1.00  0.00     0.151 C 
HETATM   40  O1  UNL     1      -6.704  -7.247  11.503  1.00  0.00    -0.649 OA
BRANCH  39  41
HETATM   41  O2  UNL     1      -6.286  -8.445  13.331  1.00  0.00    -0.776 OA
HETATM   42  H10 UNL     1      -5.757  -7.629  13.452  1.00  0.00     0.167 HD
ENDBRANCH  39  41
ENDBRANCH  33  39
ENDBRANCH  31  33
ENDBRANCH  30  31
BRANCH  30  43
HETATM   43  O4  UNL     1     -10.222 -11.575  12.347  1.00  0.00    -0.388 OA
HETATM   44  H12 UNL     1      -9.801 -12.255  12.899  1.00  0.00     0.210 HD
ENDBRANCH  30  43
ENDBRANCH  29  30
ENDBRANCH  27  29
ENDBRANCH   1  27
BRANCH   3  45
HETATM   45  O5  UNL     1     -11.774  -5.795  16.565  1.00  0.00    -0.385 OA
HETATM   46  H22 UNL     1     -10.805  -5.788  16.610  1.00  0.00     0.211 HD
ENDBRANCH   3  45
BRANCH   6  47
HETATM   47  O6  UNL     1     -13.951  -3.257  15.492  1.00  0.00    -0.380 OA
HETATM   48  H25 UNL     1     -13.419  -3.743  16.153  1.00  0.00     0.211 HD
ENDBRANCH   6  47
BRANCH  26  49
HETATM   49  C35 UNL     1     -14.351  -3.779  11.755  1.00  0.00    -0.017 C 
HETATM   50  C36 UNL     1     -15.110  -3.478  10.687  1.00  0.00     0.008 C 
BRANCH  50  51
HETATM   51  C37 UNL     1     -14.860  -3.977   9.324  1.00  0.00    -0.036 A 
HETATM   52  C38 UNL     1     -15.788  -4.846   8.745  1.00  0.00     0.011 A 
HETATM   53  C39 UNL     1     -15.615  -5.310   7.438  1.00  0.00     0.001 A 
HETATM   54  C40 UNL     1     -14.517  -4.885   6.693  1.00  0.00     0.000 A 
HETATM   55  C41 UNL     1     -13.593  -3.999   7.250  1.00  0.00     0.001 A 
HETATM   56  C42 UNL     1     -13.765  -3.551   8.561  1.00  0.00     0.011 A 
ENDBRANCH  50  51
ENDBRANCH  26  49
TORSDOF 15
ENDMDL
MODEL 5
REMARK minimizedAffinity -7.79004622
REMARK CNNscore 0.223953411
REMARK CNNaffinity 6.02879715
REMARK  15 active torsions:
REMARK  status: ('A' for Active; 'I' for Inactive)
REMARK    1  A    between atoms: N1_2  and  C2_3 
REMARK    2  A    between atoms: C2_3  and  C3_4 
REMARK    3  A    between atoms: C3_4  and  C4_5 
REMARK    4  A    between atoms: C4_5  and  C5_6 
REMARK    5  A    between atoms: C4_5  and  C6_9 
REMARK    6  A    between atoms: C5_6  and  O2_8 
REMARK    7  A    between atoms: C6_9  and  C7_11 
REMARK    8  A    between atoms: C7_11  and  O4_12 
REMARK    9  A    between atoms: C7_11  and  C8_13 
REMARK   10  A    between atoms: C8_13  and  C9_14 
REMARK   11  A    between atoms: C9_14  and  C11_16 
REMARK   12  A    between atoms: C13_18  and  O5_19 
REMARK   13  A    between atoms: C16_22  and  O6_23 
REMARK   14  A    between atoms: C34_43  and  C35_44 
REMARK   15  A    between atoms: C36_45  and  C37_46 
ROOT
HETATM    1  C11 UNL     1       4.345  11.789  15.603  1.00  0.00     0.002 C 
HETATM    2  C12 UNL     1       3.626  10.475  15.181  1.00  0.00     0.049 C 
HETATM    3  C13 UNL     1       2.107  10.702  15.369  1.00  0.00     0.088 C 
HETATM    4  C14 UNL     1       1.406   9.632  16.142  1.00  0.00     0.011 C 
HETATM    5  C15 UNL     1       0.365   9.913  16.939  1.00  0.00     0.015 C 
HETATM    6  C16 UNL     1      -0.152  11.307  17.223  1.00  0.00     0.108 C 
HETATM    7  C17 UNL     1       0.911  12.365  17.064  1.00  0.00    -0.018 C 
HETATM    8  C18 UNL     1       0.943  13.481  17.830  1.00  0.00     0.003 C 
HETATM    9  C19 UNL     1       2.184  14.366  17.719  1.00  0.00     0.157 C 
HETATM   10  O7  UNL     1       2.183  15.522  18.138  1.00  0.00    -0.293 OA
HETATM   11  C20 UNL     1       3.472  13.817  17.084  1.00  0.00     0.094 C 
HETATM   12  C21 UNL     1       3.381  12.332  16.711  1.00  0.00    -0.019 C 
HETATM   13  C22 UNL     1       3.587  11.518  18.025  1.00  0.00     0.017 C 
HETATM   14  C23 UNL     1       1.988  12.127  16.009  1.00  0.00     0.026 C 
HETATM   15  C24 UNL     1       1.697  13.154  14.853  1.00  0.00     0.025 C 
HETATM   16  C25 UNL     1      -0.230  13.930  18.735  1.00  0.00    -0.007 C 
HETATM   17  C26 UNL     1       0.296  14.391  20.125  1.00  0.00     0.021 C 
HETATM   18  C27 UNL     1      -0.884  15.154  18.034  1.00  0.00     0.022 C 
HETATM   19  C28 UNL     1      -1.747  14.759  16.847  1.00  0.00     0.080 C 
HETATM   20  C29 UNL     1      -2.921  13.930  17.290  1.00  0.00     0.135 C 
HETATM   21  O8  UNL     1      -3.974  13.963  16.638  1.00  0.00    -0.297 OA
HETATM   22  C30 UNL     1      -2.811  13.128  18.593  1.00  0.00     0.018 C 
HETATM   23  C31 UNL     1      -3.707  11.879  18.455  1.00  0.00     0.023 C 
HETATM   24  C32 UNL     1      -3.483  13.985  19.702  1.00  0.00     0.023 C 
HETATM   25  C33 UNL     1      -1.320  12.788  19.017  1.00  0.00     0.025 C 
HETATM   26  C34 UNL     1      -0.801  11.361  18.638  1.00  0.00     0.057 C 
ENDROOT
BRANCH   1  27
HETATM   27  C9  UNL     1       5.860  11.572  15.935  1.00  0.00    -0.011 C 
HETATM   28  C10 UNL     1       6.721  12.682  15.323  1.00  0.00     0.010 C 
BRANCH  27  29
HETATM   29  C8  UNL     1       6.319  10.155  15.476  1.00  0.00     0.044 C 
BRANCH  29  30
HETATM   30  C7  UNL     1       7.357   9.414  16.341  1.00  0.00     0.188 C 
BRANCH  30  31
HETATM   31  C6  UNL     1       8.776   9.432  15.743  1.00  0.00     0.169 C 
HETATM   32  O3  UNL     1       9.456  10.463  15.744  1.00  0.00    -0.294 OA
BRANCH  31  33
HETATM   33  C4  UNL     1       9.253   8.156  15.074  1.00  0.00     0.157 C 
BRANCH  33  34
HETATM   34  C3  UNL     1       8.048   7.351  14.549  1.00  0.00     0.053 C 
BRANCH  34  35
HETATM   35  C2  UNL     1       7.737   7.655  13.077  1.00  0.00     0.270 C 
BRANCH  35  36
HETATM   36  N1  UNL     1       6.619   6.869  12.546  1.00  0.00     0.079 N 
HETATM   37  C1  UNL     1       6.796   6.530  11.133  1.00  0.00     0.306 C 
HETATM   38  H4  UNL     1       5.759   7.415  12.635  1.00  0.00     0.315 HD
ENDBRANCH  35  36
ENDBRANCH  34  35
ENDBRANCH  33  34
BRANCH  33  39
HETATM   39  C5  UNL     1      10.239   8.468  13.978  1.00  0.00     0.151 C 
HETATM   40  O1  UNL     1      11.271   7.883  13.711  1.00  0.00    -0.649 OA
BRANCH  39  41
HETATM   41  O2  UNL     1       9.858   9.536  13.240  1.00  0.00    -0.776 OA
HETATM   42  H10 UNL     1      10.535   9.590  12.533  1.00  0.00     0.167 HD
ENDBRANCH  39  41
ENDBRANCH  33  39
ENDBRANCH  31  33
ENDBRANCH  30  31
BRANCH  30  43
HETATM   43  O4  UNL     1       7.267   9.826  17.693  1.00  0.00    -0.388 OA
HETATM   44  H12 UNL     1       7.557  10.751  17.763  1.00  0.00     0.210 HD
ENDBRANCH  30  43
ENDBRANCH  29  30
ENDBRANCH  27  29
ENDBRANCH   1  27
BRANCH   3  45
HETATM   45  O5  UNL     1       1.466  10.657  14.090  1.00  0.00    -0.385 OA
HETATM   46  H22 UNL     1       1.652   9.796  13.683  1.00  0.00     0.211 HD
ENDBRANCH   3  45
BRANCH   6  47
HETATM   47  O6  UNL     1      -1.155  11.558  16.245  1.00  0.00    -0.380 OA
HETATM   48  H25 UNL     1      -0.734  11.432  15.372  1.00  0.00     0.211 HD
ENDBRANCH   6  47
BRANCH  26  49
HETATM   49  C35 UNL     1       0.115  10.826  19.745  1.00  0.00    -0.017 C 
HETATM   50  C36 UNL     1       1.214  11.471  20.170  1.00  0.00     0.008 C 
BRANCH  50  51
HETATM   51  C37 UNL     1       2.085  11.000  21.260  1.00  0.00    -0.036 A 
HETATM   52  C38 UNL     1       2.707  11.945  22.080  1.00  0.00     0.011 A 
HETATM   53  C39 UNL     1       3.507  11.544  23.154  1.00  0.00     0.001 A 
HETATM   54  C40 UNL     1       3.670  10.187  23.426  1.00  0.00     0.000 A 
HETATM   55  C41 UNL     1       3.036   9.232  22.629  1.00  0.00     0.001 A 
HETATM   56  C42 UNL     1       2.250   9.640  21.550  1.00  0.00     0.011 A 
ENDBRANCH  50  51
ENDBRANCH  26  49
TORSDOF 15
ENDMDL
MODEL 6
REMARK minimizedAffinity -8.95833302
REMARK CNNscore 0.213014424
REMARK CNNaffinity 6.38613129
REMARK  15 active torsions:
REMARK  status: ('A' for Active; 'I' for Inactive)
REMARK    1  A    between atoms: N1_2  and  C2_3 
REMARK    2  A    between atoms: C2_3  and  C3_4 
REMARK    3  A    between atoms: C3_4  and  C4_5 
REMARK    4  A    between atoms: C4_5  and  C5_6 
REMARK    5  A    between atoms: C4_5  and  C6_9 
REMARK    6  A    between atoms: C5_6  and  O2_8 
REMARK    7  A    between atoms: C6_9  and  C7_11 
REMARK    8  A    between atoms: C7_11  and  O4_12 
REMARK    9  A    between atoms: C7_11  and  C8_13 
REMARK   10  A    between atoms: C8_13  and  C9_14 
REMARK   11  A    between atoms: C9_14  and  C11_16 
REMARK   12  A    between atoms: C13_18  and  O5_19 
REMARK   13  A    between atoms: C16_22  and  O6_23 
REMARK   14  A    between atoms: C34_43  and  C35_44 
REMARK   15  A    between atoms: C36_45  and  C37_46 
ROOT
HETATM    1  C11 UNL     1      -0.624   8.007  14.560  1.00  0.00     0.002 C 
HETATM    2  C12 UNL     1      -1.876   7.765  15.451  1.00  0.00     0.049 C 
HETATM    3  C13 UNL     1      -2.300   9.135  16.031  1.00  0.00     0.088 C 
HETATM    4  C14 UNL     1      -2.515   9.149  17.510  1.00  0.00     0.011 C 
HETATM    5  C15 UNL     1      -2.234  10.234  18.247  1.00  0.00     0.015 C 
HETATM    6  C16 UNL     1      -1.599  11.500  17.712  1.00  0.00     0.108 C 
HETATM    7  C17 UNL     1      -0.759  11.254  16.484  1.00  0.00    -0.018 C 
HETATM    8  C18 UNL     1       0.361  11.968  16.217  1.00  0.00     0.003 C 
HETATM    9  C19 UNL     1       1.237  11.482  15.062  1.00  0.00     0.157 C 
HETATM   10  O7  UNL     1       2.093  12.209  14.562  1.00  0.00    -0.293 OA
HETATM   11  C20 UNL     1       1.066  10.060  14.506  1.00  0.00     0.094 C 
HETATM   12  C21 UNL     1       0.050   9.218  15.289  1.00  0.00    -0.019 C 
HETATM   13  C22 UNL     1       0.771   8.713  16.576  1.00  0.00     0.017 C 
HETATM   14  C23 UNL     1      -1.200  10.138  15.541  1.00  0.00     0.026 C 
HETATM   15  C24 UNL     1      -1.740  10.852  14.246  1.00  0.00     0.025 C 
HETATM   16  C25 UNL     1       0.744  13.268  16.964  1.00  0.00    -0.007 C 
HETATM   17  C26 UNL     1       2.257  13.267  17.327  1.00  0.00     0.021 C 
HETATM   18  C27 UNL     1       0.483  14.438  15.973  1.00  0.00     0.022 C 
HETATM   19  C28 UNL     1      -0.993  14.770  15.831  1.00  0.00     0.080 C 
HETATM   20  C29 UNL     1      -1.558  15.270  17.131  1.00  0.00     0.135 C 
HETATM   21  O8  UNL     1      -2.510  16.063  17.121  1.00  0.00    -0.297 OA
HETATM   22  C30 UNL     1      -0.882  14.848  18.442  1.00  0.00     0.018 C 
HETATM   23  C31 UNL     1      -1.964  14.816  19.542  1.00  0.00     0.023 C 
HETATM   24  C32 UNL     1       0.069  16.010  18.847  1.00  0.00     0.023 C 
HETATM   25  C33 UNL     1      -0.054  13.499  18.336  1.00  0.00     0.025 C 
HETATM   26  C34 UNL     1      -0.776  12.202  18.832  1.00  0.00     0.057 C 
ENDROOT
BRANCH   1  27
HETATM   27  C9  UNL     1       0.201   6.701  14.305  1.00  0.00    -0.011 C 
HETATM   28  C10 UNL     1       1.282   6.933  13.243  1.00  0.00     0.010 C 
BRANCH  27  29
HETATM   29  C8  UNL     1      -0.747   5.525  13.927  1.00  0.00     0.044 C 
BRANCH  29  30
HETATM   30  C7  UNL     1      -1.582   5.653  12.638  1.00  0.00     0.188 C 
BRANCH  30  31
HETATM   31  C6  UNL     1      -1.162   4.662  11.535  1.00  0.00     0.169 C 
HETATM   32  O3  UNL     1      -0.226   4.918  10.772  1.00  0.00    -0.294 OA
BRANCH  31  33
HETATM   33  C4  UNL     1      -2.010   3.414  11.377  1.00  0.00     0.157 C 
BRANCH  33  34
HETATM   34  C3  UNL     1      -3.036   3.610  10.243  1.00  0.00     0.053 C 
BRANCH  34  35
HETATM   35  C2  UNL     1      -4.471   3.307  10.692  1.00  0.00     0.270 C 
BRANCH  35  36
HETATM   36  N1  UNL     1      -4.617   1.990  11.321  1.00  0.00     0.079 N 
HETATM   37  C1  UNL     1      -5.988   1.484  11.244  1.00  0.00     0.306 C 
HETATM   38  H4  UNL     1      -4.363   2.065  12.309  1.00  0.00     0.315 HD
ENDBRANCH  35  36
ENDBRANCH  34  35
ENDBRANCH  33  34
BRANCH  33  39
HETATM   39  C5  UNL     1      -1.138   2.207  11.141  1.00  0.00     0.151 C 
HETATM   40  O1  UNL     1       0.072   2.129  11.236  1.00  0.00    -0.649 OA
BRANCH  39  41
HETATM   41  O2  UNL     1      -1.861   1.118  10.795  1.00  0.00    -0.776 OA
HETATM   42  H10 UNL     1      -1.196   0.400  10.739  1.00  0.00     0.167 HD
ENDBRANCH  39  41
ENDBRANCH  33  39
ENDBRANCH  31  33
ENDBRANCH  30  31
BRANCH  30  43
HETATM   43  O4  UNL     1      -2.966   5.668  12.938  1.00  0.00    -0.388 OA
HETATM   44  H12 UNL     1      -3.228   4.794  13.273  1.00  0.00     0.210 HD
ENDBRANCH  30  43
ENDBRANCH  29  30
ENDBRANCH  27  29
ENDBRANCH   1  27
BRANCH   3  45
HETATM   45  O5  UNL     1      -3.586   9.485  15.510  1.00  0.00    -0.385 OA
HETATM   46  H22 UNL     1      -4.216   8.786  15.747  1.00  0.00     0.211 HD
ENDBRANCH   3  45
BRANCH   6  47
HETATM   47  O6  UNL     1      -2.677  12.346  17.330  1.00  0.00    -0.380 OA
HETATM   48  H25 UNL     1      -3.218  11.842  16.691  1.00  0.00     0.211 HD
ENDBRANCH   6  47
BRANCH  26  49
HETATM   49  C35 UNL     1       0.231  11.272  19.519  1.00  0.00    -0.017 C 
HETATM   50  C36 UNL     1       1.136  11.698  20.416  1.00  0.00     0.008 C 
BRANCH  50  51
HETATM   51  C37 UNL     1       2.084  10.819  21.121  1.00  0.00    -0.036 A 
HETATM   52  C38 UNL     1       3.366  11.299  21.401  1.00  0.00     0.011 A 
HETATM   53  C39 UNL     1       4.284  10.516  22.106  1.00  0.00     0.001 A 
HETATM   54  C40 UNL     1       3.913   9.251  22.556  1.00  0.00     0.000 A 
HETATM   55  C41 UNL     1       2.628   8.767  22.304  1.00  0.00     0.001 A 
HETATM   56  C42 UNL     1       1.721   9.549  21.586  1.00  0.00     0.011 A 
ENDBRANCH  50  51
ENDBRANCH  26  49
TORSDOF 15
ENDMDL
MODEL 7
REMARK minimizedAffinity -8.31503582
REMARK CNNscore 0.210514843
REMARK CNNaffinity 5.61111307
REMARK  15 active torsions:
REMARK  status: ('A' for Active; 'I' for Inactive)
REMARK    1  A    between atoms: N1_2  and  C2_3 
REMARK    2  A    between atoms: C2_3  and  C3_4 
REMARK    3  A    between atoms: C3_4  and  C4_5 
REMARK    4  A    between atoms: C4_5  and  C5_6 
REMARK    5  A    between atoms: C4_5  and  C6_9 
REMARK    6  A    between atoms: C5_6  and  O2_8 
REMARK    7  A    between atoms: C6_9  and  C7_11 
REMARK    8  A    between atoms: C7_11  and  O4_12 
REMARK    9  A    between atoms: C7_11  and  C8_13 
REMARK   10  A    between atoms: C8_13  and  C9_14 
REMARK   11  A    between atoms: C9_14  and  C11_16 
REMARK   12  A    between atoms: C13_18  and  O5_19 
REMARK   13  A    between atoms: C16_22  and  O6_23 
REMARK   14  A    between atoms: C34_43  and  C35_44 
REMARK   15  A    between atoms: C36_45  and  C37_46 
ROOT
HETATM    1  C11 UNL     1       4.064  11.070  15.371  1.00  0.00     0.002 C 
HETATM    2  C12 UNL     1       3.069   9.915  15.060  1.00  0.00     0.049 C 
HETATM    3  C13 UNL     1       1.647  10.436  15.377  1.00  0.00     0.088 C 
HETATM    4  C14 UNL     1       0.830   9.535  16.246  1.00  0.00     0.011 C 
HETATM    5  C15 UNL     1      -0.057  10.026  17.125  1.00  0.00     0.015 C 
HETATM    6  C16 UNL     1      -0.266  11.498  17.408  1.00  0.00     0.108 C 
HETATM    7  C17 UNL     1       0.960  12.326  17.117  1.00  0.00    -0.018 C 
HETATM    8  C18 UNL     1       1.280  13.426  17.840  1.00  0.00     0.003 C 
HETATM    9  C19 UNL     1       2.652  14.051  17.587  1.00  0.00     0.157 C 
HETATM   10  O7  UNL     1       2.913  15.191  17.965  1.00  0.00    -0.293 OA
HETATM   11  C20 UNL     1       3.743  13.252  16.856  1.00  0.00     0.094 C 
HETATM   12  C21 UNL     1       3.333  11.807  16.542  1.00  0.00    -0.019 C 
HETATM   13  C22 UNL     1       3.503  10.988  17.859  1.00  0.00     0.017 C 
HETATM   14  C23 UNL     1       1.866  11.867  15.978  1.00  0.00     0.026 C 
HETATM   15  C24 UNL     1       1.669  12.913  14.819  1.00  0.00     0.025 C 
HETATM   16  C25 UNL     1       0.307  14.109  18.832  1.00  0.00    -0.007 C 
HETATM   17  C26 UNL     1       1.043  14.480  20.152  1.00  0.00     0.021 C 
HETATM   18  C27 UNL     1      -0.163  15.426  18.151  1.00  0.00     0.022 C 
HETATM   19  C28 UNL     1      -1.195  15.188  17.062  1.00  0.00     0.080 C 
HETATM   20  C29 UNL     1      -2.459  14.611  17.637  1.00  0.00     0.135 C 
HETATM   21  O8  UNL     1      -3.543  14.838  17.083  1.00  0.00    -0.297 OA
HETATM   22  C30 UNL     1      -2.381  13.823  18.951  1.00  0.00     0.018 C 
HETATM   23  C31 UNL     1      -3.510  12.770  18.937  1.00  0.00     0.023 C 
HETATM   24  C32 UNL     1      -2.766  14.811  20.087  1.00  0.00     0.023 C 
HETATM   25  C33 UNL     1      -0.950  13.205  19.249  1.00  0.00     0.025 C 
HETATM   26  C34 UNL     1      -0.754  11.699  18.873  1.00  0.00     0.057 C 
ENDROOT
BRANCH   1  27
HETATM   27  C9  UNL     1       5.534  10.567  15.571  1.00  0.00    -0.011 C 
HETATM   28  C10 UNL     1       6.476  11.734  15.881  1.00  0.00     0.010 C 
BRANCH  27  29
HETATM   29  C8  UNL     1       6.002   9.750  14.330  1.00  0.00     0.044 C 
BRANCH  29  30
HETATM   30  C7  UNL     1       6.008   8.213  14.434  1.00  0.00     0.188 C 
BRANCH  30  31
HETATM   31  C6  UNL     1       6.724   7.522  13.257  1.00  0.00     0.169 C 
HETATM   32  O3  UNL     1       7.931   7.686  13.060  1.00  0.00    -0.294 OA
BRANCH  31  33
HETATM   33  C4  UNL     1       5.858   6.715  12.308  1.00  0.00     0.157 C 
BRANCH  33  34
HETATM   34  C3  UNL     1       4.545   7.469  12.017  1.00  0.00     0.053 C 
BRANCH  34  35
HETATM   35  C2  UNL     1       3.512   6.591  11.299  1.00  0.00     0.270 C 
BRANCH  35  36
HETATM   36  N1  UNL     1       2.962   7.212  10.089  1.00  0.00     0.079 N 
HETATM   37  C1  UNL     1       2.977   6.306   8.940  1.00  0.00     0.306 C 
HETATM   38  H4  UNL     1       3.527   8.031   9.853  1.00  0.00     0.315 HD
ENDBRANCH  35  36
ENDBRANCH  34  35
ENDBRANCH  33  34
BRANCH  33  39
HETATM   39  C5  UNL     1       6.612   6.395  11.044  1.00  0.00     0.151 C 
HETATM   40  O1  UNL     1       7.161   7.170  10.284  1.00  0.00    -0.649 OA
BRANCH  39  41
HETATM   41  O2  UNL     1       6.648   5.066  10.795  1.00  0.00    -0.776 OA
HETATM   42  H10 UNL     1       7.215   4.988   9.999  1.00  0.00     0.167 HD
ENDBRANCH  39  41
ENDBRANCH  33  39
ENDBRANCH  31  33
ENDBRANCH  30  31
BRANCH  30  43
HETATM   43  O4  UNL     1       6.429   7.800  15.722  1.00  0.00    -0.388 OA
HETATM   44  H12 UNL     1       7.369   8.022  15.834  1.00  0.00     0.210 HD
ENDBRANCH  30  43
ENDBRANCH  29  30
ENDBRANCH  27  29
ENDBRANCH   1  27
BRANCH   3  45
HETATM   45  O5  UNL     1       0.890  10.496  14.164  1.00  0.00    -0.385 OA
HETATM   46  H22 UNL     1       0.867   9.610  13.770  1.00  0.00     0.211 HD
ENDBRANCH   3  45
BRANCH   6  47
HETATM   47  O6  UNL     1      -1.290  11.924  16.516  1.00  0.00    -0.380 OA
HETATM   48  H25 UNL     1      -0.987  11.706  15.613  1.00  0.00     0.211 HD
ENDBRANCH   6  47
BRANCH  26  49
HETATM   49  C35 UNL     1       0.143  11.013  19.910  1.00  0.00    -0.017 C 
HETATM   50  C36 UNL     1       1.300  11.538  20.347  1.00  0.00     0.008 C 
BRANCH  50  51
HETATM   51  C37 UNL     1       2.157  10.920  21.373  1.00  0.00    -0.036 A 
HETATM   52  C38 UNL     1       2.944  11.747  22.179  1.00  0.00     0.011 A 
HETATM   53  C39 UNL     1       3.740  11.208  23.194  1.00  0.00     0.001 A 
HETATM   54  C40 UNL     1       3.732   9.833  23.423  1.00  0.00     0.000 A 
HETATM   55  C41 UNL     1       2.933   8.998  22.642  1.00  0.00     0.001 A 
HETATM   56  C42 UNL     1       2.153   9.541  21.620  1.00  0.00     0.011 A 
ENDBRANCH  50  51
ENDBRANCH  26  49
TORSDOF 15
ENDMDL
MODEL 8
REMARK minimizedAffinity -7.79882097
REMARK CNNscore 0.205735922
REMARK CNNaffinity 6.83708143
REMARK  15 active torsions:
REMARK  status: ('A' for Active; 'I' for Inactive)
REMARK    1  A    between atoms: N1_2  and  C2_3 
REMARK    2  A    between atoms: C2_3  and  C3_4 
REMARK    3  A    between atoms: C3_4  and  C4_5 
REMARK    4  A    between atoms: C4_5  and  C5_6 
REMARK    5  A    between atoms: C4_5  and  C6_9 
REMARK    6  A    between atoms: C5_6  and  O2_8 
REMARK    7  A    between atoms: C6_9  and  C7_11 
REMARK    8  A    between atoms: C7_11  and  O4_12 
REMARK    9  A    between atoms: C7_11  and  C8_13 
REMARK   10  A    between atoms: C8_13  and  C9_14 
REMARK   11  A    between atoms: C9_14  and  C11_16 
REMARK   12  A    between atoms: C13_18  and  O5_19 
REMARK   13  A    between atoms: C16_22  and  O6_23 
REMARK   14  A    between atoms: C34_43  and  C35_44 
REMARK   15  A    between atoms: C36_45  and  C37_46 
ROOT
HETATM    1  C11 UNL     1      -9.919   7.951  14.477  1.00  0.00     0.002 C 
HETATM    2  C12 UNL     1     -11.085   6.922  14.539  1.00  0.00     0.049 C 
HETATM    3  C13 UNL     1     -12.399   7.702  14.302  1.00  0.00     0.088 C 
HETATM    4  C14 UNL     1     -13.473   7.439  15.309  1.00  0.00     0.011 C 
HETATM    5  C15 UNL     1     -14.336   8.397  15.678  1.00  0.00     0.015 C 
HETATM    6  C16 UNL     1     -14.277   9.837  15.214  1.00  0.00     0.108 C 
HETATM    7  C17 UNL     1     -12.884  10.265  14.823  1.00  0.00    -0.018 C 
HETATM    8  C18 UNL     1     -12.433  11.528  15.012  1.00  0.00     0.003 C 
HETATM    9  C19 UNL     1     -10.944  11.779  14.774  1.00  0.00     0.157 C 
HETATM   10  O7  UNL     1     -10.504  12.918  14.635  1.00  0.00    -0.293 OA
HETATM   11  C20 UNL     1      -9.961  10.599  14.714  1.00  0.00     0.094 C 
HETATM   12  C21 UNL     1     -10.615   9.245  15.018  1.00  0.00    -0.019 C 
HETATM   13  C22 UNL     1     -10.761   9.147  16.568  1.00  0.00     0.017 C 
HETATM   14  C23 UNL     1     -11.967   9.206  14.216  1.00  0.00     0.026 C 
HETATM   15  C24 UNL     1     -11.819   9.580  12.695  1.00  0.00     0.025 C 
HETATM   16  C25 UNL     1     -13.354  12.718  15.376  1.00  0.00    -0.007 C 
HETATM   17  C26 UNL     1     -12.713  13.584  16.497  1.00  0.00     0.021 C 
HETATM   18  C27 UNL     1     -13.472  13.591  14.094  1.00  0.00     0.022 C 
HETATM   19  C28 UNL     1     -14.402  12.987  13.055  1.00  0.00     0.080 C 
HETATM   20  C29 UNL     1     -15.812  12.919  13.573  1.00  0.00     0.135 C 
HETATM   21  O8  UNL     1     -16.760  12.983  12.777  1.00  0.00    -0.297 OA
HETATM   22  C30 UNL     1     -16.042  12.858  15.088  1.00  0.00     0.018 C 
HETATM   23  C31 UNL     1     -17.350  12.077  15.336  1.00  0.00     0.023 C 
HETATM   24  C32 UNL     1     -16.346  14.310  15.552  1.00  0.00     0.023 C 
HETATM   25  C33 UNL     1     -14.806  12.289  15.906  1.00  0.00     0.025 C 
HETATM   26  C34 UNL     1     -14.875  10.777  16.302  1.00  0.00     0.057 C 
ENDROOT
BRANCH   1  27
HETATM   27  C9  UNL     1      -8.612   7.430  15.165  1.00  0.00    -0.011 C 
HETATM   28  C10 UNL     1      -7.461   8.423  14.980  1.00  0.00     0.010 C 
BRANCH  27  29
HETATM   29  C8  UNL     1      -8.250   6.010  14.637  1.00  0.00     0.044 C 
BRANCH  29  30
HETATM   30  C7  UNL     1      -7.550   5.902  13.269  1.00  0.00     0.188 C 
BRANCH  30  31
HETATM   31  C6  UNL     1      -6.314   4.982  13.284  1.00  0.00     0.169 C 
HETATM   32  O3  UNL     1      -5.363   5.204  14.040  1.00  0.00    -0.294 OA
BRANCH  31  33
HETATM   33  C4  UNL     1      -6.285   3.857  12.266  1.00  0.00     0.157 C 
BRANCH  33  34
HETATM   34  C3  UNL     1      -4.835   3.383  12.042  1.00  0.00     0.053 C 
BRANCH  34  35
HETATM   35  C2  UNL     1      -4.440   3.388  10.559  1.00  0.00     0.270 C 
BRANCH  35  36
HETATM   36  N1  UNL     1      -5.425   2.730   9.693  1.00  0.00     0.079 N 
HETATM   37  C1  UNL     1      -5.645   3.459   8.444  1.00  0.00     0.306 C 
HETATM   38  H4  UNL     1      -6.317   2.676  10.190  1.00  0.00     0.315 HD
ENDBRANCH  35  36
ENDBRANCH  34  35
ENDBRANCH  33  34
BRANCH  33  39
HETATM   39  C5  UNL     1      -7.184   2.728  12.698  1.00  0.00     0.151 C 
HETATM   40  O1  UNL     1      -8.053   2.747  13.548  1.00  0.00    -0.649 OA
BRANCH  39  41
HETATM   41  O2  UNL     1      -6.940   1.591  12.007  1.00  0.00    -0.776 OA
HETATM   42  H10 UNL     1      -7.623   0.966  12.329  1.00  0.00     0.167 HD
ENDBRANCH  39  41
ENDBRANCH  33  39
ENDBRANCH  31  33
ENDBRANCH  30  31
BRANCH  30  43
HETATM   43  O4  UNL     1      -8.491   5.630  12.245  1.00  0.00    -0.388 OA
HETATM   44  H12 UNL     1      -8.846   4.733  12.371  1.00  0.00     0.210 HD
ENDBRANCH  30  43
ENDBRANCH  29  30
ENDBRANCH  27  29
ENDBRANCH   1  27
BRANCH   3  45
HETATM   45  O5  UNL     1     -12.988   7.264  13.074  1.00  0.00    -0.385 OA
HETATM   46  H22 UNL     1     -13.144   6.308  13.130  1.00  0.00     0.211 HD
ENDBRANCH   3  45
BRANCH   6  47
HETATM   47  O6  UNL     1     -15.088   9.904  14.046  1.00  0.00    -0.380 OA
HETATM   48  H25 UNL     1     -14.735   9.243  13.420  1.00  0.00     0.211 HD
ENDBRANCH   6  47
BRANCH  26  49
HETATM   49  C35 UNL     1     -14.256  10.570  17.689  1.00  0.00    -0.017 C 
HETATM   50  C36 UNL     1     -12.947  10.733  17.944  1.00  0.00     0.008 C 
BRANCH  50  51
HETATM   51  C37 UNL     1     -12.336  10.583  19.275  1.00  0.00    -0.036 A 
HETATM   52  C38 UNL     1     -12.678   9.473  20.052  1.00  0.00     0.011 A 
HETATM   53  C39 UNL     1     -12.090   9.267  21.303  1.00  0.00     0.001 A 
HETATM   54  C40 UNL     1     -11.135  10.165  21.775  1.00  0.00     0.000 A 
HETATM   55  C41 UNL     1     -10.766  11.266  21.001  1.00  0.00     0.001 A 
HETATM   56  C42 UNL     1     -11.368  11.473  19.759  1.00  0.00     0.011 A 
ENDBRANCH  50  51
ENDBRANCH  26  49
TORSDOF 15
ENDMDL
MODEL 9
REMARK minimizedAffinity -7.43424034
REMARK CNNscore 0.198789179
REMARK CNNaffinity 6.1189971
REMARK  15 active torsions:
REMARK  status: ('A' for Active; 'I' for Inactive)
REMARK    1  A    between atoms: N1_2  and  C2_3 
REMARK    2  A    between atoms: C2_3  and  C3_4 
REMARK    3  A    between atoms: C3_4  and  C4_5 
REMARK    4  A    between atoms: C4_5  and  C5_6 
REMARK    5  A    between atoms: C4_5  and  C6_9 
REMARK    6  A    between atoms: C5_6  and  O2_8 
REMARK    7  A    between atoms: C6_9  and  C7_11 
REMARK    8  A    between atoms: C7_11  and  O4_12 
REMARK    9  A    between atoms: C7_11  and  C8_13 
REMARK   10  A    between atoms: C8_13  and  C9_14 
REMARK   11  A    between atoms: C9_14  and  C11_16 
REMARK   12  A    between atoms: C13_18  and  O5_19 
REMARK   13  A    between atoms: C16_22  and  O6_23 
REMARK   14  A    between atoms: C34_43  and  C35_44 
REMARK   15  A    between atoms: C36_45  and  C37_46 
ROOT
HETATM    1  C11 UNL     1      -2.076  10.525  15.441  1.00  0.00     0.002 C 
HETATM    2  C12 UNL     1      -3.169  10.947  16.466  1.00  0.00     0.049 C 
HETATM    3  C13 UNL     1      -2.760  12.327  17.031  1.00  0.00     0.088 C 
HETATM    4  C14 UNL     1      -2.774  12.422  18.523  1.00  0.00     0.011 C 
HETATM    5  C15 UNL     1      -1.897  13.192  19.184  1.00  0.00     0.015 C 
HETATM    6  C16 UNL     1      -0.763  13.958  18.536  1.00  0.00     0.108 C 
HETATM    7  C17 UNL     1      -0.309  13.338  17.239  1.00  0.00    -0.018 C 
HETATM    8  C18 UNL     1       0.982  13.376  16.829  1.00  0.00     0.003 C 
HETATM    9  C19 UNL     1       1.350  12.531  15.610  1.00  0.00     0.157 C 
HETATM   10  O7  UNL     1       2.399  12.721  14.996  1.00  0.00    -0.293 OA
HETATM   11  C20 UNL     1       0.412  11.412  15.132  1.00  0.00     0.094 C 
HETATM   12  C21 UNL     1      -0.800  11.200  16.048  1.00  0.00    -0.019 C 
HETATM   13  C22 UNL     1      -0.306  10.371  17.273  1.00  0.00     0.017 C 
HETATM   14  C23 UNL     1      -1.362  12.629  16.391  1.00  0.00     0.026 C 
HETATM   15  C24 UNL     1      -1.594  13.544  15.132  1.00  0.00     0.025 C 
HETATM   16  C25 UNL     1       2.058  14.278  17.481  1.00  0.00    -0.007 C 
HETATM   17  C26 UNL     1       3.383  13.488  17.685  1.00  0.00     0.021 C 
HETATM   18  C27 UNL     1       2.331  15.433  16.476  1.00  0.00     0.022 C 
HETATM   19  C28 UNL     1       1.231  16.482  16.474  1.00  0.00     0.080 C 
HETATM   20  C29 UNL     1       1.149  17.176  17.805  1.00  0.00     0.135 C 
HETATM   21  O8  UNL     1       0.748  18.347  17.861  1.00  0.00    -0.297 OA
HETATM   22  C30 UNL     1       1.650  16.441  19.055  1.00  0.00     0.018 C 
HETATM   23  C31 UNL     1       0.833  16.951  20.261  1.00  0.00     0.023 C 
HETATM   24  C32 UNL     1       3.101  16.937  19.313  1.00  0.00     0.023 C 
HETATM   25  C33 UNL     1       1.648  14.860  18.918  1.00  0.00     0.025 C 
HETATM   26  C34 UNL     1       0.420  14.113  19.537  1.00  0.00     0.057 C 
ENDROOT
BRANCH   1  27
HETATM   27  C9  UNL     1      -2.074   8.986  15.154  1.00  0.00    -0.011 C 
HETATM   28  C10 UNL     1      -2.695   8.209  16.320  1.00  0.00     0.010 C 
BRANCH  27  29
HETATM   29  C8  UNL     1      -0.632   8.497  14.827  1.00  0.00     0.044 C 
BRANCH  29  30
HETATM   30  C7  UNL     1      -0.262   7.044  15.182  1.00  0.00     0.188 C 
BRANCH  30  31
HETATM   31  C6  UNL     1       0.449   6.296  14.037  1.00  0.00     0.169 C 
HETATM   32  O3  UNL     1      -0.108   5.371  13.437  1.00  0.00    -0.294 OA
BRANCH  31  33
HETATM   33  C4  UNL     1       1.887   6.687  13.753  1.00  0.00     0.157 C 
BRANCH  33  34
HETATM   34  C3  UNL     1       1.964   7.524  12.460  1.00  0.00     0.053 C 
BRANCH  34  35
HETATM   35  C2  UNL     1       3.400   7.665  11.938  1.00  0.00     0.270 C 
BRANCH  35  36
HETATM   36  N1  UNL     1       4.003   6.387  11.546  1.00  0.00     0.079 N 
HETATM   37  C1  UNL     1       3.768   6.066  10.138  1.00  0.00     0.306 C 
HETATM   38  H4  UNL     1       3.594   5.640  12.113  1.00  0.00     0.315 HD
ENDBRANCH  35  36
ENDBRANCH  34  35
ENDBRANCH  33  34
BRANCH  33  39
HETATM   39  C5  UNL     1       2.480   7.419  14.930  1.00  0.00     0.151 C 
HETATM   40  O1  UNL     1       2.535   8.620  15.113  1.00  0.00    -0.649 OA
BRANCH  39  41
HETATM   41  O2  UNL     1       2.984   6.571  15.855  1.00  0.00    -0.776 OA
HETATM   42  H10 UNL     1       3.270   7.158  16.585  1.00  0.00     0.167 HD
ENDBRANCH  39  41
ENDBRANCH  33  39
ENDBRANCH  31  33
ENDBRANCH  30  31
BRANCH  30  43
HETATM   43  O4  UNL     1       0.393   6.987  16.437  1.00  0.00    -0.388 OA
HETATM   44  H12 UNL     1       1.263   7.413  16.360  1.00  0.00     0.210 HD
ENDBRANCH  30  43
ENDBRANCH  29  30
ENDBRANCH  27  29
ENDBRANCH   1  27
BRANCH   3  45
HETATM   45  O5  UNL     1      -3.730  13.301  16.632  1.00  0.00    -0.385 OA
HETATM   46  H22 UNL     1      -4.600  13.022  16.960  1.00  0.00     0.211 HD
ENDBRANCH   3  45
BRANCH   6  47
HETATM   47  O6  UNL     1      -1.286  15.246  18.234  1.00  0.00    -0.380 OA
HETATM   48  H25 UNL     1      -2.075  15.106  17.675  1.00  0.00     0.211 HD
ENDBRANCH   6  47
BRANCH  26  49
HETATM   49  C35 UNL     1       0.872  12.784  20.152  1.00  0.00    -0.017 C 
HETATM   50  C36 UNL     1       1.918  12.676  20.988  1.00  0.00     0.008 C 
BRANCH  50  51
HETATM   51  C37 UNL     1       2.345  11.419  21.626  1.00  0.00    -0.036 A 
HETATM   52  C38 UNL     1       3.163  11.483  22.758  1.00  0.00     0.011 A 
HETATM   53  C39 UNL     1       3.557  10.317  23.421  1.00  0.00     0.001 A 
HETATM   54  C40 UNL     1       3.112   9.078  22.966  1.00  0.00     0.000 A 
HETATM   55  C41 UNL     1       2.277   9.000  21.851  1.00  0.00     0.001 A 
HETATM   56  C42 UNL     1       1.899  10.167  21.184  1.00  0.00     0.011 A 
ENDBRANCH  50  51
ENDBRANCH  26  49
TORSDOF 15
ENDMDL
