MODEL 1
REMARK minimizedAffinity -8.77938461
REMARK CNNscore 0.606909096
REMARK CNNaffinity 6.81837463
REMARK  8 active torsions:
REMARK  status: ('A' for Active; 'I' for Inactive)
REMARK    1  A    between atoms: C2_2  and  C30_34 
REMARK    2  A    between atoms: C3_3  and  C4_4 
REMARK    3  A    between atoms: C4_4  and  O1_5 
REMARK    4  A    between atoms: C4_4  and  C5_6 
REMARK    5  A    between atoms: C5_6  and  C6_7 
REMARK    6  A    between atoms: C6_7  and  C8_9 
REMARK    7  A    between atoms: C10_11  and  O2_12 
REMARK    8  A    between atoms: C30_34  and  O6_36 
ROOT
HETATM    1  C8  UNL     1      -0.689  50.420 -19.067  1.00  0.00     0.001 C 
HETATM    2  C9  UNL     1      -1.043  49.263 -18.088  1.00  0.00     0.038 C 
HETATM    3  C10 UNL     1      -2.168  48.443 -18.753  1.00  0.00     0.131 C 
HETATM    4  C11 UNL     1      -2.113  48.855 -20.248  1.00  0.00     0.014 C 
HETATM    5  C12 UNL     1      -0.965  48.058 -20.947  1.00  0.00     0.023 C 
HETATM    6  C13 UNL     1      -3.343  48.639 -21.124  1.00  0.00    -0.058 C 
HETATM    7  C14 UNL     1      -3.599  49.441 -22.188  1.00  0.00    -0.000 C 
HETATM    8  C15 UNL     1      -2.566  50.502 -22.533  1.00  0.00     0.157 C 
HETATM    9  O3  UNL     1      -2.508  50.970 -23.670  1.00  0.00    -0.293 OA
HETATM   10  C16 UNL     1      -1.560  50.969 -21.483  1.00  0.00     0.094 C 
HETATM   11  C17 UNL     1      -1.863  50.405 -20.094  1.00  0.00    -0.019 C 
HETATM   12  C18 UNL     1      -3.090  51.176 -19.521  1.00  0.00     0.017 C 
HETATM   13  C19 UNL     1      -4.839  49.289 -23.099  1.00  0.00    -0.008 C 
HETATM   14  C20 UNL     1      -5.516  50.680 -23.249  1.00  0.00     0.021 C 
HETATM   15  C21 UNL     1      -4.362  48.785 -24.493  1.00  0.00     0.022 C 
HETATM   16  C22 UNL     1      -5.341  47.908 -25.258  1.00  0.00     0.080 C 
HETATM   17  C23 UNL     1      -6.764  48.197 -24.867  1.00  0.00     0.135 C 
HETATM   18  O4  UNL     1      -7.595  48.539 -25.707  1.00  0.00    -0.297 OA
HETATM   19  C24 UNL     1      -7.127  47.953 -23.401  1.00  0.00     0.018 C 
HETATM   20  C25 UNL     1      -8.341  48.831 -23.019  1.00  0.00     0.023 C 
HETATM   21  C26 UNL     1      -7.607  46.489 -23.320  1.00  0.00     0.023 C 
HETATM   22  C27 UNL     1      -5.901  48.296 -22.464  1.00  0.00     0.014 C 
HETATM   23  C28 UNL     1      -5.173  47.061 -21.903  1.00  0.00     0.011 C 
HETATM   24  C29 UNL     1      -4.207  47.455 -20.789  1.00  0.00     0.036 C 
ENDROOT
BRANCH   1  25
HETATM   25  C6  UNL     1      -0.190  51.713 -18.354  1.00  0.00    -0.011 C 
HETATM   26  C7  UNL     1       0.132  52.918 -19.246  1.00  0.00     0.010 C 
BRANCH  25  27
HETATM   27  C5  UNL     1       0.989  51.412 -17.400  1.00  0.00     0.040 C 
BRANCH  27  28
HETATM   28  C4  UNL     1       0.886  52.037 -16.000  1.00  0.00     0.142 C 
BRANCH  28  29
HETATM   29  C3  UNL     1       1.620  51.268 -14.935  1.00  0.00     0.018 C 
HETATM   30  C2  UNL     1       2.943  51.241 -14.665  1.00  0.00     0.010 C 
HETATM   31  C1  UNL     1       4.011  51.956 -15.440  1.00  0.00     0.055 C 
BRANCH  30  32
HETATM   32  C30 UNL     1       3.465  50.430 -13.532  1.00  0.00     0.171 C 
HETATM   33  O5  UNL     1       3.668  50.842 -12.404  1.00  0.00    -0.646 OA
BRANCH  32  34
HETATM   34  O6  UNL     1       3.717  49.148 -13.847  1.00  0.00    -0.773 OA
HETATM   35  H44 UNL     1       4.047  48.772 -13.006  1.00  0.00     0.167 HD
ENDBRANCH  32  34
ENDBRANCH  30  32
ENDBRANCH  28  29
BRANCH  28  36
HETATM   36  O1  UNL     1       1.375  53.372 -16.067  1.00  0.00    -0.392 OA
HETATM   37  H6  UNL     1       1.350  53.732 -15.163  1.00  0.00     0.210 HD
ENDBRANCH  28  36
ENDBRANCH  27  28
ENDBRANCH  25  27
ENDBRANCH   1  25
BRANCH   3  38
HETATM   38  O2  UNL     1      -1.966  47.055 -18.537  1.00  0.00    -0.394 OA
HETATM   39  H17 UNL     1      -1.913  46.910 -17.577  1.00  0.00     0.210 HD
ENDBRANCH   3  38
TORSDOF 8
ENDMDL
MODEL 2
REMARK minimizedAffinity -7.85183334
REMARK CNNscore 0.557865679
REMARK CNNaffinity 6.57010126
REMARK  8 active torsions:
REMARK  status: ('A' for Active; 'I' for Inactive)
REMARK    1  A    between atoms: C2_2  and  C30_34 
REMARK    2  A    between atoms: C3_3  and  C4_4 
REMARK    3  A    between atoms: C4_4  and  O1_5 
REMARK    4  A    between atoms: C4_4  and  C5_6 
REMARK    5  A    between atoms: C5_6  and  C6_7 
REMARK    6  A    between atoms: C6_7  and  C8_9 
REMARK    7  A    between atoms: C10_11  and  O2_12 
REMARK    8  A    between atoms: C30_34  and  O6_36 
ROOT
HETATM    1  C8  UNL     1      -7.991  46.219 -33.528  1.00  0.00     0.001 C 
HETATM    2  C9  UNL     1      -6.756  47.164 -33.578  1.00  0.00     0.038 C 
HETATM    3  C10 UNL     1      -6.384  47.492 -32.118  1.00  0.00     0.131 C 
HETATM    4  C11 UNL     1      -7.097  46.395 -31.283  1.00  0.00     0.014 C 
HETATM    5  C12 UNL     1      -6.238  45.092 -31.327  1.00  0.00     0.023 C 
HETATM    6  C13 UNL     1      -7.369  46.647 -29.802  1.00  0.00    -0.058 C 
HETATM    7  C14 UNL     1      -8.426  46.074 -29.174  1.00  0.00    -0.000 C 
HETATM    8  C15 UNL     1      -9.274  45.097 -29.973  1.00  0.00     0.157 C 
HETATM    9  O3  UNL     1      -9.959  44.252 -29.398  1.00  0.00    -0.293 OA
HETATM   10  C16 UNL     1      -9.252  45.126 -31.500  1.00  0.00     0.094 C 
HETATM   11  C17 UNL     1      -8.475  46.324 -32.049  1.00  0.00    -0.019 C 
HETATM   12  C18 UNL     1      -9.356  47.595 -31.859  1.00  0.00     0.017 C 
HETATM   13  C19 UNL     1      -8.769  46.308 -27.685  1.00  0.00    -0.008 C 
HETATM   14  C20 UNL     1     -10.274  46.678 -27.575  1.00  0.00     0.021 C 
HETATM   15  C21 UNL     1      -8.495  44.987 -26.907  1.00  0.00     0.022 C 
HETATM   16  C22 UNL     1      -8.058  45.141 -25.458  1.00  0.00     0.080 C 
HETATM   17  C23 UNL     1      -8.568  46.424 -24.861  1.00  0.00     0.135 C 
HETATM   18  O4  UNL     1      -9.270  46.417 -23.851  1.00  0.00    -0.297 OA
HETATM   19  C24 UNL     1      -8.090  47.718 -25.524  1.00  0.00     0.018 C 
HETATM   20  C25 UNL     1      -9.113  48.844 -25.249  1.00  0.00     0.023 C 
HETATM   21  C26 UNL     1      -6.795  48.118 -24.790  1.00  0.00     0.023 C 
HETATM   22  C27 UNL     1      -7.926  47.511 -27.083  1.00  0.00     0.014 C 
HETATM   23  C28 UNL     1      -6.464  47.395 -27.552  1.00  0.00     0.011 C 
HETATM   24  C29 UNL     1      -6.368  47.499 -29.071  1.00  0.00     0.036 C 
ENDROOT
BRANCH   1  25
HETATM   25  C6  UNL     1      -8.943  46.366 -34.753  1.00  0.00    -0.011 C 
HETATM   26  C7  UNL     1      -9.499  45.072 -35.361  1.00  0.00     0.010 C 
BRANCH  25  27
HETATM   27  C5  UNL     1      -8.317  47.258 -35.850  1.00  0.00     0.040 C 
BRANCH  27  28
HETATM   28  C4  UNL     1      -8.916  47.100 -37.257  1.00  0.00     0.142 C 
BRANCH  28  29
HETATM   29  C3  UNL     1     -10.059  48.036 -37.539  1.00  0.00     0.018 C 
HETATM   30  C2  UNL     1     -10.673  48.298 -38.713  1.00  0.00     0.010 C 
HETATM   31  C1  UNL     1     -10.288  47.733 -40.050  1.00  0.00     0.055 C 
BRANCH  30  32
HETATM   32  C30 UNL     1     -11.820  49.244 -38.771  1.00  0.00     0.171 C 
HETATM   33  O5  UNL     1     -12.268  49.749 -39.785  1.00  0.00    -0.646 OA
BRANCH  32  34
HETATM   34  O6  UNL     1     -12.357  49.526 -37.572  1.00  0.00    -0.773 OA
HETATM   35  H44 UNL     1     -13.081  50.148 -37.792  1.00  0.00     0.167 HD
ENDBRANCH  32  34
ENDBRANCH  30  32
ENDBRANCH  28  29
BRANCH  28  36
HETATM   36  O1  UNL     1      -7.877  47.291 -38.211  1.00  0.00    -0.392 OA
HETATM   37  H6  UNL     1      -8.286  47.238 -39.093  1.00  0.00     0.210 HD
ENDBRANCH  28  36
ENDBRANCH  27  28
ENDBRANCH  25  27
ENDBRANCH   1  25
BRANCH   3  38
HETATM   38  O2  UNL     1      -4.975  47.505 -31.954  1.00  0.00    -0.394 OA
HETATM   39  H17 UNL     1      -4.610  48.147 -32.587  1.00  0.00     0.210 HD
ENDBRANCH   3  38
TORSDOF 8
ENDMDL
MODEL 3
REMARK minimizedAffinity -8.03222847
REMARK CNNscore 0.529470861
REMARK CNNaffinity 6.2585392
REMARK  8 active torsions:
REMARK  status: ('A' for Active; 'I' for Inactive)
REMARK    1  A    between atoms: C2_2  and  C30_34 
REMARK    2  A    between atoms: C3_3  and  C4_4 
REMARK    3  A    between atoms: C4_4  and  O1_5 
REMARK    4  A    between atoms: C4_4  and  C5_6 
REMARK    5  A    between atoms: C5_6  and  C6_7 
REMARK    6  A    between atoms: C6_7  and  C8_9 
REMARK    7  A    between atoms: C10_11  and  O2_12 
REMARK    8  A    between atoms: C30_34  and  O6_36 
ROOT
HETATM    1  C8  UNL     1     -12.597  44.406 -27.291  1.00  0.00     0.001 C 
HETATM    2  C9  UNL     1     -12.290  43.022 -27.932  1.00  0.00     0.038 C 
HETATM    3  C10 UNL     1     -10.922  43.148 -28.634  1.00  0.00     0.131 C 
HETATM    4  C11 UNL     1     -10.281  44.414 -28.007  1.00  0.00     0.014 C 
HETATM    5  C12 UNL     1      -9.663  44.032 -26.624  1.00  0.00     0.023 C 
HETATM    6  C13 UNL     1      -9.167  45.135 -28.760  1.00  0.00    -0.058 C 
HETATM    7  C14 UNL     1      -8.970  46.470 -28.616  1.00  0.00    -0.000 C 
HETATM    8  C15 UNL     1      -9.837  47.204 -27.606  1.00  0.00     0.157 C 
HETATM    9  O3  UNL     1      -9.464  48.273 -27.125  1.00  0.00    -0.293 OA
HETATM   10  C16 UNL     1     -11.162  46.601 -27.144  1.00  0.00     0.094 C 
HETATM   11  C17 UNL     1     -11.546  45.356 -27.945  1.00  0.00    -0.019 C 
HETATM   12  C18 UNL     1     -12.041  45.821 -29.348  1.00  0.00     0.017 C 
HETATM   13  C19 UNL     1      -7.876  47.262 -29.368  1.00  0.00    -0.008 C 
HETATM   14  C20 UNL     1      -8.528  48.513 -30.019  1.00  0.00     0.021 C 
HETATM   15  C21 UNL     1      -6.799  47.708 -28.336  1.00  0.00     0.022 C 
HETATM   16  C22 UNL     1      -5.376  47.824 -28.861  1.00  0.00     0.080 C 
HETATM   17  C23 UNL     1      -5.353  48.114 -30.336  1.00  0.00     0.135 C 
HETATM   18  O4  UNL     1      -4.785  49.112 -30.777  1.00  0.00    -0.297 OA
HETATM   19  C24 UNL     1      -5.990  47.060 -31.244  1.00  0.00     0.018 C 
HETATM   20  C25 UNL     1      -6.443  47.724 -32.565  1.00  0.00     0.023 C 
HETATM   21  C26 UNL     1      -4.858  46.080 -31.617  1.00  0.00     0.023 C 
HETATM   22  C27 UNL     1      -7.230  46.391 -30.527  1.00  0.00     0.014 C 
HETATM   23  C28 UNL     1      -6.963  44.966 -30.008  1.00  0.00     0.011 C 
HETATM   24  C29 UNL     1      -8.265  44.279 -29.604  1.00  0.00     0.036 C 
ENDROOT
BRANCH   1  25
HETATM   25  C6  UNL     1     -14.118  44.736 -27.210  1.00  0.00    -0.011 C 
HETATM   26  C7  UNL     1     -14.664  45.750 -28.223  1.00  0.00     0.010 C 
BRANCH  25  27
HETATM   27  C5  UNL     1     -14.536  45.122 -25.773  1.00  0.00     0.040 C 
BRANCH  27  28
HETATM   28  C4  UNL     1     -15.095  46.544 -25.604  1.00  0.00     0.142 C 
BRANCH  28  29
HETATM   29  C3  UNL     1     -16.551  46.584 -25.226  1.00  0.00     0.018 C 
HETATM   30  C2  UNL     1     -17.115  46.504 -24.001  1.00  0.00     0.010 C 
HETATM   31  C1  UNL     1     -16.379  46.291 -22.710  1.00  0.00     0.055 C 
BRANCH  30  32
HETATM   32  C30 UNL     1     -18.590  46.599 -23.843  1.00  0.00     0.171 C 
HETATM   33  O5  UNL     1     -19.248  46.017 -22.998  1.00  0.00    -0.646 OA
BRANCH  32  34
HETATM   34  O6  UNL     1     -19.187  47.404 -24.738  1.00  0.00    -0.773 OA
HETATM   35  H44 UNL     1     -20.134  47.348 -24.493  1.00  0.00     0.167 HD
ENDBRANCH  32  34
ENDBRANCH  30  32
ENDBRANCH  28  29
BRANCH  28  36
HETATM   36  O1  UNL     1     -14.315  47.220 -24.624  1.00  0.00    -0.392 OA
HETATM   37  H6  UNL     1     -14.716  48.097 -24.494  1.00  0.00     0.210 HD
ENDBRANCH  28  36
ENDBRANCH  27  28
ENDBRANCH  25  27
ENDBRANCH   1  25
BRANCH   3  38
HETATM   38  O2  UNL     1     -10.155  41.969 -28.444  1.00  0.00    -0.394 OA
HETATM   39  H17 UNL     1     -10.679  41.219 -28.776  1.00  0.00     0.210 HD
ENDBRANCH   3  38
TORSDOF 8
ENDMDL
MODEL 4
REMARK minimizedAffinity -8.12126541
REMARK CNNscore 0.481834412
REMARK CNNaffinity 6.17392969
REMARK  8 active torsions:
REMARK  status: ('A' for Active; 'I' for Inactive)
REMARK    1  A    between atoms: C2_2  and  C30_34 
REMARK    2  A    between atoms: C3_3  and  C4_4 
REMARK    3  A    between atoms: C4_4  and  O1_5 
REMARK    4  A    between atoms: C4_4  and  C5_6 
REMARK    5  A    between atoms: C5_6  and  C6_7 
REMARK    6  A    between atoms: C6_7  and  C8_9 
REMARK    7  A    between atoms: C10_11  and  O2_12 
REMARK    8  A    between atoms: C30_34  and  O6_36 
ROOT
HETATM    1  C8  UNL     1     -12.560  46.267 -26.534  1.00  0.00     0.001 C 
HETATM    2  C9  UNL     1     -13.424  47.005 -27.598  1.00  0.00     0.038 C 
HETATM    3  C10 UNL     1     -12.524  47.222 -28.832  1.00  0.00     0.131 C 
HETATM    4  C11 UNL     1     -11.350  46.227 -28.633  1.00  0.00     0.014 C 
HETATM    5  C12 UNL     1     -11.815  44.805 -29.083  1.00  0.00     0.023 C 
HETATM    6  C13 UNL     1     -10.036  46.471 -29.369  1.00  0.00    -0.058 C 
HETATM    7  C14 UNL     1      -8.853  46.053 -28.853  1.00  0.00    -0.000 C 
HETATM    8  C15 UNL     1      -8.893  45.250 -27.562  1.00  0.00     0.157 C 
HETATM    9  O3  UNL     1      -7.959  44.507 -27.262  1.00  0.00    -0.293 OA
HETATM   10  C16 UNL     1     -10.111  45.325 -26.645  1.00  0.00     0.094 C 
HETATM   11  C17 UNL     1     -11.107  46.400 -27.084  1.00  0.00    -0.019 C 
HETATM   12  C18 UNL     1     -10.511  47.789 -26.702  1.00  0.00     0.017 C 
HETATM   13  C19 UNL     1      -7.486  46.291 -29.536  1.00  0.00    -0.008 C 
HETATM   14  C20 UNL     1      -6.507  46.892 -28.490  1.00  0.00     0.021 C 
HETATM   15  C21 UNL     1      -6.945  44.919 -30.035  1.00  0.00     0.022 C 
HETATM   16  C22 UNL     1      -6.081  44.955 -31.286  1.00  0.00     0.080 C 
HETATM   17  C23 UNL     1      -5.392  46.282 -31.445  1.00  0.00     0.135 C 
HETATM   18  O4  UNL     1      -4.167  46.355 -31.520  1.00  0.00    -0.297 OA
HETATM   19  C24 UNL     1      -6.301  47.504 -31.595  1.00  0.00     0.018 C 
HETATM   20  C25 UNL     1      -5.541  48.770 -31.135  1.00  0.00     0.023 C 
HETATM   21  C26 UNL     1      -6.544  47.670 -33.109  1.00  0.00     0.023 C 
HETATM   22  C27 UNL     1      -7.615  47.324 -30.734  1.00  0.00     0.014 C 
HETATM   23  C28 UNL     1      -8.869  46.993 -31.562  1.00  0.00     0.011 C 
HETATM   24  C29 UNL     1     -10.133  47.128 -30.718  1.00  0.00     0.036 C 
ENDROOT
BRANCH   1  25
HETATM   25  C6  UNL     1     -12.955  46.604 -25.064  1.00  0.00    -0.011 C 
HETATM   26  C7  UNL     1     -11.993  46.141 -23.963  1.00  0.00     0.010 C 
BRANCH  25  27
HETATM   27  C5  UNL     1     -14.400  46.152 -24.751  1.00  0.00     0.040 C 
BRANCH  27  28
HETATM   28  C4  UNL     1     -15.409  47.283 -24.497  1.00  0.00     0.142 C 
BRANCH  28  29
HETATM   29  C3  UNL     1     -16.840  46.822 -24.451  1.00  0.00     0.018 C 
HETATM   30  C2  UNL     1     -17.501  46.013 -25.308  1.00  0.00     0.010 C 
HETATM   31  C1  UNL     1     -16.940  45.428 -26.571  1.00  0.00     0.055 C 
BRANCH  30  32
HETATM   32  C30 UNL     1     -18.923  45.651 -25.059  1.00  0.00     0.171 C 
HETATM   33  O5  UNL     1     -19.324  44.544 -24.749  1.00  0.00    -0.646 OA
BRANCH  32  34
HETATM   34  O6  UNL     1     -19.782  46.673 -25.209  1.00  0.00    -0.773 OA
HETATM   35  H44 UNL     1     -20.651  46.265 -25.013  1.00  0.00     0.167 HD
ENDBRANCH  32  34
ENDBRANCH  30  32
ENDBRANCH  28  29
BRANCH  28  36
HETATM   36  O1  UNL     1     -15.062  47.930 -23.278  1.00  0.00    -0.392 OA
HETATM   37  H6  UNL     1     -15.740  48.607 -23.110  1.00  0.00     0.210 HD
ENDBRANCH  28  36
ENDBRANCH  27  28
ENDBRANCH  25  27
ENDBRANCH   1  25
BRANCH   3  38
HETATM   38  O2  UNL     1     -13.258  47.005 -30.027  1.00  0.00    -0.394 OA
HETATM   39  H17 UNL     1     -14.026  47.601 -30.014  1.00  0.00     0.210 HD
ENDBRANCH   3  38
TORSDOF 8
ENDMDL
MODEL 5
REMARK minimizedAffinity -8.47711468
REMARK CNNscore 0.470430911
REMARK CNNaffinity 6.38780737
REMARK  8 active torsions:
REMARK  status: ('A' for Active; 'I' for Inactive)
REMARK    1  A    between atoms: C2_2  and  C30_34 
REMARK    2  A    between atoms: C3_3  and  C4_4 
REMARK    3  A    between atoms: C4_4  and  O1_5 
REMARK    4  A    between atoms: C4_4  and  C5_6 
REMARK    5  A    between atoms: C5_6  and  C6_7 
REMARK    6  A    between atoms: C6_7  and  C8_9 
REMARK    7  A    between atoms: C10_11  and  O2_12 
REMARK    8  A    between atoms: C30_34  and  O6_36 
ROOT
HETATM    1  C8  UNL     1      -3.926  49.442 -22.793  1.00  0.00     0.001 C 
HETATM    2  C9  UNL     1      -4.208  47.912 -22.765  1.00  0.00     0.038 C 
HETATM    3  C10 UNL     1      -3.882  47.424 -21.339  1.00  0.00     0.131 C 
HETATM    4  C11 UNL     1      -3.868  48.717 -20.481  1.00  0.00     0.014 C 
HETATM    5  C12 UNL     1      -5.341  49.105 -20.133  1.00  0.00     0.023 C 
HETATM    6  C13 UNL     1      -3.126  48.718 -19.148  1.00  0.00    -0.058 C 
HETATM    7  C14 UNL     1      -2.580  49.854 -18.647  1.00  0.00    -0.000 C 
HETATM    8  C15 UNL     1      -2.816  51.145 -19.415  1.00  0.00     0.157 C 
HETATM    9  O3  UNL     1      -2.726  52.233 -18.847  1.00  0.00    -0.293 OA
HETATM   10  C16 UNL     1      -3.209  51.105 -20.891  1.00  0.00     0.094 C 
HETATM   11  C17 UNL     1      -3.129  49.693 -21.476  1.00  0.00    -0.019 C 
HETATM   12  C18 UNL     1      -1.624  49.345 -21.682  1.00  0.00     0.017 C 
HETATM   13  C19 UNL     1      -1.797  49.916 -17.316  1.00  0.00    -0.008 C 
HETATM   14  C20 UNL     1      -0.453  50.654 -17.566  1.00  0.00     0.021 C 
HETATM   15  C21 UNL     1      -2.649  50.712 -16.284  1.00  0.00     0.022 C 
HETATM   16  C22 UNL     1      -2.486  50.309 -14.827  1.00  0.00     0.080 C 
HETATM   17  C23 UNL     1      -1.133  49.703 -14.570  1.00  0.00     0.135 C 
HETATM   18  O4  UNL     1      -0.374  50.183 -13.729  1.00  0.00    -0.297 OA
HETATM   19  C24 UNL     1      -0.806  48.422 -15.340  1.00  0.00     0.018 C 
HETATM   20  C25 UNL     1       0.728  48.276 -15.466  1.00  0.00     0.023 C 
HETATM   21  C26 UNL     1      -1.282  47.257 -14.448  1.00  0.00     0.023 C 
HETATM   22  C27 UNL     1      -1.462  48.461 -16.778  1.00  0.00     0.014 C 
HETATM   23  C28 UNL     1      -2.703  47.562 -16.928  1.00  0.00     0.011 C 
HETATM   24  C29 UNL     1      -3.099  47.417 -18.394  1.00  0.00     0.036 C 
ENDROOT
BRANCH   1  25
HETATM   25  C6  UNL     1      -3.468  49.969 -24.187  1.00  0.00    -0.011 C 
HETATM   26  C7  UNL     1      -3.302  51.486 -24.336  1.00  0.00     0.010 C 
BRANCH  25  27
HETATM   27  C5  UNL     1      -4.352  49.404 -25.322  1.00  0.00     0.040 C 
BRANCH  27  28
HETATM   28  C4  UNL     1      -3.662  48.407 -26.266  1.00  0.00     0.142 C 
BRANCH  28  29
HETATM   29  C3  UNL     1      -3.995  48.615 -27.719  1.00  0.00     0.018 C 
HETATM   30  C2  UNL     1      -5.107  48.257 -28.397  1.00  0.00     0.010 C 
HETATM   31  C1  UNL     1      -6.268  47.491 -27.834  1.00  0.00     0.055 C 
BRANCH  30  32
HETATM   32  C30 UNL     1      -5.251  48.591 -29.839  1.00  0.00     0.171 C 
HETATM   33  O5  UNL     1      -5.993  48.025 -30.623  1.00  0.00    -0.646 OA
BRANCH  32  34
HETATM   34  O6  UNL     1      -4.470  49.604 -30.248  1.00  0.00    -0.773 OA
HETATM   35  H44 UNL     1      -4.687  49.685 -31.199  1.00  0.00     0.167 HD
ENDBRANCH  32  34
ENDBRANCH  30  32
ENDBRANCH  28  29
BRANCH  28  36
HETATM   36  O1  UNL     1      -2.256  48.496 -26.066  1.00  0.00    -0.392 OA
HETATM   37  H6  UNL     1      -1.837  47.897 -26.708  1.00  0.00     0.210 HD
ENDBRANCH  28  36
ENDBRANCH  27  28
ENDBRANCH  25  27
ENDBRANCH   1  25
BRANCH   3  38
HETATM   38  O2  UNL     1      -4.839  46.467 -20.910  1.00  0.00    -0.394 OA
HETATM   39  H17 UNL     1      -4.846  45.744 -21.561  1.00  0.00     0.210 HD
ENDBRANCH   3  38
TORSDOF 8
ENDMDL
MODEL 6
REMARK minimizedAffinity -8.07229614
REMARK CNNscore 0.464396387
REMARK CNNaffinity 6.79907799
REMARK  8 active torsions:
REMARK  status: ('A' for Active; 'I' for Inactive)
REMARK    1  A    between atoms: C2_2  and  C30_34 
REMARK    2  A    between atoms: C3_3  and  C4_4 
REMARK    3  A    between atoms: C4_4  and  O1_5 
REMARK    4  A    between atoms: C4_4  and  C5_6 
REMARK    5  A    between atoms: C5_6  and  C6_7 
REMARK    6  A    between atoms: C6_7  and  C8_9 
REMARK    7  A    between atoms: C10_11  and  O2_12 
REMARK    8  A    between atoms: C30_34  and  O6_36 
ROOT
HETATM    1  C8  UNL     1      -3.524  48.334 -18.638  1.00  0.00     0.001 C 
HETATM    2  C9  UNL     1      -2.223  48.889 -17.989  1.00  0.00     0.038 C 
HETATM    3  C10 UNL     1      -1.518  49.744 -19.062  1.00  0.00     0.131 C 
HETATM    4  C11 UNL     1      -2.622  50.031 -20.114  1.00  0.00     0.014 C 
HETATM    5  C12 UNL     1      -3.511  51.208 -19.600  1.00  0.00     0.023 C 
HETATM    6  C13 UNL     1      -2.215  50.423 -21.531  1.00  0.00    -0.058 C 
HETATM    7  C14 UNL     1      -3.003  50.132 -22.595  1.00  0.00    -0.000 C 
HETATM    8  C15 UNL     1      -4.351  49.485 -22.316  1.00  0.00     0.157 C 
HETATM    9  O3  UNL     1      -5.264  49.568 -23.137  1.00  0.00    -0.293 OA
HETATM   10  C16 UNL     1      -4.600  48.762 -20.995  1.00  0.00     0.094 C 
HETATM   11  C17 UNL     1      -3.327  48.620 -20.158  1.00  0.00    -0.019 C 
HETATM   12  C18 UNL     1      -2.449  47.509 -20.807  1.00  0.00     0.017 C 
HETATM   13  C19 UNL     1      -2.637  50.481 -24.057  1.00  0.00    -0.008 C 
HETATM   14  C20 UNL     1      -2.822  49.209 -24.931  1.00  0.00     0.021 C 
HETATM   15  C21 UNL     1      -3.600  51.600 -24.548  1.00  0.00     0.022 C 
HETATM   16  C22 UNL     1      -3.032  52.570 -25.573  1.00  0.00     0.080 C 
HETATM   17  C23 UNL     1      -1.933  51.938 -26.382  1.00  0.00     0.135 C 
HETATM   18  O4  UNL     1      -2.006  51.875 -27.608  1.00  0.00    -0.297 OA
HETATM   19  C24 UNL     1      -0.702  51.469 -25.604  1.00  0.00     0.018 C 
HETATM   20  C25 UNL     1       0.009  50.347 -26.394  1.00  0.00     0.023 C 
HETATM   21  C26 UNL     1       0.269  52.668 -25.583  1.00  0.00     0.023 C 
HETATM   22  C27 UNL     1      -1.121  50.937 -24.176  1.00  0.00     0.014 C 
HETATM   23  C28 UNL     1      -0.786  51.900 -23.022  1.00  0.00     0.011 C 
HETATM   24  C29 UNL     1      -0.940  51.208 -21.670  1.00  0.00     0.036 C 
ENDROOT
BRANCH   1  25
HETATM   25  C6  UNL     1      -3.961  46.947 -18.076  1.00  0.00    -0.011 C 
HETATM   26  C7  UNL     1      -3.007  45.770 -18.312  1.00  0.00     0.010 C 
BRANCH  25  27
HETATM   27  C5  UNL     1      -5.395  46.584 -18.525  1.00  0.00     0.040 C 
BRANCH  27  28
HETATM   28  C4  UNL     1      -6.510  47.494 -17.986  1.00  0.00     0.142 C 
BRANCH  28  29
HETATM   29  C3  UNL     1      -7.799  47.396 -18.754  1.00  0.00     0.018 C 
HETATM   30  C2  UNL     1      -8.840  48.257 -18.783  1.00  0.00     0.010 C 
HETATM   31  C1  UNL     1      -8.958  49.517 -17.974  1.00  0.00     0.055 C 
BRANCH  30  32
HETATM   32  C30 UNL     1     -10.021  47.985 -19.645  1.00  0.00     0.171 C 
HETATM   33  O5  UNL     1     -11.143  48.424 -19.464  1.00  0.00    -0.646 OA
BRANCH  32  34
HETATM   34  O6  UNL     1      -9.763  47.180 -20.689  1.00  0.00    -0.773 OA
HETATM   35  H44 UNL     1     -10.631  47.108 -21.136  1.00  0.00     0.167 HD
ENDBRANCH  32  34
ENDBRANCH  30  32
ENDBRANCH  28  29
BRANCH  28  36
HETATM   36  O1  UNL     1      -6.728  47.175 -16.616  1.00  0.00    -0.392 OA
HETATM   37  H6  UNL     1      -7.470  47.725 -16.309  1.00  0.00     0.210 HD
ENDBRANCH  28  36
ENDBRANCH  27  28
ENDBRANCH  25  27
ENDBRANCH   1  25
BRANCH   3  38
HETATM   38  O2  UNL     1      -0.966  50.916 -18.482  1.00  0.00    -0.394 OA
HETATM   39  H17 UNL     1      -0.365  50.638 -17.769  1.00  0.00     0.210 HD
ENDBRANCH   3  38
TORSDOF 8
ENDMDL
MODEL 7
REMARK minimizedAffinity -7.96948004
REMARK CNNscore 0.461231053
REMARK CNNaffinity 5.85340738
REMARK  8 active torsions:
REMARK  status: ('A' for Active; 'I' for Inactive)
REMARK    1  A    between atoms: C2_2  and  C30_34 
REMARK    2  A    between atoms: C3_3  and  C4_4 
REMARK    3  A    between atoms: C4_4  and  O1_5 
REMARK    4  A    between atoms: C4_4  and  C5_6 
REMARK    5  A    between atoms: C5_6  and  C6_7 
REMARK    6  A    between atoms: C6_7  and  C8_9 
REMARK    7  A    between atoms: C10_11  and  O2_12 
REMARK    8  A    between atoms: C30_34  and  O6_36 
ROOT
HETATM    1  C8  UNL     1      -9.738  46.735 -27.951  1.00  0.00     0.001 C 
HETATM    2  C9  UNL     1     -10.161  46.319 -29.390  1.00  0.00     0.038 C 
HETATM    3  C10 UNL     1     -11.660  45.961 -29.329  1.00  0.00     0.131 C 
HETATM    4  C11 UNL     1     -12.157  46.604 -28.007  1.00  0.00     0.014 C 
HETATM    5  C12 UNL     1     -12.414  48.125 -28.254  1.00  0.00     0.023 C 
HETATM    6  C13 UNL     1     -13.435  46.080 -27.359  1.00  0.00    -0.058 C 
HETATM    7  C14 UNL     1     -13.620  46.143 -26.017  1.00  0.00    -0.000 C 
HETATM    8  C15 UNL     1     -12.550  46.840 -25.191  1.00  0.00     0.157 C 
HETATM    9  O3  UNL     1     -12.819  47.295 -24.080  1.00  0.00    -0.293 OA
HETATM   10  C16 UNL     1     -11.140  47.020 -25.749  1.00  0.00     0.094 C 
HETATM   11  C17 UNL     1     -10.935  46.269 -27.067  1.00  0.00    -0.019 C 
HETATM   12  C18 UNL     1     -10.804  44.752 -26.738  1.00  0.00     0.017 C 
HETATM   13  C19 UNL     1     -14.881  45.608 -25.298  1.00  0.00    -0.008 C 
HETATM   14  C20 UNL     1     -14.431  44.706 -24.116  1.00  0.00     0.021 C 
HETATM   15  C21 UNL     1     -15.685  46.825 -24.753  1.00  0.00     0.022 C 
HETATM   16  C22 UNL     1     -17.195  46.653 -24.685  1.00  0.00     0.080 C 
HETATM   17  C23 UNL     1     -17.580  45.206 -24.537  1.00  0.00     0.135 C 
HETATM   18  O4  UNL     1     -18.259  44.826 -23.584  1.00  0.00    -0.297 OA
HETATM   19  C24 UNL     1     -17.159  44.273 -25.674  1.00  0.00     0.018 C 
HETATM   20  C25 UNL     1     -17.053  42.826 -25.140  1.00  0.00     0.023 C 
HETATM   21  C26 UNL     1     -18.326  44.279 -26.683  1.00  0.00     0.023 C 
HETATM   22  C27 UNL     1     -15.769  44.727 -26.274  1.00  0.00     0.014 C 
HETATM   23  C28 UNL     1     -15.871  45.426 -27.642  1.00  0.00     0.011 C 
HETATM   24  C29 UNL     1     -14.497  45.564 -28.290  1.00  0.00     0.036 C 
ENDROOT
BRANCH   1  25
HETATM   25  C6  UNL     1      -8.249  46.413 -27.619  1.00  0.00    -0.011 C 
HETATM   26  C7  UNL     1      -7.653  45.150 -28.252  1.00  0.00     0.010 C 
BRANCH  25  27
HETATM   27  C5  UNL     1      -7.997  46.428 -26.093  1.00  0.00     0.040 C 
BRANCH  27  28
HETATM   28  C4  UNL     1      -7.145  47.597 -25.573  1.00  0.00     0.142 C 
BRANCH  28  29
HETATM   29  C3  UNL     1      -5.902  47.851 -26.383  1.00  0.00     0.018 C 
HETATM   30  C2  UNL     1      -4.720  48.371 -25.986  1.00  0.00     0.010 C 
HETATM   31  C1  UNL     1      -4.404  48.880 -24.610  1.00  0.00     0.055 C 
BRANCH  30  32
HETATM   32  C30 UNL     1      -3.596  48.509 -26.950  1.00  0.00     0.171 C 
HETATM   33  O5  UNL     1      -2.413  48.514 -26.657  1.00  0.00    -0.646 OA
BRANCH  32  34
HETATM   34  O6  UNL     1      -3.984  48.640 -28.229  1.00  0.00    -0.773 OA
HETATM   35  H44 UNL     1      -3.136  48.720 -28.713  1.00  0.00     0.167 HD
ENDBRANCH  32  34
ENDBRANCH  30  32
ENDBRANCH  28  29
BRANCH  28  36
HETATM   36  O1  UNL     1      -7.957  48.765 -25.539  1.00  0.00    -0.392 OA
HETATM   37  H6  UNL     1      -7.387  49.502 -25.258  1.00  0.00     0.210 HD
ENDBRANCH  28  36
ENDBRANCH  27  28
ENDBRANCH  25  27
ENDBRANCH   1  25
BRANCH   3  38
HETATM   38  O2  UNL     1     -12.333  46.440 -30.483  1.00  0.00    -0.394 OA
HETATM   39  H17 UNL     1     -11.889  46.063 -31.262  1.00  0.00     0.210 HD
ENDBRANCH   3  38
TORSDOF 8
ENDMDL
MODEL 8
REMARK minimizedAffinity -8.81024647
REMARK CNNscore 0.459825724
REMARK CNNaffinity 6.38322401
REMARK  8 active torsions:
REMARK  status: ('A' for Active; 'I' for Inactive)
REMARK    1  A    between atoms: C2_2  and  C30_34 
REMARK    2  A    between atoms: C3_3  and  C4_4 
REMARK    3  A    between atoms: C4_4  and  O1_5 
REMARK    4  A    between atoms: C4_4  and  C5_6 
REMARK    5  A    between atoms: C5_6  and  C6_7 
REMARK    6  A    between atoms: C6_7  and  C8_9 
REMARK    7  A    between atoms: C10_11  and  O2_12 
REMARK    8  A    between atoms: C30_34  and  O6_36 
ROOT
HETATM    1  C8  UNL     1      -4.904  49.239 -24.734  1.00  0.00     0.001 C 
HETATM    2  C9  UNL     1      -6.204  49.157 -23.882  1.00  0.00     0.038 C 
HETATM    3  C10 UNL     1      -5.822  49.563 -22.444  1.00  0.00     0.131 C 
HETATM    4  C11 UNL     1      -4.462  50.294 -22.597  1.00  0.00     0.014 C 
HETATM    5  C12 UNL     1      -4.729  51.761 -23.061  1.00  0.00     0.023 C 
HETATM    6  C13 UNL     1      -3.543  50.416 -21.385  1.00  0.00    -0.058 C 
HETATM    7  C14 UNL     1      -2.196  50.488 -21.529  1.00  0.00    -0.000 C 
HETATM    8  C15 UNL     1      -1.641  50.537 -22.943  1.00  0.00     0.157 C 
HETATM    9  O3  UNL     1      -0.523  51.005 -23.158  1.00  0.00    -0.293 OA
HETATM   10  C16 UNL     1      -2.481  50.046 -24.119  1.00  0.00     0.094 C 
HETATM   11  C17 UNL     1      -3.773  49.361 -23.667  1.00  0.00    -0.019 C 
HETATM   12  C18 UNL     1      -3.400  47.953 -23.113  1.00  0.00     0.017 C 
HETATM   13  C19 UNL     1      -1.211  50.589 -20.341  1.00  0.00    -0.008 C 
HETATM   14  C20 UNL     1      -0.099  49.519 -20.528  1.00  0.00     0.021 C 
HETATM   15  C21 UNL     1      -0.577  52.011 -20.352  1.00  0.00     0.022 C 
HETATM   16  C22 UNL     1      -0.196  52.584 -18.995  1.00  0.00     0.080 C 
HETATM   17  C23 UNL     1       0.101  51.497 -18.000  1.00  0.00     0.135 C 
HETATM   18  O4  UNL     1       1.189  51.439 -17.430  1.00  0.00    -0.297 OA
HETATM   19  C24 UNL     1      -1.049  50.539 -17.680  1.00  0.00     0.018 C 
HETATM   20  C25 UNL     1      -0.474  49.194 -17.180  1.00  0.00     0.023 C 
HETATM   21  C26 UNL     1      -1.799  51.161 -16.483  1.00  0.00     0.023 C 
HETATM   22  C27 UNL     1      -1.940  50.298 -18.962  1.00  0.00     0.014 C 
HETATM   23  C28 UNL     1      -3.293  51.033 -18.936  1.00  0.00     0.011 C 
HETATM   24  C29 UNL     1      -4.212  50.526 -20.043  1.00  0.00     0.036 C 
ENDROOT
BRANCH   1  25
HETATM   25  C6  UNL     1      -4.864  48.222 -25.914  1.00  0.00    -0.011 C 
HETATM   26  C7  UNL     1      -3.714  48.370 -26.919  1.00  0.00     0.010 C 
BRANCH  25  27
HETATM   27  C5  UNL     1      -6.223  48.155 -26.648  1.00  0.00     0.040 C 
BRANCH  27  28
HETATM   28  C4  UNL     1      -7.411  47.671 -25.802  1.00  0.00     0.142 C 
BRANCH  28  29
HETATM   29  C3  UNL     1      -8.754  47.973 -26.409  1.00  0.00     0.018 C 
HETATM   30  C2  UNL     1      -9.978  47.561 -26.014  1.00  0.00     0.010 C 
HETATM   31  C1  UNL     1     -10.263  46.628 -24.874  1.00  0.00     0.055 C 
BRANCH  30  32
HETATM   32  C30 UNL     1     -11.195  48.007 -26.743  1.00  0.00     0.171 C 
HETATM   33  O5  UNL     1     -11.914  47.291 -27.418  1.00  0.00    -0.646 OA
BRANCH  32  34
HETATM   34  O6  UNL     1     -11.466  49.316 -26.609  1.00  0.00    -0.773 OA
HETATM   35  H44 UNL     1     -12.279  49.432 -27.142  1.00  0.00     0.167 HD
ENDBRANCH  32  34
ENDBRANCH  30  32
ENDBRANCH  28  29
BRANCH  28  36
HETATM   36  O1  UNL     1      -7.271  46.270 -25.590  1.00  0.00    -0.392 OA
HETATM   37  H6  UNL     1      -8.057  45.975 -25.099  1.00  0.00     0.210 HD
ENDBRANCH  28  36
ENDBRANCH  27  28
ENDBRANCH  25  27
ENDBRANCH   1  25
BRANCH   3  38
HETATM   38  O2  UNL     1      -6.839  50.369 -21.868  1.00  0.00    -0.394 OA
HETATM   39  H17 UNL     1      -7.672  49.867 -21.908  1.00  0.00     0.210 HD
ENDBRANCH   3  38
TORSDOF 8
ENDMDL
MODEL 9
REMARK minimizedAffinity -7.91355228
REMARK CNNscore 0.405965298
REMARK CNNaffinity 6.626791
REMARK  8 active torsions:
REMARK  status: ('A' for Active; 'I' for Inactive)
REMARK    1  A    between atoms: C2_2  and  C30_34 
REMARK    2  A    between atoms: C3_3  and  C4_4 
REMARK    3  A    between atoms: C4_4  and  O1_5 
REMARK    4  A    between atoms: C4_4  and  C5_6 
REMARK    5  A    between atoms: C5_6  and  C6_7 
REMARK    6  A    between atoms: C6_7  and  C8_9 
REMARK    7  A    between atoms: C10_11  and  O2_12 
REMARK    8  A    between atoms: C30_34  and  O6_36 
ROOT
HETATM    1  C8  UNL     1     -10.690  46.445 -26.902  1.00  0.00     0.001 C 
HETATM    2  C9  UNL     1     -10.003  46.471 -28.298  1.00  0.00     0.038 C 
HETATM    3  C10 UNL     1      -8.553  46.947 -28.073  1.00  0.00     0.131 C 
HETATM    4  C11 UNL     1      -8.311  46.743 -26.554  1.00  0.00     0.014 C 
HETATM    5  C12 UNL     1      -7.976  45.239 -26.296  1.00  0.00     0.023 C 
HETATM    6  C13 UNL     1      -7.196  47.526 -25.867  1.00  0.00    -0.058 C 
HETATM    7  C14 UNL     1      -7.276  47.859 -24.554  1.00  0.00    -0.000 C 
HETATM    8  C15 UNL     1      -8.472  47.341 -23.769  1.00  0.00     0.157 C 
HETATM    9  O3  UNL     1      -8.416  47.240 -22.544  1.00  0.00    -0.293 OA
HETATM   10  C16 UNL     1      -9.740  46.902 -24.496  1.00  0.00     0.094 C 
HETATM   11  C17 UNL     1      -9.700  47.233 -25.990  1.00  0.00    -0.019 C 
HETATM   12  C18 UNL     1      -9.927  48.767 -26.147  1.00  0.00     0.017 C 
HETATM   13  C19 UNL     1      -6.193  48.671 -23.806  1.00  0.00    -0.008 C 
HETATM   14  C20 UNL     1      -6.886  49.832 -23.040  1.00  0.00     0.021 C 
HETATM   15  C21 UNL     1      -5.485  47.723 -22.794  1.00  0.00     0.022 C 
HETATM   16  C22 UNL     1      -4.022  48.025 -22.507  1.00  0.00     0.080 C 
HETATM   17  C23 UNL     1      -3.705  49.480 -22.720  1.00  0.00     0.135 C 
HETATM   18  O4  UNL     1      -3.235  50.165 -21.813  1.00  0.00    -0.297 OA
HETATM   19  C24 UNL     1      -3.916  50.019 -24.136  1.00  0.00     0.018 C 
HETATM   20  C25 UNL     1      -4.156  51.545 -24.074  1.00  0.00     0.023 C 
HETATM   21  C26 UNL     1      -2.574  49.821 -24.870  1.00  0.00     0.023 C 
HETATM   22  C27 UNL     1      -5.151  49.308 -24.819  1.00  0.00     0.014 C 
HETATM   23  C28 UNL     1      -4.767  48.262 -25.882  1.00  0.00     0.011 C 
HETATM   24  C29 UNL     1      -5.984  47.841 -26.699  1.00  0.00     0.036 C 
ENDROOT
BRANCH   1  25
HETATM   25  C6  UNL     1     -12.222  46.731 -26.953  1.00  0.00    -0.011 C 
HETATM   26  C7  UNL     1     -12.656  48.100 -27.490  1.00  0.00     0.010 C 
BRANCH  25  27
HETATM   27  C5  UNL     1     -12.895  46.442 -25.592  1.00  0.00     0.040 C 
BRANCH  27  28
HETATM   28  C4  UNL     1     -14.332  46.963 -25.437  1.00  0.00     0.142 C 
BRANCH  28  29
HETATM   29  C3  UNL     1     -15.383  46.004 -25.927  1.00  0.00     0.018 C 
HETATM   30  C2  UNL     1     -16.709  45.991 -25.670  1.00  0.00     0.010 C 
HETATM   31  C1  UNL     1     -17.434  46.935 -24.755  1.00  0.00     0.055 C 
BRANCH  30  32
HETATM   32  C30 UNL     1     -17.587  44.963 -26.289  1.00  0.00     0.171 C 
HETATM   33  O5  UNL     1     -17.469  43.758 -26.150  1.00  0.00    -0.646 OA
BRANCH  32  34
HETATM   34  O6  UNL     1     -18.568  45.469 -27.054  1.00  0.00    -0.773 OA
HETATM   35  H44 UNL     1     -19.037  44.671 -27.375  1.00  0.00     0.167 HD
ENDBRANCH  32  34
ENDBRANCH  30  32
ENDBRANCH  28  29
BRANCH  28  36
HETATM   36  O1  UNL     1     -14.553  47.275 -24.066  1.00  0.00    -0.392 OA
HETATM   37  H6  UNL     1     -15.481  47.553 -23.981  1.00  0.00     0.210 HD
ENDBRANCH  28  36
ENDBRANCH  27  28
ENDBRANCH  25  27
ENDBRANCH   1  25
BRANCH   3  38
HETATM   38  O2  UNL     1      -7.656  46.216 -28.895  1.00  0.00    -0.394 OA
HETATM   39  H17 UNL     1      -7.947  46.323 -29.817  1.00  0.00     0.210 HD
ENDBRANCH   3  38
TORSDOF 8
ENDMDL
