MODEL 1
REMARK minimizedAffinity -7.28321218
REMARK CNNscore 0.367597014
REMARK CNNaffinity 6.88905573
REMARK  9 active torsions:
REMARK  status: ('A' for Active; 'I' for Inactive)
REMARK    1  A    between atoms: O1_2  and  C2_3 
REMARK    2  A    between atoms: C2_3  and  C3_4 
REMARK    3  A    between atoms: C3_4  and  N1_5 
REMARK       I    between atoms: N1_5  and  C4_6 
REMARK    4  A    between atoms: C4_6  and  C5_8 
REMARK    5  A    between atoms: C5_8  and  C7_10 
REMARK    6  A    between atoms: C15_20  and  C16_21 
REMARK    7  A    between atoms: C16_21  and  O3_22 
REMARK    8  A    between atoms: O3_22  and  C17_23 
REMARK    9  A    between atoms: C26_34  and  O4_35 
ROOT
HETATM    1  C7  UNL     1      -2.560  50.961 -23.112  1.00  0.00     0.027 C 
HETATM    2  C8  UNL     1      -1.860  52.321 -23.218  1.00  0.00     0.009 C 
HETATM    3  C9  UNL     1      -0.561  52.356 -22.409  1.00  0.00     0.010 C 
HETATM    4  C10 UNL     1      -0.593  51.567 -21.067  1.00  0.00    -0.033 C 
HETATM    5  C11 UNL     1       0.130  50.206 -21.257  1.00  0.00     0.016 C 
HETATM    6  C12 UNL     1       0.208  52.401 -20.010  1.00  0.00     0.058 C 
HETATM    7  C13 UNL     1      -0.036  51.884 -18.634  1.00  0.00     0.008 A 
HETATM    8  C14 UNL     1      -1.099  51.097 -18.250  1.00  0.00     0.027 A 
HETATM    9  N2  UNL     1      -1.085  50.706 -16.926  1.00  0.00    -0.354 N 
ATOM     10  H2  UNL     1      -1.768  50.086 -16.491  1.00  0.00     0.166 HD
HETATM   11  C15 UNL     1      -0.055  51.255 -16.309  1.00  0.00     0.076 A 
HETATM   12  S1  UNL     1       0.978  52.210 -17.309  1.00  0.00    -0.077 SA
HETATM   13  C23 UNL     1      -2.168  50.616 -19.199  1.00  0.00     0.040 C 
HETATM   14  C24 UNL     1      -3.557  50.730 -18.558  1.00  0.00     0.017 C 
HETATM   15  C25 UNL     1      -2.073  51.379 -20.575  1.00  0.00     0.033 C 
HETATM   16  C26 UNL     1      -3.005  50.741 -21.644  1.00  0.00     0.128 C 
ENDROOT
BRANCH   1  17
HETATM   17  C5  UNL     1      -3.711  50.824 -24.149  1.00  0.00     0.080 C 
HETATM   18  C6  UNL     1      -4.756  51.940 -24.034  1.00  0.00     0.020 C 
BRANCH  17  19
HETATM   19  C4  UNL     1      -4.419  49.473 -24.036  1.00  0.00     0.222 C 
HETATM   20  N1  UNL     1      -5.766  49.476 -24.318  1.00  0.00    -0.359 N 
HETATM   21  H8  UNL     1      -6.204  50.299 -24.708  1.00  0.00     0.162 HD
HETATM   22  O2  UNL     1      -3.818  48.454 -23.705  1.00  0.00    -0.273 OA
BRANCH  20  23
HETATM   23  C3  UNL     1      -6.559  48.260 -24.243  1.00  0.00     0.148 C 
BRANCH  23  24
HETATM   24  C2  UNL     1      -7.036  47.740 -25.606  1.00  0.00     0.186 C 
BRANCH  24  25
HETATM   25  O1  UNL     1      -7.611  46.432 -25.496  1.00  0.00    -0.394 OA
HETATM   26  C1  UNL     1      -8.173  45.967 -26.715  1.00  0.00     0.201 C 
ENDBRANCH  24  25
ENDBRANCH  23  24
ENDBRANCH  20  23
ENDBRANCH  17  19
ENDBRANCH   1  17
BRANCH  16  27
HETATM   27  O4  UNL     1      -4.295  51.336 -21.468  1.00  0.00    -0.395 OA
HETATM   28  H35 UNL     1      -4.928  50.635 -21.230  1.00  0.00     0.210 HD
ENDBRANCH  16  27
BRANCH  11  29
HETATM   29  C16 UNL     1       0.268  51.068 -14.857  1.00  0.00     0.240 C 
BRANCH  29  30
HETATM   30  O3  UNL     1      -0.962  51.156 -14.132  1.00  0.00    -0.345 OA
BRANCH  30  31
HETATM   31  C17 UNL     1      -0.993  52.009 -13.062  1.00  0.00     0.070 A 
HETATM   32  C18 UNL     1       0.099  52.696 -12.526  1.00  0.00     0.037 A 
HETATM   33  C19 UNL     1      -0.074  53.542 -11.425  1.00  0.00     0.004 A 
HETATM   34  C20 UNL     1      -1.338  53.705 -10.859  1.00  0.00     0.024 A 
HETATM   35  C21 UNL     1      -2.425  53.019 -11.394  1.00  0.00     0.036 A 
HETATM   36 CL1  UNL     1      -3.986  53.215 -10.694  1.00  0.00    -0.084 Cl
HETATM   37  C22 UNL     1      -2.257  52.174 -12.489  1.00  0.00     0.060 A 
ENDBRANCH  30  31
ENDBRANCH  29  30
ENDBRANCH  11  29
TORSDOF 9
ENDMDL
MODEL 2
REMARK minimizedAffinity -8.46568489
REMARK CNNscore 0.355681032
REMARK CNNaffinity 7.2945385
REMARK  9 active torsions:
REMARK  status: ('A' for Active; 'I' for Inactive)
REMARK    1  A    between atoms: O1_2  and  C2_3 
REMARK    2  A    between atoms: C2_3  and  C3_4 
REMARK    3  A    between atoms: C3_4  and  N1_5 
REMARK       I    between atoms: N1_5  and  C4_6 
REMARK    4  A    between atoms: C4_6  and  C5_8 
REMARK    5  A    between atoms: C5_8  and  C7_10 
REMARK    6  A    between atoms: C15_20  and  C16_21 
REMARK    7  A    between atoms: C16_21  and  O3_22 
REMARK    8  A    between atoms: O3_22  and  C17_23 
REMARK    9  A    between atoms: C26_34  and  O4_35 
ROOT
HETATM    1  C7  UNL     1      -2.952  50.400 -24.149  1.00  0.00     0.027 C 
HETATM    2  C8  UNL     1      -2.715  48.959 -23.681  1.00  0.00     0.009 C 
HETATM    3  C9  UNL     1      -2.797  48.836 -22.157  1.00  0.00     0.010 C 
HETATM    4  C10 UNL     1      -2.227  50.047 -21.362  1.00  0.00    -0.033 C 
HETATM    5  C11 UNL     1      -3.402  50.933 -20.868  1.00  0.00     0.016 C 
HETATM    6  C12 UNL     1      -1.484  49.479 -20.105  1.00  0.00     0.058 C 
HETATM    7  C13 UNL     1      -0.647  50.532 -19.464  1.00  0.00     0.008 A 
HETATM    8  C14 UNL     1      -0.220  51.694 -20.068  1.00  0.00     0.027 A 
HETATM    9  N2  UNL     1       0.510  52.537 -19.255  1.00  0.00    -0.354 N 
ATOM     10  H2  UNL     1       0.861  53.456 -19.527  1.00  0.00     0.166 HD
HETATM   11  C15 UNL     1       0.685  51.977 -18.072  1.00  0.00     0.076 A 
HETATM   12  S1  UNL     1      -0.076  50.443 -17.865  1.00  0.00    -0.077 SA
HETATM   13  C23 UNL     1      -0.575  52.080 -21.481  1.00  0.00     0.040 C 
HETATM   14  C24 UNL     1       0.645  52.658 -22.211  1.00  0.00     0.017 C 
HETATM   15  C25 UNL     1      -1.214  50.859 -22.247  1.00  0.00     0.033 C 
HETATM   16  C26 UNL     1      -1.801  51.293 -23.620  1.00  0.00     0.128 C 
ENDROOT
BRANCH   1  17
HETATM   17  C5  UNL     1      -3.158  50.479 -25.689  1.00  0.00     0.080 C 
HETATM   18  C6  UNL     1      -2.445  49.352 -26.445  1.00  0.00     0.020 C 
BRANCH  17  19
HETATM   19  C4  UNL     1      -2.695  51.822 -26.255  1.00  0.00     0.222 C 
HETATM   20  N1  UNL     1      -1.658  51.767 -27.159  1.00  0.00    -0.359 N 
HETATM   21  H8  UNL     1      -1.337  50.877 -27.513  1.00  0.00     0.162 HD
HETATM   22  O2  UNL     1      -3.214  52.882 -25.914  1.00  0.00    -0.273 OA
BRANCH  20  23
HETATM   23  C3  UNL     1      -1.119  52.971 -27.768  1.00  0.00     0.148 C 
BRANCH  23  24
HETATM   24  C2  UNL     1       0.409  52.971 -27.905  1.00  0.00     0.186 C 
BRANCH  24  25
HETATM   25  O1  UNL     1       1.050  52.808 -26.633  1.00  0.00    -0.394 OA
HETATM   26  C1  UNL     1       2.085  51.836 -26.650  1.00  0.00     0.201 C 
ENDBRANCH  24  25
ENDBRANCH  23  24
ENDBRANCH  20  23
ENDBRANCH  17  19
ENDBRANCH   1  17
BRANCH  16  27
HETATM   27  O4  UNL     1      -0.723  51.244 -24.559  1.00  0.00    -0.395 OA
HETATM   28  H35 UNL     1      -0.576  52.141 -24.908  1.00  0.00     0.210 HD
ENDBRANCH  16  27
BRANCH  11  29
HETATM   29  C16 UNL     1       1.448  52.597 -16.939  1.00  0.00     0.240 C 
BRANCH  29  30
HETATM   30  O3  UNL     1       1.037  51.937 -15.738  1.00  0.00    -0.345 OA
BRANCH  30  31
HETATM   31  C17 UNL     1       1.995  51.241 -15.053  1.00  0.00     0.070 A 
HETATM   32  C18 UNL     1       3.349  51.576 -14.962  1.00  0.00     0.037 A 
HETATM   33  C19 UNL     1       4.224  50.773 -14.223  1.00  0.00     0.004 A 
HETATM   34  C20 UNL     1       3.749  49.635 -13.571  1.00  0.00     0.024 A 
HETATM   35  C21 UNL     1       2.400  49.302 -13.663  1.00  0.00     0.036 A 
HETATM   36 CL1  UNL     1       1.812  47.895 -12.864  1.00  0.00    -0.084 Cl
HETATM   37  C22 UNL     1       1.525  50.098 -14.400  1.00  0.00     0.060 A 
ENDBRANCH  30  31
ENDBRANCH  29  30
ENDBRANCH  11  29
TORSDOF 9
ENDMDL
MODEL 3
REMARK minimizedAffinity -8.53940582
REMARK CNNscore 0.3446908
REMARK CNNaffinity 7.18508101
REMARK  9 active torsions:
REMARK  status: ('A' for Active; 'I' for Inactive)
REMARK    1  A    between atoms: O1_2  and  C2_3 
REMARK    2  A    between atoms: C2_3  and  C3_4 
REMARK    3  A    between atoms: C3_4  and  N1_5 
REMARK       I    between atoms: N1_5  and  C4_6 
REMARK    4  A    between atoms: C4_6  and  C5_8 
REMARK    5  A    between atoms: C5_8  and  C7_10 
REMARK    6  A    between atoms: C15_20  and  C16_21 
REMARK    7  A    between atoms: C16_21  and  O3_22 
REMARK    8  A    between atoms: O3_22  and  C17_23 
REMARK    9  A    between atoms: C26_34  and  O4_35 
ROOT
HETATM    1  C7  UNL     1      -2.999  50.428 -24.388  1.00  0.00     0.027 C 
HETATM    2  C8  UNL     1      -2.948  48.999 -23.836  1.00  0.00     0.009 C 
HETATM    3  C9  UNL     1      -3.118  48.972 -22.315  1.00  0.00     0.010 C 
HETATM    4  C10 UNL     1      -2.457  50.157 -21.551  1.00  0.00    -0.033 C 
HETATM    5  C11 UNL     1      -3.549  51.192 -21.169  1.00  0.00     0.016 C 
HETATM    6  C12 UNL     1      -1.845  49.583 -20.228  1.00  0.00     0.058 C 
HETATM    7  C13 UNL     1      -0.929  50.574 -19.596  1.00  0.00     0.008 A 
HETATM    8  C14 UNL     1      -0.346  51.647 -20.233  1.00  0.00     0.027 A 
HETATM    9  N2  UNL     1       0.432  52.451 -19.424  1.00  0.00    -0.354 N 
ATOM     10  H2  UNL     1       0.896  53.309 -19.722  1.00  0.00     0.166 HD
HETATM   11  C15 UNL     1       0.485  51.943 -18.207  1.00  0.00     0.076 A 
HETATM   12  S1  UNL     1      -0.452  50.514 -17.965  1.00  0.00    -0.077 SA
HETATM   13  C23 UNL     1      -0.585  51.988 -21.682  1.00  0.00     0.040 C 
HETATM   14  C24 UNL     1       0.726  52.388 -22.371  1.00  0.00     0.017 C 
HETATM   15  C25 UNL     1      -1.317  50.803 -22.419  1.00  0.00     0.033 C 
HETATM   16  C26 UNL     1      -1.783  51.220 -23.842  1.00  0.00     0.128 C 
ENDROOT
BRANCH   1  17
HETATM   17  C5  UNL     1      -3.118  50.442 -25.939  1.00  0.00     0.080 C 
HETATM   18  C6  UNL     1      -2.518  49.193 -26.595  1.00  0.00     0.020 C 
BRANCH  17  19
HETATM   19  C4  UNL     1      -2.460  51.682 -26.548  1.00  0.00     0.222 C 
HETATM   20  N1  UNL     1      -1.386  51.445 -27.375  1.00  0.00    -0.359 N 
HETATM   21  H8  UNL     1      -1.155  50.503 -27.656  1.00  0.00     0.162 HD
HETATM   22  O2  UNL     1      -2.866  52.815 -26.303  1.00  0.00    -0.273 OA
BRANCH  20  23
HETATM   23  C3  UNL     1      -0.667  52.536 -28.014  1.00  0.00     0.148 C 
BRANCH  23  24
HETATM   24  C2  UNL     1       0.859  52.385 -27.974  1.00  0.00     0.186 C 
BRANCH  24  25
HETATM   25  O1  UNL     1       1.353  52.396 -26.628  1.00  0.00    -0.394 OA
HETATM   26  C1  UNL     1       2.414  51.477 -26.416  1.00  0.00     0.201 C 
ENDBRANCH  24  25
ENDBRANCH  23  24
ENDBRANCH  20  23
ENDBRANCH  17  19
ENDBRANCH   1  17
BRANCH  16  27
HETATM   27  O4  UNL     1      -0.672  51.001 -24.716  1.00  0.00    -0.395 OA
HETATM   28  H35 UNL     1      -0.409  51.855 -25.102  1.00  0.00     0.210 HD
ENDBRANCH  16  27
BRANCH  11  29
HETATM   29  C16 UNL     1       1.255  52.539 -17.066  1.00  0.00     0.240 C 
BRANCH  29  30
HETATM   30  O3  UNL     1       1.728  51.456 -16.259  1.00  0.00    -0.345 OA
BRANCH  30  31
HETATM   31  C17 UNL     1       1.776  51.663 -14.907  1.00  0.00     0.070 A 
HETATM   32  C18 UNL     1       2.917  51.582 -14.104  1.00  0.00     0.037 A 
HETATM   33  C19 UNL     1       2.826  51.820 -12.728  1.00  0.00     0.004 A 
HETATM   34  C20 UNL     1       1.596  52.140 -12.153  1.00  0.00     0.024 A 
HETATM   35  C21 UNL     1       0.461  52.220 -12.955  1.00  0.00     0.036 A 
HETATM   36 CL1  UNL     1      -1.058  52.610 -12.246  1.00  0.00    -0.084 Cl
HETATM   37  C22 UNL     1       0.547  51.982 -14.325  1.00  0.00     0.060 A 
ENDBRANCH  30  31
ENDBRANCH  29  30
ENDBRANCH  11  29
TORSDOF 9
ENDMDL
MODEL 4
REMARK minimizedAffinity -9.13873672
REMARK CNNscore 0.28297478
REMARK CNNaffinity 7.20039129
REMARK  9 active torsions:
REMARK  status: ('A' for Active; 'I' for Inactive)
REMARK    1  A    between atoms: O1_2  and  C2_3 
REMARK    2  A    between atoms: C2_3  and  C3_4 
REMARK    3  A    between atoms: C3_4  and  N1_5 
REMARK       I    between atoms: N1_5  and  C4_6 
REMARK    4  A    between atoms: C4_6  and  C5_8 
REMARK    5  A    between atoms: C5_8  and  C7_10 
REMARK    6  A    between atoms: C15_20  and  C16_21 
REMARK    7  A    between atoms: C16_21  and  O3_22 
REMARK    8  A    between atoms: O3_22  and  C17_23 
REMARK    9  A    between atoms: C26_34  and  O4_35 
ROOT
HETATM    1  C7  UNL     1      -3.129  49.708 -25.888  1.00  0.00     0.027 C 
HETATM    2  C8  UNL     1      -3.006  48.385 -25.123  1.00  0.00     0.009 C 
HETATM    3  C9  UNL     1      -3.169  48.584 -23.614  1.00  0.00     0.010 C 
HETATM    4  C10 UNL     1      -2.565  49.902 -23.048  1.00  0.00    -0.033 C 
HETATM    5  C11 UNL     1      -3.705  50.930 -22.818  1.00  0.00     0.016 C 
HETATM    6  C12 UNL     1      -1.921  49.569 -21.660  1.00  0.00     0.058 C 
HETATM    7  C13 UNL     1      -1.053  50.688 -21.197  1.00  0.00     0.008 A 
HETATM    8  C14 UNL     1      -0.525  51.677 -21.997  1.00  0.00     0.027 A 
HETATM    9  N2  UNL     1       0.214  52.632 -21.329  1.00  0.00    -0.354 N 
ATOM     10  H2  UNL     1       0.635  53.455 -21.761  1.00  0.00     0.166 HD
HETATM   11  C15 UNL     1       0.296  52.320 -20.049  1.00  0.00     0.076 A 
HETATM   12  S1  UNL     1      -0.568  50.902 -19.581  1.00  0.00    -0.077 SA
HETATM   13  C23 UNL     1      -0.786  51.780 -23.478  1.00  0.00     0.040 C 
HETATM   14  C24 UNL     1       0.502  52.132 -24.234  1.00  0.00     0.017 C 
HETATM   15  C25 UNL     1      -1.461  50.461 -24.017  1.00  0.00     0.033 C 
HETATM   16  C26 UNL     1      -1.952  50.632 -25.483  1.00  0.00     0.128 C 
ENDROOT
BRANCH   1  17
HETATM   17  C5  UNL     1      -3.253  49.477 -27.421  1.00  0.00     0.080 C 
HETATM   18  C6  UNL     1      -3.215  50.781 -28.227  1.00  0.00     0.020 C 
BRANCH  17  19
HETATM   19  C4  UNL     1      -4.530  48.714 -27.778  1.00  0.00     0.222 C 
HETATM   20  N1  UNL     1      -4.900  48.753 -29.103  1.00  0.00    -0.359 N 
HETATM   21  H8  UNL     1      -4.279  49.147 -29.796  1.00  0.00     0.162 HD
HETATM   22  O2  UNL     1      -5.183  48.114 -26.930  1.00  0.00    -0.273 OA
BRANCH  20  23
HETATM   23  C3  UNL     1      -6.096  48.074 -29.576  1.00  0.00     0.148 C 
BRANCH  23  24
HETATM   24  C2  UNL     1      -5.842  47.088 -30.723  1.00  0.00     0.186 C 
BRANCH  24  25
HETATM   25  O1  UNL     1      -4.457  47.055 -31.090  1.00  0.00    -0.394 OA
HETATM   26  C1  UNL     1      -4.210  46.296 -32.265  1.00  0.00     0.201 C 
ENDBRANCH  24  25
ENDBRANCH  23  24
ENDBRANCH  20  23
ENDBRANCH  17  19
ENDBRANCH   1  17
BRANCH  16  27
HETATM   27  O4  UNL     1      -0.834  50.334 -26.325  1.00  0.00    -0.395 OA
HETATM   28  H35 UNL     1      -0.614  51.131 -26.839  1.00  0.00     0.210 HD
ENDBRANCH  16  27
BRANCH  11  29
HETATM   29  C16 UNL     1       1.039  53.120 -19.021  1.00  0.00     0.240 C 
BRANCH  29  30
HETATM   30  O3  UNL     1       0.679  52.605 -17.737  1.00  0.00    -0.345 OA
BRANCH  30  31
HETATM   31  C17 UNL     1       1.697  52.362 -16.856  1.00  0.00     0.070 A 
HETATM   32  C18 UNL     1       2.992  52.881 -16.933  1.00  0.00     0.037 A 
HETATM   33  C19 UNL     1       3.941  52.551 -15.959  1.00  0.00     0.004 A 
HETATM   34  C20 UNL     1       3.598  51.704 -14.906  1.00  0.00     0.024 A 
HETATM   35  C21 UNL     1       2.307  51.187 -14.831  1.00  0.00     0.036 A 
HETATM   36 CL1  UNL     1       1.883  50.137 -13.534  1.00  0.00    -0.084 Cl
HETATM   37  C22 UNL     1       1.359  51.512 -15.800  1.00  0.00     0.060 A 
ENDBRANCH  30  31
ENDBRANCH  29  30
ENDBRANCH  11  29
TORSDOF 9
ENDMDL
MODEL 5
REMARK minimizedAffinity -8.45384502
REMARK CNNscore 0.273595721
REMARK CNNaffinity 7.10121679
REMARK  9 active torsions:
REMARK  status: ('A' for Active; 'I' for Inactive)
REMARK    1  A    between atoms: O1_2  and  C2_3 
REMARK    2  A    between atoms: C2_3  and  C3_4 
REMARK    3  A    between atoms: C3_4  and  N1_5 
REMARK       I    between atoms: N1_5  and  C4_6 
REMARK    4  A    between atoms: C4_6  and  C5_8 
REMARK    5  A    between atoms: C5_8  and  C7_10 
REMARK    6  A    between atoms: C15_20  and  C16_21 
REMARK    7  A    between atoms: C16_21  and  O3_22 
REMARK    8  A    between atoms: O3_22  and  C17_23 
REMARK    9  A    between atoms: C26_34  and  O4_35 
ROOT
HETATM    1  C7  UNL     1      -2.328  51.656 -23.075  1.00  0.00     0.027 C 
HETATM    2  C8  UNL     1      -2.011  50.159 -22.977  1.00  0.00     0.009 C 
HETATM    3  C9  UNL     1      -2.117  49.650 -21.537  1.00  0.00     0.010 C 
HETATM    4  C10 UNL     1      -1.642  50.649 -20.442  1.00  0.00    -0.033 C 
HETATM    5  C11 UNL     1      -2.881  51.315 -19.785  1.00  0.00     0.016 C 
HETATM    6  C12 UNL     1      -0.891  49.824 -19.343  1.00  0.00     0.058 C 
HETATM    7  C13 UNL     1      -0.136  50.725 -18.427  1.00  0.00     0.008 A 
HETATM    8  C14 UNL     1       0.229  52.025 -18.703  1.00  0.00     0.027 A 
HETATM    9  N2  UNL     1       0.886  52.673 -17.677  1.00  0.00    -0.354 N 
ATOM     10  H2  UNL     1       1.184  53.649 -17.696  1.00  0.00     0.166 HD
HETATM   11  C15 UNL     1       1.071  51.843 -16.668  1.00  0.00     0.076 A 
HETATM   12  S1  UNL     1       0.405  50.265 -16.882  1.00  0.00    -0.077 SA
HETATM   13  C23 UNL     1      -0.120  52.735 -19.986  1.00  0.00     0.040 C 
HETATM   14  C24 UNL     1       1.076  53.547 -20.501  1.00  0.00     0.017 C 
HETATM   15  C25 UNL     1      -0.664  51.715 -21.057  1.00  0.00     0.033 C 
HETATM   16  C26 UNL     1      -1.248  52.449 -22.297  1.00  0.00     0.128 C 
ENDROOT
BRANCH   1  17
HETATM   17  C5  UNL     1      -2.505  52.111 -24.552  1.00  0.00     0.080 C 
HETATM   18  C6  UNL     1      -3.577  51.309 -25.300  1.00  0.00     0.020 C 
BRANCH  17  19
HETATM   19  C4  UNL     1      -1.193  52.027 -25.333  1.00  0.00     0.222 C 
HETATM   20  N1  UNL     1      -0.811  53.176 -25.989  1.00  0.00    -0.359 N 
HETATM   21  H8  UNL     1      -1.309  54.042 -25.834  1.00  0.00     0.162 HD
HETATM   22  O2  UNL     1      -0.529  50.995 -25.374  1.00  0.00    -0.273 OA
BRANCH  20  23
HETATM   23  C3  UNL     1       0.413  53.231 -26.772  1.00  0.00     0.148 C 
BRANCH  23  24
HETATM   24  C2  UNL     1       0.392  52.344 -28.024  1.00  0.00     0.186 C 
BRANCH  24  25
HETATM   25  O1  UNL     1       1.697  51.834 -28.327  1.00  0.00    -0.394 OA
HETATM   26  C1  UNL     1       2.503  51.645 -27.173  1.00  0.00     0.201 C 
ENDBRANCH  24  25
ENDBRANCH  23  24
ENDBRANCH  20  23
ENDBRANCH  17  19
ENDBRANCH   1  17
BRANCH  16  27
HETATM   27  O4  UNL     1      -0.148  52.700 -23.178  1.00  0.00    -0.395 OA
HETATM   28  H35 UNL     1      -0.052  53.662 -23.285  1.00  0.00     0.210 HD
ENDBRANCH  16  27
BRANCH  11  29
HETATM   29  C16 UNL     1       1.769  52.196 -15.388  1.00  0.00     0.240 C 
BRANCH  29  30
HETATM   30  O3  UNL     1       1.035  51.590 -14.321  1.00  0.00    -0.345 OA
BRANCH  30  31
HETATM   31  C17 UNL     1       1.245  52.082 -13.062  1.00  0.00     0.070 A 
HETATM   32  C18 UNL     1       2.380  51.869 -12.275  1.00  0.00     0.037 A 
HETATM   33  C19 UNL     1       2.467  52.436 -10.999  1.00  0.00     0.004 A 
HETATM   34  C20 UNL     1       1.422  53.218 -10.508  1.00  0.00     0.024 A 
HETATM   35  C21 UNL     1       0.292  53.429 -11.293  1.00  0.00     0.036 A 
HETATM   36 CL1  UNL     1      -1.001  54.390 -10.686  1.00  0.00    -0.084 Cl
HETATM   37  C22 UNL     1       0.200  52.865 -12.564  1.00  0.00     0.060 A 
ENDBRANCH  30  31
ENDBRANCH  29  30
ENDBRANCH  11  29
TORSDOF 9
ENDMDL
MODEL 6
REMARK minimizedAffinity -8.82620335
REMARK CNNscore 0.253527075
REMARK CNNaffinity 7.04686975
REMARK  9 active torsions:
REMARK  status: ('A' for Active; 'I' for Inactive)
REMARK    1  A    between atoms: O1_2  and  C2_3 
REMARK    2  A    between atoms: C2_3  and  C3_4 
REMARK    3  A    between atoms: C3_4  and  N1_5 
REMARK       I    between atoms: N1_5  and  C4_6 
REMARK    4  A    between atoms: C4_6  and  C5_8 
REMARK    5  A    between atoms: C5_8  and  C7_10 
REMARK    6  A    between atoms: C15_20  and  C16_21 
REMARK    7  A    between atoms: C16_21  and  O3_22 
REMARK    8  A    between atoms: O3_22  and  C17_23 
REMARK    9  A    between atoms: C26_34  and  O4_35 
ROOT
HETATM    1  C7  UNL     1      -3.020  49.785 -25.836  1.00  0.00     0.027 C 
HETATM    2  C8  UNL     1      -2.878  48.428 -25.137  1.00  0.00     0.009 C 
HETATM    3  C9  UNL     1      -3.121  48.537 -23.630  1.00  0.00     0.010 C 
HETATM    4  C10 UNL     1      -2.600  49.845 -22.966  1.00  0.00    -0.033 C 
HETATM    5  C11 UNL     1      -3.792  50.813 -22.739  1.00  0.00     0.016 C 
HETATM    6  C12 UNL     1      -2.009  49.462 -21.567  1.00  0.00     0.058 C 
HETATM    7  C13 UNL     1      -1.212  50.588 -21.003  1.00  0.00     0.008 A 
HETATM    8  C14 UNL     1      -0.689  51.639 -21.723  1.00  0.00     0.027 A 
HETATM    9  N2  UNL     1      -0.023  52.584 -20.969  1.00  0.00    -0.354 N 
ATOM     10  H2  UNL     1       0.382  53.446 -21.335  1.00  0.00     0.166 HD
HETATM   11  C15 UNL     1       0.011  52.206 -19.705  1.00  0.00     0.076 A 
HETATM   12  S1  UNL     1      -0.814  50.731 -19.356  1.00  0.00    -0.077 SA
HETATM   13  C23 UNL     1      -0.884  51.813 -23.207  1.00  0.00     0.040 C 
HETATM   14  C24 UNL     1       0.422  52.256 -23.879  1.00  0.00     0.017 C 
HETATM   15  C25 UNL     1      -1.476  50.500 -23.848  1.00  0.00     0.033 C 
HETATM   16  C26 UNL     1      -1.904  50.731 -25.325  1.00  0.00     0.128 C 
ENDROOT
BRANCH   1  17
HETATM   17  C5  UNL     1      -3.062  49.634 -27.384  1.00  0.00     0.080 C 
HETATM   18  C6  UNL     1      -3.193  50.977 -28.112  1.00  0.00     0.020 C 
BRANCH  17  19
HETATM   19  C4  UNL     1      -4.200  48.716 -27.834  1.00  0.00     0.222 C 
HETATM   20  N1  UNL     1      -5.234  48.561 -26.938  1.00  0.00    -0.359 N 
HETATM   21  H8  UNL     1      -5.281  49.135 -26.108  1.00  0.00     0.162 HD
HETATM   22  O2  UNL     1      -4.182  48.150 -28.923  1.00  0.00    -0.273 OA
BRANCH  20  23
HETATM   23  C3  UNL     1      -6.375  47.712 -27.238  1.00  0.00     0.148 C 
BRANCH  23  24
HETATM   24  C2  UNL     1      -7.336  47.517 -26.058  1.00  0.00     0.186 C 
BRANCH  24  25
HETATM   25  O1  UNL     1      -6.697  47.808 -24.808  1.00  0.00    -0.394 OA
HETATM   26  C1  UNL     1      -7.373  48.804 -24.055  1.00  0.00     0.201 C 
ENDBRANCH  24  25
ENDBRANCH  23  24
ENDBRANCH  20  23
ENDBRANCH  17  19
ENDBRANCH   1  17
BRANCH  16  27
HETATM   27  O4  UNL     1      -0.735  50.525 -26.125  1.00  0.00    -0.395 OA
HETATM   28  H35 UNL     1      -0.526  51.357 -26.585  1.00  0.00     0.210 HD
ENDBRANCH  16  27
BRANCH  11  29
HETATM   29  C16 UNL     1       0.670  52.978 -18.601  1.00  0.00     0.240 C 
BRANCH  29  30
HETATM   30  O3  UNL     1       0.540  52.206 -17.404  1.00  0.00    -0.345 OA
BRANCH  30  31
HETATM   31  C17 UNL     1       1.650  52.093 -16.612  1.00  0.00     0.070 A 
HETATM   32  C18 UNL     1       2.870  52.744 -16.810  1.00  0.00     0.037 A 
HETATM   33  C19 UNL     1       3.929  52.539 -15.919  1.00  0.00     0.004 A 
HETATM   34  C20 UNL     1       3.770  51.687 -14.826  1.00  0.00     0.024 A 
HETATM   35  C21 UNL     1       2.553  51.039 -14.630  1.00  0.00     0.036 A 
HETATM   36 CL1  UNL     1       2.355  49.983 -13.285  1.00  0.00    -0.084 Cl
HETATM   37  C22 UNL     1       1.496  51.239 -15.517  1.00  0.00     0.060 A 
ENDBRANCH  30  31
ENDBRANCH  29  30
ENDBRANCH  11  29
TORSDOF 9
ENDMDL
MODEL 7
REMARK minimizedAffinity -8.04759884
REMARK CNNscore 0.250188738
REMARK CNNaffinity 6.47085619
REMARK  9 active torsions:
REMARK  status: ('A' for Active; 'I' for Inactive)
REMARK    1  A    between atoms: O1_2  and  C2_3 
REMARK    2  A    between atoms: C2_3  and  C3_4 
REMARK    3  A    between atoms: C3_4  and  N1_5 
REMARK       I    between atoms: N1_5  and  C4_6 
REMARK    4  A    between atoms: C4_6  and  C5_8 
REMARK    5  A    between atoms: C5_8  and  C7_10 
REMARK    6  A    between atoms: C15_20  and  C16_21 
REMARK    7  A    between atoms: C16_21  and  O3_22 
REMARK    8  A    between atoms: O3_22  and  C17_23 
REMARK    9  A    between atoms: C26_34  and  O4_35 
ROOT
HETATM    1  C7  UNL     1      -2.041  50.974 -23.470  1.00  0.00     0.027 C 
HETATM    2  C8  UNL     1      -1.309  52.286 -23.166  1.00  0.00     0.009 C 
HETATM    3  C9  UNL     1      -0.331  52.135 -21.999  1.00  0.00     0.010 C 
HETATM    4  C10 UNL     1      -0.803  51.190 -20.855  1.00  0.00    -0.033 C 
HETATM    5  C11 UNL     1      -0.092  49.818 -20.998  1.00  0.00     0.016 C 
HETATM    6  C12 UNL     1      -0.357  51.833 -19.498  1.00  0.00     0.058 C 
HETATM    7  C13 UNL     1      -1.034  51.167 -18.349  1.00  0.00     0.008 A 
HETATM    8  C14 UNL     1      -2.183  50.411 -18.425  1.00  0.00     0.027 A 
HETATM    9  N2  UNL     1      -2.596  49.860 -17.229  1.00  0.00    -0.354 N 
ATOM     10  H2  UNL     1      -3.397  49.239 -17.115  1.00  0.00     0.166 HD
HETATM   11  C15 UNL     1      -1.800  50.259 -16.254  1.00  0.00     0.076 A 
HETATM   12  S1  UNL     1      -0.481  51.259 -16.744  1.00  0.00    -0.077 SA
HETATM   13  C23 UNL     1      -2.910  50.124 -19.714  1.00  0.00     0.040 C 
HETATM   14  C24 UNL     1      -4.427  50.250 -19.524  1.00  0.00     0.017 C 
HETATM   15  C25 UNL     1      -2.368  51.042 -20.875  1.00  0.00     0.033 C 
HETATM   16  C26 UNL     1      -2.931  50.604 -22.256  1.00  0.00     0.128 C 
ENDROOT
BRANCH   1  17
HETATM   17  C5  UNL     1      -2.809  51.042 -24.821  1.00  0.00     0.080 C 
HETATM   18  C6  UNL     1      -3.005  49.666 -25.467  1.00  0.00     0.020 C 
BRANCH  17  19
HETATM   19  C4  UNL     1      -2.113  51.964 -25.823  1.00  0.00     0.222 C 
HETATM   20  N1  UNL     1      -0.789  51.682 -26.078  1.00  0.00    -0.359 N 
HETATM   21  H8  UNL     1      -0.370  50.834 -25.721  1.00  0.00     0.162 HD
HETATM   22  O2  UNL     1      -2.700  52.900 -26.359  1.00  0.00    -0.273 OA
BRANCH  20  23
HETATM   23  C3  UNL     1      -0.009  52.483 -27.006  1.00  0.00     0.148 C 
BRANCH  23  24
HETATM   24  C2  UNL     1       0.576  51.686 -28.180  1.00  0.00     0.186 C 
BRANCH  24  25
HETATM   25  O1  UNL     1       2.004  51.794 -28.228  1.00  0.00    -0.394 OA
HETATM   26  C1  UNL     1       2.618  51.629 -26.958  1.00  0.00     0.201 C 
ENDBRANCH  24  25
ENDBRANCH  23  24
ENDBRANCH  20  23
ENDBRANCH  17  19
ENDBRANCH   1  17
BRANCH  16  27
HETATM   27  O4  UNL     1      -4.195  51.257 -22.407  1.00  0.00    -0.395 OA
HETATM   28  H35 UNL     1      -4.888  50.577 -22.476  1.00  0.00     0.210 HD
ENDBRANCH  16  27
BRANCH  11  29
HETATM   29  C16 UNL     1      -1.956  49.873 -14.813  1.00  0.00     0.240 C 
BRANCH  29  30
HETATM   30  O3  UNL     1      -2.107  51.082 -14.062  1.00  0.00    -0.345 OA
BRANCH  30  31
HETATM   31  C17 UNL     1      -2.904  51.028 -12.952  1.00  0.00     0.070 A 
HETATM   32  C18 UNL     1      -3.538  49.889 -12.449  1.00  0.00     0.037 A 
HETATM   33  C19 UNL     1      -4.328  49.975 -11.297  1.00  0.00     0.004 A 
HETATM   34  C20 UNL     1      -4.484  51.198 -10.645  1.00  0.00     0.024 A 
HETATM   35  C21 UNL     1      -3.852  52.332 -11.148  1.00  0.00     0.036 A 
HETATM   36 CL1  UNL     1      -4.047  53.843 -10.347  1.00  0.00    -0.084 Cl
HETATM   37  C22 UNL     1      -3.066  52.251 -12.295  1.00  0.00     0.060 A 
ENDBRANCH  30  31
ENDBRANCH  29  30
ENDBRANCH  11  29
TORSDOF 9
ENDMDL
MODEL 8
REMARK minimizedAffinity -7.7309494
REMARK CNNscore 0.24601002
REMARK CNNaffinity 6.84991646
REMARK  9 active torsions:
REMARK  status: ('A' for Active; 'I' for Inactive)
REMARK    1  A    between atoms: O1_2  and  C2_3 
REMARK    2  A    between atoms: C2_3  and  C3_4 
REMARK    3  A    between atoms: C3_4  and  N1_5 
REMARK       I    between atoms: N1_5  and  C4_6 
REMARK    4  A    between atoms: C4_6  and  C5_8 
REMARK    5  A    between atoms: C5_8  and  C7_10 
REMARK    6  A    between atoms: C15_20  and  C16_21 
REMARK    7  A    between atoms: C16_21  and  O3_22 
REMARK    8  A    between atoms: O3_22  and  C17_23 
REMARK    9  A    between atoms: C26_34  and  O4_35 
ROOT
HETATM    1  C7  UNL     1      -2.006  50.794 -21.968  1.00  0.00     0.027 C 
HETATM    2  C8  UNL     1      -1.667  49.310 -21.785  1.00  0.00     0.009 C 
HETATM    3  C9  UNL     1      -1.810  48.871 -20.325  1.00  0.00     0.010 C 
HETATM    4  C10 UNL     1      -1.387  49.932 -19.268  1.00  0.00    -0.033 C 
HETATM    5  C11 UNL     1      -2.657  50.607 -18.684  1.00  0.00     0.016 C 
HETATM    6  C12 UNL     1      -0.658  49.176 -18.106  1.00  0.00     0.058 C 
HETATM    7  C13 UNL     1       0.052  50.136 -17.213  1.00  0.00     0.008 A 
HETATM    8  C14 UNL     1       0.404  51.427 -17.543  1.00  0.00     0.027 A 
HETATM    9  N2  UNL     1       1.017  52.138 -16.531  1.00  0.00    -0.354 N 
ATOM     10  H2  UNL     1       1.299  53.116 -16.590  1.00  0.00     0.166 HD
HETATM   11  C15 UNL     1       1.184  51.362 -15.476  1.00  0.00     0.076 A 
HETATM   12  S1  UNL     1       0.551  49.764 -15.631  1.00  0.00    -0.077 SA
HETATM   13  C23 UNL     1       0.085  52.066 -18.870  1.00  0.00     0.040 C 
HETATM   14  C24 UNL     1       1.282  52.872 -19.388  1.00  0.00     0.017 C 
HETATM   15  C25 UNL     1      -0.408  50.984 -19.905  1.00  0.00     0.033 C 
HETATM   16  C26 UNL     1      -0.964  51.644 -21.198  1.00  0.00     0.128 C 
ENDROOT
BRANCH   1  17
HETATM   17  C5  UNL     1      -2.143  51.171 -23.471  1.00  0.00     0.080 C 
HETATM   18  C6  UNL     1      -2.669  52.595 -23.684  1.00  0.00     0.020 C 
BRANCH  17  19
HETATM   19  C4  UNL     1      -3.050  50.193 -24.220  1.00  0.00     0.222 C 
HETATM   20  N1  UNL     1      -2.491  49.578 -25.317  1.00  0.00    -0.359 N 
HETATM   21  H8  UNL     1      -1.504  49.676 -25.510  1.00  0.00     0.162 HD
HETATM   22  O2  UNL     1      -4.206  49.981 -23.865  1.00  0.00    -0.273 OA
BRANCH  20  23
HETATM   23  C3  UNL     1      -3.246  48.631 -26.121  1.00  0.00     0.148 C 
BRANCH  23  24
HETATM   24  C2  UNL     1      -3.675  49.176 -27.490  1.00  0.00     0.186 C 
BRANCH  24  25
HETATM   25  O1  UNL     1      -3.896  48.118 -28.431  1.00  0.00    -0.394 OA
HETATM   26  C1  UNL     1      -5.236  48.058 -28.897  1.00  0.00     0.201 C 
ENDBRANCH  24  25
ENDBRANCH  23  24
ENDBRANCH  20  23
ENDBRANCH  17  19
ENDBRANCH   1  17
BRANCH  16  27
HETATM   27  O4  UNL     1       0.159  51.871 -22.056  1.00  0.00    -0.395 OA
HETATM   28  H35 UNL     1       0.243  52.829 -22.208  1.00  0.00     0.210 HD
ENDBRANCH  16  27
BRANCH  11  29
HETATM   29  C16 UNL     1       1.834  51.791 -14.195  1.00  0.00     0.240 C 
BRANCH  29  30
HETATM   30  O3  UNL     1       0.810  51.858 -13.199  1.00  0.00    -0.345 OA
BRANCH  30  31
HETATM   31  C17 UNL     1       1.023  52.702 -12.143  1.00  0.00     0.070 A 
HETATM   32  C18 UNL     1       2.220  52.852 -11.439  1.00  0.00     0.037 A 
HETATM   33  C19 UNL     1       2.301  53.756 -10.375  1.00  0.00     0.004 A 
HETATM   34  C20 UNL     1       1.187  54.514 -10.013  1.00  0.00     0.024 A 
HETATM   35  C21 UNL     1      -0.006  54.362 -10.715  1.00  0.00     0.036 A 
HETATM   36 CL1  UNL     1      -1.383  55.293 -10.267  1.00  0.00    -0.084 Cl
HETATM   37  C22 UNL     1      -0.091  53.461 -11.775  1.00  0.00     0.060 A 
ENDBRANCH  30  31
ENDBRANCH  29  30
ENDBRANCH  11  29
TORSDOF 9
ENDMDL
MODEL 9
REMARK minimizedAffinity -6.74978971
REMARK CNNscore 0.235974625
REMARK CNNaffinity 6.49855185
REMARK  9 active torsions:
REMARK  status: ('A' for Active; 'I' for Inactive)
REMARK    1  A    between atoms: O1_2  and  C2_3 
REMARK    2  A    between atoms: C2_3  and  C3_4 
REMARK    3  A    between atoms: C3_4  and  N1_5 
REMARK       I    between atoms: N1_5  and  C4_6 
REMARK    4  A    between atoms: C4_6  and  C5_8 
REMARK    5  A    between atoms: C5_8  and  C7_10 
REMARK    6  A    between atoms: C15_20  and  C16_21 
REMARK    7  A    between atoms: C16_21  and  O3_22 
REMARK    8  A    between atoms: O3_22  and  C17_23 
REMARK    9  A    between atoms: C26_34  and  O4_35 
ROOT
HETATM    1  C7  UNL     1      -2.856  49.190 -23.189  1.00  0.00     0.027 C 
HETATM    2  C8  UNL     1      -3.524  50.523 -22.832  1.00  0.00     0.009 C 
HETATM    3  C9  UNL     1      -2.683  51.333 -21.843  1.00  0.00     0.010 C 
HETATM    4  C10 UNL     1      -1.930  50.495 -20.768  1.00  0.00    -0.033 C 
HETATM    5  C11 UNL     1      -0.439  50.359 -21.179  1.00  0.00     0.016 C 
HETATM    6  C12 UNL     1      -1.994  51.289 -19.420  1.00  0.00     0.058 C 
HETATM    7  C13 UNL     1      -1.580  50.426 -18.277  1.00  0.00     0.008 A 
HETATM    8  C14 UNL     1      -1.552  49.049 -18.282  1.00  0.00     0.027 A 
HETATM    9  N2  UNL     1      -1.089  48.473 -17.117  1.00  0.00    -0.354 N 
ATOM     10  H2  UNL     1      -0.960  47.472 -16.968  1.00  0.00     0.166 HD
HETATM   11  C15 UNL     1      -0.837  49.412 -16.223  1.00  0.00     0.076 A 
HETATM   12  S1  UNL     1      -1.084  51.031 -16.768  1.00  0.00    -0.077 SA
HETATM   13  C23 UNL     1      -1.917  48.211 -19.481  1.00  0.00     0.040 C 
HETATM   14  C24 UNL     1      -2.771  47.007 -19.064  1.00  0.00     0.017 C 
HETATM   15  C25 UNL     1      -2.616  49.093 -20.585  1.00  0.00     0.033 C 
HETATM   16  C26 UNL     1      -2.787  48.308 -21.916  1.00  0.00     0.128 C 
ENDROOT
BRANCH   1  17
HETATM   17  C5  UNL     1      -3.552  48.502 -24.398  1.00  0.00     0.080 C 
HETATM   18  C6  UNL     1      -3.060  49.031 -25.750  1.00  0.00     0.020 C 
BRANCH  17  19
HETATM   19  C4  UNL     1      -5.073  48.649 -24.335  1.00  0.00     0.222 C 
HETATM   20  N1  UNL     1      -5.781  47.968 -25.300  1.00  0.00    -0.359 N 
HETATM   21  H8  UNL     1      -5.313  47.312 -25.910  1.00  0.00     0.162 HD
HETATM   22  O2  UNL     1      -5.622  49.338 -23.480  1.00  0.00    -0.273 OA
BRANCH  20  23
HETATM   23  C3  UNL     1      -7.232  48.027 -25.358  1.00  0.00     0.148 C 
BRANCH  23  24
HETATM   24  C2  UNL     1      -7.813  47.753 -26.751  1.00  0.00     0.186 C 
BRANCH  24  25
HETATM   25  O1  UNL     1      -7.076  46.732 -27.436  1.00  0.00    -0.394 OA
HETATM   26  C1  UNL     1      -7.905  45.713 -27.975  1.00  0.00     0.201 C 
ENDBRANCH  24  25
ENDBRANCH  23  24
ENDBRANCH  20  23
ENDBRANCH  17  19
ENDBRANCH   1  17
BRANCH  16  27
HETATM   27  O4  UNL     1      -4.013  47.579 -21.805  1.00  0.00    -0.395 OA
HETATM   28  H35 UNL     1      -3.812  46.628 -21.858  1.00  0.00     0.210 HD
ENDBRANCH  16  27
BRANCH  11  29
HETATM   29  C16 UNL     1      -0.336  49.155 -14.833  1.00  0.00     0.240 C 
BRANCH  29  30
HETATM   30  O3  UNL     1       0.278  50.361 -14.372  1.00  0.00    -0.345 OA
BRANCH  30  31
HETATM   31  C17 UNL     1       1.644  50.371 -14.288  1.00  0.00     0.070 A 
HETATM   32  C18 UNL     1       2.424  49.541 -13.479  1.00  0.00     0.037 A 
HETATM   33  C19 UNL     1       3.818  49.657 -13.490  1.00  0.00     0.004 A 
HETATM   34  C20 UNL     1       4.436  50.599 -14.311  1.00  0.00     0.024 A 
HETATM   35  C21 UNL     1       3.657  51.426 -15.117  1.00  0.00     0.036 A 
HETATM   36 CL1  UNL     1       4.417  52.594 -16.128  1.00  0.00    -0.084 Cl
HETATM   37  C22 UNL     1       2.268  51.316 -15.107  1.00  0.00     0.060 A 
ENDBRANCH  30  31
ENDBRANCH  29  30
ENDBRANCH  11  29
TORSDOF 9
ENDMDL
