MODEL 1
REMARK minimizedAffinity -7.25506973
REMARK CNNscore 0.516298056
REMARK CNNaffinity 6.98166704
REMARK  9 active torsions:
REMARK  status: ('A' for Active; 'I' for Inactive)
REMARK       I    between atoms: C2_2  and  N1_4 
REMARK    1  A    between atoms: N1_4  and  C3_5 
REMARK    2  A    between atoms: C3_5  and  C4_6 
REMARK    3  A    between atoms: C3_5  and  C33_42 
REMARK    4  A    between atoms: C4_6  and  S1_7 
REMARK    5  A    between atoms: S1_7  and  C5_8 
REMARK    6  A    between atoms: C10_14  and  O3_15 
REMARK    7  A    between atoms: C27_33  and  O5_34 
REMARK    8  A    between atoms: C30_38  and  O7_39 
REMARK    9  A    between atoms: C33_42  and  O9_44 
ROOT
HETATM    1  C5  UNL     1       2.373  15.259  -2.798  1.00  0.00     0.054 C 
HETATM    2  C6  UNL     1       3.350  14.336  -2.614  1.00  0.00     0.028 C 
HETATM    3  C7  UNL     1       3.314  13.514  -3.804  1.00  0.00     0.089 C 
HETATM    4  C8  UNL     1       4.055  12.417  -3.963  1.00  0.00     0.095 C 
HETATM    5  C9  UNL     1       4.969  12.069  -2.866  1.00  0.00     0.208 C 
HETATM    6  O2  UNL     1       5.647  11.037  -2.913  1.00  0.00    -0.285 OA
HETATM    7  C10 UNL     1       5.130  13.007  -1.691  1.00  0.00     0.126 C 
HETATM    8  C11 UNL     1       4.361  14.119  -1.559  1.00  0.00     0.022 C 
HETATM    9  C12 UNL     1       4.624  15.253  -0.535  1.00  0.00     0.165 C 
HETATM   10  O4  UNL     1       4.788  16.473  -1.310  1.00  0.00    -0.375 OA
HETATM   11  C13 UNL     1       4.809  17.642  -0.496  1.00  0.00     0.128 C 
HETATM   12  C14 UNL     1       4.451  18.932  -1.263  1.00  0.00     0.033 C 
HETATM   13  C15 UNL     1       4.663  18.980  -2.779  1.00  0.00     0.010 C 
HETATM   14  C16 UNL     1       3.995  20.206  -3.484  1.00  0.00     0.004 C 
HETATM   15  C17 UNL     1       4.382  21.532  -2.835  1.00  0.00     0.014 C 
HETATM   16  C18 UNL     1       2.476  20.103  -3.584  1.00  0.00    -0.020 C 
HETATM   17  C19 UNL     1       1.716  20.297  -4.687  1.00  0.00    -0.087 C 
HETATM   18  C20 UNL     1       2.262  20.847  -5.974  1.00  0.00     0.043 C 
HETATM   19  C21 UNL     1       0.243  19.882  -4.689  1.00  0.00     0.037 C 
HETATM   20  C22 UNL     1      -0.064  18.458  -5.275  1.00  0.00    -0.014 C 
HETATM   21  C23 UNL     1      -0.146  18.461  -6.799  1.00  0.00     0.010 C 
HETATM   22  C24 UNL     1       0.997  17.488  -4.753  1.00  0.00     0.014 C 
HETATM   23  C25 UNL     1       1.006  15.983  -5.062  1.00  0.00     0.050 C 
HETATM   24  C26 UNL     1      -0.301  15.219  -4.881  1.00  0.00     0.016 C 
HETATM   25  C27 UNL     1       2.227  15.349  -4.328  1.00  0.00     0.207 C 
HETATM   26  O6  UNL     1       2.430  13.980  -4.758  1.00  0.00    -0.308 OA
HETATM   27  C28 UNL     1       6.150  17.663   0.240  1.00  0.00     0.040 C 
HETATM   28  C29 UNL     1       7.354  17.620  -0.696  1.00  0.00     0.015 C 
HETATM   29  C30 UNL     1       6.110  16.472   1.205  1.00  0.00     0.130 C 
HETATM   30  C31 UNL     1       5.780  15.127   0.516  1.00  0.00     0.044 C 
HETATM   31  C32 UNL     1       5.412  14.109   1.605  1.00  0.00     0.015 C 
ENDROOT
BRANCH   1  32
HETATM   32  S1  UNL     1       1.747  16.324  -1.592  1.00  0.00    -0.125 SA
BRANCH  32  33
HETATM   33  C4  UNL     1       1.404  15.312  -0.132  1.00  0.00     0.115 C 
BRANCH  33  34
HETATM   34  C3  UNL     1      -0.069  15.030   0.179  1.00  0.00     0.192 C 
BRANCH  34  35
HETATM   35  N1  UNL     1      -0.164  13.938   1.157  1.00  0.00    -0.346 N 
HETATM   36  C2  UNL     1      -1.370  13.648   1.761  1.00  0.00     0.214 C 
HETATM   37  C1  UNL     1      -1.311  12.517   2.750  1.00  0.00     0.117 C 
HETATM   38  O1  UNL     1      -2.402  14.277   1.525  1.00  0.00    -0.274 OA
HETATM   39  H4  UNL     1       0.506  13.176   1.099  1.00  0.00     0.163 HD
ENDBRANCH  34  35
BRANCH  34  40
HETATM   40  C33 UNL     1      -0.752  14.671  -1.143  1.00  0.00     0.164 C 
HETATM   41  O8  UNL     1      -1.548  15.363  -1.764  1.00  0.00    -0.648 OA
BRANCH  40  42
HETATM   42  O9  UNL     1      -0.318  13.502  -1.692  1.00  0.00    -0.775 OA
HETATM   43  H47 UNL     1      -0.910  13.412  -2.473  1.00  0.00     0.167 HD
ENDBRANCH  40  42
ENDBRANCH  34  40
ENDBRANCH  33  34
ENDBRANCH  32  33
ENDBRANCH   1  32
BRANCH  25  44
HETATM   44  O5  UNL     1       3.387  16.086  -4.800  1.00  0.00    -0.360 OA
HETATM   45  H36 UNL     1       3.352  16.018  -5.769  1.00  0.00     0.213 HD
ENDBRANCH  25  44
BRANCH   7  46
HETATM   46  O3  UNL     1       6.146  12.664  -0.822  1.00  0.00    -0.356 OA
HETATM   47  H9  UNL     1       6.490  11.794  -1.154  1.00  0.00     0.218 HD
ENDBRANCH   7  46
BRANCH  29  48
HETATM   48  O7  UNL     1       7.339  16.377   1.920  1.00  0.00    -0.395 OA
HETATM   49  H42 UNL     1       7.161  15.860   2.728  1.00  0.00     0.210 HD
ENDBRANCH  29  48
TORSDOF 9
ENDMDL
MODEL 2
REMARK minimizedAffinity -7.54208803
REMARK CNNscore 0.285172105
REMARK CNNaffinity 6.63586235
REMARK  9 active torsions:
REMARK  status: ('A' for Active; 'I' for Inactive)
REMARK       I    between atoms: C2_2  and  N1_4 
REMARK    1  A    between atoms: N1_4  and  C3_5 
REMARK    2  A    between atoms: C3_5  and  C4_6 
REMARK    3  A    between atoms: C3_5  and  C33_42 
REMARK    4  A    between atoms: C4_6  and  S1_7 
REMARK    5  A    between atoms: S1_7  and  C5_8 
REMARK    6  A    between atoms: C10_14  and  O3_15 
REMARK    7  A    between atoms: C27_33  and  O5_34 
REMARK    8  A    between atoms: C30_38  and  O7_39 
REMARK    9  A    between atoms: C33_42  and  O9_44 
ROOT
HETATM    1  C5  UNL     1     -11.252  -8.625  12.764  1.00  0.00     0.054 C 
HETATM    2  C6  UNL     1     -11.769  -7.780  13.690  1.00  0.00     0.028 C 
HETATM    3  C7  UNL     1     -12.715  -6.963  12.961  1.00  0.00     0.089 C 
HETATM    4  C8  UNL     1     -13.360  -5.927  13.497  1.00  0.00     0.095 C 
HETATM    5  C9  UNL     1     -13.098  -5.646  14.916  1.00  0.00     0.208 C 
HETATM    6  O2  UNL     1     -13.613  -4.670  15.471  1.00  0.00    -0.285 OA
HETATM    7  C10 UNL     1     -12.237  -6.588  15.727  1.00  0.00     0.126 C 
HETATM    8  C11 UNL     1     -11.594  -7.637  15.149  1.00  0.00     0.022 C 
HETATM    9  C12 UNL     1     -10.905  -8.784  15.933  1.00  0.00     0.165 C 
HETATM   10  O4  UNL     1     -11.547 -10.016  15.502  1.00  0.00    -0.375 OA
HETATM   11  C13 UNL     1     -10.866 -11.180  15.964  1.00  0.00     0.128 C 
HETATM   12  C14 UNL     1     -11.172 -12.442  15.130  1.00  0.00     0.033 C 
HETATM   13  C15 UNL     1     -12.480 -12.512  14.338  1.00  0.00     0.010 C 
HETATM   14  C16 UNL     1     -12.546 -13.686  13.307  1.00  0.00     0.004 C 
HETATM   15  C17 UNL     1     -12.216 -15.035  13.939  1.00  0.00     0.014 C 
HETATM   16  C18 UNL     1     -11.677 -13.466  12.072  1.00  0.00    -0.020 C 
HETATM   17  C19 UNL     1     -12.048 -13.607  10.778  1.00  0.00    -0.087 C 
HETATM   18  C20 UNL     1     -13.362 -14.203  10.360  1.00  0.00     0.043 C 
HETATM   19  C21 UNL     1     -11.147 -13.079   9.658  1.00  0.00     0.037 C 
HETATM   20  C22 UNL     1     -11.483 -11.638   9.133  1.00  0.00    -0.014 C 
HETATM   21  C23 UNL     1     -12.617 -11.642   8.111  1.00  0.00     0.010 C 
HETATM   22  C24 UNL     1     -11.793 -10.751  10.340  1.00  0.00     0.014 C 
HETATM   23  C25 UNL     1     -12.118  -9.252  10.239  1.00  0.00     0.050 C 
HETATM   24  C26 UNL     1     -11.196  -8.389   9.383  1.00  0.00     0.016 C 
HETATM   25  C27 UNL     1     -12.345  -8.711  11.683  1.00  0.00     0.207 C 
HETATM   26  O6  UNL     1     -12.878  -7.363  11.648  1.00  0.00    -0.308 OA
HETATM   27  C28 UNL     1     -11.134 -11.301  17.465  1.00  0.00     0.040 C 
HETATM   28  C29 UNL     1     -12.618 -11.355  17.812  1.00  0.00     0.015 C 
HETATM   29  C30 UNL     1     -10.421 -10.107  18.110  1.00  0.00     0.130 C 
HETATM   30  C31 UNL     1     -10.819  -8.743  17.497  1.00  0.00     0.044 C 
HETATM   31  C32 UNL     1      -9.795  -7.695  17.955  1.00  0.00     0.015 C 
ENDROOT
BRANCH   1  32
HETATM   32  S1  UNL     1      -9.867  -9.634  12.977  1.00  0.00    -0.125 SA
BRANCH  32  33
HETATM   33  C4  UNL     1      -8.729  -9.246  11.626  1.00  0.00     0.115 C 
BRANCH  33  34
HETATM   34  C3  UNL     1      -7.242  -9.511  11.881  1.00  0.00     0.192 C 
BRANCH  34  35
HETATM   35  N1  UNL     1      -7.095 -10.668  12.775  1.00  0.00    -0.346 N 
HETATM   36  C2  UNL     1      -6.922 -11.933  12.253  1.00  0.00     0.214 C 
HETATM   37  C1  UNL     1      -6.803 -13.018  13.287  1.00  0.00     0.117 C 
HETATM   38  O1  UNL     1      -6.890 -12.155  11.043  1.00  0.00    -0.274 OA
HETATM   39  H4  UNL     1      -6.733 -10.513  13.712  1.00  0.00     0.163 HD
ENDBRANCH  34  35
BRANCH  34  40
HETATM   40  C33 UNL     1      -6.653  -8.239  12.498  1.00  0.00     0.164 C 
HETATM   41  O8  UNL     1      -6.645  -7.122  11.995  1.00  0.00    -0.648 OA
BRANCH  40  42
HETATM   42  O9  UNL     1      -6.201  -8.398  13.772  1.00  0.00    -0.775 OA
HETATM   43  H47 UNL     1      -5.806  -7.516  13.960  1.00  0.00     0.167 HD
ENDBRANCH  40  42
ENDBRANCH  34  40
ENDBRANCH  33  34
ENDBRANCH  32  33
ENDBRANCH   1  32
BRANCH  25  44
HETATM   44  O5  UNL     1     -13.401  -9.538  12.243  1.00  0.00    -0.360 OA
HETATM   45  H36 UNL     1     -14.136  -9.470  11.610  1.00  0.00     0.213 HD
ENDBRANCH  25  44
BRANCH   7  46
HETATM   46  O3  UNL     1     -12.216  -6.322  17.080  1.00  0.00    -0.356 OA
HETATM   47  H9  UNL     1     -12.735  -5.482  17.188  1.00  0.00     0.218 HD
ENDBRANCH   7  46
BRANCH  29  48
HETATM   48  O7  UNL     1     -10.641 -10.103  19.518  1.00  0.00    -0.395 OA
HETATM   49  H42 UNL     1      -9.928  -9.571  19.918  1.00  0.00     0.210 HD
ENDBRANCH  29  48
TORSDOF 9
ENDMDL
MODEL 3
REMARK minimizedAffinity -6.95811367
REMARK CNNscore 0.217587441
REMARK CNNaffinity 6.08414221
REMARK  9 active torsions:
REMARK  status: ('A' for Active; 'I' for Inactive)
REMARK       I    between atoms: C2_2  and  N1_4 
REMARK    1  A    between atoms: N1_4  and  C3_5 
REMARK    2  A    between atoms: C3_5  and  C4_6 
REMARK    3  A    between atoms: C3_5  and  C33_42 
REMARK    4  A    between atoms: C4_6  and  S1_7 
REMARK    5  A    between atoms: S1_7  and  C5_8 
REMARK    6  A    between atoms: C10_14  and  O3_15 
REMARK    7  A    between atoms: C27_33  and  O5_34 
REMARK    8  A    between atoms: C30_38  and  O7_39 
REMARK    9  A    between atoms: C33_42  and  O9_44 
ROOT
HETATM    1  C5  UNL     1      -8.828 -11.117   5.249  1.00  0.00     0.054 C 
HETATM    2  C6  UNL     1      -9.453 -11.643   6.332  1.00  0.00     0.028 C 
HETATM    3  C7  UNL     1      -9.837 -12.978   5.927  1.00  0.00     0.089 C 
HETATM    4  C8  UNL     1     -10.579 -13.791   6.680  1.00  0.00     0.095 C 
HETATM    5  C9  UNL     1     -10.986 -13.285   7.999  1.00  0.00     0.208 C 
HETATM    6  O2  UNL     1     -11.721 -13.955   8.731  1.00  0.00    -0.285 OA
HETATM    7  C10 UNL     1     -10.457 -11.959   8.495  1.00  0.00     0.126 C 
HETATM    8  C11 UNL     1      -9.701 -11.154   7.703  1.00  0.00     0.022 C 
HETATM    9  C12 UNL     1      -8.918  -9.913   8.204  1.00  0.00     0.165 C 
HETATM   10  O4  UNL     1      -7.521 -10.150   7.872  1.00  0.00    -0.375 OA
HETATM   11  C13 UNL     1      -6.708  -8.996   8.064  1.00  0.00     0.128 C 
HETATM   12  C14 UNL     1      -5.395  -9.028   7.255  1.00  0.00     0.033 C 
HETATM   13  C15 UNL     1      -4.819 -10.379   6.823  1.00  0.00     0.010 C 
HETATM   14  C16 UNL     1      -3.669 -10.281   5.768  1.00  0.00     0.004 C 
HETATM   15  C17 UNL     1      -2.560  -9.327   6.202  1.00  0.00     0.014 C 
HETATM   16  C18 UNL     1      -4.152  -9.911   4.368  1.00  0.00    -0.020 C 
HETATM   17  C19 UNL     1      -3.840 -10.532   3.207  1.00  0.00    -0.087 C 
HETATM   18  C20 UNL     1      -2.786 -11.598   3.103  1.00  0.00     0.043 C 
HETATM   19  C21 UNL     1      -4.624 -10.216   1.931  1.00  0.00     0.037 C 
HETATM   20  C22 UNL     1      -5.820 -11.181   1.608  1.00  0.00    -0.014 C 
HETATM   21  C23 UNL     1      -5.362 -12.462   0.914  1.00  0.00     0.010 C 
HETATM   22  C24 UNL     1      -6.571 -11.464   2.910  1.00  0.00     0.014 C 
HETATM   23  C25 UNL     1      -7.839 -12.327   2.996  1.00  0.00     0.050 C 
HETATM   24  C26 UNL     1      -8.951 -12.046   1.992  1.00  0.00     0.016 C 
HETATM   25  C27 UNL     1      -8.307 -12.347   4.483  1.00  0.00     0.207 C 
HETATM   26  O6  UNL     1      -9.360 -13.324   4.677  1.00  0.00    -0.308 OA
HETATM   27  C28 UNL     1      -6.549  -8.794   9.572  1.00  0.00     0.040 C 
HETATM   28  C29 UNL     1      -5.962 -10.008  10.285  1.00  0.00     0.015 C 
HETATM   29  C30 UNL     1      -7.943  -8.424  10.090  1.00  0.00     0.130 C 
HETATM   30  C31 UNL     1      -9.041  -9.439   9.693  1.00  0.00     0.044 C 
HETATM   31  C32 UNL     1     -10.409  -8.786   9.941  1.00  0.00     0.015 C 
ENDROOT
BRANCH   1  32
HETATM   32  S1  UNL     1      -8.410  -9.456   5.031  1.00  0.00    -0.125 SA
BRANCH  32  33
HETATM   33  C4  UNL     1      -9.911  -8.611   4.478  1.00  0.00     0.115 C 
BRANCH  33  34
HETATM   34  C3  UNL     1     -10.309  -8.803   3.012  1.00  0.00     0.192 C 
BRANCH  34  35
HETATM   35  N1  UNL     1     -10.479  -7.491   2.373  1.00  0.00    -0.346 N 
HETATM   36  C2  UNL     1     -11.502  -6.653   2.766  1.00  0.00     0.214 C 
HETATM   37  C1  UNL     1     -11.560  -5.353   2.013  1.00  0.00     0.117 C 
HETATM   38  O1  UNL     1     -12.311  -6.956   3.643  1.00  0.00    -0.274 OA
HETATM   39  H4  UNL     1      -9.665  -7.045   1.959  1.00  0.00     0.163 HD
ENDBRANCH  34  35
BRANCH  34  40
HETATM   40  C33 UNL     1     -11.606  -9.615   2.995  1.00  0.00     0.164 C 
HETATM   41  O8  UNL     1     -12.151 -10.099   2.010  1.00  0.00    -0.648 OA
BRANCH  40  42
HETATM   42  O9  UNL     1     -12.108  -9.885   4.232  1.00  0.00    -0.775 OA
HETATM   43  H47 UNL     1     -12.955 -10.337   4.014  1.00  0.00     0.167 HD
ENDBRANCH  40  42
ENDBRANCH  34  40
ENDBRANCH  33  34
ENDBRANCH  32  33
ENDBRANCH   1  32
BRANCH  25  44
HETATM   44  O5  UNL     1      -7.168 -12.840   5.240  1.00  0.00    -0.360 OA
HETATM   45  H36 UNL     1      -6.937 -13.687   4.824  1.00  0.00     0.213 HD
ENDBRANCH  25  44
BRANCH   7  46
HETATM   46  O3  UNL     1     -10.759 -11.681   9.812  1.00  0.00    -0.356 OA
HETATM   47  H9  UNL     1     -11.350 -12.422  10.106  1.00  0.00     0.218 HD
ENDBRANCH   7  46
BRANCH  29  48
HETATM   48  O7  UNL     1      -7.914  -8.250  11.504  1.00  0.00    -0.395 OA
HETATM   49  H42 UNL     1      -8.686  -7.702  11.742  1.00  0.00     0.210 HD
ENDBRANCH  29  48
TORSDOF 9
ENDMDL
MODEL 4
REMARK minimizedAffinity -6.52897692
REMARK CNNscore 0.214504242
REMARK CNNaffinity 6.75937605
REMARK  9 active torsions:
REMARK  status: ('A' for Active; 'I' for Inactive)
REMARK       I    between atoms: C2_2  and  N1_4 
REMARK    1  A    between atoms: N1_4  and  C3_5 
REMARK    2  A    between atoms: C3_5  and  C4_6 
REMARK    3  A    between atoms: C3_5  and  C33_42 
REMARK    4  A    between atoms: C4_6  and  S1_7 
REMARK    5  A    between atoms: S1_7  and  C5_8 
REMARK    6  A    between atoms: C10_14  and  O3_15 
REMARK    7  A    between atoms: C27_33  and  O5_34 
REMARK    8  A    between atoms: C30_38  and  O7_39 
REMARK    9  A    between atoms: C33_42  and  O9_44 
ROOT
HETATM    1  C5  UNL     1       3.821  15.868   0.843  1.00  0.00     0.054 C 
HETATM    2  C6  UNL     1       3.299  15.818   2.094  1.00  0.00     0.028 C 
HETATM    3  C7  UNL     1       4.230  16.562   2.914  1.00  0.00     0.089 C 
HETATM    4  C8  UNL     1       4.131  16.655   4.240  1.00  0.00     0.095 C 
HETATM    5  C9  UNL     1       2.987  15.980   4.869  1.00  0.00     0.208 C 
HETATM    6  O2  UNL     1       2.856  15.971   6.097  1.00  0.00    -0.285 OA
HETATM    7  C10 UNL     1       1.923  15.337   4.008  1.00  0.00     0.126 C 
HETATM    8  C11 UNL     1       2.053  15.261   2.657  1.00  0.00     0.022 C 
HETATM    9  C12 UNL     1       0.915  14.852   1.687  1.00  0.00     0.165 C 
HETATM   10  O4  UNL     1       0.737  15.968   0.771  1.00  0.00    -0.375 OA
HETATM   11  C13 UNL     1      -0.117  15.650  -0.323  1.00  0.00     0.128 C 
HETATM   12  C14 UNL     1       0.083  16.568  -1.547  1.00  0.00     0.033 C 
HETATM   13  C15 UNL     1       0.671  17.967  -1.340  1.00  0.00     0.010 C 
HETATM   14  C16 UNL     1       1.105  18.684  -2.660  1.00  0.00     0.004 C 
HETATM   15  C17 UNL     1      -0.009  18.707  -3.703  1.00  0.00     0.014 C 
HETATM   16  C18 UNL     1       2.380  18.115  -3.276  1.00  0.00    -0.020 C 
HETATM   17  C19 UNL     1       3.463  18.809  -3.697  1.00  0.00    -0.087 C 
HETATM   18  C20 UNL     1       3.491  20.308  -3.795  1.00  0.00     0.043 C 
HETATM   19  C21 UNL     1       4.765  18.077  -4.028  1.00  0.00     0.037 C 
HETATM   20  C22 UNL     1       5.820  18.001  -2.867  1.00  0.00    -0.014 C 
HETATM   21  C23 UNL     1       6.657  19.273  -2.759  1.00  0.00     0.010 C 
HETATM   22  C24 UNL     1       5.078  17.682  -1.568  1.00  0.00     0.014 C 
HETATM   23  C25 UNL     1       5.775  17.474  -0.215  1.00  0.00     0.050 C 
HETATM   24  C26 UNL     1       6.981  16.542  -0.180  1.00  0.00     0.016 C 
HETATM   25  C27 UNL     1       4.679  17.146   0.845  1.00  0.00     0.207 C 
HETATM   26  O6  UNL     1       5.236  17.164   2.183  1.00  0.00    -0.308 OA
HETATM   27  C28 UNL     1      -1.546  15.576   0.219  1.00  0.00     0.040 C 
HETATM   28  C29 UNL     1      -1.995  16.856   0.916  1.00  0.00     0.015 C 
HETATM   29  C30 UNL     1      -1.573  14.358   1.148  1.00  0.00     0.130 C 
HETATM   30  C31 UNL     1      -0.476  14.386   2.239  1.00  0.00     0.044 C 
HETATM   31  C32 UNL     1      -0.372  12.982   2.850  1.00  0.00     0.015 C 
ENDROOT
BRANCH   1  32
HETATM   32  S1  UNL     1       3.309  14.916  -0.505  1.00  0.00    -0.125 SA
BRANCH  32  33
HETATM   33  C4  UNL     1       4.776  14.058  -1.122  1.00  0.00     0.115 C 
BRANCH  33  34
HETATM   34  C3  UNL     1       4.652  13.379  -2.490  1.00  0.00     0.192 C 
BRANCH  34  35
HETATM   35  N1  UNL     1       3.239  13.335  -2.890  1.00  0.00    -0.346 N 
HETATM   36  C2  UNL     1       2.877  13.598  -4.195  1.00  0.00     0.214 C 
HETATM   37  C1  UNL     1       1.397  13.532  -4.451  1.00  0.00     0.117 C 
HETATM   38  O1  UNL     1       3.695  13.885  -5.068  1.00  0.00    -0.274 OA
HETATM   39  H4  UNL     1       2.603  12.753  -2.354  1.00  0.00     0.163 HD
ENDBRANCH  34  35
BRANCH  34  40
HETATM   40  C33 UNL     1       5.249  11.976  -2.357  1.00  0.00     0.164 C 
HETATM   41  O8  UNL     1       5.097  11.043  -3.134  1.00  0.00    -0.648 OA
BRANCH  40  42
HETATM   42  O9  UNL     1       6.110  11.836  -1.310  1.00  0.00    -0.775 OA
HETATM   43  H47 UNL     1       6.323  10.876  -1.349  1.00  0.00     0.167 HD
ENDBRANCH  40  42
ENDBRANCH  34  40
ENDBRANCH  33  34
ENDBRANCH  32  33
ENDBRANCH   1  32
BRANCH  25  44
HETATM   44  O5  UNL     1       3.745  18.258   0.792  1.00  0.00    -0.360 OA
HETATM   45  H36 UNL     1       4.290  19.051   0.931  1.00  0.00     0.213 HD
ENDBRANCH  25  44
BRANCH   7  46
HETATM   46  O3  UNL     1       0.813  14.902   4.701  1.00  0.00    -0.356 OA
HETATM   47  H9  UNL     1       1.029  15.052   5.658  1.00  0.00     0.218 HD
ENDBRANCH   7  46
BRANCH  29  48
HETATM   48  O7  UNL     1      -2.861  14.219   1.741  1.00  0.00    -0.395 OA
HETATM   49  H42 UNL     1      -2.946  13.291   2.031  1.00  0.00     0.210 HD
ENDBRANCH  29  48
TORSDOF 9
ENDMDL
MODEL 5
REMARK minimizedAffinity -7.65566254
REMARK CNNscore 0.190373525
REMARK CNNaffinity 4.80040979
REMARK  9 active torsions:
REMARK  status: ('A' for Active; 'I' for Inactive)
REMARK       I    between atoms: C2_2  and  N1_4 
REMARK    1  A    between atoms: N1_4  and  C3_5 
REMARK    2  A    between atoms: C3_5  and  C4_6 
REMARK    3  A    between atoms: C3_5  and  C33_42 
REMARK    4  A    between atoms: C4_6  and  S1_7 
REMARK    5  A    between atoms: S1_7  and  C5_8 
REMARK    6  A    between atoms: C10_14  and  O3_15 
REMARK    7  A    between atoms: C27_33  and  O5_34 
REMARK    8  A    between atoms: C30_38  and  O7_39 
REMARK    9  A    between atoms: C33_42  and  O9_44 
ROOT
HETATM    1  C5  UNL     1       5.831  12.266  21.076  1.00  0.00     0.054 C 
HETATM    2  C6  UNL     1       4.731  11.475  21.017  1.00  0.00     0.028 C 
HETATM    3  C7  UNL     1       4.619  10.895  22.337  1.00  0.00     0.089 C 
HETATM    4  C8  UNL     1       3.719   9.965  22.659  1.00  0.00     0.095 C 
HETATM    5  C9  UNL     1       2.786   9.552  21.601  1.00  0.00     0.208 C 
HETATM    6  O2  UNL     1       1.960   8.656  21.803  1.00  0.00    -0.285 OA
HETATM    7  C10 UNL     1       2.790  10.266  20.268  1.00  0.00     0.126 C 
HETATM    8  C11 UNL     1       3.721  11.212  19.972  1.00  0.00     0.022 C 
HETATM    9  C12 UNL     1       3.651  12.159  18.747  1.00  0.00     0.165 C 
HETATM   10  O4  UNL     1       3.656  13.514  19.278  1.00  0.00    -0.375 OA
HETATM   11  C13 UNL     1       3.827  14.500  18.264  1.00  0.00     0.128 C 
HETATM   12  C14 UNL     1       4.358  15.846  18.799  1.00  0.00     0.033 C 
HETATM   13  C15 UNL     1       4.126  16.207  20.268  1.00  0.00     0.010 C 
HETATM   14  C16 UNL     1       4.956  17.434  20.769  1.00  0.00     0.004 C 
HETATM   15  C17 UNL     1       4.785  18.657  19.872  1.00  0.00     0.014 C 
HETATM   16  C18 UNL     1       6.440  17.135  20.959  1.00  0.00    -0.020 C 
HETATM   17  C19 UNL     1       7.198  17.422  22.043  1.00  0.00    -0.087 C 
HETATM   18  C20 UNL     1       6.715  18.276  23.180  1.00  0.00     0.043 C 
HETATM   19  C21 UNL     1       8.592  16.808  22.191  1.00  0.00     0.037 C 
HETATM   20  C22 UNL     1       8.670  15.489  23.040  1.00  0.00    -0.014 C 
HETATM   21  C23 UNL     1       8.721  15.767  24.540  1.00  0.00     0.010 C 
HETATM   22  C24 UNL     1       7.486  14.601  22.654  1.00  0.00     0.014 C 
HETATM   23  C25 UNL     1       7.245  13.199  23.232  1.00  0.00     0.050 C 
HETATM   24  C26 UNL     1       8.427  12.234  23.255  1.00  0.00     0.016 C 
HETATM   25  C27 UNL     1       5.958  12.620  22.569  1.00  0.00     0.207 C 
HETATM   26  O6  UNL     1       5.543  11.399  23.231  1.00  0.00    -0.308 OA
HETATM   27  C28 UNL     1       2.519  14.574  17.473  1.00  0.00     0.040 C 
HETATM   28  C29 UNL     1       1.304  14.881  18.343  1.00  0.00     0.015 C 
HETATM   29  C30 UNL     1       2.400  13.231  16.745  1.00  0.00     0.130 C 
HETATM   30  C31 UNL     1       2.511  12.006  17.683  1.00  0.00     0.044 C 
HETATM   31  C32 UNL     1       2.744  10.759  16.817  1.00  0.00     0.015 C 
ENDROOT
BRANCH   1  32
HETATM   32  S1  UNL     1       6.634  12.985  19.726  1.00  0.00    -0.125 SA
BRANCH  32  33
HETATM   33  C4  UNL     1       7.970  11.860  19.256  1.00  0.00     0.115 C 
BRANCH  33  34
HETATM   34  C3  UNL     1       9.294  12.504  18.833  1.00  0.00     0.192 C 
BRANCH  34  35
HETATM   35  N1  UNL     1       9.726  11.939  17.547  1.00  0.00    -0.346 N 
HETATM   36  C2  UNL     1       9.405  10.639  17.215  1.00  0.00     0.214 C 
HETATM   37  C1  UNL     1       9.928  10.196  15.877  1.00  0.00     0.117 C 
HETATM   38  O1  UNL     1       8.765   9.899  17.962  1.00  0.00    -0.274 OA
HETATM   39  H4  UNL     1       9.894  12.574  16.772  1.00  0.00     0.163 HD
ENDBRANCH  34  35
BRANCH  34  40
HETATM   40  C33 UNL     1      10.310  12.226  19.945  1.00  0.00     0.164 C 
HETATM   41  O8  UNL     1      10.917  11.179  20.132  1.00  0.00    -0.648 OA
BRANCH  40  42
HETATM   42  O9  UNL     1      10.608  13.313  20.708  1.00  0.00    -0.775 OA
HETATM   43  H47 UNL     1      11.202  12.926  21.391  1.00  0.00     0.167 HD
ENDBRANCH  40  42
ENDBRANCH  34  40
ENDBRANCH  33  34
ENDBRANCH  32  33
ENDBRANCH   1  32
BRANCH  25  44
HETATM   44  O5  UNL     1       4.913  13.591  22.842  1.00  0.00    -0.360 OA
HETATM   45  H36 UNL     1       4.918  13.701  23.808  1.00  0.00     0.213 HD
ENDBRANCH  25  44
BRANCH   7  46
HETATM   46  O3  UNL     1       1.753   9.916  19.429  1.00  0.00    -0.356 OA
HETATM   47  H9  UNL     1       1.275   9.182  19.897  1.00  0.00     0.218 HD
ENDBRANCH   7  46
BRANCH  29  48
HETATM   48  O7  UNL     1       1.185  13.180  16.002  1.00  0.00    -0.395 OA
HETATM   49  H42 UNL     1       1.299  12.501  15.311  1.00  0.00     0.210 HD
ENDBRANCH  29  48
TORSDOF 9
ENDMDL
MODEL 6
REMARK minimizedAffinity -6.88555145
REMARK CNNscore 0.189853072
REMARK CNNaffinity 4.52989244
REMARK  9 active torsions:
REMARK  status: ('A' for Active; 'I' for Inactive)
REMARK       I    between atoms: C2_2  and  N1_4 
REMARK    1  A    between atoms: N1_4  and  C3_5 
REMARK    2  A    between atoms: C3_5  and  C4_6 
REMARK    3  A    between atoms: C3_5  and  C33_42 
REMARK    4  A    between atoms: C4_6  and  S1_7 
REMARK    5  A    between atoms: S1_7  and  C5_8 
REMARK    6  A    between atoms: C10_14  and  O3_15 
REMARK    7  A    between atoms: C27_33  and  O5_34 
REMARK    8  A    between atoms: C30_38  and  O7_39 
REMARK    9  A    between atoms: C33_42  and  O9_44 
ROOT
HETATM    1  C5  UNL     1       5.715  12.499  21.144  1.00  0.00     0.054 C 
HETATM    2  C6  UNL     1       4.670  11.635  21.094  1.00  0.00     0.028 C 
HETATM    3  C7  UNL     1       4.714  10.923  22.352  1.00  0.00     0.089 C 
HETATM    4  C8  UNL     1       3.912   9.901  22.648  1.00  0.00     0.095 C 
HETATM    5  C9  UNL     1       2.919   9.522  21.633  1.00  0.00     0.208 C 
HETATM    6  O2  UNL     1       2.177   8.550  21.808  1.00  0.00    -0.285 OA
HETATM    7  C10 UNL     1       2.757  10.360  20.384  1.00  0.00     0.126 C 
HETATM    8  C11 UNL     1       3.591  11.398  20.113  1.00  0.00     0.022 C 
HETATM    9  C12 UNL     1       3.349  12.451  19.002  1.00  0.00     0.165 C 
HETATM   10  O4  UNL     1       3.310  13.745  19.667  1.00  0.00    -0.375 OA
HETATM   11  C13 UNL     1       3.323  14.834  18.749  1.00  0.00     0.128 C 
HETATM   12  C14 UNL     1       3.807  16.159  19.375  1.00  0.00     0.033 C 
HETATM   13  C15 UNL     1       3.682  16.357  20.888  1.00  0.00     0.010 C 
HETATM   14  C16 UNL     1       4.467  17.590  21.443  1.00  0.00     0.004 C 
HETATM   15  C17 UNL     1       4.135  18.878  20.693  1.00  0.00     0.014 C 
HETATM   16  C18 UNL     1       5.979  17.388  21.480  1.00  0.00    -0.020 C 
HETATM   17  C19 UNL     1       6.809  17.626  22.523  1.00  0.00    -0.087 C 
HETATM   18  C20 UNL     1       6.371  18.327  23.778  1.00  0.00     0.043 C 
HETATM   19  C21 UNL     1       8.248  17.109  22.493  1.00  0.00     0.037 C 
HETATM   20  C22 UNL     1       8.491  15.724  23.193  1.00  0.00    -0.014 C 
HETATM   21  C23 UNL     1       8.655  15.858  24.705  1.00  0.00     0.010 C 
HETATM   22  C24 UNL     1       7.340  14.790  22.815  1.00  0.00     0.014 C 
HETATM   23  C25 UNL     1       7.247  13.324  23.263  1.00  0.00     0.050 C 
HETATM   24  C26 UNL     1       8.489  12.455  23.092  1.00  0.00     0.016 C 
HETATM   25  C27 UNL     1       5.949  12.715  22.651  1.00  0.00     0.207 C 
HETATM   26  O6  UNL     1       5.678  11.408  23.216  1.00  0.00    -0.308 OA
HETATM   27  C28 UNL     1       1.949  14.885  18.079  1.00  0.00     0.040 C 
HETATM   28  C29 UNL     1       0.797  15.012  19.071  1.00  0.00     0.015 C 
HETATM   29  C30 UNL     1       1.856  13.613  17.229  1.00  0.00     0.130 C 
HETATM   30  C31 UNL     1       2.133  12.315  18.023  1.00  0.00     0.044 C 
HETATM   31  C32 UNL     1       2.372  11.180  17.018  1.00  0.00     0.015 C 
ENDROOT
BRANCH   1  32
HETATM   32  S1  UNL     1       6.344  13.404  19.815  1.00  0.00    -0.125 SA
BRANCH  32  33
HETATM   33  C4  UNL     1       7.663  12.405  19.084  1.00  0.00     0.115 C 
BRANCH  33  34
HETATM   34  C3  UNL     1       7.524  12.064  17.597  1.00  0.00     0.192 C 
BRANCH  34  35
HETATM   35  N1  UNL     1       6.301  12.680  17.064  1.00  0.00    -0.346 N 
HETATM   36  C2  UNL     1       6.212  13.007  15.727  1.00  0.00     0.214 C 
HETATM   37  C1  UNL     1       4.909  13.644  15.331  1.00  0.00     0.117 C 
HETATM   38  O1  UNL     1       7.132  12.814  14.932  1.00  0.00    -0.274 OA
HETATM   39  H4  UNL     1       5.423  12.507  17.545  1.00  0.00     0.163 HD
ENDBRANCH  34  35
BRANCH  34  40
HETATM   40  C33 UNL     1       7.488  10.538  17.483  1.00  0.00     0.164 C 
HETATM   41  O8  UNL     1       8.220   9.746  18.063  1.00  0.00    -0.648 OA
BRANCH  40  42
HETATM   42  O9  UNL     1       6.455  10.062  16.733  1.00  0.00    -0.775 OA
HETATM   43  H47 UNL     1       6.642   9.095  16.718  1.00  0.00     0.167 HD
ENDBRANCH  40  42
ENDBRANCH  34  40
ENDBRANCH  33  34
ENDBRANCH  32  33
ENDBRANCH   1  32
BRANCH  25  44
HETATM   44  O5  UNL     1       4.868  13.573  23.107  1.00  0.00    -0.360 OA
HETATM   45  H36 UNL     1       4.951  13.589  24.075  1.00  0.00     0.213 HD
ENDBRANCH  25  44
BRANCH   7  46
HETATM   46  O3  UNL     1       1.676  10.015  19.601  1.00  0.00    -0.356 OA
HETATM   47  H9  UNL     1       1.292   9.205  20.028  1.00  0.00     0.218 HD
ENDBRANCH   7  46
BRANCH  29  48
HETATM   48  O7  UNL     1       0.587  13.542  16.585  1.00  0.00    -0.395 OA
HETATM   49  H42 UNL     1       0.686  12.944  15.821  1.00  0.00     0.210 HD
ENDBRANCH  29  48
TORSDOF 9
ENDMDL
MODEL 7
REMARK minimizedAffinity -6.56978798
REMARK CNNscore 0.188336089
REMARK CNNaffinity 5.92453432
REMARK  9 active torsions:
REMARK  status: ('A' for Active; 'I' for Inactive)
REMARK       I    between atoms: C2_2  and  N1_4 
REMARK    1  A    between atoms: N1_4  and  C3_5 
REMARK    2  A    between atoms: C3_5  and  C4_6 
REMARK    3  A    between atoms: C3_5  and  C33_42 
REMARK    4  A    between atoms: C4_6  and  S1_7 
REMARK    5  A    between atoms: S1_7  and  C5_8 
REMARK    6  A    between atoms: C10_14  and  O3_15 
REMARK    7  A    between atoms: C27_33  and  O5_34 
REMARK    8  A    between atoms: C30_38  and  O7_39 
REMARK    9  A    between atoms: C33_42  and  O9_44 
ROOT
HETATM    1  C5  UNL     1     -16.581  -1.197  14.281  1.00  0.00     0.054 C 
HETATM    2  C6  UNL     1     -16.714  -2.342  14.997  1.00  0.00     0.028 C 
HETATM    3  C7  UNL     1     -16.355  -1.977  16.350  1.00  0.00     0.089 C 
HETATM    4  C8  UNL     1     -16.252  -2.857  17.346  1.00  0.00     0.095 C 
HETATM    5  C9  UNL     1     -16.555  -4.260  17.026  1.00  0.00     0.208 C 
HETATM    6  O2  UNL     1     -16.428  -5.143  17.880  1.00  0.00    -0.285 OA
HETATM    7  C10 UNL     1     -17.085  -4.625  15.658  1.00  0.00     0.126 C 
HETATM    8  C11 UNL     1     -17.180  -3.703  14.664  1.00  0.00     0.022 C 
HETATM    9  C12 UNL     1     -17.935  -3.926  13.328  1.00  0.00     0.165 C 
HETATM   10  O4  UNL     1     -18.950  -2.886  13.253  1.00  0.00    -0.375 OA
HETATM   11  C13 UNL     1     -19.575  -2.820  11.975  1.00  0.00     0.128 C 
HETATM   12  C14 UNL     1     -20.236  -1.457  11.685  1.00  0.00     0.033 C 
HETATM   13  C15 UNL     1     -20.664  -0.572  12.858  1.00  0.00     0.010 C 
HETATM   14  C16 UNL     1     -21.040   0.892  12.456  1.00  0.00     0.004 C 
HETATM   15  C17 UNL     1     -22.068   0.941  11.330  1.00  0.00     0.014 C 
HETATM   16  C18 UNL     1     -19.836   1.757  12.096  1.00  0.00    -0.020 C 
HETATM   17  C19 UNL     1     -19.553   2.997  12.559  1.00  0.00    -0.087 C 
HETATM   18  C20 UNL     1     -20.517   3.806  13.380  1.00  0.00     0.043 C 
HETATM   19  C21 UNL     1     -18.172   3.611  12.321  1.00  0.00     0.037 C 
HETATM   20  C22 UNL     1     -17.133   3.426  13.483  1.00  0.00    -0.014 C 
HETATM   21  C23 UNL     1     -17.311   4.458  14.593  1.00  0.00     0.010 C 
HETATM   22  C24 UNL     1     -17.246   1.991  14.001  1.00  0.00     0.014 C 
HETATM   23  C25 UNL     1     -16.354   1.408  15.107  1.00  0.00     0.050 C 
HETATM   24  C26 UNL     1     -14.849   1.630  14.987  1.00  0.00     0.016 C 
HETATM   25  C27 UNL     1     -16.767  -0.079  15.324  1.00  0.00     0.207 C 
HETATM   26  O6  UNL     1     -16.126  -0.624  16.505  1.00  0.00    -0.308 OA
HETATM   27  C28 UNL     1     -20.492  -4.038  11.851  1.00  0.00     0.040 C 
HETATM   28  C29 UNL     1     -21.527  -4.132  12.967  1.00  0.00     0.015 C 
HETATM   29  C30 UNL     1     -19.561  -5.254  11.807  1.00  0.00     0.130 C 
HETATM   30  C31 UNL     1     -18.570  -5.319  12.993  1.00  0.00     0.044 C 
HETATM   31  C32 UNL     1     -17.477  -6.342  12.649  1.00  0.00     0.015 C 
ENDROOT
BRANCH   1  32
HETATM   32  S1  UNL     1     -16.588  -1.074  12.559  1.00  0.00    -0.125 SA
BRANCH  32  33
HETATM   33  C4  UNL     1     -14.894  -1.391  12.008  1.00  0.00     0.115 C 
BRANCH  33  34
HETATM   34  C3  UNL     1     -14.459  -2.858  11.929  1.00  0.00     0.192 C 
BRANCH  34  35
HETATM   35  N1  UNL     1     -13.415  -3.115  12.931  1.00  0.00    -0.346 N 
HETATM   36  C2  UNL     1     -13.391  -4.311  13.619  1.00  0.00     0.214 C 
HETATM   37  C1  UNL     1     -12.276  -4.424  14.622  1.00  0.00     0.117 C 
HETATM   38  O1  UNL     1     -14.224  -5.198  13.441  1.00  0.00    -0.274 OA
HETATM   39  H4  UNL     1     -12.528  -2.628  12.842  1.00  0.00     0.163 HD
ENDBRANCH  34  35
BRANCH  34  40
HETATM   40  C33 UNL     1     -13.954  -3.105  10.506  1.00  0.00     0.164 C 
HETATM   41  O8  UNL     1     -13.932  -4.179   9.917  1.00  0.00    -0.648 OA
BRANCH  40  42
HETATM   42  O9  UNL     1     -13.603  -1.972   9.837  1.00  0.00    -0.775 OA
HETATM   43  H47 UNL     1     -13.245  -2.336   8.994  1.00  0.00     0.167 HD
ENDBRANCH  40  42
ENDBRANCH  34  40
ENDBRANCH  33  34
ENDBRANCH  32  33
ENDBRANCH   1  32
BRANCH  25  44
HETATM   44  O5  UNL     1     -18.188  -0.045  15.628  1.00  0.00    -0.360 OA
HETATM   45  H36 UNL     1     -18.269   0.565  16.380  1.00  0.00     0.213 HD
ENDBRANCH  25  44
BRANCH   7  46
HETATM   46  O3  UNL     1     -17.505  -5.933  15.538  1.00  0.00    -0.356 OA
HETATM   47  H9  UNL     1     -17.271  -6.362  16.403  1.00  0.00     0.218 HD
ENDBRANCH   7  46
BRANCH  29  48
HETATM   48  O7  UNL     1     -20.322  -6.456  11.729  1.00  0.00    -0.395 OA
HETATM   49  H42 UNL     1     -19.735  -7.146  11.367  1.00  0.00     0.210 HD
ENDBRANCH  29  48
TORSDOF 9
ENDMDL
MODEL 8
REMARK minimizedAffinity -5.97450876
REMARK CNNscore 0.183561072
REMARK CNNaffinity 6.27774191
REMARK  9 active torsions:
REMARK  status: ('A' for Active; 'I' for Inactive)
REMARK       I    between atoms: C2_2  and  N1_4 
REMARK    1  A    between atoms: N1_4  and  C3_5 
REMARK    2  A    between atoms: C3_5  and  C4_6 
REMARK    3  A    between atoms: C3_5  and  C33_42 
REMARK    4  A    between atoms: C4_6  and  S1_7 
REMARK    5  A    between atoms: S1_7  and  C5_8 
REMARK    6  A    between atoms: C10_14  and  O3_15 
REMARK    7  A    between atoms: C27_33  and  O5_34 
REMARK    8  A    between atoms: C30_38  and  O7_39 
REMARK    9  A    between atoms: C33_42  and  O9_44 
ROOT
HETATM    1  C5  UNL     1       3.169  16.505   1.324  1.00  0.00     0.054 C 
HETATM    2  C6  UNL     1       3.851  17.637   1.016  1.00  0.00     0.028 C 
HETATM    3  C7  UNL     1       3.104  18.237  -0.068  1.00  0.00     0.089 C 
HETATM    4  C8  UNL     1       3.512  19.319  -0.732  1.00  0.00     0.095 C 
HETATM    5  C9  UNL     1       4.777  19.927  -0.295  1.00  0.00     0.208 C 
HETATM    6  O2  UNL     1       5.251  20.897  -0.895  1.00  0.00    -0.285 OA
HETATM    7  C10 UNL     1       5.481  19.404   0.937  1.00  0.00     0.126 C 
HETATM    8  C11 UNL     1       5.037  18.300   1.593  1.00  0.00     0.022 C 
HETATM    9  C12 UNL     1       5.540  17.846   2.988  1.00  0.00     0.165 C 
HETATM   10  O4  UNL     1       4.370  17.806   3.851  1.00  0.00    -0.375 OA
HETATM   11  C13 UNL     1       4.634  17.186   5.106  1.00  0.00     0.128 C 
HETATM   12  C14 UNL     1       3.366  16.655   5.808  1.00  0.00     0.033 C 
HETATM   13  C15 UNL     1       2.010  17.276   5.466  1.00  0.00     0.010 C 
HETATM   14  C16 UNL     1       0.780  16.472   6.000  1.00  0.00     0.004 C 
HETATM   15  C17 UNL     1       0.884  16.174   7.493  1.00  0.00     0.014 C 
HETATM   16  C18 UNL     1       0.511  15.181   5.232  1.00  0.00    -0.020 C 
HETATM   17  C19 UNL     1      -0.674  14.764   4.729  1.00  0.00    -0.087 C 
HETATM   18  C20 UNL     1      -1.979  15.445   5.026  1.00  0.00     0.043 C 
HETATM   19  C21 UNL     1      -0.721  13.591   3.746  1.00  0.00     0.037 C 
HETATM   20  C22 UNL     1      -0.717  13.975   2.224  1.00  0.00    -0.014 C 
HETATM   21  C23 UNL     1      -2.106  14.352   1.715  1.00  0.00     0.010 C 
HETATM   22  C24 UNL     1       0.301  15.098   2.017  1.00  0.00     0.014 C 
HETATM   23  C25 UNL     1       0.633  15.710   0.648  1.00  0.00     0.050 C 
HETATM   24  C26 UNL     1       0.917  14.749  -0.502  1.00  0.00     0.016 C 
HETATM   25  C27 UNL     1       1.730  16.797   0.860  1.00  0.00     0.207 C 
HETATM   26  O6  UNL     1       1.926  17.572  -0.349  1.00  0.00    -0.308 OA
HETATM   27  C28 UNL     1       5.484  18.157   5.926  1.00  0.00     0.040 C 
HETATM   28  C29 UNL     1       4.832  19.523   6.112  1.00  0.00     0.015 C 
HETATM   29  C30 UNL     1       6.832  18.241   5.201  1.00  0.00     0.130 C 
HETATM   30  C31 UNL     1       6.707  18.608   3.703  1.00  0.00     0.044 C 
HETATM   31  C32 UNL     1       8.049  18.304   3.022  1.00  0.00     0.015 C 
ENDROOT
BRANCH   1  32
HETATM   32  S1  UNL     1       3.735  15.227   2.337  1.00  0.00    -0.125 SA
BRANCH  32  33
HETATM   33  C4  UNL     1       5.120  14.451   1.470  1.00  0.00     0.115 C 
BRANCH  33  34
HETATM   34  C3  UNL     1       5.175  14.642  -0.049  1.00  0.00     0.192 C 
BRANCH  34  35
HETATM   35  N1  UNL     1       5.328  13.335  -0.703  1.00  0.00    -0.346 N 
HETATM   36  C2  UNL     1       4.918  13.158  -2.008  1.00  0.00     0.214 C 
HETATM   37  C1  UNL     1       5.122  11.766  -2.537  1.00  0.00     0.117 C 
HETATM   38  O1  UNL     1       4.408  14.059  -2.674  1.00  0.00    -0.274 OA
HETATM   39  H4  UNL     1       6.056  12.710  -0.370  1.00  0.00     0.163 HD
ENDBRANCH  34  35
BRANCH  34  40
HETATM   40  C33 UNL     1       6.356  15.569  -0.348  1.00  0.00     0.164 C 
HETATM   41  O8  UNL     1       7.408  15.633   0.276  1.00  0.00    -0.648 OA
BRANCH  40  42
HETATM   42  O9  UNL     1       6.215  16.297  -1.490  1.00  0.00    -0.775 OA
HETATM   43  H47 UNL     1       7.018  16.866  -1.469  1.00  0.00     0.167 HD
ENDBRANCH  40  42
ENDBRANCH  34  40
ENDBRANCH  33  34
ENDBRANCH  32  33
ENDBRANCH   1  32
BRANCH  25  44
HETATM   44  O5  UNL     1       1.173  17.722   1.834  1.00  0.00    -0.360 OA
HETATM   45  H36 UNL     1       0.322  18.000   1.458  1.00  0.00     0.213 HD
ENDBRANCH  25  44
BRANCH   7  46
HETATM   46  O3  UNL     1       6.551  20.170   1.352  1.00  0.00    -0.356 OA
HETATM   47  H9  UNL     1       6.654  20.871   0.657  1.00  0.00     0.218 HD
ENDBRANCH   7  46
BRANCH  29  48
HETATM   48  O7  UNL     1       7.694  19.159   5.868  1.00  0.00    -0.395 OA
HETATM   49  H42 UNL     1       8.607  18.937   5.606  1.00  0.00     0.210 HD
ENDBRANCH  29  48
TORSDOF 9
ENDMDL
MODEL 9
REMARK minimizedAffinity -7.1100626
REMARK CNNscore 0.179573894
REMARK CNNaffinity 6.18647623
REMARK  9 active torsions:
REMARK  status: ('A' for Active; 'I' for Inactive)
REMARK       I    between atoms: C2_2  and  N1_4 
REMARK    1  A    between atoms: N1_4  and  C3_5 
REMARK    2  A    between atoms: C3_5  and  C4_6 
REMARK    3  A    between atoms: C3_5  and  C33_42 
REMARK    4  A    between atoms: C4_6  and  S1_7 
REMARK    5  A    between atoms: S1_7  and  C5_8 
REMARK    6  A    between atoms: C10_14  and  O3_15 
REMARK    7  A    between atoms: C27_33  and  O5_34 
REMARK    8  A    between atoms: C30_38  and  O7_39 
REMARK    9  A    between atoms: C33_42  and  O9_44 
ROOT
HETATM    1  C5  UNL     1       1.982  15.025  -1.875  1.00  0.00     0.054 C 
HETATM    2  C6  UNL     1       3.074  14.220  -1.902  1.00  0.00     0.028 C 
HETATM    3  C7  UNL     1       2.937  13.449  -3.119  1.00  0.00     0.089 C 
HETATM    4  C8  UNL     1       3.761  12.457  -3.458  1.00  0.00     0.095 C 
HETATM    5  C9  UNL     1       4.875  12.178  -2.541  1.00  0.00     0.208 C 
HETATM    6  O2  UNL     1       5.648  11.239  -2.755  1.00  0.00    -0.285 OA
HETATM    7  C10 UNL     1       5.120  13.081  -1.352  1.00  0.00     0.126 C 
HETATM    8  C11 UNL     1       4.262  14.086  -1.035  1.00  0.00     0.022 C 
HETATM    9  C12 UNL     1       4.560  15.201  -0.001  1.00  0.00     0.165 C 
HETATM   10  O4  UNL     1       4.455  16.462  -0.718  1.00  0.00    -0.375 OA
HETATM   11  C13 UNL     1       4.477  17.591   0.151  1.00  0.00     0.128 C 
HETATM   12  C14 UNL     1       3.856  18.858  -0.473  1.00  0.00     0.033 C 
HETATM   13  C15 UNL     1       3.809  18.992  -1.998  1.00  0.00     0.010 C 
HETATM   14  C16 UNL     1       2.901  20.156  -2.514  1.00  0.00     0.004 C 
HETATM   15  C17 UNL     1       3.237  21.492  -1.858  1.00  0.00     0.014 C 
HETATM   16  C18 UNL     1       1.408  19.874  -2.380  1.00  0.00    -0.020 C 
HETATM   17  C19 UNL     1       0.460  20.019  -3.335  1.00  0.00    -0.087 C 
HETATM   18  C20 UNL     1       0.723  20.683  -4.658  1.00  0.00     0.043 C 
HETATM   19  C21 UNL     1      -0.937  19.430  -3.130  1.00  0.00     0.037 C 
HETATM   20  C22 UNL     1      -1.173  18.003  -3.742  1.00  0.00    -0.014 C 
HETATM   21  C23 UNL     1      -1.503  18.058  -5.232  1.00  0.00     0.010 C 
HETATM   22  C24 UNL     1       0.062  17.149  -3.453  1.00  0.00     0.014 C 
HETATM   23  C25 UNL     1       0.190  15.670  -3.848  1.00  0.00     0.050 C 
HETATM   24  C26 UNL     1      -0.975  14.746  -3.508  1.00  0.00     0.016 C 
HETATM   25  C27 UNL     1       1.578  15.158  -3.355  1.00  0.00     0.207 C 
HETATM   26  O6  UNL     1       1.862  13.842  -3.892  1.00  0.00    -0.308 OA
HETATM   27  C28 UNL     1       5.910  17.745   0.665  1.00  0.00     0.040 C 
HETATM   28  C29 UNL     1       6.941  17.885  -0.450  1.00  0.00     0.015 C 
HETATM   29  C30 UNL     1       6.163  16.520   1.552  1.00  0.00     0.130 C 
HETATM   30  C31 UNL     1       5.879  15.174   0.846  1.00  0.00     0.044 C 
HETATM   31  C32 UNL     1       5.811  14.076   1.917  1.00  0.00     0.015 C 
ENDROOT
BRANCH   1  32
HETATM   32  S1  UNL     1       1.447  15.958  -0.524  1.00  0.00    -0.125 SA
BRANCH  32  33
HETATM   33  C4  UNL     1       0.943  14.780   0.753  1.00  0.00     0.115 C 
BRANCH  33  34
HETATM   34  C3  UNL     1      -0.189  15.219   1.686  1.00  0.00     0.192 C 
BRANCH  34  35
HETATM   35  N1  UNL     1       0.301  15.257   3.071  1.00  0.00    -0.346 N 
HETATM   36  C2  UNL     1       1.157  14.278   3.532  1.00  0.00     0.214 C 
HETATM   37  C1  UNL     1       1.561  14.439   4.972  1.00  0.00     0.117 C 
HETATM   38  O1  UNL     1       1.538  13.342   2.831  1.00  0.00    -0.274 OA
HETATM   39  H4  UNL     1       0.345  16.154   3.545  1.00  0.00     0.163 HD
ENDBRANCH  34  35
BRANCH  34  40
HETATM   40  C33 UNL     1      -1.333  14.216   1.516  1.00  0.00     0.164 C 
HETATM   41  O8  UNL     1      -2.504  14.480   1.275  1.00  0.00    -0.648 OA
BRANCH  40  42
HETATM   42  O9  UNL     1      -0.936  12.913   1.540  1.00  0.00    -0.775 OA
HETATM   43  H47 UNL     1      -1.797  12.437   1.491  1.00  0.00     0.167 HD
ENDBRANCH  40  42
ENDBRANCH  34  40
ENDBRANCH  33  34
ENDBRANCH  32  33
ENDBRANCH   1  32
BRANCH  25  44
HETATM   44  O5  UNL     1       2.555  16.049  -3.960  1.00  0.00    -0.360 OA
HETATM   45  H36 UNL     1       2.369  16.016  -4.913  1.00  0.00     0.213 HD
ENDBRANCH  25  44
BRANCH   7  46
HETATM   46  O3  UNL     1       6.296  12.829  -0.677  1.00  0.00    -0.356 OA
HETATM   47  H9  UNL     1       6.677  12.021  -1.110  1.00  0.00     0.218 HD
ENDBRANCH   7  46
BRANCH  29  48
HETATM   48  O7  UNL     1       7.496  16.545   2.057  1.00  0.00    -0.395 OA
HETATM   49  H42 UNL     1       7.512  15.979   2.851  1.00  0.00     0.210 HD
ENDBRANCH  29  48
TORSDOF 9
ENDMDL
