MODEL 1
REMARK minimizedAffinity -9.56337261
REMARK  6 active torsions:
REMARK  status: ('A' for Active; 'I' for Inactive)
REMARK    1  A    between atoms: C2_2  and  O2_4 
REMARK    2  A    between atoms: O2_4  and  C3_5 
REMARK    3  A    between atoms: C13_15  and  C14_16 
REMARK    4  A    between atoms: C14_16  and  C16_18 
REMARK    5  A    between atoms: C17_19  and  C18_20 
REMARK    6  A    between atoms: C18_20  and  C20_22 
ROOT
HETATM    1  C3  UNL     1      -1.876  51.087 -27.513  1.00  0.00     0.135 C 
HETATM    2  C4  UNL     1      -0.414  51.081 -27.057  1.00  0.00     0.034 C 
HETATM    3  C5  UNL     1      -0.269  50.819 -25.555  1.00  0.00     0.015 C 
HETATM    4  C6  UNL     1      -1.076  51.818 -24.687  1.00  0.00     0.001 C 
HETATM    5  C7  UNL     1      -0.444  53.227 -24.827  1.00  0.00     0.019 C 
HETATM    6  C8  UNL     1      -1.075  51.342 -23.186  1.00  0.00     0.039 C 
HETATM    7  C9  UNL     1      -0.001  51.902 -22.247  1.00  0.00     0.010 C 
HETATM    8  C10 UNL     1      -0.007  51.186 -20.873  1.00  0.00     0.010 C 
HETATM    9  C11 UNL     1      -1.406  50.709 -20.392  1.00  0.00    -0.033 C 
HETATM   10  C12 UNL     1      -1.591  49.199 -20.672  1.00  0.00     0.016 C 
HETATM   11  C13 UNL     1      -1.719  51.033 -18.893  1.00  0.00     0.001 C 
HETATM   12  C23 UNL     1      -3.275  51.066 -18.854  1.00  0.00     0.006 C 
HETATM   13  C24 UNL     1      -3.759  51.336 -20.287  1.00  0.00     0.009 C 
HETATM   14  C25 UNL     1      -2.478  51.594 -21.069  1.00  0.00     0.036 C 
HETATM   15  C26 UNL     1      -2.514  51.547 -22.606  1.00  0.00     0.123 C 
HETATM   16  C27 UNL     1      -3.379  50.517 -23.295  1.00  0.00     0.014 C 
HETATM   17  C28 UNL     1      -3.360  50.619 -24.635  1.00  0.00     0.014 C 
HETATM   18  C29 UNL     1      -2.583  51.822 -25.151  1.00  0.00     0.124 C 
HETATM   19  C30 UNL     1      -2.741  52.028 -26.666  1.00  0.00     0.079 C 
HETATM   20  O3  UNL     1      -3.238  52.931 -24.487  1.00  0.00    -0.223 OA
HETATM   21  O4  UNL     1      -2.971  52.870 -23.019  1.00  0.00    -0.224 OA
ENDROOT
BRANCH  11  22
HETATM   22  C14 UNL     1      -1.111  50.131 -17.785  1.00  0.00     0.008 C 
HETATM   23  C15 UNL     1      -0.746  48.729 -18.289  1.00  0.00     0.014 C 
BRANCH  22  24
HETATM   24  C16 UNL     1       0.067  50.830 -17.121  1.00  0.00    -0.026 C 
HETATM   25  C17 UNL     1       0.670  50.485 -15.971  1.00  0.00    -0.026 C 
BRANCH  25  26
HETATM   26  C18 UNL     1       1.832  51.245 -15.365  1.00  0.00     0.007 C 
HETATM   27  C19 UNL     1       1.496  51.539 -13.899  1.00  0.00     0.014 C 
BRANCH  26  28
HETATM   28  C20 UNL     1       2.143  52.534 -16.178  1.00  0.00    -0.015 C 
HETATM   29  C21 UNL     1       1.594  52.449 -17.609  1.00  0.00     0.010 C 
HETATM   30  C22 UNL     1       3.646  52.832 -16.245  1.00  0.00     0.010 C 
ENDBRANCH  26  28
ENDBRANCH  25  26
ENDBRANCH  22  24
ENDBRANCH  11  22
BRANCH   1  31
HETATM   31  O2  UNL     1      -2.357  49.731 -27.435  1.00  0.00    -0.316 OA
BRANCH  31  32
HETATM   32  C2  UNL     1      -3.522  49.465 -28.088  1.00  0.00     0.255 C 
HETATM   33  C1  UNL     1      -4.322  48.458 -27.321  1.00  0.00     0.126 C 
HETATM   34  O1  UNL     1      -3.868  49.953 -29.154  1.00  0.00    -0.266 OA
ENDBRANCH  31  32
ENDBRANCH   1  31
TORSDOF 6
ENDMDL
MODEL 2
REMARK minimizedAffinity -9.16354752
REMARK  6 active torsions:
REMARK  status: ('A' for Active; 'I' for Inactive)
REMARK    1  A    between atoms: C2_2  and  O2_4 
REMARK    2  A    between atoms: O2_4  and  C3_5 
REMARK    3  A    between atoms: C13_15  and  C14_16 
REMARK    4  A    between atoms: C14_16  and  C16_18 
REMARK    5  A    between atoms: C17_19  and  C18_20 
REMARK    6  A    between atoms: C18_20  and  C20_22 
ROOT
HETATM    1  C3  UNL     1      -2.210  50.847 -27.394  1.00  0.00     0.135 C 
HETATM    2  C4  UNL     1      -0.710  51.083 -27.197  1.00  0.00     0.034 C 
HETATM    3  C5  UNL     1      -0.283  50.959 -25.731  1.00  0.00     0.015 C 
HETATM    4  C6  UNL     1      -1.081  51.897 -24.789  1.00  0.00     0.001 C 
HETATM    5  C7  UNL     1      -0.704  53.366 -25.107  1.00  0.00     0.019 C 
HETATM    6  C8  UNL     1      -0.763  51.541 -23.289  1.00  0.00     0.039 C 
HETATM    7  C9  UNL     1       0.352  52.317 -22.578  1.00  0.00     0.010 C 
HETATM    8  C10 UNL     1       0.680  51.714 -21.190  1.00  0.00     0.010 C 
HETATM    9  C11 UNL     1      -0.533  51.081 -20.451  1.00  0.00    -0.033 C 
HETATM   10  C12 UNL     1      -0.528  49.543 -20.618  1.00  0.00     0.016 C 
HETATM   11  C13 UNL     1      -0.643  51.469 -18.938  1.00  0.00     0.001 C 
HETATM   12  C23 UNL     1      -2.158  51.283 -18.633  1.00  0.00     0.006 C 
HETATM   13  C24 UNL     1      -2.904  51.373 -19.973  1.00  0.00     0.009 C 
HETATM   14  C25 UNL     1      -1.823  51.750 -20.977  1.00  0.00     0.036 C 
HETATM   15  C26 UNL     1      -2.102  51.582 -22.480  1.00  0.00     0.123 C 
HETATM   16  C27 UNL     1      -2.900  50.390 -22.957  1.00  0.00     0.014 C 
HETATM   17  C28 UNL     1      -3.116  50.392 -24.283  1.00  0.00     0.014 C 
HETATM   18  C29 UNL     1      -2.627  51.651 -24.985  1.00  0.00     0.124 C 
HETATM   19  C30 UNL     1      -3.059  51.717 -26.459  1.00  0.00     0.079 C 
HETATM   20  O3  UNL     1      -3.326  52.702 -24.276  1.00  0.00    -0.223 OA
HETATM   21  O4  UNL     1      -2.817  52.792 -22.874  1.00  0.00    -0.224 OA
ENDROOT
BRANCH  11  22
HETATM   22  C14 UNL     1       0.269  50.750 -17.908  1.00  0.00     0.008 C 
HETATM   23  C15 UNL     1       1.051  51.726 -17.020  1.00  0.00     0.014 C 
BRANCH  22  24
HETATM   24  C16 UNL     1      -0.538  49.750 -17.092  1.00  0.00    -0.026 C 
HETATM   25  C17 UNL     1      -0.075  48.913 -16.148  1.00  0.00    -0.026 C 
BRANCH  25  26
HETATM   26  C18 UNL     1      -0.945  47.931 -15.390  1.00  0.00     0.007 C 
HETATM   27  C19 UNL     1      -2.096  48.713 -14.747  1.00  0.00     0.014 C 
BRANCH  26  28
HETATM   28  C20 UNL     1      -0.111  47.130 -14.351  1.00  0.00    -0.015 C 
HETATM   29  C21 UNL     1       1.379  47.101 -14.720  1.00  0.00     0.010 C 
HETATM   30  C22 UNL     1      -0.606  45.686 -14.196  1.00  0.00     0.010 C 
ENDBRANCH  26  28
ENDBRANCH  25  26
ENDBRANCH  22  24
ENDBRANCH  11  22
BRANCH   1  31
HETATM   31  O2  UNL     1      -2.459  49.446 -27.165  1.00  0.00    -0.316 OA
BRANCH  31  32
HETATM   32  C2  UNL     1      -3.653  48.965 -27.609  1.00  0.00     0.255 C 
HETATM   33  C1  UNL     1      -4.325  48.180 -26.525  1.00  0.00     0.126 C 
HETATM   34  O1  UNL     1      -4.112  49.124 -28.730  1.00  0.00    -0.266 OA
ENDBRANCH  31  32
ENDBRANCH   1  31
TORSDOF 6
ENDMDL
MODEL 3
REMARK minimizedAffinity -8.8603611
REMARK  6 active torsions:
REMARK  status: ('A' for Active; 'I' for Inactive)
REMARK    1  A    between atoms: C2_2  and  O2_4 
REMARK    2  A    between atoms: O2_4  and  C3_5 
REMARK    3  A    between atoms: C13_15  and  C14_16 
REMARK    4  A    between atoms: C14_16  and  C16_18 
REMARK    5  A    between atoms: C17_19  and  C18_20 
REMARK    6  A    between atoms: C18_20  and  C20_22 
ROOT
HETATM    1  C3  UNL     1      -1.610  50.237 -12.377  1.00  0.00     0.135 C 
HETATM    2  C4  UNL     1      -0.698  51.462 -12.485  1.00  0.00     0.034 C 
HETATM    3  C5  UNL     1      -0.507  51.927 -13.932  1.00  0.00     0.015 C 
HETATM    4  C6  UNL     1       0.023  50.805 -14.861  1.00  0.00     0.001 C 
HETATM    5  C7  UNL     1       1.475  50.455 -14.445  1.00  0.00     0.019 C 
HETATM    6  C8  UNL     1      -0.039  51.282 -16.360  1.00  0.00     0.039 C 
HETATM    7  C9  UNL     1       1.211  51.926 -16.970  1.00  0.00     0.010 C 
HETATM    8  C10 UNL     1       0.927  52.523 -18.371  1.00  0.00     0.010 C 
HETATM    9  C11 UNL     1      -0.138  51.755 -19.204  1.00  0.00    -0.033 C 
HETATM   10  C12 UNL     1      -1.509  52.466 -19.120  1.00  0.00     0.016 C 
HETATM   11  C13 UNL     1       0.263  51.508 -20.697  1.00  0.00     0.001 C 
HETATM   12  C23 UNL     1      -0.576  50.256 -21.087  1.00  0.00     0.006 C 
HETATM   13  C24 UNL     1      -0.935  49.527 -19.784  1.00  0.00     0.009 C 
HETATM   14  C25 UNL     1      -0.176  50.292 -18.708  1.00  0.00     0.036 C 
HETATM   15  C26 UNL     1      -0.560  50.091 -17.233  1.00  0.00     0.123 C 
HETATM   16  C27 UNL     1      -2.015  49.925 -16.862  1.00  0.00     0.014 C 
HETATM   17  C28 UNL     1      -2.208  49.706 -15.550  1.00  0.00     0.014 C 
HETATM   18  C29 UNL     1      -0.918  49.544 -14.757  1.00  0.00     0.124 C 
HETATM   19  C30 UNL     1      -1.164  49.101 -13.306  1.00  0.00     0.079 C 
HETATM   20  O3  UNL     1      -0.258  48.453 -15.443  1.00  0.00    -0.223 OA
HETATM   21  O4  UNL     1       0.154  48.891 -16.810  1.00  0.00    -0.224 OA
ENDROOT
BRANCH  11  22
HETATM   22  C14 UNL     1       0.119  52.669 -21.717  1.00  0.00     0.008 C 
HETATM   23  C15 UNL     1       1.277  53.672 -21.648  1.00  0.00     0.014 C 
BRANCH  22  24
HETATM   24  C16 UNL     1      -0.083  52.119 -23.121  1.00  0.00    -0.026 C 
HETATM   25  C17 UNL     1       0.052  52.786 -24.280  1.00  0.00    -0.026 C 
BRANCH  25  26
HETATM   26  C18 UNL     1      -0.185  52.167 -25.643  1.00  0.00     0.007 C 
HETATM   27  C19 UNL     1      -0.636  50.718 -25.436  1.00  0.00     0.014 C 
BRANCH  26  28
HETATM   28  C20 UNL     1       1.084  52.277 -26.537  1.00  0.00    -0.015 C 
HETATM   29  C21 UNL     1       0.750  52.082 -28.022  1.00  0.00     0.010 C 
HETATM   30  C22 UNL     1       2.165  51.264 -26.139  1.00  0.00     0.010 C 
ENDBRANCH  26  28
ENDBRANCH  25  26
ENDBRANCH  22  24
ENDBRANCH  11  22
BRANCH   1  31
HETATM   31  O2  UNL     1      -2.949  50.668 -12.693  1.00  0.00    -0.316 OA
BRANCH  31  32
HETATM   32  C2  UNL     1      -3.534  51.520 -11.807  1.00  0.00     0.255 C 
HETATM   33  C1  UNL     1      -4.039  50.758 -10.621  1.00  0.00     0.126 C 
HETATM   34  O1  UNL     1      -3.654  52.727 -11.953  1.00  0.00    -0.266 OA
ENDBRANCH  31  32
ENDBRANCH   1  31
TORSDOF 6
ENDMDL
MODEL 4
REMARK minimizedAffinity -8.76833248
REMARK  6 active torsions:
REMARK  status: ('A' for Active; 'I' for Inactive)
REMARK    1  A    between atoms: C2_2  and  O2_4 
REMARK    2  A    between atoms: O2_4  and  C3_5 
REMARK    3  A    between atoms: C13_15  and  C14_16 
REMARK    4  A    between atoms: C14_16  and  C16_18 
REMARK    5  A    between atoms: C17_19  and  C18_20 
REMARK    6  A    between atoms: C18_20  and  C20_22 
ROOT
HETATM    1  C3  UNL     1      -7.944  46.622 -21.694  1.00  0.00     0.135 C 
HETATM    2  C4  UNL     1      -8.366  48.030 -22.127  1.00  0.00     0.034 C 
HETATM    3  C5  UNL     1      -7.167  48.942 -22.406  1.00  0.00     0.015 C 
HETATM    4  C6  UNL     1      -6.192  49.042 -21.205  1.00  0.00     0.001 C 
HETATM    5  C7  UNL     1      -6.900  49.791 -20.046  1.00  0.00     0.019 C 
HETATM    6  C8  UNL     1      -4.879  49.789 -21.646  1.00  0.00     0.039 C 
HETATM    7  C9  UNL     1      -4.792  51.303 -21.419  1.00  0.00     0.010 C 
HETATM    8  C10 UNL     1      -3.538  51.916 -22.089  1.00  0.00     0.010 C 
HETATM    9  C11 UNL     1      -2.297  50.980 -22.128  1.00  0.00    -0.033 C 
HETATM   10  C12 UNL     1      -2.160  50.318 -23.519  1.00  0.00     0.016 C 
HETATM   11  C13 UNL     1      -0.954  51.670 -21.712  1.00  0.00     0.001 C 
HETATM   12  C23 UNL     1      -0.080  50.478 -21.222  1.00  0.00     0.006 C 
HETATM   13  C24 UNL     1      -1.038  49.342 -20.835  1.00  0.00     0.009 C 
HETATM   14  C25 UNL     1      -2.423  49.960 -20.973  1.00  0.00     0.036 C 
HETATM   15  C26 UNL     1      -3.654  49.041 -21.021  1.00  0.00     0.123 C 
HETATM   16  C27 UNL     1      -3.567  47.723 -21.757  1.00  0.00     0.014 C 
HETATM   17  C28 UNL     1      -4.694  46.995 -21.677  1.00  0.00     0.014 C 
HETATM   18  C29 UNL     1      -5.752  47.594 -20.761  1.00  0.00     0.124 C 
HETATM   19  C30 UNL     1      -6.944  46.651 -20.532  1.00  0.00     0.079 C 
HETATM   20  O3  UNL     1      -5.046  47.722 -19.503  1.00  0.00    -0.223 OA
HETATM   21  O4  UNL     1      -3.977  48.758 -19.626  1.00  0.00    -0.224 OA
ENDROOT
BRANCH  11  22
HETATM   22  C14 UNL     1      -0.218  52.569 -22.743  1.00  0.00     0.008 C 
HETATM   23  C15 UNL     1       0.988  53.302 -22.142  1.00  0.00     0.014 C 
BRANCH  22  24
HETATM   24  C16 UNL     1       0.154  51.763 -23.979  1.00  0.00    -0.026 C 
HETATM   25  C17 UNL     1       0.694  52.230 -25.117  1.00  0.00    -0.026 C 
BRANCH  25  26
HETATM   26  C18 UNL     1       1.022  51.361 -26.315  1.00  0.00     0.007 C 
HETATM   27  C19 UNL     1       2.519  51.504 -26.610  1.00  0.00     0.014 C 
BRANCH  26  28
HETATM   28  C20 UNL     1       0.133  51.731 -27.536  1.00  0.00    -0.015 C 
HETATM   29  C21 UNL     1      -0.011  53.251 -27.693  1.00  0.00     0.010 C 
HETATM   30  C22 UNL     1      -1.268  51.113 -27.444  1.00  0.00     0.010 C 
ENDBRANCH  26  28
ENDBRANCH  25  26
ENDBRANCH  22  24
ENDBRANCH  11  22
BRANCH   1  31
HETATM   31  O2  UNL     1      -7.379  45.969 -22.848  1.00  0.00    -0.316 OA
BRANCH  31  32
HETATM   32  C2  UNL     1      -8.261  45.553 -23.798  1.00  0.00     0.255 C 
HETATM   33  C1  UNL     1      -7.893  46.134 -25.128  1.00  0.00     0.126 C 
HETATM   34  O1  UNL     1      -9.227  44.830 -23.605  1.00  0.00    -0.266 OA
ENDBRANCH  31  32
ENDBRANCH   1  31
TORSDOF 6
ENDMDL
MODEL 5
REMARK minimizedAffinity -8.42569542
REMARK  6 active torsions:
REMARK  status: ('A' for Active; 'I' for Inactive)
REMARK    1  A    between atoms: C2_2  and  O2_4 
REMARK    2  A    between atoms: O2_4  and  C3_5 
REMARK    3  A    between atoms: C13_15  and  C14_16 
REMARK    4  A    between atoms: C14_16  and  C16_18 
REMARK    5  A    between atoms: C17_19  and  C18_20 
REMARK    6  A    between atoms: C18_20  and  C20_22 
ROOT
HETATM    1  C3  UNL     1      -1.686  50.641 -12.036  1.00  0.00     0.135 C 
HETATM    2  C4  UNL     1      -0.818  51.868 -12.333  1.00  0.00     0.034 C 
HETATM    3  C5  UNL     1      -0.682  52.143 -13.834  1.00  0.00     0.015 C 
HETATM    4  C6  UNL     1      -0.141  50.924 -14.624  1.00  0.00     0.001 C 
HETATM    5  C7  UNL     1       1.333  50.675 -14.211  1.00  0.00     0.019 C 
HETATM    6  C8  UNL     1      -0.259  51.196 -16.170  1.00  0.00     0.039 C 
HETATM    7  C9  UNL     1       0.952  51.790 -16.899  1.00  0.00     0.010 C 
HETATM    8  C10 UNL     1       0.609  52.188 -18.356  1.00  0.00     0.010 C 
HETATM    9  C11 UNL     1      -0.452  51.286 -19.046  1.00  0.00    -0.033 C 
HETATM   10  C12 UNL     1      -1.843  51.961 -19.014  1.00  0.00     0.016 C 
HETATM   11  C13 UNL     1      -0.084  50.856 -20.506  1.00  0.00     0.001 C 
HETATM   12  C23 UNL     1      -0.891  49.539 -20.702  1.00  0.00     0.006 C 
HETATM   13  C24 UNL     1      -1.190  48.978 -19.304  1.00  0.00     0.009 C 
HETATM   14  C25 UNL     1      -0.427  49.900 -18.362  1.00  0.00     0.036 C 
HETATM   15  C26 UNL     1      -0.764  49.886 -16.862  1.00  0.00     0.123 C 
HETATM   16  C27 UNL     1      -2.202  49.727 -16.426  1.00  0.00     0.014 C 
HETATM   17  C28 UNL     1      -2.351  49.678 -15.092  1.00  0.00     0.014 C 
HETATM   18  C29 UNL     1      -1.036  49.661 -14.325  1.00  0.00     0.124 C 
HETATM   19  C30 UNL     1      -1.227  49.406 -12.822  1.00  0.00     0.079 C 
HETATM   20  O3  UNL     1      -0.359  48.508 -14.883  1.00  0.00    -0.223 OA
HETATM   21  O4  UNL     1       0.001  48.773 -16.308  1.00  0.00    -0.224 OA
ENDROOT
BRANCH  11  22
HETATM   22  C14 UNL     1      -0.294  51.867 -21.665  1.00  0.00     0.008 C 
HETATM   23  C15 UNL     1       0.960  52.694 -21.971  1.00  0.00     0.014 C 
BRANCH  22  24
HETATM   24  C16 UNL     1      -0.830  51.155 -22.899  1.00  0.00    -0.026 C 
HETATM   25  C17 UNL     1      -0.592  51.471 -24.183  1.00  0.00    -0.026 C 
BRANCH  25  26
HETATM   26  C18 UNL     1      -1.180  50.719 -25.360  1.00  0.00     0.007 C 
HETATM   27  C19 UNL     1      -1.241  51.678 -26.555  1.00  0.00     0.014 C 
BRANCH  26  28
HETATM   28  C20 UNL     1      -2.569  50.117 -25.004  1.00  0.00    -0.015 C 
HETATM   29  C21 UNL     1      -2.858  48.843 -25.811  1.00  0.00     0.010 C 
HETATM   30  C22 UNL     1      -3.711  51.113 -25.233  1.00  0.00     0.010 C 
ENDBRANCH  26  28
ENDBRANCH  25  26
ENDBRANCH  22  24
ENDBRANCH  11  22
BRANCH   1  31
HETATM   31  O2  UNL     1      -3.046  50.987 -12.365  1.00  0.00    -0.316 OA
BRANCH  31  32
HETATM   32  C2  UNL     1      -3.709  51.755 -11.456  1.00  0.00     0.255 C 
HETATM   33  C1  UNL     1      -3.823  51.024 -10.154  1.00  0.00     0.126 C 
HETATM   34  O1  UNL     1      -4.167  52.868 -11.664  1.00  0.00    -0.266 OA
ENDBRANCH  31  32
ENDBRANCH   1  31
TORSDOF 6
ENDMDL
MODEL 6
REMARK minimizedAffinity -8.41311932
REMARK  6 active torsions:
REMARK  status: ('A' for Active; 'I' for Inactive)
REMARK    1  A    between atoms: C2_2  and  O2_4 
REMARK    2  A    between atoms: O2_4  and  C3_5 
REMARK    3  A    between atoms: C13_15  and  C14_16 
REMARK    4  A    between atoms: C14_16  and  C16_18 
REMARK    5  A    between atoms: C17_19  and  C18_20 
REMARK    6  A    between atoms: C18_20  and  C20_22 
ROOT
HETATM    1  C3  UNL     1      -2.862  51.182 -25.437  1.00  0.00     0.135 C 
HETATM    2  C4  UNL     1      -2.610  52.477 -24.660  1.00  0.00     0.034 C 
HETATM    3  C5  UNL     1      -2.218  52.221 -23.202  1.00  0.00     0.015 C 
HETATM    4  C6  UNL     1      -3.256  51.357 -22.441  1.00  0.00     0.001 C 
HETATM    5  C7  UNL     1      -4.565  52.172 -22.280  1.00  0.00     0.019 C 
HETATM    6  C8  UNL     1      -2.673  50.935 -21.040  1.00  0.00     0.039 C 
HETATM    7  C9  UNL     1      -3.000  51.811 -19.825  1.00  0.00     0.010 C 
HETATM    8  C10 UNL     1      -2.191  51.385 -18.574  1.00  0.00     0.010 C 
HETATM    9  C11 UNL     1      -1.887  49.863 -18.481  1.00  0.00    -0.033 C 
HETATM   10  C12 UNL     1      -0.445  49.567 -18.957  1.00  0.00     0.016 C 
HETATM   11  C13 UNL     1      -2.139  49.238 -17.068  1.00  0.00     0.001 C 
HETATM   12  C23 UNL     1      -2.394  47.735 -17.385  1.00  0.00     0.006 C 
HETATM   13  C24 UNL     1      -2.838  47.650 -18.852  1.00  0.00     0.009 C 
HETATM   14  C25 UNL     1      -2.965  49.104 -19.288  1.00  0.00     0.036 C 
HETATM   15  C26 UNL     1      -3.040  49.435 -20.787  1.00  0.00     0.123 C 
HETATM   16  C27 UNL     1      -2.201  48.644 -21.764  1.00  0.00     0.014 C 
HETATM   17  C28 UNL     1      -2.399  48.999 -23.044  1.00  0.00     0.014 C 
HETATM   18  C29 UNL     1      -3.513  50.019 -23.236  1.00  0.00     0.124 C 
HETATM   19  C30 UNL     1      -3.852  50.259 -24.715  1.00  0.00     0.079 C 
HETATM   20  O3  UNL     1      -4.651  49.364 -22.625  1.00  0.00    -0.223 OA
HETATM   21  O4  UNL     1      -4.442  49.258 -21.150  1.00  0.00    -0.224 OA
ENDROOT
BRANCH  11  22
HETATM   22  C14 UNL     1      -1.079  49.444 -15.953  1.00  0.00     0.008 C 
HETATM   23  C15 UNL     1      -0.460  48.128 -15.466  1.00  0.00     0.014 C 
BRANCH  22  24
HETATM   24  C16 UNL     1      -0.024  50.445 -16.404  1.00  0.00    -0.026 C 
HETATM   25  C17 UNL     1       0.531  51.423 -15.668  1.00  0.00    -0.026 C 
BRANCH  25  26
HETATM   26  C18 UNL     1       1.568  52.393 -16.198  1.00  0.00     0.007 C 
HETATM   27  C19 UNL     1       1.305  52.600 -17.693  1.00  0.00     0.014 C 
BRANCH  26  28
HETATM   28  C20 UNL     1       3.010  51.885 -15.909  1.00  0.00    -0.015 C 
HETATM   29  C21 UNL     1       3.151  51.368 -14.470  1.00  0.00     0.010 C 
HETATM   30  C22 UNL     1       4.067  52.970 -16.146  1.00  0.00     0.010 C 
ENDBRANCH  26  28
ENDBRANCH  25  26
ENDBRANCH  22  24
ENDBRANCH  11  22
BRANCH   1  31
HETATM   31  O2  UNL     1      -1.587  50.533 -25.617  1.00  0.00    -0.316 OA
BRANCH  31  32
HETATM   32  C2  UNL     1      -0.821  50.986 -26.648  1.00  0.00     0.255 C 
HETATM   33  C1  UNL     1       0.608  51.097 -26.213  1.00  0.00     0.126 C 
HETATM   34  O1  UNL     1      -1.228  51.281 -27.761  1.00  0.00    -0.266 OA
ENDBRANCH  31  32
ENDBRANCH   1  31
TORSDOF 6
ENDMDL
MODEL 7
REMARK minimizedAffinity -8.11514091
REMARK  6 active torsions:
REMARK  status: ('A' for Active; 'I' for Inactive)
REMARK    1  A    between atoms: C2_2  and  O2_4 
REMARK    2  A    between atoms: O2_4  and  C3_5 
REMARK    3  A    between atoms: C13_15  and  C14_16 
REMARK    4  A    between atoms: C14_16  and  C16_18 
REMARK    5  A    between atoms: C17_19  and  C18_20 
REMARK    6  A    between atoms: C18_20  and  C20_22 
ROOT
HETATM    1  C3  UNL     1      -1.630  52.055 -26.293  1.00  0.00     0.135 C 
HETATM    2  C4  UNL     1      -1.223  52.882 -25.070  1.00  0.00     0.034 C 
HETATM    3  C5  UNL     1      -1.387  52.110 -23.757  1.00  0.00     0.015 C 
HETATM    4  C6  UNL     1      -2.822  51.562 -23.555  1.00  0.00     0.001 C 
HETATM    5  C7  UNL     1      -3.789  52.755 -23.345  1.00  0.00     0.019 C 
HETATM    6  C8  UNL     1      -2.850  50.584 -22.321  1.00  0.00     0.039 C 
HETATM    7  C9  UNL     1      -3.228  51.156 -20.950  1.00  0.00     0.010 C 
HETATM    8  C10 UNL     1      -3.009  50.125 -19.815  1.00  0.00     0.010 C 
HETATM    9  C11 UNL     1      -3.246  48.644 -20.225  1.00  0.00    -0.033 C 
HETATM   10  C12 UNL     1      -1.900  47.937 -20.512  1.00  0.00     0.016 C 
HETATM   11  C13 UNL     1      -4.093  47.817 -19.200  1.00  0.00     0.001 C 
HETATM   12  C23 UNL     1      -4.705  46.685 -20.076  1.00  0.00     0.006 C 
HETATM   13  C24 UNL     1      -4.694  47.181 -21.530  1.00  0.00     0.009 C 
HETATM   14  C25 UNL     1      -4.217  48.624 -21.427  1.00  0.00     0.036 C 
HETATM   15  C26 UNL     1      -3.732  49.347 -22.695  1.00  0.00     0.123 C 
HETATM   16  C27 UNL     1      -2.936  48.580 -23.726  1.00  0.00     0.014 C 
HETATM   17  C28 UNL     1      -2.620  49.314 -24.806  1.00  0.00     0.014 C 
HETATM   18  C29 UNL     1      -3.241  50.704 -24.810  1.00  0.00     0.124 C 
HETATM   19  C30 UNL     1      -3.029  51.447 -26.139  1.00  0.00     0.079 C 
HETATM   20  O3  UNL     1      -4.656  50.420 -24.688  1.00  0.00    -0.223 OA
HETATM   21  O4  UNL     1      -4.942  49.847 -23.338  1.00  0.00    -0.224 OA
ENDROOT
BRANCH  11  22
HETATM   22  C14 UNL     1      -3.406  47.276 -17.917  1.00  0.00     0.008 C 
HETATM   23  C15 UNL     1      -3.423  45.745 -17.830  1.00  0.00     0.014 C 
BRANCH  22  24
HETATM   24  C16 UNL     1      -1.999  47.844 -17.790  1.00  0.00    -0.026 C 
HETATM   25  C17 UNL     1      -1.509  48.573 -16.773  1.00  0.00    -0.026 C 
BRANCH  25  26
HETATM   26  C18 UNL     1      -0.096  49.118 -16.729  1.00  0.00     0.007 C 
HETATM   27  C19 UNL     1       0.563  48.629 -15.435  1.00  0.00     0.014 C 
BRANCH  26  28
HETATM   28  C20 UNL     1      -0.089  50.668 -16.855  1.00  0.00    -0.015 C 
HETATM   29  C21 UNL     1      -0.036  51.118 -18.322  1.00  0.00     0.010 C 
HETATM   30  C22 UNL     1       1.083  51.309 -16.103  1.00  0.00     0.010 C 
ENDBRANCH  26  28
ENDBRANCH  25  26
ENDBRANCH  22  24
ENDBRANCH  11  22
BRANCH   1  31
HETATM   31  O2  UNL     1      -0.635  51.027 -26.467  1.00  0.00    -0.316 OA
BRANCH  31  32
HETATM   32  C2  UNL     1       0.435  51.348 -27.245  1.00  0.00     0.255 C 
HETATM   33  C1  UNL     1       1.702  51.206 -26.460  1.00  0.00     0.126 C 
HETATM   34  O1  UNL     1       0.384  51.720 -28.408  1.00  0.00    -0.266 OA
ENDBRANCH  31  32
ENDBRANCH   1  31
TORSDOF 6
ENDMDL
MODEL 8
REMARK minimizedAffinity -8.11026001
REMARK  6 active torsions:
REMARK  status: ('A' for Active; 'I' for Inactive)
REMARK    1  A    between atoms: C2_2  and  O2_4 
REMARK    2  A    between atoms: O2_4  and  C3_5 
REMARK    3  A    between atoms: C13_15  and  C14_16 
REMARK    4  A    between atoms: C14_16  and  C16_18 
REMARK    5  A    between atoms: C17_19  and  C18_20 
REMARK    6  A    between atoms: C18_20  and  C20_22 
ROOT
HETATM    1  C3  UNL     1      -5.070  45.174 -19.490  1.00  0.00     0.135 C 
HETATM    2  C4  UNL     1      -5.170  45.496 -20.984  1.00  0.00     0.034 C 
HETATM    3  C5  UNL     1      -4.231  46.631 -21.405  1.00  0.00     0.015 C 
HETATM    4  C6  UNL     1      -4.444  47.927 -20.581  1.00  0.00     0.001 C 
HETATM    5  C7  UNL     1      -5.834  48.519 -20.930  1.00  0.00     0.019 C 
HETATM    6  C8  UNL     1      -3.294  48.954 -20.899  1.00  0.00     0.039 C 
HETATM    7  C9  UNL     1      -3.536  50.001 -21.993  1.00  0.00     0.010 C 
HETATM    8  C10 UNL     1      -2.248  50.794 -22.326  1.00  0.00     0.010 C 
HETATM    9  C11 UNL     1      -1.287  51.014 -21.123  1.00  0.00    -0.033 C 
HETATM   10  C12 UNL     1      -0.126  49.993 -21.162  1.00  0.00     0.016 C 
HETATM   11  C13 UNL     1      -0.733  52.472 -20.996  1.00  0.00     0.001 C 
HETATM   12  C23 UNL     1      -0.384  52.589 -19.483  1.00  0.00     0.006 C 
HETATM   13  C24 UNL     1      -1.217  51.533 -18.743  1.00  0.00     0.009 C 
HETATM   14  C25 UNL     1      -2.119  50.947 -19.822  1.00  0.00     0.036 C 
HETATM   15  C26 UNL     1      -2.843  49.617 -19.554  1.00  0.00     0.123 C 
HETATM   16  C27 UNL     1      -2.132  48.528 -18.785  1.00  0.00     0.014 C 
HETATM   17  C28 UNL     1      -2.894  47.441 -18.577  1.00  0.00     0.014 C 
HETATM   18  C29 UNL     1      -4.335  47.599 -19.043  1.00  0.00     0.124 C 
HETATM   19  C30 UNL     1      -5.230  46.425 -18.618  1.00  0.00     0.079 C 
HETATM   20  O3  UNL     1      -4.775  48.772 -18.317  1.00  0.00    -0.223 OA
HETATM   21  O4  UNL     1      -4.049  49.978 -18.816  1.00  0.00    -0.224 OA
ENDROOT
BRANCH  11  22
HETATM   22  C14 UNL     1       0.435  52.917 -21.917  1.00  0.00     0.008 C 
HETATM   23  C15 UNL     1       1.783  52.974 -21.187  1.00  0.00     0.014 C 
BRANCH  22  24
HETATM   24  C16 UNL     1       0.491  52.043 -23.161  1.00  0.00    -0.026 C 
HETATM   25  C17 UNL     1       0.690  52.447 -24.427  1.00  0.00    -0.026 C 
BRANCH  25  26
HETATM   26  C18 UNL     1       0.715  51.512 -25.619  1.00  0.00     0.007 C 
HETATM   27  C19 UNL     1       2.140  51.499 -26.184  1.00  0.00     0.014 C 
BRANCH  26  28
HETATM   28  C20 UNL     1      -0.346  51.925 -26.678  1.00  0.00    -0.015 C 
HETATM   29  C21 UNL     1      -1.578  51.010 -26.634  1.00  0.00     0.010 C 
HETATM   30  C22 UNL     1       0.221  51.916 -28.103  1.00  0.00     0.010 C 
ENDBRANCH  26  28
ENDBRANCH  25  26
ENDBRANCH  22  24
ENDBRANCH  11  22
BRANCH   1  31
HETATM   31  O2  UNL     1      -3.789  44.550 -19.270  1.00  0.00    -0.316 OA
BRANCH  31  32
HETATM   32  C2  UNL     1      -3.813  43.265 -18.822  1.00  0.00     0.255 C 
HETATM   33  C1  UNL     1      -5.163  42.942 -18.262  1.00  0.00     0.126 C 
HETATM   34  O1  UNL     1      -2.873  42.484 -18.849  1.00  0.00    -0.266 OA
ENDBRANCH  31  32
ENDBRANCH   1  31
TORSDOF 6
ENDMDL
MODEL 9
REMARK minimizedAffinity -8.08164406
REMARK  6 active torsions:
REMARK  status: ('A' for Active; 'I' for Inactive)
REMARK    1  A    between atoms: C2_2  and  O2_4 
REMARK    2  A    between atoms: O2_4  and  C3_5 
REMARK    3  A    between atoms: C13_15  and  C14_16 
REMARK    4  A    between atoms: C14_16  and  C16_18 
REMARK    5  A    between atoms: C17_19  and  C18_20 
REMARK    6  A    between atoms: C18_20  and  C20_22 
ROOT
HETATM    1  C3  UNL     1      -0.407  52.982 -25.322  1.00  0.00     0.135 C 
HETATM    2  C4  UNL     1       0.208  51.605 -25.049  1.00  0.00     0.034 C 
HETATM    3  C5  UNL     1      -0.850  50.532 -24.780  1.00  0.00     0.015 C 
HETATM    4  C6  UNL     1      -1.809  50.907 -23.621  1.00  0.00     0.001 C 
HETATM    5  C7  UNL     1      -1.011  50.909 -22.291  1.00  0.00     0.019 C 
HETATM    6  C8  UNL     1      -3.003  49.883 -23.565  1.00  0.00     0.039 C 
HETATM    7  C9  UNL     1      -2.880  48.672 -22.633  1.00  0.00     0.010 C 
HETATM    8  C10 UNL     1      -4.033  47.661 -22.845  1.00  0.00     0.010 C 
HETATM    9  C11 UNL     1      -5.392  48.297 -23.252  1.00  0.00    -0.033 C 
HETATM   10  C12 UNL     1      -5.612  48.179 -24.779  1.00  0.00     0.016 C 
HETATM   11  C13 UNL     1      -6.629  47.735 -22.473  1.00  0.00     0.001 C 
HETATM   12  C23 UNL     1      -7.662  48.896 -22.563  1.00  0.00     0.006 C 
HETATM   13  C24 UNL     1      -6.873  50.186 -22.831  1.00  0.00     0.009 C 
HETATM   14  C25 UNL     1      -5.415  49.756 -22.741  1.00  0.00     0.036 C 
HETATM   15  C26 UNL     1      -4.323  50.682 -23.302  1.00  0.00     0.123 C 
HETATM   16  C27 UNL     1      -4.588  51.454 -24.574  1.00  0.00     0.014 C 
HETATM   17  C28 UNL     1      -3.574  52.263 -24.925  1.00  0.00     0.014 C 
HETATM   18  C29 UNL     1      -2.449  52.320 -23.902  1.00  0.00     0.124 C 
HETATM   19  C30 UNL     1      -1.401  53.396 -24.230  1.00  0.00     0.079 C 
HETATM   20  O3  UNL     1      -3.137  52.732 -22.696  1.00  0.00    -0.223 OA
HETATM   21  O4  UNL     1      -4.051  51.643 -22.239  1.00  0.00    -0.224 OA
ENDROOT
BRANCH  11  22
HETATM   22  C14 UNL     1      -7.226  46.366 -22.896  1.00  0.00     0.008 C 
HETATM   23  C15 UNL     1      -8.204  45.796 -21.860  1.00  0.00     0.014 C 
BRANCH  22  24
HETATM   24  C16 UNL     1      -7.847  46.463 -24.282  1.00  0.00    -0.026 C 
HETATM   25  C17 UNL     1      -8.054  45.457 -25.149  1.00  0.00    -0.026 C 
BRANCH  25  26
HETATM   26  C18 UNL     1      -8.665  45.640 -26.523  1.00  0.00     0.007 C 
HETATM   27  C19 UNL     1      -8.201  44.478 -27.408  1.00  0.00     0.014 C 
BRANCH  26  28
HETATM   28  C20 UNL     1      -8.300  47.030 -27.119  1.00  0.00    -0.015 C 
HETATM   29  C21 UNL     1      -9.495  47.669 -27.840  1.00  0.00     0.010 C 
HETATM   30  C22 UNL     1      -7.121  46.952 -28.096  1.00  0.00     0.010 C 
ENDBRANCH  26  28
ENDBRANCH  25  26
ENDBRANCH  22  24
ENDBRANCH  11  22
BRANCH   1  31
HETATM   31  O2  UNL     1      -1.051  52.917 -26.610  1.00  0.00    -0.316 OA
BRANCH  31  32
HETATM   32  C2  UNL     1      -0.473  53.639 -27.610  1.00  0.00     0.255 C 
HETATM   33  C1  UNL     1       0.354  52.742 -28.478  1.00  0.00     0.126 C 
HETATM   34  O1  UNL     1      -0.587  54.844 -27.775  1.00  0.00    -0.266 OA
ENDBRANCH  31  32
ENDBRANCH   1  31
TORSDOF 6
ENDMDL
