MODEL 1
REMARK minimizedAffinity -9.13904476
REMARK CNNscore 0.405617505
REMARK CNNaffinity 6.8506093
REMARK  15 active torsions:
REMARK  status: ('A' for Active; 'I' for Inactive)
REMARK    1  A    between atoms: C2_2  and  C26_34 
REMARK    2  A    between atoms: C3_3  and  C4_4 
REMARK    3  A    between atoms: C5_5  and  C6_6 
REMARK    4  A    between atoms: C6_6  and  C7_7 
REMARK    5  A    between atoms: C7_7  and  O1_8 
REMARK    6  A    between atoms: C7_7  and  C8_9 
REMARK    7  A    between atoms: C8_9  and  C9_10 
REMARK    8  A    between atoms: C14_16  and  O3_17 
REMARK    9  A    between atoms: C22_28  and  O7_29 
REMARK   10  A    between atoms: C23_30  and  O8_31 
REMARK   11  A    between atoms: C26_34  and  C27_35 
REMARK   12  A    between atoms: C28_36  and  C29_37 
REMARK   13  A    between atoms: C30_38  and  C31_39 
REMARK   14  A    between atoms: C31_39  and  C32_40 
REMARK   15  A    between atoms: C32_40  and  O9_41 
ROOT
HETATM    1  C9  UNL     1      -0.733   5.538  11.532  1.00  0.00     0.134 C 
HETATM    2  C10 UNL     1      -0.293   5.116  12.944  1.00  0.00     0.033 C 
HETATM    3  C11 UNL     1       0.942   5.865  13.465  1.00  0.00     0.005 C 
HETATM    4  C12 UNL     1       0.694   7.357  13.724  1.00  0.00     0.032 C 
HETATM    5  C13 UNL     1       1.966   8.178  14.019  1.00  0.00     0.131 C 
HETATM    6  O2  UNL     1       2.741   8.228  12.816  1.00  0.00    -0.347 OA
HETATM    7  C14 UNL     1       3.787   9.194  12.821  1.00  0.00     0.191 C 
HETATM    8  C15 UNL     1       4.892   8.643  11.878  1.00  0.00     0.074 C 
HETATM    9  C16 UNL     1       4.649   8.701  10.355  1.00  0.00     0.037 C 
HETATM   10  C17 UNL     1       3.331   8.115   9.857  1.00  0.00     0.122 C 
HETATM   11  C18 UNL     1       3.209   8.150   8.338  1.00  0.00     0.035 C 
HETATM   12  C19 UNL     1       2.364   6.934   8.003  1.00  0.00     0.045 C 
HETATM   13  C20 UNL     1       2.188   6.207   9.330  1.00  0.00     0.221 C 
HETATM   14  O4  UNL     1       3.210   6.728  10.195  1.00  0.00    -0.371 OA
HETATM   15  C21 UNL     1       0.783   6.434   9.907  1.00  0.00     0.288 C 
HETATM   16  O5  UNL     1       0.105   7.434   9.713  1.00  0.00    -0.262 OA
HETATM   17  O6  UNL     1       0.416   5.368  10.673  1.00  0.00    -0.314 OA
HETATM   18  C22 UNL     1       4.345   9.479  14.256  1.00  0.00     0.209 C 
HETATM   19  C23 UNL     1       4.258   8.248  15.160  1.00  0.00     0.158 C 
HETATM   20  C24 UNL     1       2.845   7.612  15.160  1.00  0.00     0.042 C 
HETATM   21  C25 UNL     1       2.152   7.796  16.516  1.00  0.00     0.015 C 
ENDROOT
BRANCH   1  22
HETATM   22  C8  UNL     1      -1.878   4.638  11.037  1.00  0.00     0.064 C 
BRANCH  22  23
HETATM   23  C7  UNL     1      -1.770   3.220  11.608  1.00  0.00     0.124 C 
BRANCH  23  24
HETATM   24  C6  UNL     1      -3.133   2.528  11.803  1.00  0.00     0.059 C 
BRANCH  24  25
HETATM   25  C5  UNL     1      -4.225   3.032  10.892  1.00  0.00    -0.024 C 
HETATM   26  C4  UNL     1      -5.523   3.224  11.175  1.00  0.00    -0.004 C 
BRANCH  26  27
HETATM   27  C3  UNL     1      -6.167   3.028  12.455  1.00  0.00     0.002 C 
HETATM   28  C2  UNL     1      -6.838   3.956  13.169  1.00  0.00    -0.080 C 
HETATM   29  C1  UNL     1      -7.458   3.587  14.495  1.00  0.00     0.043 C 
BRANCH  28  30
HETATM   30  C26 UNL     1      -7.039   5.407  12.771  1.00  0.00     0.060 C 
BRANCH  30  31
HETATM   31  C27 UNL     1      -8.455   5.653  12.323  1.00  0.00    -0.022 C 
HETATM   32  C28 UNL     1      -9.461   6.227  13.000  1.00  0.00    -0.004 C 
BRANCH  32  33
HETATM   33  C29 UNL     1      -9.374   6.787  14.329  1.00  0.00    -0.004 C 
HETATM   34  C30 UNL     1     -10.178   7.727  14.852  1.00  0.00    -0.025 C 
BRANCH  34  35
HETATM   35  C31 UNL     1     -11.381   8.388  14.234  1.00  0.00     0.053 C 
BRANCH  35  36
HETATM   36  C32 UNL     1     -12.627   7.496  14.300  1.00  0.00     0.168 C 
BRANCH  36  37
HETATM   37  O9  UNL     1     -13.143   7.390  15.622  1.00  0.00    -0.401 OA
HETATM   38  H50 UNL     1     -12.389   7.320  16.232  1.00  0.00     0.209 HD
ENDBRANCH  36  37
ENDBRANCH  35  36
ENDBRANCH  34  35
ENDBRANCH  32  33
ENDBRANCH  30  31
ENDBRANCH  28  30
ENDBRANCH  26  27
ENDBRANCH  24  25
ENDBRANCH  23  24
BRANCH  23  39
HETATM   39  O1  UNL     1      -0.942   2.447  10.736  1.00  0.00    -0.395 OA
HETATM   40  H10 UNL     1      -0.921   1.538  11.078  1.00  0.00     0.210 HD
ENDBRANCH  23  39
ENDBRANCH  22  23
ENDBRANCH   1  22
BRANCH   7  41
HETATM   41  O3  UNL     1       3.268  10.445  12.347  1.00  0.00    -0.363 OA
HETATM   42  H21 UNL     1       3.742  10.682  11.533  1.00  0.00     0.213 HD
ENDBRANCH   7  41
BRANCH  19  43
HETATM   43  O8  UNL     1       5.248   7.276  14.783  1.00  0.00    -0.392 OA
HETATM   44  H35 UNL     1       4.866   6.687  14.104  1.00  0.00     0.210 HD
ENDBRANCH  19  43
BRANCH  18  45
HETATM   45  O7  UNL     1       3.585  10.542  14.879  1.00  0.00    -0.387 OA
HETATM   46  H33 UNL     1       3.198  11.042  14.128  1.00  0.00     0.210 HD
ENDBRANCH  18  45
TORSDOF 15
ENDMDL
MODEL 2
REMARK minimizedAffinity -9.42025757
REMARK CNNscore 0.355004549
REMARK CNNaffinity 6.81070328
REMARK  15 active torsions:
REMARK  status: ('A' for Active; 'I' for Inactive)
REMARK    1  A    between atoms: C2_2  and  C26_34 
REMARK    2  A    between atoms: C3_3  and  C4_4 
REMARK    3  A    between atoms: C5_5  and  C6_6 
REMARK    4  A    between atoms: C6_6  and  C7_7 
REMARK    5  A    between atoms: C7_7  and  O1_8 
REMARK    6  A    between atoms: C7_7  and  C8_9 
REMARK    7  A    between atoms: C8_9  and  C9_10 
REMARK    8  A    between atoms: C14_16  and  O3_17 
REMARK    9  A    between atoms: C22_28  and  O7_29 
REMARK   10  A    between atoms: C23_30  and  O8_31 
REMARK   11  A    between atoms: C26_34  and  C27_35 
REMARK   12  A    between atoms: C28_36  and  C29_37 
REMARK   13  A    between atoms: C30_38  and  C31_39 
REMARK   14  A    between atoms: C31_39  and  C32_40 
REMARK   15  A    between atoms: C32_40  and  O9_41 
ROOT
HETATM    1  C9  UNL     1      -0.721   5.571  11.594  1.00  0.00     0.134 C 
HETATM    2  C10 UNL     1      -0.285   5.117  12.997  1.00  0.00     0.033 C 
HETATM    3  C11 UNL     1       0.976   5.820  13.519  1.00  0.00     0.005 C 
HETATM    4  C12 UNL     1       0.776   7.316  13.799  1.00  0.00     0.032 C 
HETATM    5  C13 UNL     1       2.075   8.093  14.095  1.00  0.00     0.131 C 
HETATM    6  O2  UNL     1       2.842   8.135  12.887  1.00  0.00    -0.347 OA
HETATM    7  C14 UNL     1       3.918   9.068  12.896  1.00  0.00     0.191 C 
HETATM    8  C15 UNL     1       4.998   8.496  11.939  1.00  0.00     0.074 C 
HETATM    9  C16 UNL     1       4.748   8.582  10.419  1.00  0.00     0.037 C 
HETATM   10  C17 UNL     1       3.409   8.043   9.923  1.00  0.00     0.122 C 
HETATM   11  C18 UNL     1       3.277   8.101   8.406  1.00  0.00     0.035 C 
HETATM   12  C19 UNL     1       2.393   6.916   8.060  1.00  0.00     0.045 C 
HETATM   13  C20 UNL     1       2.204   6.177   9.380  1.00  0.00     0.221 C 
HETATM   14  O4  UNL     1       3.247   6.656  10.243  1.00  0.00    -0.371 OA
HETATM   15  C21 UNL     1       0.810   6.440   9.970  1.00  0.00     0.288 C 
HETATM   16  O5  UNL     1       0.162   7.463   9.793  1.00  0.00    -0.262 OA
HETATM   17  O6  UNL     1       0.416   5.376  10.725  1.00  0.00    -0.314 OA
HETATM   18  C22 UNL     1       4.494   9.317  14.331  1.00  0.00     0.209 C 
HETATM   19  C23 UNL     1       4.376   8.078  15.220  1.00  0.00     0.158 C 
HETATM   20  C24 UNL     1       2.943   7.486  15.222  1.00  0.00     0.042 C 
HETATM   21  C25 UNL     1       2.266   7.674  16.585  1.00  0.00     0.015 C 
ENDROOT
BRANCH   1  22
HETATM   22  C8  UNL     1      -1.897   4.712  11.096  1.00  0.00     0.064 C 
BRANCH  22  23
HETATM   23  C7  UNL     1      -1.836   3.289  11.659  1.00  0.00     0.124 C 
BRANCH  23  24
HETATM   24  C6  UNL     1      -3.223   2.658  11.895  1.00  0.00     0.059 C 
BRANCH  24  25
HETATM   25  C5  UNL     1      -4.206   2.875  10.772  1.00  0.00    -0.024 C 
HETATM   26  C4  UNL     1      -5.543   2.978  10.843  1.00  0.00    -0.004 C 
BRANCH  26  27
HETATM   27  C3  UNL     1      -6.350   2.947  12.042  1.00  0.00     0.002 C 
HETATM   28  C2  UNL     1      -6.431   3.911  12.983  1.00  0.00    -0.080 C 
HETATM   29  C1  UNL     1      -7.328   3.723  14.183  1.00  0.00     0.043 C 
BRANCH  28  30
HETATM   30  C26 UNL     1      -5.673   5.225  12.974  1.00  0.00     0.060 C 
BRANCH  30  31
HETATM   31  C27 UNL     1      -6.264   6.197  13.960  1.00  0.00    -0.022 C 
HETATM   32  C28 UNL     1      -5.994   7.502  14.116  1.00  0.00    -0.004 C 
BRANCH  32  33
HETATM   33  C29 UNL     1      -5.081   8.279  13.309  1.00  0.00    -0.004 C 
HETATM   34  C30 UNL     1      -3.741   8.267  13.385  1.00  0.00    -0.025 C 
BRANCH  34  35
HETATM   35  C31 UNL     1      -2.855   7.425  14.266  1.00  0.00     0.053 C 
BRANCH  35  36
HETATM   36  C32 UNL     1      -2.635   8.064  15.642  1.00  0.00     0.168 C 
BRANCH  36  37
HETATM   37  O9  UNL     1      -2.829   7.136  16.704  1.00  0.00    -0.401 OA
HETATM   38  H50 UNL     1      -3.593   6.579  16.477  1.00  0.00     0.209 HD
ENDBRANCH  36  37
ENDBRANCH  35  36
ENDBRANCH  34  35
ENDBRANCH  32  33
ENDBRANCH  30  31
ENDBRANCH  28  30
ENDBRANCH  26  27
ENDBRANCH  24  25
ENDBRANCH  23  24
BRANCH  23  39
HETATM   39  O1  UNL     1      -1.073   2.483  10.758  1.00  0.00    -0.395 OA
HETATM   40  H10 UNL     1      -1.082   1.571  11.097  1.00  0.00     0.210 HD
ENDBRANCH  23  39
ENDBRANCH  22  23
ENDBRANCH   1  22
BRANCH   7  41
HETATM   41  O3  UNL     1       3.435  10.341  12.442  1.00  0.00    -0.363 OA
HETATM   42  H21 UNL     1       3.910  10.573  11.628  1.00  0.00     0.213 HD
ENDBRANCH   7  41
BRANCH  19  43
HETATM   43  O8  UNL     1       5.332   7.082  14.824  1.00  0.00    -0.392 OA
HETATM   44  H35 UNL     1       4.928   6.513  14.140  1.00  0.00     0.210 HD
ENDBRANCH  19  43
BRANCH  18  45
HETATM   45  O7  UNL     1       3.772  10.395  14.974  1.00  0.00    -0.387 OA
HETATM   46  H33 UNL     1       3.395  10.917  14.232  1.00  0.00     0.210 HD
ENDBRANCH  18  45
TORSDOF 15
ENDMDL
MODEL 3
REMARK minimizedAffinity -9.17359161
REMARK CNNscore 0.339837223
REMARK CNNaffinity 7.07630396
REMARK  15 active torsions:
REMARK  status: ('A' for Active; 'I' for Inactive)
REMARK    1  A    between atoms: C2_2  and  C26_34 
REMARK    2  A    between atoms: C3_3  and  C4_4 
REMARK    3  A    between atoms: C5_5  and  C6_6 
REMARK    4  A    between atoms: C6_6  and  C7_7 
REMARK    5  A    between atoms: C7_7  and  O1_8 
REMARK    6  A    between atoms: C7_7  and  C8_9 
REMARK    7  A    between atoms: C8_9  and  C9_10 
REMARK    8  A    between atoms: C14_16  and  O3_17 
REMARK    9  A    between atoms: C22_28  and  O7_29 
REMARK   10  A    between atoms: C23_30  and  O8_31 
REMARK   11  A    between atoms: C26_34  and  C27_35 
REMARK   12  A    between atoms: C28_36  and  C29_37 
REMARK   13  A    between atoms: C30_38  and  C31_39 
REMARK   14  A    between atoms: C31_39  and  C32_40 
REMARK   15  A    between atoms: C32_40  and  O9_41 
ROOT
HETATM    1  C9  UNL     1      -0.639   5.309  11.386  1.00  0.00     0.134 C 
HETATM    2  C10 UNL     1      -0.242   4.873  12.807  1.00  0.00     0.033 C 
HETATM    3  C11 UNL     1       0.920   5.676  13.407  1.00  0.00     0.005 C 
HETATM    4  C12 UNL     1       0.574   7.144  13.690  1.00  0.00     0.032 C 
HETATM    5  C13 UNL     1       1.782   8.027  14.068  1.00  0.00     0.131 C 
HETATM    6  O2  UNL     1       2.608   8.154  12.905  1.00  0.00    -0.347 OA
HETATM    7  C14 UNL     1       3.595   9.177  12.986  1.00  0.00     0.191 C 
HETATM    8  C15 UNL     1       4.773   8.716  12.085  1.00  0.00     0.074 C 
HETATM    9  C16 UNL     1       4.600   8.803  10.554  1.00  0.00     0.037 C 
HETATM   10  C17 UNL     1       3.344   8.158   9.978  1.00  0.00     0.122 C 
HETATM   11  C18 UNL     1       3.292   8.227   8.456  1.00  0.00     0.035 C 
HETATM   12  C19 UNL     1       2.535   6.976   8.049  1.00  0.00     0.045 C 
HETATM   13  C20 UNL     1       2.339   6.203   9.347  1.00  0.00     0.221 C 
HETATM   14  O4  UNL     1       3.287   6.757  10.274  1.00  0.00    -0.371 OA
HETATM   15  C21 UNL     1       0.898   6.334   9.861  1.00  0.00     0.288 C 
HETATM   16  O5  UNL     1       0.173   7.298   9.659  1.00  0.00    -0.262 OA
HETATM   17  O6  UNL     1       0.557   5.228  10.581  1.00  0.00    -0.314 OA
HETATM   18  C22 UNL     1       4.067   9.453  14.454  1.00  0.00     0.209 C 
HETATM   19  C23 UNL     1       4.009   8.195  15.321  1.00  0.00     0.158 C 
HETATM   20  C24 UNL     1       2.636   7.480  15.236  1.00  0.00     0.042 C 
HETATM   21  C25 UNL     1       1.871   7.587  16.560  1.00  0.00     0.015 C 
ENDROOT
BRANCH   1  22
HETATM   22  C8  UNL     1      -1.706   4.359  10.813  1.00  0.00     0.064 C 
BRANCH  22  23
HETATM   23  C7  UNL     1      -2.015   3.209  11.777  1.00  0.00     0.124 C 
BRANCH  23  24
HETATM   24  C6  UNL     1      -3.317   3.409  12.578  1.00  0.00     0.059 C 
BRANCH  24  25
HETATM   25  C5  UNL     1      -4.102   4.640  12.197  1.00  0.00    -0.024 C 
HETATM   26  C4  UNL     1      -4.091   5.849  12.780  1.00  0.00    -0.004 C 
BRANCH  26  27
HETATM   27  C3  UNL     1      -3.274   6.261  13.900  1.00  0.00     0.002 C 
HETATM   28  C2  UNL     1      -3.673   6.994  14.960  1.00  0.00    -0.080 C 
HETATM   29  C1  UNL     1      -2.690   7.340  16.053  1.00  0.00     0.043 C 
BRANCH  28  30
HETATM   30  C26 UNL     1      -5.068   7.548  15.181  1.00  0.00     0.060 C 
BRANCH  30  31
HETATM   31  C27 UNL     1      -6.013   6.468  15.636  1.00  0.00    -0.022 C 
HETATM   32  C28 UNL     1      -7.024   5.900  14.960  1.00  0.00    -0.004 C 
BRANCH  32  33
HETATM   33  C29 UNL     1      -7.396   6.188  13.595  1.00  0.00    -0.004 C 
HETATM   34  C30 UNL     1      -7.980   5.341  12.731  1.00  0.00    -0.025 C 
BRANCH  34  35
HETATM   35  C31 UNL     1      -8.440   3.927  12.966  1.00  0.00     0.053 C 
BRANCH  35  36
HETATM   36  C32 UNL     1      -7.314   2.909  12.743  1.00  0.00     0.168 C 
BRANCH  36  37
HETATM   37  O9  UNL     1      -7.804   1.575  12.658  1.00  0.00    -0.401 OA
HETATM   38  H50 UNL     1      -8.508   1.474  13.320  1.00  0.00     0.209 HD
ENDBRANCH  36  37
ENDBRANCH  35  36
ENDBRANCH  34  35
ENDBRANCH  32  33
ENDBRANCH  30  31
ENDBRANCH  28  30
ENDBRANCH  26  27
ENDBRANCH  24  25
ENDBRANCH  23  24
BRANCH  23  39
HETATM   39  O1  UNL     1      -2.079   1.997  11.024  1.00  0.00    -0.395 OA
HETATM   40  H10 UNL     1      -2.326   1.282  11.635  1.00  0.00     0.210 HD
ENDBRANCH  23  39
ENDBRANCH  22  23
ENDBRANCH   1  22
BRANCH   7  41
HETATM   41  O3  UNL     1       3.028  10.410  12.519  1.00  0.00    -0.363 OA
HETATM   42  H21 UNL     1       3.525  10.696  11.735  1.00  0.00     0.213 HD
ENDBRANCH   7  41
BRANCH  19  43
HETATM   43  O8  UNL     1       5.070   7.292  14.969  1.00  0.00    -0.392 OA
HETATM   44  H35 UNL     1       4.755   6.701  14.258  1.00  0.00     0.210 HD
ENDBRANCH  19  43
BRANCH  18  45
HETATM   45  O7  UNL     1       3.218  10.454  15.065  1.00  0.00    -0.387 OA
HETATM   46  H33 UNL     1       2.838  10.952  14.309  1.00  0.00     0.210 HD
ENDBRANCH  18  45
TORSDOF 15
ENDMDL
MODEL 4
REMARK minimizedAffinity -8.23956776
REMARK CNNscore 0.285922021
REMARK CNNaffinity 6.77007532
REMARK  15 active torsions:
REMARK  status: ('A' for Active; 'I' for Inactive)
REMARK    1  A    between atoms: C2_2  and  C26_34 
REMARK    2  A    between atoms: C3_3  and  C4_4 
REMARK    3  A    between atoms: C5_5  and  C6_6 
REMARK    4  A    between atoms: C6_6  and  C7_7 
REMARK    5  A    between atoms: C7_7  and  O1_8 
REMARK    6  A    between atoms: C7_7  and  C8_9 
REMARK    7  A    between atoms: C8_9  and  C9_10 
REMARK    8  A    between atoms: C14_16  and  O3_17 
REMARK    9  A    between atoms: C22_28  and  O7_29 
REMARK   10  A    between atoms: C23_30  and  O8_31 
REMARK   11  A    between atoms: C26_34  and  C27_35 
REMARK   12  A    between atoms: C28_36  and  C29_37 
REMARK   13  A    between atoms: C30_38  and  C31_39 
REMARK   14  A    between atoms: C31_39  and  C32_40 
REMARK   15  A    between atoms: C32_40  and  O9_41 
ROOT
HETATM    1  C9  UNL     1      -4.710   7.696  15.338  1.00  0.00     0.134 C 
HETATM    2  C10 UNL     1      -4.635   7.238  13.872  1.00  0.00     0.033 C 
HETATM    3  C11 UNL     1      -3.250   7.412  13.232  1.00  0.00     0.005 C 
HETATM    4  C12 UNL     1      -2.176   6.494  13.829  1.00  0.00     0.032 C 
HETATM    5  C13 UNL     1      -0.735   6.811  13.375  1.00  0.00     0.131 C 
HETATM    6  O2  UNL     1      -0.369   8.074  13.939  1.00  0.00    -0.347 OA
HETATM    7  C14 UNL     1       1.022   8.374  13.876  1.00  0.00     0.191 C 
HETATM    8  C15 UNL     1       1.131   9.922  13.816  1.00  0.00     0.074 C 
HETATM    9  C16 UNL     1       0.870  10.724  15.108  1.00  0.00     0.037 C 
HETATM   10  C17 UNL     1      -0.431  10.416  15.843  1.00  0.00     0.122 C 
HETATM   11  C18 UNL     1      -0.641  11.305  17.064  1.00  0.00     0.035 C 
HETATM   12  C19 UNL     1      -2.148  11.449  17.168  1.00  0.00     0.045 C 
HETATM   13  C20 UNL     1      -2.690  10.764  15.920  1.00  0.00     0.221 C 
HETATM   14  O4  UNL     1      -1.575  10.667  15.018  1.00  0.00    -0.371 OA
HETATM   15  C21 UNL     1      -3.275   9.383  16.252  1.00  0.00     0.288 C 
HETATM   16  O5  UNL     1      -2.897   8.671  17.173  1.00  0.00    -0.262 OA
HETATM   17  O6  UNL     1      -4.261   9.069  15.365  1.00  0.00    -0.314 OA
HETATM   18  C22 UNL     1       1.735   7.698  12.657  1.00  0.00     0.209 C 
HETATM   19  C23 UNL     1       0.797   7.543  11.458  1.00  0.00     0.158 C 
HETATM   20  C24 UNL     1      -0.546   6.871  11.840  1.00  0.00     0.042 C 
HETATM   21  C25 UNL     1      -0.660   5.469  11.228  1.00  0.00     0.015 C 
ENDROOT
BRANCH   1  22
HETATM   22  C8  UNL     1      -6.160   7.624  15.848  1.00  0.00     0.064 C 
BRANCH  22  23
HETATM   23  C7  UNL     1      -7.163   8.017  14.758  1.00  0.00     0.124 C 
BRANCH  23  24
HETATM   24  C6  UNL     1      -8.483   7.224  14.819  1.00  0.00     0.059 C 
BRANCH  24  25
HETATM   25  C5  UNL     1      -8.813   6.463  13.559  1.00  0.00    -0.024 C 
HETATM   26  C4  UNL     1      -8.015   5.661  12.836  1.00  0.00    -0.004 C 
BRANCH  26  27
HETATM   27  C3  UNL     1      -6.647   5.305  13.137  1.00  0.00     0.002 C 
HETATM   28  C2  UNL     1      -6.141   4.058  13.232  1.00  0.00    -0.080 C 
HETATM   29  C1  UNL     1      -4.679   3.856  13.553  1.00  0.00     0.043 C 
BRANCH  28  30
HETATM   30  C26 UNL     1      -6.921   2.769  13.054  1.00  0.00     0.060 C 
BRANCH  30  31
HETATM   31  C27 UNL     1      -6.439   2.007  11.848  1.00  0.00    -0.022 C 
HETATM   32  C28 UNL     1      -5.230   2.037  11.267  1.00  0.00    -0.004 C 
BRANCH  32  33
HETATM   33  C29 UNL     1      -4.091   2.799  11.723  1.00  0.00    -0.004 C 
HETATM   34  C30 UNL     1      -2.801   2.434  11.638  1.00  0.00    -0.025 C 
BRANCH  34  35
HETATM   35  C31 UNL     1      -2.212   1.198  11.013  1.00  0.00     0.053 C 
BRANCH  35  36
HETATM   36  C32 UNL     1      -0.866   1.480  10.333  1.00  0.00     0.168 C 
BRANCH  36  37
HETATM   37  O9  UNL     1      -0.392   0.360   9.592  1.00  0.00    -0.401 OA
HETATM   38  H50 UNL     1      -0.586  -0.441  10.108  1.00  0.00     0.209 HD
ENDBRANCH  36  37
ENDBRANCH  35  36
ENDBRANCH  34  35
ENDBRANCH  32  33
ENDBRANCH  30  31
ENDBRANCH  28  30
ENDBRANCH  26  27
ENDBRANCH  24  25
ENDBRANCH  23  24
BRANCH  23  39
HETATM   39  O1  UNL     1      -7.421   9.418  14.869  1.00  0.00    -0.395 OA
HETATM   40  H10 UNL     1      -8.095   9.648  14.207  1.00  0.00     0.210 HD
ENDBRANCH  23  39
ENDBRANCH  22  23
ENDBRANCH   1  22
BRANCH   7  41
HETATM   41  O3  UNL     1       1.665   7.847  15.047  1.00  0.00    -0.363 OA
HETATM   42  H21 UNL     1       2.045   8.589  15.544  1.00  0.00     0.213 HD
ENDBRANCH   7  41
BRANCH  19  43
HETATM   43  O8  UNL     1       0.564   8.816  10.834  1.00  0.00    -0.392 OA
HETATM   44  H35 UNL     1      -0.206   9.238  11.261  1.00  0.00     0.210 HD
ENDBRANCH  19  43
BRANCH  18  45
HETATM   45  O7  UNL     1       2.204   6.379  13.027  1.00  0.00    -0.387 OA
HETATM   46  H33 UNL     1       2.294   6.414  14.004  1.00  0.00     0.210 HD
ENDBRANCH  18  45
TORSDOF 15
ENDMDL
MODEL 5
REMARK minimizedAffinity -8.71575928
REMARK CNNscore 0.284661293
REMARK CNNaffinity 6.66901588
REMARK  15 active torsions:
REMARK  status: ('A' for Active; 'I' for Inactive)
REMARK    1  A    between atoms: C2_2  and  C26_34 
REMARK    2  A    between atoms: C3_3  and  C4_4 
REMARK    3  A    between atoms: C5_5  and  C6_6 
REMARK    4  A    between atoms: C6_6  and  C7_7 
REMARK    5  A    between atoms: C7_7  and  O1_8 
REMARK    6  A    between atoms: C7_7  and  C8_9 
REMARK    7  A    between atoms: C8_9  and  C9_10 
REMARK    8  A    between atoms: C14_16  and  O3_17 
REMARK    9  A    between atoms: C22_28  and  O7_29 
REMARK   10  A    between atoms: C23_30  and  O8_31 
REMARK   11  A    between atoms: C26_34  and  C27_35 
REMARK   12  A    between atoms: C28_36  and  C29_37 
REMARK   13  A    between atoms: C30_38  and  C31_39 
REMARK   14  A    between atoms: C31_39  and  C32_40 
REMARK   15  A    between atoms: C32_40  and  O9_41 
ROOT
HETATM    1  C9  UNL     1      -1.979   4.747  12.352  1.00  0.00     0.134 C 
HETATM    2  C10 UNL     1      -2.063   6.269  12.562  1.00  0.00     0.033 C 
HETATM    3  C11 UNL     1      -3.383   6.743  13.186  1.00  0.00     0.005 C 
HETATM    4  C12 UNL     1      -3.577   6.286  14.638  1.00  0.00     0.032 C 
HETATM    5  C13 UNL     1      -4.987   6.543  15.210  1.00  0.00     0.131 C 
HETATM    6  O2  UNL     1      -5.900   5.681  14.521  1.00  0.00    -0.347 OA
HETATM    7  C14 UNL     1      -7.183   5.565  15.127  1.00  0.00     0.191 C 
HETATM    8  C15 UNL     1      -8.182   5.267  13.977  1.00  0.00     0.074 C 
HETATM    9  C16 UNL     1      -8.187   3.852  13.361  1.00  0.00     0.037 C 
HETATM   10  C17 UNL     1      -6.835   3.309  12.905  1.00  0.00     0.122 C 
HETATM   11  C18 UNL     1      -6.945   1.939  12.245  1.00  0.00     0.035 C 
HETATM   12  C19 UNL     1      -5.820   1.923  11.226  1.00  0.00     0.045 C 
HETATM   13  C20 UNL     1      -5.242   3.333  11.266  1.00  0.00     0.221 C 
HETATM   14  O4  UNL     1      -6.243   4.143  11.902  1.00  0.00    -0.371 OA
HETATM   15  C21 UNL     1      -3.911   3.367  12.031  1.00  0.00     0.288 C 
HETATM   16  O5  UNL     1      -3.611   2.604  12.939  1.00  0.00    -0.262 OA
HETATM   17  O6  UNL     1      -3.127   4.376  11.558  1.00  0.00    -0.314 OA
HETATM   18  C22 UNL     1      -7.594   6.847  15.929  1.00  0.00     0.209 C 
HETATM   19  C23 UNL     1      -7.003   8.119  15.319  1.00  0.00     0.158 C 
HETATM   20  C24 UNL     1      -5.477   8.005  15.075  1.00  0.00     0.042 C 
HETATM   21  C25 UNL     1      -4.692   8.924  16.019  1.00  0.00     0.015 C 
ENDROOT
BRANCH   1  22
HETATM   22  C8  UNL     1      -0.692   4.382  11.591  1.00  0.00     0.064 C 
BRANCH  22  23
HETATM   23  C7  UNL     1       0.221   5.599  11.409  1.00  0.00     0.124 C 
BRANCH  23  24
HETATM   24  C6  UNL     1       1.368   5.669  12.437  1.00  0.00     0.059 C 
BRANCH  24  25
HETATM   25  C5  UNL     1       1.567   7.029  13.059  1.00  0.00    -0.024 C 
HETATM   26  C4  UNL     1       1.982   8.161  12.470  1.00  0.00    -0.004 C 
BRANCH  26  27
HETATM   27  C3  UNL     1       2.294   8.343  11.070  1.00  0.00     0.002 C 
HETATM   28  C2  UNL     1       3.363   7.848  10.412  1.00  0.00    -0.080 C 
HETATM   29  C1  UNL     1       3.543   8.131   8.940  1.00  0.00     0.043 C 
BRANCH  28  30
HETATM   30  C26 UNL     1       4.467   7.005  11.023  1.00  0.00     0.060 C 
BRANCH  30  31
HETATM   31  C27 UNL     1       5.797   7.704  10.924  1.00  0.00    -0.022 C 
HETATM   32  C28 UNL     1       6.220   8.798  11.576  1.00  0.00    -0.004 C 
BRANCH  32  33
HETATM   33  C29 UNL     1       5.474   9.528  12.574  1.00  0.00    -0.004 C 
HETATM   34  C30 UNL     1       5.348   9.204  13.871  1.00  0.00    -0.025 C 
BRANCH  34  35
HETATM   35  C31 UNL     1       5.977   8.060  14.621  1.00  0.00     0.053 C 
BRANCH  35  36
HETATM   36  C32 UNL     1       7.218   8.498  15.408  1.00  0.00     0.168 C 
BRANCH  36  37
HETATM   37  O9  UNL     1       7.248   7.943  16.719  1.00  0.00    -0.401 OA
HETATM   38  H50 UNL     1       6.342   7.964  17.072  1.00  0.00     0.209 HD
ENDBRANCH  36  37
ENDBRANCH  35  36
ENDBRANCH  34  35
ENDBRANCH  32  33
ENDBRANCH  30  31
ENDBRANCH  28  30
ENDBRANCH  26  27
ENDBRANCH  24  25
ENDBRANCH  23  24
BRANCH  23  39
HETATM   39  O1  UNL     1       0.748   5.570  10.081  1.00  0.00    -0.395 OA
HETATM   40  H10 UNL     1       1.365   6.316   9.992  1.00  0.00     0.210 HD
ENDBRANCH  23  39
ENDBRANCH  22  23
ENDBRANCH   1  22
BRANCH   7  41
HETATM   41  O3  UNL     1      -7.151   4.498  16.086  1.00  0.00    -0.363 OA
HETATM   42  H21 UNL     1      -7.783   3.818  15.804  1.00  0.00     0.213 HD
ENDBRANCH   7  41
BRANCH  19  43
HETATM   43  O8  UNL     1      -7.684   8.456  14.100  1.00  0.00    -0.392 OA
HETATM   44  H35 UNL     1      -7.237   8.006  13.357  1.00  0.00     0.210 HD
ENDBRANCH  19  43
BRANCH  18  45
HETATM   45  O7  UNL     1      -7.123   6.748  17.294  1.00  0.00    -0.387 OA
HETATM   46  H33 UNL     1      -7.020   5.784  17.451  1.00  0.00     0.210 HD
ENDBRANCH  18  45
TORSDOF 15
ENDMDL
MODEL 6
REMARK minimizedAffinity -9.25003433
REMARK CNNscore 0.273071319
REMARK CNNaffinity 6.73348761
REMARK  15 active torsions:
REMARK  status: ('A' for Active; 'I' for Inactive)
REMARK    1  A    between atoms: C2_2  and  C26_34 
REMARK    2  A    between atoms: C3_3  and  C4_4 
REMARK    3  A    between atoms: C5_5  and  C6_6 
REMARK    4  A    between atoms: C6_6  and  C7_7 
REMARK    5  A    between atoms: C7_7  and  O1_8 
REMARK    6  A    between atoms: C7_7  and  C8_9 
REMARK    7  A    between atoms: C8_9  and  C9_10 
REMARK    8  A    between atoms: C14_16  and  O3_17 
REMARK    9  A    between atoms: C22_28  and  O7_29 
REMARK   10  A    between atoms: C23_30  and  O8_31 
REMARK   11  A    between atoms: C26_34  and  C27_35 
REMARK   12  A    between atoms: C28_36  and  C29_37 
REMARK   13  A    between atoms: C30_38  and  C31_39 
REMARK   14  A    between atoms: C31_39  and  C32_40 
REMARK   15  A    between atoms: C32_40  and  O9_41 
ROOT
HETATM    1  C9  UNL     1      -9.233   7.273  14.571  1.00  0.00     0.134 C 
HETATM    2  C10 UNL     1      -8.658   8.029  15.781  1.00  0.00     0.033 C 
HETATM    3  C11 UNL     1      -7.126   7.998  15.868  1.00  0.00     0.005 C 
HETATM    4  C12 UNL     1      -6.428   8.773  14.743  1.00  0.00     0.032 C 
HETATM    5  C13 UNL     1      -4.902   8.564  14.668  1.00  0.00     0.131 C 
HETATM    6  O2  UNL     1      -4.667   7.211  14.262  1.00  0.00    -0.347 OA
HETATM    7  C14 UNL     1      -3.332   6.936  13.849  1.00  0.00     0.191 C 
HETATM    8  C15 UNL     1      -3.081   5.436  14.161  1.00  0.00     0.074 C 
HETATM    9  C16 UNL     1      -3.735   4.379  13.246  1.00  0.00     0.037 C 
HETATM   10  C17 UNL     1      -5.237   4.522  13.015  1.00  0.00     0.122 C 
HETATM   11  C18 UNL     1      -5.810   3.396  12.161  1.00  0.00     0.035 C 
HETATM   12  C19 UNL     1      -7.231   3.228  12.666  1.00  0.00     0.045 C 
HETATM   13  C20 UNL     1      -7.326   4.159  13.870  1.00  0.00     0.221 C 
HETATM   14  O4  UNL     1      -5.969   4.446  14.244  1.00  0.00    -0.371 OA
HETATM   15  C21 UNL     1      -8.105   5.437  13.524  1.00  0.00     0.288 C 
HETATM   16  O5  UNL     1      -8.155   5.941  12.411  1.00  0.00    -0.262 OA
HETATM   17  O6  UNL     1      -8.714   5.927  14.640  1.00  0.00    -0.314 OA
HETATM   18  C22 UNL     1      -2.277   7.855  14.551  1.00  0.00     0.209 C 
HETATM   19  C23 UNL     1      -2.713   8.255  15.962  1.00  0.00     0.158 C 
HETATM   20  C24 UNL     1      -4.153   8.828  15.996  1.00  0.00     0.042 C 
HETATM   21  C25 UNL     1      -4.147  10.326  16.324  1.00  0.00     0.015 C 
ENDROOT
BRANCH   1  22
HETATM   22  C8  UNL     1     -10.770   7.233  14.646  1.00  0.00     0.064 C 
BRANCH  22  23
HETATM   23  C7  UNL     1     -11.408   7.439  13.269  1.00  0.00     0.124 C 
BRANCH  23  24
HETATM   24  C6  UNL     1     -12.867   6.949  13.185  1.00  0.00     0.059 C 
BRANCH  24  25
HETATM   25  C5  UNL     1     -13.469   6.552  14.511  1.00  0.00    -0.024 C 
HETATM   26  C4  UNL     1     -14.707   6.097  14.760  1.00  0.00    -0.004 C 
BRANCH  26  27
HETATM   27  C3  UNL     1     -15.745   5.837  13.788  1.00  0.00     0.002 C 
HETATM   28  C2  UNL     1     -16.605   4.798  13.787  1.00  0.00    -0.080 C 
HETATM   29  C1  UNL     1     -17.639   4.672  12.693  1.00  0.00     0.043 C 
BRANCH  28  30
HETATM   30  C26 UNL     1     -16.643   3.676  14.809  1.00  0.00     0.060 C 
BRANCH  30  31
HETATM   31  C27 UNL     1     -15.281   3.059  14.985  1.00  0.00    -0.022 C 
HETATM   32  C28 UNL     1     -14.873   1.823  14.660  1.00  0.00    -0.004 C 
BRANCH  32  33
HETATM   33  C29 UNL     1     -15.673   0.812  14.010  1.00  0.00    -0.004 C 
HETATM   34  C30 UNL     1     -15.867  -0.448  14.433  1.00  0.00    -0.025 C 
BRANCH  34  35
HETATM   35  C31 UNL     1     -15.362  -1.106  15.691  1.00  0.00     0.053 C 
BRANCH  35  36
HETATM   36  C32 UNL     1     -14.866  -2.534  15.435  1.00  0.00     0.168 C 
BRANCH  36  37
HETATM   37  O9  UNL     1     -13.445  -2.607  15.370  1.00  0.00    -0.401 OA
HETATM   38  H50 UNL     1     -13.129  -1.824  14.887  1.00  0.00     0.209 HD
ENDBRANCH  36  37
ENDBRANCH  35  36
ENDBRANCH  34  35
ENDBRANCH  32  33
ENDBRANCH  30  31
ENDBRANCH  28  30
ENDBRANCH  26  27
ENDBRANCH  24  25
ENDBRANCH  23  24
BRANCH  23  39
HETATM   39  O1  UNL     1     -11.334   8.829  12.943  1.00  0.00    -0.395 OA
HETATM   40  H10 UNL     1     -11.786   8.958  12.093  1.00  0.00     0.210 HD
ENDBRANCH  23  39
ENDBRANCH  22  23
ENDBRANCH   1  22
BRANCH   7  41
HETATM   41  O3  UNL     1      -3.214   7.208  12.444  1.00  0.00    -0.363 OA
HETATM   42  H21 UNL     1      -2.986   6.380  11.993  1.00  0.00     0.213 HD
ENDBRANCH   7  41
BRANCH  19  43
HETATM   43  O8  UNL     1      -2.592   7.140  16.861  1.00  0.00    -0.392 OA
HETATM   44  H35 UNL     1      -3.429   6.636  16.848  1.00  0.00     0.210 HD
ENDBRANCH  19  43
BRANCH  18  45
HETATM   45  O7  UNL     1      -2.089   9.068  13.784  1.00  0.00    -0.387 OA
HETATM   46  H33 UNL     1      -2.365   8.829  12.872  1.00  0.00     0.210 HD
ENDBRANCH  18  45
TORSDOF 15
ENDMDL
MODEL 7
REMARK minimizedAffinity -7.8671813
REMARK CNNscore 0.239370927
REMARK CNNaffinity 6.80783129
REMARK  15 active torsions:
REMARK  status: ('A' for Active; 'I' for Inactive)
REMARK    1  A    between atoms: C2_2  and  C26_34 
REMARK    2  A    between atoms: C3_3  and  C4_4 
REMARK    3  A    between atoms: C5_5  and  C6_6 
REMARK    4  A    between atoms: C6_6  and  C7_7 
REMARK    5  A    between atoms: C7_7  and  O1_8 
REMARK    6  A    between atoms: C7_7  and  C8_9 
REMARK    7  A    between atoms: C8_9  and  C9_10 
REMARK    8  A    between atoms: C14_16  and  O3_17 
REMARK    9  A    between atoms: C22_28  and  O7_29 
REMARK   10  A    between atoms: C23_30  and  O8_31 
REMARK   11  A    between atoms: C26_34  and  C27_35 
REMARK   12  A    between atoms: C28_36  and  C29_37 
REMARK   13  A    between atoms: C30_38  and  C31_39 
REMARK   14  A    between atoms: C31_39  and  C32_40 
REMARK   15  A    between atoms: C32_40  and  O9_41 
ROOT
HETATM    1  C9  UNL     1      -5.534   5.252  13.964  1.00  0.00     0.134 C 
HETATM    2  C10 UNL     1      -4.914   4.551  12.744  1.00  0.00     0.033 C 
HETATM    3  C11 UNL     1      -3.515   5.062  12.371  1.00  0.00     0.005 C 
HETATM    4  C12 UNL     1      -2.440   4.731  13.415  1.00  0.00     0.032 C 
HETATM    5  C13 UNL     1      -1.085   5.431  13.185  1.00  0.00     0.131 C 
HETATM    6  O2  UNL     1      -1.274   6.832  13.414  1.00  0.00    -0.347 OA
HETATM    7  C14 UNL     1      -0.070   7.582  13.546  1.00  0.00     0.191 C 
HETATM    8  C15 UNL     1      -0.398   9.018  13.055  1.00  0.00     0.074 C 
HETATM    9  C16 UNL     1      -1.237   9.931  13.974  1.00  0.00     0.037 C 
HETATM   10  C17 UNL     1      -2.549   9.347  14.492  1.00  0.00     0.122 C 
HETATM   11  C18 UNL     1      -3.345  10.341  15.329  1.00  0.00     0.035 C 
HETATM   12  C19 UNL     1      -4.794   9.963  15.082  1.00  0.00     0.045 C 
HETATM   13  C20 UNL     1      -4.735   8.883  14.009  1.00  0.00     0.221 C 
HETATM   14  O4  UNL     1      -3.430   8.997  13.418  1.00  0.00    -0.371 OA
HETATM   15  C21 UNL     1      -4.969   7.489  14.609  1.00  0.00     0.288 C 
HETATM   16  O5  UNL     1      -4.682   7.168  15.755  1.00  0.00    -0.262 OA
HETATM   17  O6  UNL     1      -5.526   6.667  13.676  1.00  0.00    -0.314 OA
HETATM   18  C22 UNL     1       1.124   6.959  12.748  1.00  0.00     0.209 C 
HETATM   19  C23 UNL     1       0.655   6.234  11.485  1.00  0.00     0.158 C 
HETATM   20  C24 UNL     1      -0.489   5.228  11.772  1.00  0.00     0.042 C 
HETATM   21  C25 UNL     1      -0.016   3.781  11.589  1.00  0.00     0.015 C 
ENDROOT
BRANCH   1  22
HETATM   22  C8  UNL     1      -6.985   4.782  14.172  1.00  0.00     0.064 C 
BRANCH  22  23
HETATM   23  C7  UNL     1      -7.557   5.286  15.501  1.00  0.00     0.124 C 
BRANCH  23  24
HETATM   24  C6  UNL     1      -8.597   6.412  15.337  1.00  0.00     0.059 C 
BRANCH  24  25
HETATM   25  C5  UNL     1      -9.085   6.611  13.923  1.00  0.00    -0.024 C 
HETATM   26  C4  UNL     1     -10.344   6.788  13.493  1.00  0.00    -0.004 C 
BRANCH  26  27
HETATM   27  C3  UNL     1     -11.533   6.874  14.312  1.00  0.00     0.002 C 
HETATM   28  C2  UNL     1     -12.306   7.963  14.496  1.00  0.00    -0.080 C 
HETATM   29  C1  UNL     1     -13.524   7.885  15.386  1.00  0.00     0.043 C 
BRANCH  28  30
HETATM   30  C26 UNL     1     -12.071   9.332  13.885  1.00  0.00     0.060 C 
BRANCH  30  31
HETATM   31  C27 UNL     1     -10.742   9.894  14.314  1.00  0.00    -0.022 C 
HETATM   32  C28 UNL     1     -10.386  10.384  15.512  1.00  0.00    -0.004 C 
BRANCH  32  33
HETATM   33  C29 UNL     1     -11.222  10.431  16.688  1.00  0.00    -0.004 C 
HETATM   34  C30 UNL     1     -11.105  11.286  17.717  1.00  0.00    -0.025 C 
BRANCH  34  35
HETATM   35  C31 UNL     1     -10.135  12.426  17.888  1.00  0.00     0.053 C 
BRANCH  35  36
HETATM   36  C32 UNL     1      -9.994  12.847  19.355  1.00  0.00     0.168 C 
BRANCH  36  37
HETATM   37  O9  UNL     1      -9.907  14.261  19.503  1.00  0.00    -0.401 OA
HETATM   38  H50 UNL     1      -9.353  14.602  18.781  1.00  0.00     0.209 HD
ENDBRANCH  36  37
ENDBRANCH  35  36
ENDBRANCH  34  35
ENDBRANCH  32  33
ENDBRANCH  30  31
ENDBRANCH  28  30
ENDBRANCH  26  27
ENDBRANCH  24  25
ENDBRANCH  23  24
BRANCH  23  39
HETATM   39  O1  UNL     1      -8.134   4.175  16.191  1.00  0.00    -0.395 OA
HETATM   40  H10 UNL     1      -8.540   4.513  17.008  1.00  0.00     0.210 HD
ENDBRANCH  23  39
ENDBRANCH  22  23
ENDBRANCH   1  22
BRANCH   7  41
HETATM   41  O3  UNL     1       0.334   7.576  14.923  1.00  0.00    -0.363 OA
HETATM   42  H21 UNL     1       0.326   8.491  15.246  1.00  0.00     0.213 HD
ENDBRANCH   7  41
BRANCH  19  43
HETATM   43  O8  UNL     1       0.255   7.180  10.481  1.00  0.00    -0.392 OA
HETATM   44  H35 UNL     1      -0.693   7.383  10.602  1.00  0.00     0.210 HD
ENDBRANCH  19  43
BRANCH  18  45
HETATM   45  O7  UNL     1       1.826   6.001  13.576  1.00  0.00    -0.387 OA
HETATM   46  H33 UNL     1       1.618   6.271  14.497  1.00  0.00     0.210 HD
ENDBRANCH  18  45
TORSDOF 15
ENDMDL
MODEL 8
REMARK minimizedAffinity -7.89882135
REMARK CNNscore 0.23033917
REMARK CNNaffinity 6.45936966
REMARK  15 active torsions:
REMARK  status: ('A' for Active; 'I' for Inactive)
REMARK    1  A    between atoms: C2_2  and  C26_34 
REMARK    2  A    between atoms: C3_3  and  C4_4 
REMARK    3  A    between atoms: C5_5  and  C6_6 
REMARK    4  A    between atoms: C6_6  and  C7_7 
REMARK    5  A    between atoms: C7_7  and  O1_8 
REMARK    6  A    between atoms: C7_7  and  C8_9 
REMARK    7  A    between atoms: C8_9  and  C9_10 
REMARK    8  A    between atoms: C14_16  and  O3_17 
REMARK    9  A    between atoms: C22_28  and  O7_29 
REMARK   10  A    between atoms: C23_30  and  O8_31 
REMARK   11  A    between atoms: C26_34  and  C27_35 
REMARK   12  A    between atoms: C28_36  and  C29_37 
REMARK   13  A    between atoms: C30_38  and  C31_39 
REMARK   14  A    between atoms: C31_39  and  C32_40 
REMARK   15  A    between atoms: C32_40  and  O9_41 
ROOT
HETATM    1  C9  UNL     1      -6.072   4.466  13.713  1.00  0.00     0.134 C 
HETATM    2  C10 UNL     1      -5.312   3.897  12.502  1.00  0.00     0.033 C 
HETATM    3  C11 UNL     1      -3.934   4.533  12.271  1.00  0.00     0.005 C 
HETATM    4  C12 UNL     1      -2.915   4.211  13.372  1.00  0.00     0.032 C 
HETATM    5  C13 UNL     1      -1.605   5.023  13.292  1.00  0.00     0.131 C 
HETATM    6  O2  UNL     1      -1.919   6.387  13.592  1.00  0.00    -0.347 OA
HETATM    7  C14 UNL     1      -0.790   7.212  13.863  1.00  0.00     0.191 C 
HETATM    8  C15 UNL     1      -1.193   8.651  13.439  1.00  0.00     0.074 C 
HETATM    9  C16 UNL     1      -2.165   9.436  14.345  1.00  0.00     0.037 C 
HETATM   10  C17 UNL     1      -3.461   8.723  14.723  1.00  0.00     0.122 C 
HETATM   11  C18 UNL     1      -4.390   9.597  15.557  1.00  0.00     0.035 C 
HETATM   12  C19 UNL     1      -5.784   9.132  15.176  1.00  0.00     0.045 C 
HETATM   13  C20 UNL     1      -5.564   8.135  14.045  1.00  0.00     0.221 C 
HETATM   14  O4  UNL     1      -4.233   8.384  13.565  1.00  0.00    -0.371 OA
HETATM   15  C21 UNL     1      -5.730   6.689  14.538  1.00  0.00     0.288 C 
HETATM   16  O5  UNL     1      -5.503   6.313  15.679  1.00  0.00    -0.262 OA
HETATM   17  O6  UNL     1      -6.153   5.895  13.514  1.00  0.00    -0.314 OA
HETATM   18  C22 UNL     1       0.503   6.734  13.122  1.00  0.00     0.209 C 
HETATM   19  C23 UNL     1       0.184   6.065  11.784  1.00  0.00     0.158 C 
HETATM   20  C24 UNL     1      -0.895   4.960  11.918  1.00  0.00     0.042 C 
HETATM   21  C25 UNL     1      -0.299   3.568  11.682  1.00  0.00     0.015 C 
ENDROOT
BRANCH   1  22
HETATM   22  C8  UNL     1      -7.492   3.878  13.778  1.00  0.00     0.064 C 
BRANCH  22  23
HETATM   23  C7  UNL     1      -8.421   4.528  12.747  1.00  0.00     0.124 C 
BRANCH  23  24
HETATM   24  C6  UNL     1      -9.100   5.816  13.253  1.00  0.00     0.059 C 
BRANCH  24  25
HETATM   25  C5  UNL     1      -9.922   6.538  12.215  1.00  0.00    -0.024 C 
HETATM   26  C4  UNL     1     -10.885   7.454  12.404  1.00  0.00    -0.004 C 
BRANCH  26  27
HETATM   27  C3  UNL     1     -11.325   7.997  13.670  1.00  0.00     0.002 C 
HETATM   28  C2  UNL     1     -12.556   7.885  14.209  1.00  0.00    -0.080 C 
HETATM   29  C1  UNL     1     -12.856   8.513  15.549  1.00  0.00     0.043 C 
BRANCH  28  30
HETATM   30  C26 UNL     1     -13.739   7.172  13.580  1.00  0.00     0.060 C 
BRANCH  30  31
HETATM   31  C27 UNL     1     -13.931   5.807  14.185  1.00  0.00    -0.022 C 
HETATM   32  C28 UNL     1     -14.970   5.345  14.897  1.00  0.00    -0.004 C 
BRANCH  32  33
HETATM   33  C29 UNL     1     -16.179   6.075  15.200  1.00  0.00    -0.004 C 
HETATM   34  C30 UNL     1     -16.436   6.760  16.326  1.00  0.00    -0.025 C 
BRANCH  34  35
HETATM   35  C31 UNL     1     -15.539   6.992  17.513  1.00  0.00     0.053 C 
BRANCH  35  36
HETATM   36  C32 UNL     1     -15.979   8.204  18.341  1.00  0.00     0.168 C 
BRANCH  36  37
HETATM   37  O9  UNL     1     -16.386   7.839  19.656  1.00  0.00    -0.401 OA
HETATM   38  H50 UNL     1     -16.890   7.010  19.592  1.00  0.00     0.209 HD
ENDBRANCH  36  37
ENDBRANCH  35  36
ENDBRANCH  34  35
ENDBRANCH  32  33
ENDBRANCH  30  31
ENDBRANCH  28  30
ENDBRANCH  26  27
ENDBRANCH  24  25
ENDBRANCH  23  24
BRANCH  23  39
HETATM   39  O1  UNL     1      -7.661   4.801  11.568  1.00  0.00    -0.395 OA
HETATM   40  H10 UNL     1      -8.244   5.259  10.939  1.00  0.00     0.210 HD
ENDBRANCH  23  39
ENDBRANCH  22  23
ENDBRANCH   1  22
BRANCH   7  41
HETATM   41  O3  UNL     1      -0.488   7.143  15.264  1.00  0.00    -0.363 OA
HETATM   42  H21 UNL     1      -0.590   8.031  15.641  1.00  0.00     0.213 HD
ENDBRANCH   7  41
BRANCH  19  43
HETATM   43  O8  UNL     1      -0.215   7.045  10.813  1.00  0.00    -0.392 OA
HETATM   44  H35 UNL     1      -1.182   7.169  10.873  1.00  0.00     0.210 HD
ENDBRANCH  19  43
BRANCH  18  45
HETATM   45  O7  UNL     1       1.217   5.776  13.940  1.00  0.00    -0.387 OA
HETATM   46  H33 UNL     1       0.922   5.968  14.857  1.00  0.00     0.210 HD
ENDBRANCH  18  45
TORSDOF 15
ENDMDL
MODEL 9
REMARK minimizedAffinity -7.96176863
REMARK CNNscore 0.211576402
REMARK CNNaffinity 6.45915222
REMARK  15 active torsions:
REMARK  status: ('A' for Active; 'I' for Inactive)
REMARK    1  A    between atoms: C2_2  and  C26_34 
REMARK    2  A    between atoms: C3_3  and  C4_4 
REMARK    3  A    between atoms: C5_5  and  C6_6 
REMARK    4  A    between atoms: C6_6  and  C7_7 
REMARK    5  A    between atoms: C7_7  and  O1_8 
REMARK    6  A    between atoms: C7_7  and  C8_9 
REMARK    7  A    between atoms: C8_9  and  C9_10 
REMARK    8  A    between atoms: C14_16  and  O3_17 
REMARK    9  A    between atoms: C22_28  and  O7_29 
REMARK   10  A    between atoms: C23_30  and  O8_31 
REMARK   11  A    between atoms: C26_34  and  C27_35 
REMARK   12  A    between atoms: C28_36  and  C29_37 
REMARK   13  A    between atoms: C30_38  and  C31_39 
REMARK   14  A    between atoms: C31_39  and  C32_40 
REMARK   15  A    between atoms: C32_40  and  O9_41 
ROOT
HETATM    1  C9  UNL     1      -9.246   7.418  14.640  1.00  0.00     0.134 C 
HETATM    2  C10 UNL     1      -8.646   8.150  15.852  1.00  0.00     0.033 C 
HETATM    3  C11 UNL     1      -7.113   8.099  15.920  1.00  0.00     0.005 C 
HETATM    4  C12 UNL     1      -6.420   8.880  14.796  1.00  0.00     0.032 C 
HETATM    5  C13 UNL     1      -4.897   8.652  14.700  1.00  0.00     0.131 C 
HETATM    6  O2  UNL     1      -4.686   7.302  14.273  1.00  0.00    -0.347 OA
HETATM    7  C14 UNL     1      -3.359   7.016  13.839  1.00  0.00     0.191 C 
HETATM    8  C15 UNL     1      -3.124   5.508  14.128  1.00  0.00     0.074 C 
HETATM    9  C16 UNL     1      -3.803   4.472  13.208  1.00  0.00     0.037 C 
HETATM   10  C17 UNL     1      -5.305   4.637  12.998  1.00  0.00     0.122 C 
HETATM   11  C18 UNL     1      -5.903   3.530  12.137  1.00  0.00     0.035 C 
HETATM   12  C19 UNL     1      -7.320   3.374  12.658  1.00  0.00     0.045 C 
HETATM   13  C20 UNL     1      -7.388   4.289  13.874  1.00  0.00     0.221 C 
HETATM   14  O4  UNL     1      -6.023   4.555  14.235  1.00  0.00    -0.371 OA
HETATM   15  C21 UNL     1      -8.154   5.581  13.556  1.00  0.00     0.288 C 
HETATM   16  O5  UNL     1      -8.212   6.101  12.449  1.00  0.00    -0.262 OA
HETATM   17  O6  UNL     1      -8.743   6.064  14.686  1.00  0.00    -0.314 OA
HETATM   18  C22 UNL     1      -2.284   7.912  14.540  1.00  0.00     0.209 C 
HETATM   19  C23 UNL     1      -2.697   8.298  15.961  1.00  0.00     0.158 C 
HETATM   20  C24 UNL     1      -4.129   8.889  16.022  1.00  0.00     0.042 C 
HETATM   21  C25 UNL     1      -4.100  10.383  16.368  1.00  0.00     0.015 C 
ENDROOT
BRANCH   1  22
HETATM   22  C8  UNL     1     -10.782   7.396  14.734  1.00  0.00     0.064 C 
BRANCH  22  23
HETATM   23  C7  UNL     1     -11.431   7.306  13.349  1.00  0.00     0.124 C 
BRANCH  23  24
HETATM   24  C6  UNL     1     -12.810   6.617  13.358  1.00  0.00     0.059 C 
BRANCH  24  25
HETATM   25  C5  UNL     1     -13.695   7.006  14.516  1.00  0.00    -0.024 C 
HETATM   26  C4  UNL     1     -14.638   6.271  15.127  1.00  0.00    -0.004 C 
BRANCH  26  27
HETATM   27  C3  UNL     1     -14.990   4.900  14.835  1.00  0.00     0.002 C 
HETATM   28  C2  UNL     1     -16.221   4.428  14.552  1.00  0.00    -0.080 C 
HETATM   29  C1  UNL     1     -16.421   2.959  14.265  1.00  0.00     0.043 C 
BRANCH  28  30
HETATM   30  C26 UNL     1     -17.496   5.250  14.497  1.00  0.00     0.060 C 
BRANCH  30  31
HETATM   31  C27 UNL     1     -17.889   5.545  13.074  1.00  0.00    -0.022 C 
HETATM   32  C28 UNL     1     -17.606   6.629  12.335  1.00  0.00    -0.004 C 
BRANCH  32  33
HETATM   33  C29 UNL     1     -16.801   7.752  12.753  1.00  0.00    -0.004 C 
HETATM   34  C30 UNL     1     -16.665   8.921  12.107  1.00  0.00    -0.025 C 
BRANCH  34  35
HETATM   35  C31 UNL     1     -17.339   9.381  10.841  1.00  0.00     0.053 C 
BRANCH  35  36
HETATM   36  C32 UNL     1     -18.867   9.294  10.937  1.00  0.00     0.168 C 
BRANCH  36  37
HETATM   37  O9  UNL     1     -19.429   8.512   9.888  1.00  0.00    -0.401 OA
HETATM   38  H50 UNL     1     -18.944   8.719   9.071  1.00  0.00     0.209 HD
ENDBRANCH  36  37
ENDBRANCH  35  36
ENDBRANCH  34  35
ENDBRANCH  32  33
ENDBRANCH  30  31
ENDBRANCH  28  30
ENDBRANCH  26  27
ENDBRANCH  24  25
ENDBRANCH  23  24
BRANCH  23  39
HETATM   39  O1  UNL     1     -11.543   8.629  12.820  1.00  0.00    -0.395 OA
HETATM   40  H10 UNL     1     -12.002   8.568  11.965  1.00  0.00     0.210 HD
ENDBRANCH  23  39
ENDBRANCH  22  23
ENDBRANCH   1  22
BRANCH   7  41
HETATM   41  O3  UNL     1      -3.256   7.304  12.437  1.00  0.00    -0.363 OA
HETATM   42  H21 UNL     1      -3.043   6.479  11.972  1.00  0.00     0.213 HD
ENDBRANCH   7  41
BRANCH  19  43
HETATM   43  O8  UNL     1      -2.579   7.171  16.844  1.00  0.00    -0.392 OA
HETATM   44  H35 UNL     1      -3.422   6.677  16.835  1.00  0.00     0.210 HD
ENDBRANCH  19  43
BRANCH  18  45
HETATM   45  O7  UNL     1      -2.089   9.133  13.786  1.00  0.00    -0.387 OA
HETATM   46  H33 UNL     1      -2.380   8.909  12.875  1.00  0.00     0.210 HD
ENDBRANCH  18  45
TORSDOF 15
ENDMDL
