MODEL 1
REMARK minimizedAffinity -8.86545753
REMARK CNNscore 0.568660855
REMARK CNNaffinity 7.58743525
REMARK  11 active torsions:
REMARK  status: ('A' for Active; 'I' for Inactive)
REMARK    1  A    between atoms: C2_2  and  C4_4 
REMARK    2  A    between atoms: C4_4  and  C6_6 
REMARK    3  A    between atoms: C7_8  and  C8_9 
REMARK    4  A    between atoms: C8_9  and  O2_10 
REMARK    5  A    between atoms: C25_28  and  O4_29 
REMARK    6  A    between atoms: C26_30  and  O5_31 
REMARK    7  A    between atoms: C27_32  and  O6_33 
REMARK    8  A    between atoms: C31_37  and  C32_38 
REMARK    9  A    between atoms: C32_38  and  C33_39 
REMARK   10  A    between atoms: C33_39  and  C34_40 
REMARK   11  A    between atoms: C38_44  and  O7_45 
ROOT
HETATM    1  C8  UNL     1       3.136   9.882  14.632  1.00  0.00     0.094 C 
HETATM    2  C9  UNL     1       3.823   8.485  14.667  1.00  0.00     0.067 C 
HETATM    3  C10 UNL     1       3.376   7.403  13.720  1.00  0.00    -0.027 C 
HETATM    4  C11 UNL     1       2.141   6.900  13.579  1.00  0.00    -0.025 C 
HETATM    5  C12 UNL     1       0.907   7.384  14.301  1.00  0.00     0.021 C 
HETATM    6  C13 UNL     1      -0.324   6.511  13.904  1.00  0.00     0.019 C 
HETATM    7  C14 UNL     1      -1.647   6.969  14.573  1.00  0.00     0.028 C 
HETATM    8  C15 UNL     1      -1.846   8.474  14.349  1.00  0.00    -0.037 C 
HETATM    9  C16 UNL     1      -2.921   9.007  13.749  1.00  0.00     0.057 C 
HETATM   10  C17 UNL     1      -3.947   8.152  13.114  1.00  0.00     0.155 C 
HETATM   11  O3  UNL     1      -4.956   8.682  12.660  1.00  0.00    -0.293 OA
HETATM   12  C18 UNL     1      -3.674   6.657  13.015  1.00  0.00     0.075 C 
HETATM   13  C19 UNL     1      -4.967   5.842  12.789  1.00  0.00     0.029 C 
HETATM   14  C20 UNL     1      -4.597   4.370  12.511  1.00  0.00     0.008 C 
HETATM   15  C21 UNL     1      -3.779   3.750  13.635  1.00  0.00     0.001 C 
HETATM   16  C22 UNL     1      -2.579   4.626  13.999  1.00  0.00     0.011 C 
HETATM   17  C23 UNL     1      -2.943   6.119  14.265  1.00  0.00    -0.019 C 
HETATM   18  C24 UNL     1      -3.893   6.164  15.517  1.00  0.00     0.045 C 
HETATM   19  C25 UNL     1      -5.353   6.553  15.262  1.00  0.00     0.148 C 
HETATM   20  C26 UNL     1      -5.972   6.028  13.952  1.00  0.00     0.151 C 
HETATM   21  C27 UNL     1      -0.688   9.291  14.855  1.00  0.00     0.090 C 
HETATM   22  C28 UNL     1      -0.637  10.822  14.818  1.00  0.00     0.044 C 
HETATM   23  C29 UNL     1       0.858  11.142  15.070  1.00  0.00     0.012 C 
HETATM   24  C30 UNL     1       1.627   9.786  14.989  1.00  0.00     0.035 C 
HETATM   25  C31 UNL     1       0.650   8.908  14.125  1.00  0.00     0.009 C 
ENDROOT
BRANCH   1  26
HETATM   26  C7  UNL     1       3.796  10.874  15.600  1.00  0.00     0.186 A 
HETATM   27  C6  UNL     1       3.608  10.850  17.110  1.00  0.00     0.158 A 
HETATM   28  O1  UNL     1       4.778  10.298  16.477  1.00  0.00    -0.372 OA
BRANCH  27  29
HETATM   29  C4  UNL     1       3.904  11.991  18.064  1.00  0.00     0.017 C 
HETATM   30  C5  UNL     1       4.743  11.552  19.270  1.00  0.00     0.013 C 
BRANCH  29  31
HETATM   31  C2  UNL     1       2.594  12.728  18.489  1.00  0.00    -0.016 C 
HETATM   32  C1  UNL     1       2.362  14.009  17.671  1.00  0.00     0.010 C 
HETATM   33  C3  UNL     1       2.585  13.097  19.977  1.00  0.00     0.010 C 
ENDBRANCH  29  31
ENDBRANCH  27  29
ENDBRANCH   1  26
BRANCH   1  34
HETATM   34  O2  UNL     1       3.306  10.442  13.326  1.00  0.00    -0.386 OA
HETATM   35  H14 UNL     1       4.212  10.812  13.290  1.00  0.00     0.210 HD
ENDBRANCH   1  34
BRANCH  25  36
HETATM   36  C32 UNL     1       0.747   9.367  12.602  1.00  0.00     0.018 C 
BRANCH  36  37
HETATM   37  C33 UNL     1      -0.069   8.671  11.510  1.00  0.00     0.039 C 
BRANCH  37  38
HETATM   38  C34 UNL     1       0.785   8.341  10.302  1.00  0.00    -0.056 A 
HETATM   39  C35 UNL     1       0.236   8.357   9.013  1.00  0.00     0.007 A 
HETATM   40  C36 UNL     1       1.022   8.035   7.904  1.00  0.00     0.003 A 
HETATM   41  C37 UNL     1       2.366   7.700   8.072  1.00  0.00     0.036 A 
HETATM   42  C38 UNL     1       2.910   7.678   9.351  1.00  0.00     0.066 A 
HETATM   43  C39 UNL     1       2.133   7.990  10.463  1.00  0.00     0.043 A 
BRANCH  42  44
HETATM   44  O7  UNL     1       4.216   7.353   9.564  1.00  0.00    -0.361 OA
HETATM   45  H51 UNL     1       4.622   7.131   8.710  1.00  0.00     0.217 HD
ENDBRANCH  42  44
ENDBRANCH  37  38
ENDBRANCH  36  37
ENDBRANCH  25  36
BRANCH  21  46
HETATM   46  O6  UNL     1      -0.621   8.952  16.259  1.00  0.00    -0.384 OA
HETATM   47  H38 UNL     1      -1.458   9.241  16.664  1.00  0.00     0.211 HD
ENDBRANCH  21  46
BRANCH  19  48
HETATM   48  O4  UNL     1      -6.146   6.132  16.379  1.00  0.00    -0.393 OA
HETATM   49  H35 UNL     1      -6.217   5.166  16.301  1.00  0.00     0.210 HD
ENDBRANCH  19  48
BRANCH  20  50
HETATM   50  O5  UNL     1      -6.710   4.827  14.216  1.00  0.00    -0.393 OA
HETATM   51  H37 UNL     1      -7.529   5.114  14.661  1.00  0.00     0.210 HD
ENDBRANCH  20  50
TORSDOF 11
ENDMDL
MODEL 2
REMARK minimizedAffinity -10.5762873
REMARK CNNscore 0.550181746
REMARK CNNaffinity 7.28310156
REMARK  11 active torsions:
REMARK  status: ('A' for Active; 'I' for Inactive)
REMARK    1  A    between atoms: C2_2  and  C4_4 
REMARK    2  A    between atoms: C4_4  and  C6_6 
REMARK    3  A    between atoms: C7_8  and  C8_9 
REMARK    4  A    between atoms: C8_9  and  O2_10 
REMARK    5  A    between atoms: C25_28  and  O4_29 
REMARK    6  A    between atoms: C26_30  and  O5_31 
REMARK    7  A    between atoms: C27_32  and  O6_33 
REMARK    8  A    between atoms: C31_37  and  C32_38 
REMARK    9  A    between atoms: C32_38  and  C33_39 
REMARK   10  A    between atoms: C33_39  and  C34_40 
REMARK   11  A    between atoms: C38_44  and  O7_45 
ROOT
HETATM    1  C8  UNL     1      -2.244   7.702  13.859  1.00  0.00     0.094 C 
HETATM    2  C9  UNL     1      -2.372   9.016  14.686  1.00  0.00     0.067 C 
HETATM    3  C10 UNL     1      -1.600  10.242  14.273  1.00  0.00    -0.027 C 
HETATM    4  C11 UNL     1      -0.274  10.356  14.113  1.00  0.00    -0.025 C 
HETATM    5  C12 UNL     1       0.727   9.234  14.239  1.00  0.00     0.021 C 
HETATM    6  C13 UNL     1       2.174   9.779  14.030  1.00  0.00     0.019 C 
HETATM    7  C14 UNL     1       3.265   8.678  14.104  1.00  0.00     0.028 C 
HETATM    8  C15 UNL     1       2.891   7.516  13.172  1.00  0.00    -0.037 C 
HETATM    9  C16 UNL     1       3.671   7.074  12.175  1.00  0.00     0.057 C 
HETATM   10  C17 UNL     1       4.911   7.787  11.799  1.00  0.00     0.155 C 
HETATM   11  O3  UNL     1       5.637   7.292  10.942  1.00  0.00    -0.293 OA
HETATM   12  C18 UNL     1       5.200   9.127  12.464  1.00  0.00     0.075 C 
HETATM   13  C19 UNL     1       6.691   9.520  12.362  1.00  0.00     0.029 C 
HETATM   14  C20 UNL     1       6.872  10.960  12.883  1.00  0.00     0.008 C 
HETATM   15  C21 UNL     1       6.384  11.130  14.315  1.00  0.00     0.001 C 
HETATM   16  C22 UNL     1       4.964  10.590  14.487  1.00  0.00     0.011 C 
HETATM   17  C23 UNL     1       4.768   9.140  13.947  1.00  0.00    -0.019 C 
HETATM   18  C24 UNL     1       5.687   8.186  14.793  1.00  0.00     0.045 C 
HETATM   19  C25 UNL     1       6.892   7.571  14.074  1.00  0.00     0.148 C 
HETATM   20  C26 UNL     1       7.605   8.481  13.055  1.00  0.00     0.151 C 
HETATM   21  C27 UNL     1       1.537   6.939  13.484  1.00  0.00     0.090 C 
HETATM   22  C28 UNL     1       0.929   5.735  12.757  1.00  0.00     0.044 C 
HETATM   23  C29 UNL     1      -0.568   5.789  13.155  1.00  0.00     0.012 C 
HETATM   24  C30 UNL     1      -0.792   7.153  13.880  1.00  0.00     0.035 C 
HETATM   25  C31 UNL     1       0.402   8.015  13.328  1.00  0.00     0.009 C 
ENDROOT
BRANCH   1  26
HETATM   26  C7  UNL     1      -3.181   6.602  14.379  1.00  0.00     0.186 A 
HETATM   27  C6  UNL     1      -4.391   6.078  13.621  1.00  0.00     0.158 A 
HETATM   28  O1  UNL     1      -3.136   5.371  13.639  1.00  0.00    -0.372 OA
BRANCH  27  29
HETATM   29  C4  UNL     1      -5.547   5.297  14.215  1.00  0.00     0.017 C 
HETATM   30  C5  UNL     1      -6.167   4.308  13.221  1.00  0.00     0.013 C 
BRANCH  29  31
HETATM   31  C2  UNL     1      -6.612   6.252  14.844  1.00  0.00    -0.016 C 
HETATM   32  C1  UNL     1      -7.015   5.812  16.261  1.00  0.00     0.010 C 
HETATM   33  C3  UNL     1      -7.881   6.357  13.991  1.00  0.00     0.010 C 
ENDBRANCH  29  31
ENDBRANCH  27  29
ENDBRANCH   1  26
BRANCH   1  34
HETATM   34  O2  UNL     1      -2.661   7.965  12.517  1.00  0.00    -0.386 OA
HETATM   35  H14 UNL     1      -3.641   7.951  12.513  1.00  0.00     0.210 HD
ENDBRANCH   1  34
BRANCH  25  36
HETATM   36  C32 UNL     1       0.081   8.448  11.828  1.00  0.00     0.018 C 
BRANCH  36  37
HETATM   37  C33 UNL     1      -0.307   7.413  10.770  1.00  0.00     0.039 C 
BRANCH  37  38
HETATM   38  C34 UNL     1       0.707   7.357   9.646  1.00  0.00    -0.056 A 
HETATM   39  C35 UNL     1       0.659   8.281   8.593  1.00  0.00     0.007 A 
HETATM   40  C36 UNL     1       1.586   8.215   7.550  1.00  0.00     0.003 A 
HETATM   41  C37 UNL     1       2.573   7.229   7.550  1.00  0.00     0.036 A 
HETATM   42  C38 UNL     1       2.616   6.308   8.591  1.00  0.00     0.066 A 
HETATM   43  C39 UNL     1       1.694   6.361   9.631  1.00  0.00     0.043 A 
BRANCH  42  44
HETATM   44  O7  UNL     1       3.560   5.325   8.632  1.00  0.00    -0.361 OA
HETATM   45  H51 UNL     1       4.109   5.391   7.834  1.00  0.00     0.217 HD
ENDBRANCH  42  44
ENDBRANCH  37  38
ENDBRANCH  36  37
ENDBRANCH  25  36
BRANCH  21  46
HETATM   46  O6  UNL     1       1.657   6.518  14.863  1.00  0.00    -0.384 OA
HETATM   47  H38 UNL     1       2.346   5.832  14.894  1.00  0.00     0.211 HD
ENDBRANCH  21  46
BRANCH  19  48
HETATM   48  O4  UNL     1       7.830   7.109  15.054  1.00  0.00    -0.393 OA
HETATM   49  H35 UNL     1       8.246   7.909  15.418  1.00  0.00     0.210 HD
ENDBRANCH  19  48
BRANCH  20  50
HETATM   50  O5  UNL     1       8.740   9.099  13.674  1.00  0.00    -0.393 OA
HETATM   51  H37 UNL     1       9.416   8.399  13.744  1.00  0.00     0.210 HD
ENDBRANCH  20  50
TORSDOF 11
ENDMDL
MODEL 3
REMARK minimizedAffinity -9.0223217
REMARK CNNscore 0.493773699
REMARK CNNaffinity 6.85379219
REMARK  11 active torsions:
REMARK  status: ('A' for Active; 'I' for Inactive)
REMARK    1  A    between atoms: C2_2  and  C4_4 
REMARK    2  A    between atoms: C4_4  and  C6_6 
REMARK    3  A    between atoms: C7_8  and  C8_9 
REMARK    4  A    between atoms: C8_9  and  O2_10 
REMARK    5  A    between atoms: C25_28  and  O4_29 
REMARK    6  A    between atoms: C26_30  and  O5_31 
REMARK    7  A    between atoms: C27_32  and  O6_33 
REMARK    8  A    between atoms: C31_37  and  C32_38 
REMARK    9  A    between atoms: C32_38  and  C33_39 
REMARK   10  A    between atoms: C33_39  and  C34_40 
REMARK   11  A    between atoms: C38_44  and  O7_45 
ROOT
HETATM    1  C8  UNL     1      -0.560   9.777  14.837  1.00  0.00     0.094 C 
HETATM    2  C9  UNL     1      -0.447  11.205  15.447  1.00  0.00     0.067 C 
HETATM    3  C10 UNL     1       0.581  12.170  14.917  1.00  0.00    -0.027 C 
HETATM    4  C11 UNL     1       1.908  11.990  14.843  1.00  0.00    -0.025 C 
HETATM    5  C12 UNL     1       2.646  10.725  15.210  1.00  0.00     0.021 C 
HETATM    6  C13 UNL     1       4.183  10.930  15.033  1.00  0.00     0.019 C 
HETATM    7  C14 UNL     1       5.016   9.660  15.352  1.00  0.00     0.028 C 
HETATM    8  C15 UNL     1       4.448   8.462  14.577  1.00  0.00    -0.037 C 
HETATM    9  C16 UNL     1       5.162   7.719  13.718  1.00  0.00     0.057 C 
HETATM   10  C17 UNL     1       6.538   8.100  13.336  1.00  0.00     0.155 C 
HETATM   11  O3  UNL     1       7.182   7.339  12.620  1.00  0.00    -0.293 OA
HETATM   12  C18 UNL     1       7.071   9.444  13.815  1.00  0.00     0.075 C 
HETATM   13  C19 UNL     1       8.614   9.511  13.770  1.00  0.00     0.029 C 
HETATM   14  C20 UNL     1       9.070  10.950  14.084  1.00  0.00     0.008 C 
HETATM   15  C21 UNL     1       8.565  11.442  15.434  1.00  0.00     0.001 C 
HETATM   16  C22 UNL     1       7.057  11.231  15.576  1.00  0.00     0.011 C 
HETATM   17  C23 UNL     1       6.587   9.782  15.243  1.00  0.00    -0.019 C 
HETATM   18  C24 UNL     1       7.248   8.812  16.288  1.00  0.00     0.045 C 
HETATM   19  C25 UNL     1       8.329   7.862  15.763  1.00  0.00     0.148 C 
HETATM   20  C26 UNL     1       9.261   8.435  14.676  1.00  0.00     0.151 C 
HETATM   21  C27 UNL     1       2.991   8.225  14.868  1.00  0.00     0.090 C 
HETATM   22  C28 UNL     1       2.178   7.065  14.283  1.00  0.00     0.044 C 
HETATM   23  C29 UNL     1       0.708   7.479  14.553  1.00  0.00     0.012 C 
HETATM   24  C30 UNL     1       0.743   8.959  15.049  1.00  0.00     0.035 C 
HETATM   25  C31 UNL     1       2.114   9.466  14.467  1.00  0.00     0.009 C 
ENDROOT
BRANCH   1  26
HETATM   26  C7  UNL     1      -1.728   8.983  15.442  1.00  0.00     0.186 A 
HETATM   27  C6  UNL     1      -2.574   7.983  14.669  1.00  0.00     0.158 A 
HETATM   28  O1  UNL     1      -1.507   7.567  15.542  1.00  0.00    -0.372 OA
BRANCH  27  29
HETATM   29  C4  UNL     1      -3.941   7.468  15.078  1.00  0.00     0.017 C 
HETATM   30  C5  UNL     1      -3.862   6.224  15.971  1.00  0.00     0.013 C 
BRANCH  29  31
HETATM   31  C2  UNL     1      -4.858   7.247  13.832  1.00  0.00    -0.016 C 
HETATM   32  C1  UNL     1      -6.345   7.174  14.218  1.00  0.00     0.010 C 
HETATM   33  C3  UNL     1      -4.498   5.974  13.057  1.00  0.00     0.010 C 
ENDBRANCH  29  31
ENDBRANCH  27  29
ENDBRANCH   1  26
BRANCH   1  34
HETATM   34  O2  UNL     1      -0.854   9.898  13.442  1.00  0.00    -0.386 OA
HETATM   35  H14 UNL     1      -1.813  10.079  13.366  1.00  0.00     0.210 HD
ENDBRANCH   1  34
BRANCH  25  36
HETATM   36  C32 UNL     1       1.957   9.707  12.900  1.00  0.00     0.018 C 
BRANCH  36  37
HETATM   37  C33 UNL     1       1.079   8.793  12.042  1.00  0.00     0.039 C 
BRANCH  37  38
HETATM   38  C34 UNL     1       1.857   8.202  10.883  1.00  0.00    -0.056 A 
HETATM   39  C35 UNL     1       1.230   7.947   9.656  1.00  0.00     0.007 A 
HETATM   40  C36 UNL     1       1.947   7.386   8.597  1.00  0.00     0.003 A 
HETATM   41  C37 UNL     1       3.299   7.078   8.751  1.00  0.00     0.036 A 
HETATM   42  C38 UNL     1       3.920   7.324   9.971  1.00  0.00     0.066 A 
HETATM   43  C39 UNL     1       3.213   7.877  11.034  1.00  0.00     0.043 A 
BRANCH  42  44
HETATM   44  O7  UNL     1       5.237   7.035  10.169  1.00  0.00    -0.361 OA
HETATM   45  H51 UNL     1       5.589   6.630   9.360  1.00  0.00     0.217 HD
ENDBRANCH  42  44
ENDBRANCH  37  38
ENDBRANCH  36  37
ENDBRANCH  25  36
BRANCH  21  46
HETATM   46  O6  UNL     1       2.960   8.015  16.298  1.00  0.00    -0.384 OA
HETATM   47  H38 UNL     1       3.488   7.219  16.483  1.00  0.00     0.211 HD
ENDBRANCH  21  46
BRANCH  19  48
HETATM   48  O4  UNL     1       9.105   7.385  16.868  1.00  0.00    -0.393 OA
HETATM   49  H35 UNL     1       9.663   8.134  17.140  1.00  0.00     0.210 HD
ENDBRANCH  19  48
BRANCH  20  50
HETATM   50  O5  UNL     1      10.471   8.906  15.282  1.00  0.00    -0.393 OA
HETATM   51  H37 UNL     1      10.982   8.106  15.506  1.00  0.00     0.210 HD
ENDBRANCH  20  50
TORSDOF 11
ENDMDL
MODEL 4
REMARK minimizedAffinity -7.64417601
REMARK CNNscore 0.475585461
REMARK CNNaffinity 6.75528145
REMARK  11 active torsions:
REMARK  status: ('A' for Active; 'I' for Inactive)
REMARK    1  A    between atoms: C2_2  and  C4_4 
REMARK    2  A    between atoms: C4_4  and  C6_6 
REMARK    3  A    between atoms: C7_8  and  C8_9 
REMARK    4  A    between atoms: C8_9  and  O2_10 
REMARK    5  A    between atoms: C25_28  and  O4_29 
REMARK    6  A    between atoms: C26_30  and  O5_31 
REMARK    7  A    between atoms: C27_32  and  O6_33 
REMARK    8  A    between atoms: C31_37  and  C32_38 
REMARK    9  A    between atoms: C32_38  and  C33_39 
REMARK   10  A    between atoms: C33_39  and  C34_40 
REMARK   11  A    between atoms: C38_44  and  O7_45 
ROOT
HETATM    1  C8  UNL     1      -2.750  15.807  16.359  1.00  0.00     0.094 C 
HETATM    2  C9  UNL     1      -4.275  15.800  16.043  1.00  0.00     0.067 C 
HETATM    3  C10 UNL     1      -5.145  14.682  16.556  1.00  0.00    -0.027 C 
HETATM    4  C11 UNL     1      -4.995  13.366  16.341  1.00  0.00    -0.025 C 
HETATM    5  C12 UNL     1      -3.854  12.722  15.592  1.00  0.00     0.021 C 
HETATM    6  C13 UNL     1      -4.067  11.178  15.515  1.00  0.00     0.019 C 
HETATM    7  C14 UNL     1      -2.914  10.432  14.793  1.00  0.00     0.028 C 
HETATM    8  C15 UNL     1      -1.567  10.851  15.398  1.00  0.00    -0.037 C 
HETATM    9  C16 UNL     1      -0.688   9.993  15.937  1.00  0.00     0.057 C 
HETATM   10  C17 UNL     1      -1.026   8.566  16.124  1.00  0.00     0.155 C 
HETATM   11  O3  UNL     1      -0.157   7.804  16.535  1.00  0.00    -0.293 OA
HETATM   12  C18 UNL     1      -2.456   8.123  15.839  1.00  0.00     0.075 C 
HETATM   13  C19 UNL     1      -2.559   6.599  15.606  1.00  0.00     0.029 C 
HETATM   14  C20 UNL     1      -4.046   6.200  15.512  1.00  0.00     0.008 C 
HETATM   15  C21 UNL     1      -4.785   6.948  14.411  1.00  0.00     0.001 C 
HETATM   16  C22 UNL     1      -4.560   8.457  14.515  1.00  0.00     0.011 C 
HETATM   17  C23 UNL     1      -3.060   8.867  14.627  1.00  0.00    -0.019 C 
HETATM   18  C24 UNL     1      -2.342   8.425  13.300  1.00  0.00     0.045 C 
HETATM   19  C25 UNL     1      -1.340   7.272  13.408  1.00  0.00     0.148 C 
HETATM   20  C26 UNL     1      -1.710   6.146  14.393  1.00  0.00     0.151 C 
HETATM   21  C27 UNL     1      -1.348  12.339  15.344  1.00  0.00     0.090 C 
HETATM   22  C28 UNL     1      -0.070  13.036  15.822  1.00  0.00     0.044 C 
HETATM   23  C29 UNL     1      -0.484  14.526  15.923  1.00  0.00     0.012 C 
HETATM   24  C30 UNL     1      -2.034  14.574  15.743  1.00  0.00     0.035 C 
HETATM   25  C31 UNL     1      -2.455  13.113  16.147  1.00  0.00     0.009 C 
ENDROOT
BRANCH   1  26
HETATM   26  C7  UNL     1      -2.060  17.074  15.835  1.00  0.00     0.186 A 
HETATM   27  C6  UNL     1      -2.207  17.605  14.416  1.00  0.00     0.158 A 
HETATM   28  O1  UNL     1      -2.948  18.159  15.520  1.00  0.00    -0.372 OA
BRANCH  27  29
HETATM   29  C4  UNL     1      -1.283  18.596  13.735  1.00  0.00     0.017 C 
HETATM   30  C5  UNL     1      -2.023  19.834  13.215  1.00  0.00     0.013 C 
BRANCH  29  31
HETATM   31  C2  UNL     1      -0.431  17.904  12.623  1.00  0.00    -0.016 C 
HETATM   32  C1  UNL     1      -0.643  18.554  11.246  1.00  0.00     0.010 C 
HETATM   33  C3  UNL     1      -0.732  16.406  12.501  1.00  0.00     0.010 C 
ENDBRANCH  29  31
ENDBRANCH  27  29
ENDBRANCH   1  26
BRANCH   1  34
HETATM   34  O2  UNL     1      -2.578  15.829  17.778  1.00  0.00    -0.386 OA
HETATM   35  H14 UNL     1      -2.710  16.755  18.068  1.00  0.00     0.210 HD
ENDBRANCH   1  34
BRANCH  25  36
HETATM   36  C32 UNL     1      -2.369  12.968  17.732  1.00  0.00     0.018 C 
BRANCH  36  37
HETATM   37  C33 UNL     1      -1.936  11.654  18.385  1.00  0.00     0.039 C 
BRANCH  37  38
HETATM   38  C34 UNL     1      -0.686  11.833  19.223  1.00  0.00    -0.056 A 
HETATM   39  C35 UNL     1      -0.244  13.114  19.583  1.00  0.00     0.007 A 
HETATM   40  C36 UNL     1       0.918  13.275  20.341  1.00  0.00     0.003 A 
HETATM   41  C37 UNL     1       1.648  12.158  20.751  1.00  0.00     0.036 A 
HETATM   42  C38 UNL     1       1.214  10.888  20.388  1.00  0.00     0.066 A 
HETATM   43  C39 UNL     1       0.061  10.717  19.627  1.00  0.00     0.043 A 
BRANCH  42  44
HETATM   44  O7  UNL     1       1.897   9.769  20.761  1.00  0.00    -0.361 OA
HETATM   45  H51 UNL     1       2.688  10.041  21.254  1.00  0.00     0.217 HD
ENDBRANCH  42  44
ENDBRANCH  37  38
ENDBRANCH  36  37
ENDBRANCH  25  36
BRANCH  21  46
HETATM   46  O6  UNL     1      -1.431  12.643  13.933  1.00  0.00    -0.384 OA
HETATM   47  H38 UNL     1      -0.706  12.166  13.494  1.00  0.00     0.211 HD
ENDBRANCH  21  46
BRANCH  19  48
HETATM   48  O4  UNL     1      -1.121   6.724  12.102  1.00  0.00    -0.393 OA
HETATM   49  H35 UNL     1      -1.926   6.222  11.889  1.00  0.00     0.210 HD
ENDBRANCH  19  48
BRANCH  20  50
HETATM   50  O5  UNL     1      -2.331   5.068  13.681  1.00  0.00    -0.393 OA
HETATM   51  H37 UNL     1      -1.609   4.616  13.206  1.00  0.00     0.210 HD
ENDBRANCH  20  50
TORSDOF 11
ENDMDL
MODEL 5
REMARK minimizedAffinity -8.14725018
REMARK CNNscore 0.471630901
REMARK CNNaffinity 6.12896347
REMARK  11 active torsions:
REMARK  status: ('A' for Active; 'I' for Inactive)
REMARK    1  A    between atoms: C2_2  and  C4_4 
REMARK    2  A    between atoms: C4_4  and  C6_6 
REMARK    3  A    between atoms: C7_8  and  C8_9 
REMARK    4  A    between atoms: C8_9  and  O2_10 
REMARK    5  A    between atoms: C25_28  and  O4_29 
REMARK    6  A    between atoms: C26_30  and  O5_31 
REMARK    7  A    between atoms: C27_32  and  O6_33 
REMARK    8  A    between atoms: C31_37  and  C32_38 
REMARK    9  A    between atoms: C32_38  and  C33_39 
REMARK   10  A    between atoms: C33_39  and  C34_40 
REMARK   11  A    between atoms: C38_44  and  O7_45 
ROOT
HETATM    1  C8  UNL     1     -14.762  -5.854   8.761  1.00  0.00     0.094 C 
HETATM    2  C9  UNL     1     -14.315  -4.634   7.903  1.00  0.00     0.067 C 
HETATM    3  C10 UNL     1     -13.455  -3.559   8.515  1.00  0.00    -0.027 C 
HETATM    4  C11 UNL     1     -13.721  -2.820   9.602  1.00  0.00    -0.025 C 
HETATM    5  C12 UNL     1     -14.925  -2.977  10.499  1.00  0.00     0.021 C 
HETATM    6  C13 UNL     1     -14.898  -1.900  11.627  1.00  0.00     0.019 C 
HETATM    7  C14 UNL     1     -16.084  -2.016  12.620  1.00  0.00     0.028 C 
HETATM    8  C15 UNL     1     -16.190  -3.459  13.132  1.00  0.00    -0.037 C 
HETATM    9  C16 UNL     1     -16.137  -3.800  14.429  1.00  0.00     0.057 C 
HETATM   10  C17 UNL     1     -15.818  -2.802  15.471  1.00  0.00     0.155 C 
HETATM   11  O3  UNL     1     -15.872  -3.142  16.649  1.00  0.00    -0.293 OA
HETATM   12  C18 UNL     1     -15.391  -1.409  15.025  1.00  0.00     0.075 C 
HETATM   13  C19 UNL     1     -15.553  -0.361  16.149  1.00  0.00     0.029 C 
HETATM   14  C20 UNL     1     -14.931   0.974  15.691  1.00  0.00     0.008 C 
HETATM   15  C21 UNL     1     -15.545   1.495  14.400  1.00  0.00     0.001 C 
HETATM   16  C22 UNL     1     -15.554   0.418  13.314  1.00  0.00     0.011 C 
HETATM   17  C23 UNL     1     -16.168  -0.940  13.774  1.00  0.00    -0.019 C 
HETATM   18  C24 UNL     1     -17.678  -0.687  14.130  1.00  0.00     0.045 C 
HETATM   19  C25 UNL     1     -18.064  -0.780  15.609  1.00  0.00     0.148 C 
HETATM   20  C26 UNL     1     -17.026  -0.241  16.612  1.00  0.00     0.151 C 
HETATM   21  C27 UNL     1     -16.335  -4.458  12.017  1.00  0.00     0.090 C 
HETATM   22  C28 UNL     1     -16.520  -5.964  12.233  1.00  0.00     0.044 C 
HETATM   23  C29 UNL     1     -16.228  -6.570  10.836  1.00  0.00     0.012 C 
HETATM   24  C30 UNL     1     -15.650  -5.416   9.958  1.00  0.00     0.035 C 
HETATM   25  C31 UNL     1     -15.099  -4.423  11.047  1.00  0.00     0.009 C 
ENDROOT
BRANCH   1  26
HETATM   26  C7  UNL     1     -15.546  -6.883   7.934  1.00  0.00     0.186 A 
HETATM   27  C6  UNL     1     -16.693  -6.533   6.997  1.00  0.00     0.158 A 
HETATM   28  O1  UNL     1     -15.359  -6.783   6.513  1.00  0.00    -0.372 OA
BRANCH  27  29
HETATM   29  C4  UNL     1     -17.733  -7.499   6.462  1.00  0.00     0.017 C 
HETATM   30  C5  UNL     1     -18.983  -7.572   7.348  1.00  0.00     0.013 C 
BRANCH  29  31
HETATM   31  C2  UNL     1     -17.113  -8.907   6.192  1.00  0.00    -0.016 C 
HETATM   32  C1  UNL     1     -17.411  -9.403   4.768  1.00  0.00     0.010 C 
HETATM   33  C3  UNL     1     -17.607  -9.965   7.185  1.00  0.00     0.010 C 
ENDBRANCH  29  31
ENDBRANCH  27  29
ENDBRANCH   1  26
BRANCH   1  34
HETATM   34  O2  UNL     1     -13.595  -6.537   9.227  1.00  0.00    -0.386 OA
HETATM   35  H14 UNL     1     -13.273  -7.091   8.486  1.00  0.00     0.210 HD
ENDBRANCH   1  34
BRANCH  25  36
HETATM   36  C32 UNL     1     -13.747  -5.010  11.650  1.00  0.00     0.018 C 
BRANCH  36  37
HETATM   37  C33 UNL     1     -13.157  -4.464  12.953  1.00  0.00     0.039 C 
BRANCH  37  38
HETATM   38  C34 UNL     1     -12.813  -5.579  13.919  1.00  0.00    -0.056 A 
HETATM   39  C35 UNL     1     -12.003  -6.650  13.517  1.00  0.00     0.007 A 
HETATM   40  C36 UNL     1     -11.703  -7.685  14.406  1.00  0.00     0.003 A 
HETATM   41  C37 UNL     1     -12.204  -7.657  15.708  1.00  0.00     0.036 A 
HETATM   42  C38 UNL     1     -13.012  -6.598  16.106  1.00  0.00     0.066 A 
HETATM   43  C39 UNL     1     -13.323  -5.566  15.225  1.00  0.00     0.043 A 
BRANCH  42  44
HETATM   44  O7  UNL     1     -13.527  -6.531  17.366  1.00  0.00    -0.361 OA
HETATM   45  H51 UNL     1     -13.256  -7.326  17.853  1.00  0.00     0.217 HD
ENDBRANCH  42  44
ENDBRANCH  37  38
ENDBRANCH  36  37
ENDBRANCH  25  36
BRANCH  21  46
HETATM   46  O6  UNL     1     -17.536  -4.032  11.333  1.00  0.00    -0.384 OA
HETATM   47  H38 UNL     1     -18.269  -4.107  11.969  1.00  0.00     0.211 HD
ENDBRANCH  21  46
BRANCH  19  48
HETATM   48  O4  UNL     1     -19.319  -0.117  15.803  1.00  0.00    -0.393 OA
HETATM   49  H35 UNL     1     -19.126   0.835  15.743  1.00  0.00     0.210 HD
ENDBRANCH  19  48
BRANCH  20  50
HETATM   50  O5  UNL     1     -17.362   1.105  16.976  1.00  0.00    -0.393 OA
HETATM   51  H37 UNL     1     -18.125   1.032  17.579  1.00  0.00     0.210 HD
ENDBRANCH  20  50
TORSDOF 11
ENDMDL
MODEL 6
REMARK minimizedAffinity -8.45861626
REMARK CNNscore 0.407536387
REMARK CNNaffinity 7.24613047
REMARK  11 active torsions:
REMARK  status: ('A' for Active; 'I' for Inactive)
REMARK    1  A    between atoms: C2_2  and  C4_4 
REMARK    2  A    between atoms: C4_4  and  C6_6 
REMARK    3  A    between atoms: C7_8  and  C8_9 
REMARK    4  A    between atoms: C8_9  and  O2_10 
REMARK    5  A    between atoms: C25_28  and  O4_29 
REMARK    6  A    between atoms: C26_30  and  O5_31 
REMARK    7  A    between atoms: C27_32  and  O6_33 
REMARK    8  A    between atoms: C31_37  and  C32_38 
REMARK    9  A    between atoms: C32_38  and  C33_39 
REMARK   10  A    between atoms: C33_39  and  C34_40 
REMARK   11  A    between atoms: C38_44  and  O7_45 
ROOT
HETATM    1  C8  UNL     1       6.702   9.445  12.874  1.00  0.00     0.094 C 
HETATM    2  C9  UNL     1       7.111   7.947  12.756  1.00  0.00     0.067 C 
HETATM    3  C10 UNL     1       6.274   7.001  11.935  1.00  0.00    -0.027 C 
HETATM    4  C11 UNL     1       4.967   6.735  12.077  1.00  0.00    -0.025 C 
HETATM    5  C12 UNL     1       4.035   7.403  13.058  1.00  0.00     0.021 C 
HETATM    6  C13 UNL     1       2.607   6.782  12.950  1.00  0.00     0.019 C 
HETATM    7  C14 UNL     1       1.573   7.443  13.899  1.00  0.00     0.028 C 
HETATM    8  C15 UNL     1       1.610   8.967  13.724  1.00  0.00    -0.037 C 
HETATM    9  C16 UNL     1       0.546   9.708  13.381  1.00  0.00     0.057 C 
HETATM   10  C17 UNL     1      -0.735   9.078  12.995  1.00  0.00     0.155 C 
HETATM   11  O3  UNL     1      -1.704   9.798  12.779  1.00  0.00    -0.293 OA
HETATM   12  C18 UNL     1      -0.771   7.563  12.839  1.00  0.00     0.075 C 
HETATM   13  C19 UNL     1      -2.209   7.003  12.912  1.00  0.00     0.029 C 
HETATM   14  C20 UNL     1      -2.188   5.501  12.560  1.00  0.00     0.008 C 
HETATM   15  C21 UNL     1      -1.269   4.699  13.471  1.00  0.00     0.001 C 
HETATM   16  C22 UNL     1       0.122   5.330  13.554  1.00  0.00     0.011 C 
HETATM   17  C23 UNL     1       0.107   6.852  13.893  1.00  0.00    -0.019 C 
HETATM   18  C24 UNL     1      -0.516   7.018  15.326  1.00  0.00     0.045 C 
HETATM   19  C25 UNL     1      -1.899   7.672  15.407  1.00  0.00     0.148 C 
HETATM   20  C26 UNL     1      -2.879   7.319  14.271  1.00  0.00     0.151 C 
HETATM   21  C27 UNL     1       2.981   9.542  13.955  1.00  0.00     0.090 C 
HETATM   22  C28 UNL     1       3.304  11.039  13.905  1.00  0.00     0.044 C 
HETATM   23  C29 UNL     1       4.851  11.075  13.813  1.00  0.00     0.012 C 
HETATM   24  C30 UNL     1       5.319   9.607  13.563  1.00  0.00     0.035 C 
HETATM   25  C31 UNL     1       4.030   8.954  12.942  1.00  0.00     0.009 C 
ENDROOT
BRANCH   1  26
HETATM   26  C7  UNL     1       7.732  10.262  13.668  1.00  0.00     0.186 A 
HETATM   27  C6  UNL     1       9.190  10.425  13.264  1.00  0.00     0.158 A 
HETATM   28  O1  UNL     1       8.206  11.445  13.003  1.00  0.00    -0.372 OA
BRANCH  27  29
HETATM   29  C4  UNL     1      10.321  10.877  14.168  1.00  0.00     0.017 C 
HETATM   30  C5  UNL     1      10.972  12.182  13.694  1.00  0.00     0.013 C 
BRANCH  29  31
HETATM   31  C2  UNL     1      11.365   9.736  14.381  1.00  0.00    -0.016 C 
HETATM   32  C1  UNL     1      12.675  10.004  13.621  1.00  0.00     0.010 C 
HETATM   33  C3  UNL     1      10.831   8.364  13.953  1.00  0.00     0.010 C 
ENDBRANCH  29  31
ENDBRANCH  27  29
ENDBRANCH   1  26
BRANCH   1  34
HETATM   34  O2  UNL     1       6.679  10.017  11.563  1.00  0.00    -0.386 OA
HETATM   35  H14 UNL     1       7.606  10.220  11.323  1.00  0.00     0.210 HD
ENDBRANCH   1  34
BRANCH  25  36
HETATM   36  C32 UNL     1       3.869   9.450  11.437  1.00  0.00     0.018 C 
BRANCH  36  37
HETATM   37  C33 UNL     1       4.070   8.491  10.261  1.00  0.00     0.039 C 
BRANCH  37  38
HETATM   38  C34 UNL     1       2.782   8.273   9.493  1.00  0.00    -0.056 A 
HETATM   39  C35 UNL     1       1.539   8.436  10.121  1.00  0.00     0.007 A 
HETATM   40  C36 UNL     1       0.354   8.217   9.413  1.00  0.00     0.003 A 
HETATM   41  C37 UNL     1       0.399   7.840   8.071  1.00  0.00     0.036 A 
HETATM   42  C38 UNL     1       1.632   7.672   7.450  1.00  0.00     0.066 A 
HETATM   43  C39 UNL     1       2.818   7.881   8.147  1.00  0.00     0.043 A 
BRANCH  42  44
HETATM   44  O7  UNL     1       1.725   7.301   6.142  1.00  0.00    -0.361 OA
HETATM   45  H51 UNL     1       0.828   7.161   5.796  1.00  0.00     0.217 HD
ENDBRANCH  42  44
ENDBRANCH  37  38
ENDBRANCH  36  37
ENDBRANCH  25  36
BRANCH  21  46
HETATM   46  O6  UNL     1       3.294   9.140  15.308  1.00  0.00    -0.384 OA
HETATM   47  H38 UNL     1       2.636   9.558  15.891  1.00  0.00     0.211 HD
ENDBRANCH  21  46
BRANCH  19  48
HETATM   48  O4  UNL     1      -2.488   7.356  16.674  1.00  0.00    -0.393 OA
HETATM   49  H35 UNL     1      -2.752   6.422  16.616  1.00  0.00     0.210 HD
ENDBRANCH  19  48
BRANCH  20  50
HETATM   50  O5  UNL     1      -3.748   6.261  14.696  1.00  0.00    -0.393 OA
HETATM   51  H37 UNL     1      -4.381   6.672  15.314  1.00  0.00     0.210 HD
ENDBRANCH  20  50
TORSDOF 11
ENDMDL
MODEL 7
REMARK minimizedAffinity -7.43924713
REMARK CNNscore 0.371715844
REMARK CNNaffinity 6.04379034
REMARK  11 active torsions:
REMARK  status: ('A' for Active; 'I' for Inactive)
REMARK    1  A    between atoms: C2_2  and  C4_4 
REMARK    2  A    between atoms: C4_4  and  C6_6 
REMARK    3  A    between atoms: C7_8  and  C8_9 
REMARK    4  A    between atoms: C8_9  and  O2_10 
REMARK    5  A    between atoms: C25_28  and  O4_29 
REMARK    6  A    between atoms: C26_30  and  O5_31 
REMARK    7  A    between atoms: C27_32  and  O6_33 
REMARK    8  A    between atoms: C31_37  and  C32_38 
REMARK    9  A    between atoms: C32_38  and  C33_39 
REMARK   10  A    between atoms: C33_39  and  C34_40 
REMARK   11  A    between atoms: C38_44  and  O7_45 
ROOT
HETATM    1  C8  UNL     1      13.366  12.003  16.805  1.00  0.00     0.094 C 
HETATM    2  C9  UNL     1      14.139  11.174  15.737  1.00  0.00     0.067 C 
HETATM    3  C10 UNL     1      13.611  11.083  14.329  1.00  0.00    -0.027 C 
HETATM    4  C11 UNL     1      12.405  10.647  13.936  1.00  0.00    -0.025 C 
HETATM    5  C12 UNL     1      11.280  10.227  14.851  1.00  0.00     0.021 C 
HETATM    6  C13 UNL     1      10.060   9.737  14.012  1.00  0.00     0.019 C 
HETATM    7  C14 UNL     1       8.841   9.323  14.878  1.00  0.00     0.028 C 
HETATM    8  C15 UNL     1       8.510  10.444  15.873  1.00  0.00    -0.037 C 
HETATM    9  C16 UNL     1       7.317  11.054  15.946  1.00  0.00     0.057 C 
HETATM   10  C17 UNL     1       6.257  10.784  14.951  1.00  0.00     0.155 C 
HETATM   11  O3  UNL     1       5.154  11.296  15.113  1.00  0.00    -0.293 OA
HETATM   12  C18 UNL     1       6.606   9.920  13.746  1.00  0.00     0.075 C 
HETATM   13  C19 UNL     1       5.349   9.332  13.066  1.00  0.00     0.029 C 
HETATM   14  C20 UNL     1       5.762   8.630  11.756  1.00  0.00     0.008 C 
HETATM   15  C21 UNL     1       6.796   7.536  11.978  1.00  0.00     0.001 C 
HETATM   16  C22 UNL     1       7.981   8.047  12.800  1.00  0.00     0.011 C 
HETATM   17  C23 UNL     1       7.570   8.771  14.119  1.00  0.00    -0.019 C 
HETATM   18  C24 UNL     1       6.842   7.722  15.036  1.00  0.00     0.045 C 
HETATM   19  C25 UNL     1       5.339   7.918  15.251  1.00  0.00     0.148 C 
HETATM   20  C26 UNL     1       4.544   8.430  14.034  1.00  0.00     0.151 C 
HETATM   21  C27 UNL     1       9.680  10.805  16.747  1.00  0.00     0.090 C 
HETATM   22  C28 UNL     1       9.625  11.847  17.869  1.00  0.00     0.044 C 
HETATM   23  C29 UNL     1      11.117  12.125  18.182  1.00  0.00     0.012 C 
HETATM   24  C30 UNL     1      11.948  11.423  17.062  1.00  0.00     0.035 C 
HETATM   25  C31 UNL     1      10.899  11.315  15.896  1.00  0.00     0.009 C 
ENDROOT
BRANCH   1  26
HETATM   26  C7  UNL     1      14.114  12.055  18.145  1.00  0.00     0.186 A 
HETATM   27  C6  UNL     1      15.521  12.606  18.319  1.00  0.00     0.158 A 
HETATM   28  O1  UNL     1      14.352  13.378  18.653  1.00  0.00    -0.372 OA
BRANCH  27  29
HETATM   29  C4  UNL     1      16.442  12.344  19.495  1.00  0.00     0.017 C 
HETATM   30  C5  UNL     1      15.915  12.941  20.805  1.00  0.00     0.013 C 
BRANCH  29  31
HETATM   31  C2  UNL     1      17.904  12.797  19.181  1.00  0.00    -0.016 C 
HETATM   32  C1  UNL     1      18.831  11.603  18.905  1.00  0.00     0.010 C 
HETATM   33  C3  UNL     1      18.515  13.631  20.314  1.00  0.00     0.010 C 
ENDBRANCH  29  31
ENDBRANCH  27  29
ENDBRANCH   1  26
BRANCH   1  34
HETATM   34  O2  UNL     1      13.278  13.358  16.356  1.00  0.00    -0.386 OA
HETATM   35  H14 UNL     1      14.139  13.781  16.554  1.00  0.00     0.210 HD
ENDBRANCH   1  34
BRANCH  25  36
HETATM   36  C32 UNL     1      10.709  12.751  15.233  1.00  0.00     0.018 C 
BRANCH  36  37
HETATM   37  C33 UNL     1      10.241  12.901  13.784  1.00  0.00     0.039 C 
BRANCH  37  38
HETATM   38  C34 UNL     1       8.820  13.422  13.708  1.00  0.00    -0.056 A 
HETATM   39  C35 UNL     1       8.322  14.289  14.691  1.00  0.00     0.007 A 
HETATM   40  C36 UNL     1       7.007  14.753  14.626  1.00  0.00     0.003 A 
HETATM   41  C37 UNL     1       6.176  14.361  13.575  1.00  0.00     0.036 A 
HETATM   42  C38 UNL     1       6.667  13.497  12.603  1.00  0.00     0.066 A 
HETATM   43  C39 UNL     1       7.974  13.023  12.663  1.00  0.00     0.043 A 
BRANCH  42  44
HETATM   44  O7  UNL     1       5.892  13.084  11.562  1.00  0.00    -0.361 OA
HETATM   45  H51 UNL     1       5.005  13.464  11.667  1.00  0.00     0.217 HD
ENDBRANCH  42  44
ENDBRANCH  37  38
ENDBRANCH  36  37
ENDBRANCH  25  36
BRANCH  21  46
HETATM   46  O6  UNL     1      10.004   9.562  17.411  1.00  0.00    -0.384 OA
HETATM   47  H38 UNL     1       9.230   9.313  17.947  1.00  0.00     0.211 HD
ENDBRANCH  21  46
BRANCH  19  48
HETATM   48  O4  UNL     1       4.773   6.688  15.719  1.00  0.00    -0.393 OA
HETATM   49  H35 UNL     1       4.753   6.097  14.947  1.00  0.00     0.210 HD
ENDBRANCH  19  48
BRANCH  20  50
HETATM   50  O5  UNL     1       3.941   7.323  13.352  1.00  0.00    -0.393 OA
HETATM   51  H37 UNL     1       3.191   7.046  13.911  1.00  0.00     0.210 HD
ENDBRANCH  20  50
TORSDOF 11
ENDMDL
MODEL 8
REMARK minimizedAffinity -8.67056274
REMARK CNNscore 0.366396219
REMARK CNNaffinity 6.13937998
REMARK  11 active torsions:
REMARK  status: ('A' for Active; 'I' for Inactive)
REMARK    1  A    between atoms: C2_2  and  C4_4 
REMARK    2  A    between atoms: C4_4  and  C6_6 
REMARK    3  A    between atoms: C7_8  and  C8_9 
REMARK    4  A    between atoms: C8_9  and  O2_10 
REMARK    5  A    between atoms: C25_28  and  O4_29 
REMARK    6  A    between atoms: C26_30  and  O5_31 
REMARK    7  A    between atoms: C27_32  and  O6_33 
REMARK    8  A    between atoms: C31_37  and  C32_38 
REMARK    9  A    between atoms: C32_38  and  C33_39 
REMARK   10  A    between atoms: C33_39  and  C34_40 
REMARK   11  A    between atoms: C38_44  and  O7_45 
ROOT
HETATM    1  C8  UNL     1       7.592   9.377  13.317  1.00  0.00     0.094 C 
HETATM    2  C9  UNL     1       6.603  10.511  12.914  1.00  0.00     0.067 C 
HETATM    3  C10 UNL     1       6.943  11.947  13.214  1.00  0.00    -0.027 C 
HETATM    4  C11 UNL     1       7.227  12.486  14.409  1.00  0.00    -0.025 C 
HETATM    5  C12 UNL     1       7.345  11.730  15.710  1.00  0.00     0.021 C 
HETATM    6  C13 UNL     1       7.638  12.718  16.881  1.00  0.00     0.019 C 
HETATM    7  C14 UNL     1       7.814  12.015  18.253  1.00  0.00     0.028 C 
HETATM    8  C15 UNL     1       8.835  10.875  18.122  1.00  0.00    -0.037 C 
HETATM    9  C16 UNL     1       9.956  10.785  18.854  1.00  0.00     0.057 C 
HETATM   10  C17 UNL     1      10.371  11.880  19.756  1.00  0.00     0.155 C 
HETATM   11  O3  UNL     1      11.354  11.712  20.472  1.00  0.00    -0.293 OA
HETATM   12  C18 UNL     1       9.583  13.183  19.715  1.00  0.00     0.075 C 
HETATM   13  C19 UNL     1       9.793  14.033  20.989  1.00  0.00     0.029 C 
HETATM   14  C20 UNL     1       9.122  15.409  20.797  1.00  0.00     0.008 C 
HETATM   15  C21 UNL     1       7.637  15.298  20.483  1.00  0.00     0.001 C 
HETATM   16  C22 UNL     1       7.382  14.325  19.330  1.00  0.00     0.011 C 
HETATM   17  C23 UNL     1       8.071  12.938  19.509  1.00  0.00    -0.019 C 
HETATM   18  C24 UNL     1       7.449  12.254  20.781  1.00  0.00     0.045 C 
HETATM   19  C25 UNL     1       8.360  12.113  22.004  1.00  0.00     0.148 C 
HETATM   20  C26 UNL     1       9.332  13.281  22.262  1.00  0.00     0.151 C 
HETATM   21  C27 UNL     1       8.454   9.878  17.062  1.00  0.00     0.090 C 
HETATM   22  C28 UNL     1       9.253   8.608  16.752  1.00  0.00     0.044 C 
HETATM   23  C29 UNL     1       8.697   8.154  15.378  1.00  0.00     0.012 C 
HETATM   24  C30 UNL     1       7.792   9.314  14.856  1.00  0.00     0.035 C 
HETATM   25  C31 UNL     1       8.358  10.551  15.645  1.00  0.00     0.009 C 
ENDROOT
BRANCH   1  26
HETATM   26  C7  UNL     1       7.113   7.999  12.838  1.00  0.00     0.186 A 
HETATM   27  C6  UNL     1       6.123   7.784  11.703  1.00  0.00     0.158 A 
HETATM   28  O1  UNL     1       7.543   7.636  11.516  1.00  0.00    -0.372 OA
BRANCH  27  29
HETATM   29  C4  UNL     1       5.332   6.517  11.438  1.00  0.00     0.017 C 
HETATM   30  C5  UNL     1       6.158   5.443  10.720  1.00  0.00     0.013 C 
BRANCH  29  31
HETATM   31  C2  UNL     1       3.993   6.830  10.697  1.00  0.00    -0.016 C 
HETATM   32  C1  UNL     1       3.498   5.632   9.870  1.00  0.00     0.010 C 
HETATM   33  C3  UNL     1       4.107   8.044   9.767  1.00  0.00     0.010 C 
ENDBRANCH  29  31
ENDBRANCH  27  29
ENDBRANCH   1  26
BRANCH   1  34
HETATM   34  O2  UNL     1       8.841   9.605  12.659  1.00  0.00    -0.386 OA
HETATM   35  H14 UNL     1       8.743   9.284  11.739  1.00  0.00     0.210 HD
ENDBRANCH   1  34
BRANCH  25  36
HETATM   36  C32 UNL     1       9.751  10.983  15.005  1.00  0.00     0.018 C 
BRANCH  36  37
HETATM   37  C33 UNL     1      10.362  12.357  15.288  1.00  0.00     0.039 C 
BRANCH  37  38
HETATM   38  C34 UNL     1      11.869  12.279  15.431  1.00  0.00    -0.056 A 
HETATM   39  C35 UNL     1      12.709  12.918  14.509  1.00  0.00     0.007 A 
HETATM   40  C36 UNL     1      14.097  12.829  14.635  1.00  0.00     0.003 A 
HETATM   41  C37 UNL     1      14.660  12.104  15.686  1.00  0.00     0.036 A 
HETATM   42  C38 UNL     1      13.827  11.464  16.597  1.00  0.00     0.066 A 
HETATM   43  C39 UNL     1      12.443  11.542  16.476  1.00  0.00     0.043 A 
BRANCH  42  44
HETATM   44  O7  UNL     1      14.332  10.742  17.637  1.00  0.00    -0.361 OA
HETATM   45  H51 UNL     1      15.301  10.750  17.577  1.00  0.00     0.217 HD
ENDBRANCH  42  44
ENDBRANCH  37  38
ENDBRANCH  36  37
ENDBRANCH  25  36
BRANCH  21  46
HETATM   46  O6  UNL     1       7.157   9.403  17.493  1.00  0.00    -0.384 OA
HETATM   47  H38 UNL     1       7.283   8.969  18.355  1.00  0.00     0.211 HD
ENDBRANCH  21  46
BRANCH  19  48
HETATM   48  O4  UNL     1       7.549  11.889  23.163  1.00  0.00    -0.393 OA
HETATM   49  H35 UNL     1       7.136  12.746  23.365  1.00  0.00     0.210 HD
ENDBRANCH  19  48
BRANCH  20  50
HETATM   50  O5  UNL     1       8.765  14.172  23.231  1.00  0.00    -0.393 OA
HETATM   51  H37 UNL     1       8.852  13.718  24.089  1.00  0.00     0.210 HD
ENDBRANCH  20  50
TORSDOF 11
ENDMDL
MODEL 9
REMARK minimizedAffinity -8.51111507
REMARK CNNscore 0.329115331
REMARK CNNaffinity 6.65375757
REMARK  11 active torsions:
REMARK  status: ('A' for Active; 'I' for Inactive)
REMARK    1  A    between atoms: C2_2  and  C4_4 
REMARK    2  A    between atoms: C4_4  and  C6_6 
REMARK    3  A    between atoms: C7_8  and  C8_9 
REMARK    4  A    between atoms: C8_9  and  O2_10 
REMARK    5  A    between atoms: C25_28  and  O4_29 
REMARK    6  A    between atoms: C26_30  and  O5_31 
REMARK    7  A    between atoms: C27_32  and  O6_33 
REMARK    8  A    between atoms: C31_37  and  C32_38 
REMARK    9  A    between atoms: C32_38  and  C33_39 
REMARK   10  A    between atoms: C33_39  and  C34_40 
REMARK   11  A    between atoms: C38_44  and  O7_45 
ROOT
HETATM    1  C8  UNL     1       3.181  13.510  19.465  1.00  0.00     0.094 C 
HETATM    2  C9  UNL     1       4.264  13.799  18.384  1.00  0.00     0.067 C 
HETATM    3  C10 UNL     1       3.856  14.018  16.950  1.00  0.00    -0.027 C 
HETATM    4  C11 UNL     1       3.155  13.187  16.165  1.00  0.00    -0.025 C 
HETATM    5  C12 UNL     1       2.551  11.872  16.594  1.00  0.00     0.021 C 
HETATM    6  C13 UNL     1       1.856  11.180  15.380  1.00  0.00     0.019 C 
HETATM    7  C14 UNL     1       1.172   9.836  15.745  1.00  0.00     0.028 C 
HETATM    8  C15 UNL     1       0.258  10.035  16.962  1.00  0.00    -0.037 C 
HETATM    9  C16 UNL     1      -1.056   9.763  16.965  1.00  0.00     0.057 C 
HETATM   10  C17 UNL     1      -1.763   9.384  15.724  1.00  0.00     0.155 C 
HETATM   11  O3  UNL     1      -2.943   9.056  15.795  1.00  0.00    -0.293 OA
HETATM   12  C18 UNL     1      -0.998   9.464  14.408  1.00  0.00     0.075 C 
HETATM   13  C19 UNL     1      -1.656   8.615  13.298  1.00  0.00     0.029 C 
HETATM   14  C20 UNL     1      -0.943   8.892  11.958  1.00  0.00     0.008 C 
HETATM   15  C21 UNL     1       0.551   8.605  12.019  1.00  0.00     0.001 C 
HETATM   16  C22 UNL     1       1.203   9.299  13.216  1.00  0.00     0.011 C 
HETATM   17  C23 UNL     1       0.478   9.037  14.571  1.00  0.00    -0.019 C 
HETATM   18  C24 UNL     1       0.572   7.498  14.875  1.00  0.00     0.045 C 
HETATM   19  C25 UNL     1      -0.731   6.697  14.793  1.00  0.00     0.148 C 
HETATM   20  C26 UNL     1      -1.712   7.116  13.681  1.00  0.00     0.151 C 
HETATM   21  C27 UNL     1       0.992  10.593  18.151  1.00  0.00     0.090 C 
HETATM   22  C28 UNL     1       0.349  10.839  19.519  1.00  0.00     0.044 C 
HETATM   23  C29 UNL     1       1.371  11.753  20.243  1.00  0.00     0.012 C 
HETATM   24  C30 UNL     1       2.421  12.187  19.172  1.00  0.00     0.035 C 
HETATM   25  C31 UNL     1       1.618  11.999  17.833  1.00  0.00     0.009 C 
ENDROOT
BRANCH   1  26
HETATM   26  C7  UNL     1       3.784  13.415  20.874  1.00  0.00     0.186 A 
HETATM   27  C6  UNL     1       4.727  12.311  21.329  1.00  0.00     0.158 A 
HETATM   28  O1  UNL     1       5.206  13.610  20.935  1.00  0.00    -0.372 OA
BRANCH  27  29
HETATM   29  C4  UNL     1       5.044  11.946  22.766  1.00  0.00     0.017 C 
HETATM   30  C5  UNL     1       6.546  12.003  23.073  1.00  0.00     0.013 C 
BRANCH  29  31
HETATM   31  C2  UNL     1       4.411  10.571  23.155  1.00  0.00    -0.016 C 
HETATM   32  C1  UNL     1       4.199   9.668  21.929  1.00  0.00     0.010 C 
HETATM   33  C3  UNL     1       3.068  10.728  23.877  1.00  0.00     0.010 C 
ENDBRANCH  29  31
ENDBRANCH  27  29
ENDBRANCH   1  26
BRANCH   1  34
HETATM   34  O2  UNL     1       2.270  14.611  19.505  1.00  0.00    -0.386 OA
HETATM   35  H14 UNL     1       2.699  15.319  20.029  1.00  0.00     0.210 HD
ENDBRANCH   1  34
BRANCH  25  36
HETATM   36  C32 UNL     1       0.570  13.189  17.684  1.00  0.00     0.018 C 
BRANCH  36  37
HETATM   37  C33 UNL     1      -0.455  13.206  16.547  1.00  0.00     0.039 C 
BRANCH  37  38
HETATM   38  C34 UNL     1      -1.872  13.105  17.073  1.00  0.00    -0.056 A 
HETATM   39  C35 UNL     1      -2.136  13.214  18.446  1.00  0.00     0.007 A 
HETATM   40  C36 UNL     1      -3.442  13.104  18.928  1.00  0.00     0.003 A 
HETATM   41  C37 UNL     1      -4.499  12.889  18.043  1.00  0.00     0.036 A 
HETATM   42  C38 UNL     1      -4.238  12.774  16.682  1.00  0.00     0.066 A 
HETATM   43  C39 UNL     1      -2.939  12.875  16.193  1.00  0.00     0.043 A 
BRANCH  42  44
HETATM   44  O7  UNL     1      -5.238  12.559  15.782  1.00  0.00    -0.361 OA
HETATM   45  H51 UNL     1      -6.076  12.479  16.265  1.00  0.00     0.217 HD
ENDBRANCH  42  44
ENDBRANCH  37  38
ENDBRANCH  36  37
ENDBRANCH  25  36
BRANCH  21  46
HETATM   46  O6  UNL     1       2.028   9.615  18.399  1.00  0.00    -0.384 OA
HETATM   47  H38 UNL     1       1.585   8.778  18.623  1.00  0.00     0.211 HD
ENDBRANCH  21  46
BRANCH  19  48
HETATM   48  O4  UNL     1      -0.413   5.306  14.663  1.00  0.00    -0.393 OA
HETATM   49  H35 UNL     1      -0.093   5.193  13.752  1.00  0.00     0.210 HD
ENDBRANCH  19  48
BRANCH  20  50
HETATM   50  O5  UNL     1      -1.535   6.267  12.539  1.00  0.00    -0.393 OA
HETATM   51  H37 UNL     1      -1.942   5.414  12.780  1.00  0.00     0.210 HD
ENDBRANCH  20  50
TORSDOF 11
ENDMDL
