MODEL 1
REMARK minimizedAffinity -10.4398155
REMARK CNNscore 0.693044245
REMARK CNNaffinity 7.89451742
REMARK  11 active torsions:
REMARK  status: ('A' for Active; 'I' for Inactive)
REMARK    1  A    between atoms: C2_2  and  O2_4 
REMARK    2  A    between atoms: O2_4  and  C3_5 
REMARK    3  A    between atoms: C4_6  and  O3_7 
REMARK    4  A    between atoms: O3_7  and  C5_8 
REMARK    5  A    between atoms: C15_18  and  C16_19 
REMARK    6  A    between atoms: C20_23  and  C21_24 
REMARK    7  A    between atoms: C21_24  and  O4_27 
REMARK    8  A    between atoms: C24_29  and  O6_30 
REMARK    9  A    between atoms: C30_36  and  O7_37 
REMARK   10  A    between atoms: C36_44  and  O9_45 
REMARK   11  A    between atoms: C37_46  and  O10_47 
ROOT
HETATM    1  C5  UNL     1       2.420   7.982  11.028  1.00  0.00     0.133 C 
HETATM    2  C6  UNL     1       2.018   9.084  12.011  1.00  0.00     0.034 C 
HETATM    3  C7  UNL     1       0.888   8.651  12.930  1.00  0.00     0.013 C 
HETATM    4  C8  UNL     1      -0.304   8.095  12.183  1.00  0.00    -0.025 A 
HETATM    5  C9  UNL     1      -1.520   8.941  11.931  1.00  0.00     0.021 A 
HETATM    6  C10 UNL     1      -1.600   7.848  12.991  1.00  0.00    -0.027 A 
HETATM    7  C11 UNL     1      -1.805   8.380  14.401  1.00  0.00     0.011 C 
HETATM    8  C12 UNL     1      -3.279   8.368  14.872  1.00  0.00     0.011 C 
HETATM    9  C13 UNL     1      -4.201   7.433  14.060  1.00  0.00    -0.028 C 
HETATM   10  C14 UNL     1      -4.706   8.187  12.797  1.00  0.00     0.016 C 
HETATM   11  C15 UNL     1      -5.441   6.843  14.820  1.00  0.00     0.057 C 
HETATM   12  C24 UNL     1      -5.742   5.524  14.027  1.00  0.00     0.126 C 
HETATM   13  C25 UNL     1      -4.499   5.231  13.150  1.00  0.00     0.042 C 
HETATM   14  C26 UNL     1      -3.384   6.125  13.724  1.00  0.00    -0.029 C 
HETATM   15  C27 UNL     1      -2.831   5.371  14.985  1.00  0.00     0.016 C 
HETATM   16  C28 UNL     1      -2.226   6.455  12.711  1.00  0.00     0.006 C 
HETATM   17  C29 UNL     1      -1.091   5.396  12.700  1.00  0.00     0.038 C 
HETATM   18  C30 UNL     1       0.026   5.647  11.669  1.00  0.00     0.124 C 
HETATM   19  C31 UNL     1       0.009   7.072  11.077  1.00  0.00     0.034 C 
HETATM   20  C32 UNL     1       1.210   7.506  10.174  1.00  0.00    -0.015 C 
HETATM   21  C33 UNL     1       0.725   8.645   9.230  1.00  0.00     0.018 C 
HETATM   22  C34 UNL     1       1.660   6.353   9.249  1.00  0.00     0.018 C 
ENDROOT
BRANCH   1  23
HETATM   23  O3  UNL     1       3.424   8.498  10.143  1.00  0.00    -0.352 OA
BRANCH  23  24
HETATM   24  C4  UNL     1       4.761   8.409  10.654  1.00  0.00     0.292 C 
HETATM   25  C3  UNL     1       4.640   8.370  12.200  1.00  0.00     0.218 C 
HETATM   26  C37 UNL     1       5.844   7.673  12.860  1.00  0.00     0.183 C 
HETATM   27  C36 UNL     1       6.255   6.378  12.133  1.00  0.00     0.173 C 
HETATM   28  C35 UNL     1       5.431   6.142  10.869  1.00  0.00     0.205 C 
HETATM   29  O8  UNL     1       5.443   7.310  10.061  1.00  0.00    -0.356 OA
BRANCH  25  30
HETATM   30  O2  UNL     1       4.526   9.765  12.621  1.00  0.00    -0.309 OA
BRANCH  30  31
HETATM   31  C2  UNL     1       5.660  10.433  12.939  1.00  0.00     0.255 C 
HETATM   32  C1  UNL     1       6.278  11.051  11.722  1.00  0.00     0.126 C 
HETATM   33  O1  UNL     1       6.116  10.530  14.070  1.00  0.00    -0.266 OA
ENDBRANCH  30  31
ENDBRANCH  25  30
BRANCH  26  34
HETATM   34  O10 UNL     1       5.550   7.290  14.221  1.00  0.00    -0.390 OA
HETATM   35  H60 UNL     1       4.933   7.942  14.616  1.00  0.00     0.210 HD
ENDBRANCH  26  34
BRANCH  27  36
HETATM   36  O9  UNL     1       7.647   6.489  11.789  1.00  0.00    -0.391 OA
HETATM   37  H58 UNL     1       7.923   5.642  11.398  1.00  0.00     0.210 HD
ENDBRANCH  27  36
ENDBRANCH  23  24
ENDBRANCH   1  23
BRANCH  18  38
HETATM   38  O7  UNL     1       1.282   5.315  12.256  1.00  0.00    -0.395 OA
HETATM   39  H47 UNL     1       1.374   5.818  13.082  1.00  0.00     0.210 HD
ENDBRANCH  18  38
BRANCH  11  40
HETATM   40  C16 UNL     1      -6.654   7.715  15.268  1.00  0.00     0.065 C 
HETATM   41  C17 UNL     1      -6.408   9.214  15.516  1.00  0.00     0.046 C 
HETATM   42  C18 UNL     1      -7.375   7.095  16.466  1.00  0.00     0.041 C 
HETATM   43  C19 UNL     1      -8.819   7.508  16.287  1.00  0.00     0.038 C 
HETATM   44  C20 UNL     1      -8.977   7.708  14.780  1.00  0.00     0.156 C 
HETATM   45  O5  UNL     1      -7.647   7.605  14.214  1.00  0.00    -0.372 OA
BRANCH  44  46
HETATM   46  C21 UNL     1      -9.895   6.695  14.051  1.00  0.00     0.076 C 
HETATM   47  C22 UNL     1      -9.124   5.409  13.719  1.00  0.00     0.048 C 
HETATM   48  C23 UNL     1     -10.494   7.273  12.768  1.00  0.00     0.048 C 
BRANCH  46  49
HETATM   49  O4  UNL     1     -10.977   6.329  14.921  1.00  0.00    -0.388 OA
HETATM   50  H35 UNL     1     -10.543   6.081  15.762  1.00  0.00     0.210 HD
ENDBRANCH  46  49
ENDBRANCH  44  46
ENDBRANCH  11  40
BRANCH  12  51
HETATM   51  O6  UNL     1      -6.877   5.592  13.185  1.00  0.00    -0.395 OA
HETATM   52  H37 UNL     1      -7.015   4.706  12.807  1.00  0.00     0.210 HD
ENDBRANCH  12  51
TORSDOF 11
ENDMDL
MODEL 2
REMARK minimizedAffinity -8.24417019
REMARK CNNscore 0.656471193
REMARK CNNaffinity 6.77840757
REMARK  11 active torsions:
REMARK  status: ('A' for Active; 'I' for Inactive)
REMARK    1  A    between atoms: C2_2  and  O2_4 
REMARK    2  A    between atoms: O2_4  and  C3_5 
REMARK    3  A    between atoms: C4_6  and  O3_7 
REMARK    4  A    between atoms: O3_7  and  C5_8 
REMARK    5  A    between atoms: C15_18  and  C16_19 
REMARK    6  A    between atoms: C20_23  and  C21_24 
REMARK    7  A    between atoms: C21_24  and  O4_27 
REMARK    8  A    between atoms: C24_29  and  O6_30 
REMARK    9  A    between atoms: C30_36  and  O7_37 
REMARK   10  A    between atoms: C36_44  and  O9_45 
REMARK   11  A    between atoms: C37_46  and  O10_47 
ROOT
HETATM    1  C5  UNL     1       4.113   9.820  15.680  1.00  0.00     0.133 C 
HETATM    2  C6  UNL     1       4.179  10.951  16.708  1.00  0.00     0.034 C 
HETATM    3  C7  UNL     1       2.851  11.166  17.415  1.00  0.00     0.013 C 
HETATM    4  C8  UNL     1       1.691  11.336  16.458  1.00  0.00    -0.025 A 
HETATM    5  C9  UNL     1       1.154  12.700  16.132  1.00  0.00     0.021 A 
HETATM    6  C10 UNL     1       0.339  11.797  17.052  1.00  0.00    -0.027 A 
HETATM    7  C11 UNL     1       0.203  12.335  18.468  1.00  0.00     0.011 C 
HETATM    8  C12 UNL     1      -1.119  13.096  18.730  1.00  0.00     0.011 C 
HETATM    9  C13 UNL     1      -2.238  12.802  17.708  1.00  0.00    -0.028 C 
HETATM   10  C14 UNL     1      -2.055  13.729  16.473  1.00  0.00     0.016 C 
HETATM   11  C15 UNL     1      -3.713  12.944  18.225  1.00  0.00     0.057 C 
HETATM   12  C24 UNL     1      -4.513  11.996  17.266  1.00  0.00     0.126 C 
HETATM   13  C25 UNL     1      -3.474  11.105  16.542  1.00  0.00     0.042 C 
HETATM   14  C26 UNL     1      -2.174  11.265  17.352  1.00  0.00    -0.029 C 
HETATM   15  C27 UNL     1      -2.316  10.313  18.591  1.00  0.00     0.016 C 
HETATM   16  C28 UNL     1      -0.860  10.950  16.547  1.00  0.00     0.006 C 
HETATM   17  C29 UNL     1      -0.455   9.452  16.581  1.00  0.00     0.038 C 
HETATM   18  C30 UNL     1       0.787   9.091  15.743  1.00  0.00     0.124 C 
HETATM   19  C31 UNL     1       1.612  10.319  15.305  1.00  0.00     0.034 C 
HETATM   20  C32 UNL     1       2.997  10.069  14.624  1.00  0.00    -0.015 C 
HETATM   21  C33 UNL     1       3.342  11.306  13.747  1.00  0.00     0.018 C 
HETATM   22  C34 UNL     1       2.934   8.867  13.654  1.00  0.00     0.018 C 
ENDROOT
BRANCH   1  23
HETATM   23  O3  UNL     1       5.372   9.741  14.999  1.00  0.00    -0.352 OA
BRANCH  23  24
HETATM   24  C4  UNL     1       6.186   8.627  15.391  1.00  0.00     0.292 C 
HETATM   25  C3  UNL     1       7.134   8.334  14.199  1.00  0.00     0.218 C 
HETATM   26  C37 UNL     1       8.432   7.637  14.647  1.00  0.00     0.183 C 
HETATM   27  C36 UNL     1       9.038   8.265  15.916  1.00  0.00     0.173 C 
HETATM   28  C35 UNL     1       8.155   9.372  16.489  1.00  0.00     0.205 C 
HETATM   29  O8  UNL     1       6.824   8.898  16.634  1.00  0.00    -0.356 OA
BRANCH  25  30
HETATM   30  O2  UNL     1       6.363   7.499  13.279  1.00  0.00    -0.309 OA
BRANCH  30  31
HETATM   31  C2  UNL     1       6.648   7.569  11.958  1.00  0.00     0.255 C 
HETATM   32  C1  UNL     1       6.032   6.422  11.215  1.00  0.00     0.126 C 
HETATM   33  O1  UNL     1       7.310   8.455  11.436  1.00  0.00    -0.266 OA
ENDBRANCH  30  31
ENDBRANCH  25  30
BRANCH  26  34
HETATM   34  O10 UNL     1       9.455   7.724  13.631  1.00  0.00    -0.390 OA
HETATM   35  H60 UNL     1       9.034   7.715  12.745  1.00  0.00     0.210 HD
ENDBRANCH  26  34
BRANCH  27  36
HETATM   36  O9  UNL     1       9.198   7.221  16.892  1.00  0.00    -0.391 OA
HETATM   37  H58 UNL     1       9.649   7.603  17.664  1.00  0.00     0.210 HD
ENDBRANCH  27  36
ENDBRANCH  23  24
ENDBRANCH   1  23
BRANCH  18  38
HETATM   38  O7  UNL     1       1.567   8.137  16.458  1.00  0.00    -0.395 OA
HETATM   39  H47 UNL     1       1.764   8.502  17.337  1.00  0.00     0.210 HD
ENDBRANCH  18  38
BRANCH  11  40
HETATM   40  C16 UNL     1      -4.353  14.318  18.592  1.00  0.00     0.065 C 
HETATM   41  C17 UNL     1      -4.387  15.407  17.505  1.00  0.00     0.046 C 
HETATM   42  C18 UNL     1      -3.761  14.882  19.885  1.00  0.00     0.041 C 
HETATM   43  C19 UNL     1      -4.898  15.666  20.504  1.00  0.00     0.038 C 
HETATM   44  C20 UNL     1      -6.163  14.993  19.972  1.00  0.00     0.156 C 
HETATM   45  O5  UNL     1      -5.727  14.039  18.973  1.00  0.00    -0.372 OA
BRANCH  44  46
HETATM   46  C21 UNL     1      -7.025  14.241  21.018  1.00  0.00     0.076 C 
HETATM   47  C22 UNL     1      -6.145  13.335  21.892  1.00  0.00     0.048 C 
HETATM   48  C23 UNL     1      -8.127  13.404  20.368  1.00  0.00     0.048 C 
BRANCH  46  49
HETATM   49  O4  UNL     1      -7.647  15.198  21.889  1.00  0.00    -0.388 OA
HETATM   50  H35 UNL     1      -6.916  15.777  22.183  1.00  0.00     0.210 HD
ENDBRANCH  46  49
ENDBRANCH  44  46
ENDBRANCH  11  40
BRANCH  12  51
HETATM   51  O6  UNL     1      -5.286  12.667  16.289  1.00  0.00    -0.395 OA
HETATM   52  H37 UNL     1      -5.796  11.994  15.807  1.00  0.00     0.210 HD
ENDBRANCH  12  51
TORSDOF 11
ENDMDL
MODEL 3
REMARK minimizedAffinity -9.2072649
REMARK CNNscore 0.560160756
REMARK CNNaffinity 7.9318943
REMARK  11 active torsions:
REMARK  status: ('A' for Active; 'I' for Inactive)
REMARK    1  A    between atoms: C2_2  and  O2_4 
REMARK    2  A    between atoms: O2_4  and  C3_5 
REMARK    3  A    between atoms: C4_6  and  O3_7 
REMARK    4  A    between atoms: O3_7  and  C5_8 
REMARK    5  A    between atoms: C15_18  and  C16_19 
REMARK    6  A    between atoms: C20_23  and  C21_24 
REMARK    7  A    between atoms: C21_24  and  O4_27 
REMARK    8  A    between atoms: C24_29  and  O6_30 
REMARK    9  A    between atoms: C30_36  and  O7_37 
REMARK   10  A    between atoms: C36_44  and  O9_45 
REMARK   11  A    between atoms: C37_46  and  O10_47 
ROOT
HETATM    1  C5  UNL     1      -6.477   5.581  13.456  1.00  0.00     0.133 C 
HETATM    2  C6  UNL     1      -7.582   5.386  12.416  1.00  0.00     0.034 C 
HETATM    3  C7  UNL     1      -8.634   6.481  12.481  1.00  0.00     0.013 C 
HETATM    4  C8  UNL     1      -9.193   6.684  13.872  1.00  0.00    -0.025 A 
HETATM    5  C9  UNL     1     -10.519   6.096  14.264  1.00  0.00     0.021 A 
HETATM    6  C10 UNL     1     -10.433   7.598  14.015  1.00  0.00    -0.027 A 
HETATM    7  C11 UNL     1     -11.253   8.066  12.823  1.00  0.00     0.011 C 
HETATM    8  C12 UNL     1     -12.646   8.627  13.197  1.00  0.00     0.011 C 
HETATM    9  C13 UNL     1     -12.793   9.038  14.678  1.00  0.00    -0.028 C 
HETATM   10  C14 UNL     1     -13.173   7.785  15.517  1.00  0.00     0.016 C 
HETATM   11  C15 UNL     1     -13.824  10.179  14.987  1.00  0.00     0.057 C 
HETATM   12  C24 UNL     1     -13.282  10.786  16.327  1.00  0.00     0.126 C 
HETATM   13  C25 UNL     1     -11.836  10.262  16.508  1.00  0.00     0.042 C 
HETATM   14  C26 UNL     1     -11.436   9.706  15.128  1.00  0.00    -0.029 C 
HETATM   15  C27 UNL     1     -11.014  10.948  14.267  1.00  0.00     0.016 C 
HETATM   16  C28 UNL     1     -10.289   8.630  15.166  1.00  0.00     0.006 C 
HETATM   17  C29 UNL     1      -8.863   9.241  15.107  1.00  0.00     0.038 C 
HETATM   18  C30 UNL     1      -7.711   8.223  15.214  1.00  0.00     0.124 C 
HETATM   19  C31 UNL     1      -8.160   6.761  15.011  1.00  0.00     0.034 C 
HETATM   20  C32 UNL     1      -7.054   5.661  14.898  1.00  0.00    -0.015 C 
HETATM   21  C33 UNL     1      -7.675   4.297  15.314  1.00  0.00     0.018 C 
HETATM   22  C34 UNL     1      -5.902   5.923  15.895  1.00  0.00     0.018 C 
ENDROOT
BRANCH   1  23
HETATM   23  O3  UNL     1      -5.578   4.466  13.388  1.00  0.00    -0.352 OA
BRANCH  23  24
HETATM   24  C4  UNL     1      -4.678   4.501  12.272  1.00  0.00     0.292 C 
HETATM   25  C3  UNL     1      -3.284   4.873  12.843  1.00  0.00     0.218 C 
HETATM   26  C37 UNL     1      -2.136   4.362  11.953  1.00  0.00     0.183 C 
HETATM   27  C36 UNL     1      -2.357   2.917  11.468  1.00  0.00     0.173 C 
HETATM   28  C35 UNL     1      -3.712   2.363  11.905  1.00  0.00     0.205 C 
HETATM   29  O8  UNL     1      -4.741   3.276  11.550  1.00  0.00    -0.356 OA
BRANCH  25  30
HETATM   30  O2  UNL     1      -3.278   6.331  12.946  1.00  0.00    -0.309 OA
BRANCH  30  31
HETATM   31  C2  UNL     1      -2.239   6.925  13.580  1.00  0.00     0.255 C 
HETATM   32  C1  UNL     1      -1.680   8.047  12.758  1.00  0.00     0.126 C 
HETATM   33  O1  UNL     1      -1.819   6.599  14.680  1.00  0.00    -0.266 OA
ENDBRANCH  30  31
ENDBRANCH  25  30
BRANCH  26  34
HETATM   34  O10 UNL     1      -0.880   4.356  12.666  1.00  0.00    -0.390 OA
HETATM   35  H60 UNL     1      -0.868   5.097  13.308  1.00  0.00     0.210 HD
ENDBRANCH  26  34
BRANCH  27  36
HETATM   36  O9  UNL     1      -2.275   2.916  10.032  1.00  0.00    -0.391 OA
HETATM   37  H58 UNL     1      -2.339   1.993   9.732  1.00  0.00     0.210 HD
ENDBRANCH  27  36
ENDBRANCH  23  24
ENDBRANCH   1  23
BRANCH  18  38
HETATM   38  O7  UNL     1      -6.670   8.604  14.318  1.00  0.00    -0.395 OA
HETATM   39  H47 UNL     1      -7.051   8.690  13.429  1.00  0.00     0.210 HD
ENDBRANCH  18  38
BRANCH  11  40
HETATM   40  C16 UNL     1     -15.365   9.990  14.845  1.00  0.00     0.065 C 
HETATM   41  C17 UNL     1     -16.267  11.204  15.129  1.00  0.00     0.046 C 
HETATM   42  C18 UNL     1     -15.854   8.776  15.637  1.00  0.00     0.041 C 
HETATM   43  C19 UNL     1     -17.036   8.264  14.843  1.00  0.00     0.038 C 
HETATM   44  C20 UNL     1     -16.758   8.713  13.408  1.00  0.00     0.156 C 
HETATM   45  O5  UNL     1     -15.602   9.584  13.471  1.00  0.00    -0.372 OA
BRANCH  44  46
HETATM   46  C21 UNL     1     -16.463   7.585  12.387  1.00  0.00     0.076 C 
HETATM   47  C22 UNL     1     -17.451   6.423  12.566  1.00  0.00     0.048 C 
HETATM   48  C23 UNL     1     -15.032   7.057  12.504  1.00  0.00     0.048 C 
BRANCH  46  49
HETATM   49  O4  UNL     1     -16.643   8.095  11.058  1.00  0.00    -0.388 OA
HETATM   50  H35 UNL     1     -17.522   8.523  11.074  1.00  0.00     0.210 HD
ENDBRANCH  46  49
ENDBRANCH  44  46
ENDBRANCH  11  40
BRANCH  12  51
HETATM   51  O6  UNL     1     -14.031  10.437  17.475  1.00  0.00    -0.395 OA
HETATM   52  H37 UNL     1     -13.659  10.925  18.229  1.00  0.00     0.210 HD
ENDBRANCH  12  51
TORSDOF 11
ENDMDL
MODEL 4
REMARK minimizedAffinity -8.58908176
REMARK CNNscore 0.500338912
REMARK CNNaffinity 7.60296774
REMARK  11 active torsions:
REMARK  status: ('A' for Active; 'I' for Inactive)
REMARK    1  A    between atoms: C2_2  and  O2_4 
REMARK    2  A    between atoms: O2_4  and  C3_5 
REMARK    3  A    between atoms: C4_6  and  O3_7 
REMARK    4  A    between atoms: O3_7  and  C5_8 
REMARK    5  A    between atoms: C15_18  and  C16_19 
REMARK    6  A    between atoms: C20_23  and  C21_24 
REMARK    7  A    between atoms: C21_24  and  O4_27 
REMARK    8  A    between atoms: C24_29  and  O6_30 
REMARK    9  A    between atoms: C30_36  and  O7_37 
REMARK   10  A    between atoms: C36_44  and  O9_45 
REMARK   11  A    between atoms: C37_46  and  O10_47 
ROOT
HETATM    1  C5  UNL     1     -13.339   8.063  13.941  1.00  0.00     0.133 C 
HETATM    2  C6  UNL     1     -12.929   6.657  13.497  1.00  0.00     0.034 C 
HETATM    3  C7  UNL     1     -11.578   6.246  14.059  1.00  0.00     0.013 C 
HETATM    4  C8  UNL     1     -10.491   7.265  13.794  1.00  0.00    -0.025 A 
HETATM    5  C9  UNL     1      -9.509   7.071  12.674  1.00  0.00     0.021 A 
HETATM    6  C10 UNL     1      -9.034   6.850  14.105  1.00  0.00    -0.027 A 
HETATM    7  C11 UNL     1      -8.632   5.412  14.399  1.00  0.00     0.011 C 
HETATM    8  C12 UNL     1      -7.111   5.148  14.293  1.00  0.00     0.011 C 
HETATM    9  C13 UNL     1      -6.236   6.418  14.364  1.00  0.00    -0.028 C 
HETATM   10  C14 UNL     1      -6.133   7.044  12.944  1.00  0.00     0.016 C 
HETATM   11  C15 UNL     1      -4.786   6.237  14.936  1.00  0.00     0.057 C 
HETATM   12  C24 UNL     1      -4.443   7.667  15.480  1.00  0.00     0.126 C 
HETATM   13  C25 UNL     1      -5.775   8.455  15.549  1.00  0.00     0.042 C 
HETATM   14  C26 UNL     1      -6.879   7.387  15.431  1.00  0.00    -0.029 C 
HETATM   15  C27 UNL     1      -7.029   6.759  16.861  1.00  0.00     0.016 C 
HETATM   16  C28 UNL     1      -8.259   7.931  14.906  1.00  0.00     0.006 C 
HETATM   17  C29 UNL     1      -9.183   8.468  16.033  1.00  0.00     0.038 C 
HETATM   18  C30 UNL     1     -10.514   9.075  15.551  1.00  0.00     0.124 C 
HETATM   19  C31 UNL     1     -10.854   8.732  14.086  1.00  0.00     0.034 C 
HETATM   20  C32 UNL     1     -12.270   9.122  13.549  1.00  0.00    -0.015 C 
HETATM   21  C33 UNL     1     -12.184   9.265  12.002  1.00  0.00     0.018 C 
HETATM   22  C34 UNL     1     -12.706  10.508  14.078  1.00  0.00     0.018 C 
ENDROOT
BRANCH   1  23
HETATM   23  O3  UNL     1     -14.575   8.406  13.300  1.00  0.00    -0.352 OA
BRANCH  23  24
HETATM   24  C4  UNL     1     -15.654   8.675  14.206  1.00  0.00     0.292 C 
HETATM   25  C3  UNL     1     -16.964   8.412  13.418  1.00  0.00     0.218 C 
HETATM   26  C37 UNL     1     -18.137   8.048  14.346  1.00  0.00     0.183 C 
HETATM   27  C36 UNL     1     -17.738   7.042  15.443  1.00  0.00     0.173 C 
HETATM   28  C35 UNL     1     -16.246   6.717  15.411  1.00  0.00     0.205 C 
HETATM   29  O8  UNL     1     -15.492   7.921  15.402  1.00  0.00    -0.356 OA
BRANCH  25  30
HETATM   30  O2  UNL     1     -17.229   9.642  12.673  1.00  0.00    -0.309 OA
BRANCH  30  31
HETATM   31  C2  UNL     1     -17.218   9.588  11.321  1.00  0.00     0.255 C 
HETATM   32  C1  UNL     1     -18.515  10.079  10.753  1.00  0.00     0.126 C 
HETATM   33  O1  UNL     1     -16.272   9.201  10.649  1.00  0.00    -0.266 OA
ENDBRANCH  30  31
ENDBRANCH  25  30
BRANCH  26  34
HETATM   34  O10 UNL     1     -19.217   7.430  13.613  1.00  0.00    -0.390 OA
HETATM   35  H60 UNL     1     -19.253   7.807  12.708  1.00  0.00     0.210 HD
ENDBRANCH  26  34
BRANCH  27  36
HETATM   36  O9  UNL     1     -18.080   7.618  16.716  1.00  0.00    -0.391 OA
HETATM   37  H58 UNL     1     -17.897   6.953  17.401  1.00  0.00     0.210 HD
ENDBRANCH  27  36
ENDBRANCH  23  24
ENDBRANCH   1  23
BRANCH  18  38
HETATM   38  O7  UNL     1     -11.550   8.697  16.454  1.00  0.00    -0.395 OA
HETATM   39  H47 UNL     1     -11.551   7.728  16.527  1.00  0.00     0.210 HD
ENDBRANCH  18  38
BRANCH  11  40
HETATM   40  C16 UNL     1      -3.667   5.459  14.178  1.00  0.00     0.065 C 
HETATM   41  C17 UNL     1      -2.345   5.197  14.922  1.00  0.00     0.046 C 
HETATM   42  C18 UNL     1      -3.386   6.080  12.809  1.00  0.00     0.041 C 
HETATM   43  C19 UNL     1      -2.968   4.908  11.947  1.00  0.00     0.038 C 
HETATM   44  C20 UNL     1      -3.653   3.699  12.585  1.00  0.00     0.156 C 
HETATM   45  O5  UNL     1      -4.233   4.169  13.827  1.00  0.00    -0.372 OA
BRANCH  44  46
HETATM   46  C21 UNL     1      -4.772   3.030  11.747  1.00  0.00     0.076 C 
HETATM   47  C22 UNL     1      -6.151   3.333  12.350  1.00  0.00     0.048 C 
HETATM   48  C23 UNL     1      -4.587   1.516  11.638  1.00  0.00     0.048 C 
BRANCH  46  49
HETATM   49  O4  UNL     1      -4.758   3.578  10.421  1.00  0.00    -0.388 OA
HETATM   50  H35 UNL     1      -4.758   4.547  10.553  1.00  0.00     0.210 HD
ENDBRANCH  46  49
ENDBRANCH  44  46
ENDBRANCH  11  40
BRANCH  12  51
HETATM   51  O6  UNL     1      -3.534   8.397  14.679  1.00  0.00    -0.395 OA
HETATM   52  H37 UNL     1      -3.333   9.226  15.144  1.00  0.00     0.210 HD
ENDBRANCH  12  51
TORSDOF 11
ENDMDL
MODEL 5
REMARK minimizedAffinity -10.1905079
REMARK CNNscore 0.492415756
REMARK CNNaffinity 7.60917234
REMARK  11 active torsions:
REMARK  status: ('A' for Active; 'I' for Inactive)
REMARK    1  A    between atoms: C2_2  and  O2_4 
REMARK    2  A    between atoms: O2_4  and  C3_5 
REMARK    3  A    between atoms: C4_6  and  O3_7 
REMARK    4  A    between atoms: O3_7  and  C5_8 
REMARK    5  A    between atoms: C15_18  and  C16_19 
REMARK    6  A    between atoms: C20_23  and  C21_24 
REMARK    7  A    between atoms: C21_24  and  O4_27 
REMARK    8  A    between atoms: C24_29  and  O6_30 
REMARK    9  A    between atoms: C30_36  and  O7_37 
REMARK   10  A    between atoms: C36_44  and  O9_45 
REMARK   11  A    between atoms: C37_46  and  O10_47 
ROOT
HETATM    1  C5  UNL     1       1.865   7.951  12.024  1.00  0.00     0.133 C 
HETATM    2  C6  UNL     1       1.373   9.140  12.852  1.00  0.00     0.034 C 
HETATM    3  C7  UNL     1       0.158   8.792  13.694  1.00  0.00     0.013 C 
HETATM    4  C8  UNL     1      -0.958   8.159  12.893  1.00  0.00    -0.025 A 
HETATM    5  C9  UNL     1      -2.140   8.969  12.443  1.00  0.00     0.021 A 
HETATM    6  C10 UNL     1      -2.327   7.984  13.591  1.00  0.00    -0.027 A 
HETATM    7  C11 UNL     1      -2.666   8.649  14.916  1.00  0.00     0.011 C 
HETATM    8  C12 UNL     1      -4.180   8.674  15.240  1.00  0.00     0.011 C 
HETATM    9  C13 UNL     1      -5.022   7.659  14.437  1.00  0.00    -0.028 C 
HETATM   10  C14 UNL     1      -5.398   8.285  13.064  1.00  0.00     0.016 C 
HETATM   11  C15 UNL     1      -6.332   7.139  15.126  1.00  0.00     0.057 C 
HETATM   12  C24 UNL     1      -6.559   5.748  14.439  1.00  0.00     0.126 C 
HETATM   13  C25 UNL     1      -5.238   5.378  13.720  1.00  0.00     0.042 C 
HETATM   14  C26 UNL     1      -4.180   6.330  14.311  1.00  0.00    -0.029 C 
HETATM   15  C27 UNL     1      -3.756   5.705  15.686  1.00  0.00     0.016 C 
HETATM   16  C28 UNL     1      -2.928   6.567  13.388  1.00  0.00     0.006 C 
HETATM   17  C29 UNL     1      -1.801   5.518  13.590  1.00  0.00     0.038 C 
HETATM   18  C30 UNL     1      -0.588   5.675  12.653  1.00  0.00     0.124 C 
HETATM   19  C31 UNL     1      -0.542   7.035  11.926  1.00  0.00     0.034 C 
HETATM   20  C32 UNL     1       0.742   7.387  11.107  1.00  0.00    -0.015 C 
HETATM   21  C33 UNL     1       0.356   8.426  10.015  1.00  0.00     0.018 C 
HETATM   22  C34 UNL     1       1.276   6.152  10.346  1.00  0.00     0.018 C 
ENDROOT
BRANCH   1  23
HETATM   23  O3  UNL     1       2.953   8.384  11.195  1.00  0.00    -0.352 OA
BRANCH  23  24
HETATM   24  C4  UNL     1       4.226   8.403  11.856  1.00  0.00     0.292 C 
HETATM   25  C3  UNL     1       5.300   8.468  10.738  1.00  0.00     0.218 C 
HETATM   26  C37 UNL     1       6.613   9.104  11.231  1.00  0.00     0.183 C 
HETATM   27  C36 UNL     1       6.380  10.364  12.086  1.00  0.00     0.173 C 
HETATM   28  C35 UNL     1       4.895  10.632  12.326  1.00  0.00     0.205 C 
HETATM   29  O8  UNL     1       4.268   9.454  12.813  1.00  0.00    -0.356 OA
BRANCH  25  30
HETATM   30  O2  UNL     1       5.500   7.087  10.303  1.00  0.00    -0.309 OA
BRANCH  30  31
HETATM   31  C2  UNL     1       6.270   6.279  11.069  1.00  0.00     0.255 C 
HETATM   32  C1  UNL     1       6.136   6.628  12.520  1.00  0.00     0.126 C 
HETATM   33  O1  UNL     1       6.973   5.377  10.637  1.00  0.00    -0.266 OA
ENDBRANCH  30  31
ENDBRANCH  25  30
BRANCH  26  34
HETATM   34  O10 UNL     1       7.444   9.520  10.125  1.00  0.00    -0.390 OA
HETATM   35  H60 UNL     1       7.310   8.908   9.370  1.00  0.00     0.210 HD
ENDBRANCH  26  34
BRANCH  27  36
HETATM   36  O9  UNL     1       7.046  10.172  13.346  1.00  0.00    -0.391 OA
HETATM   37  H58 UNL     1       6.962  10.996  13.855  1.00  0.00     0.210 HD
ENDBRANCH  27  36
ENDBRANCH  23  24
ENDBRANCH   1  23
BRANCH  18  38
HETATM   38  O7  UNL     1       0.603   5.408  13.388  1.00  0.00    -0.395 OA
HETATM   39  H47 UNL     1       0.616   5.990  14.167  1.00  0.00     0.210 HD
ENDBRANCH  18  38
BRANCH  11  40
HETATM   40  C16 UNL     1      -7.579   8.043  15.367  1.00  0.00     0.065 C 
HETATM   41  C17 UNL     1      -7.347   9.555  15.540  1.00  0.00     0.046 C 
HETATM   42  C18 UNL     1      -8.443   7.509  16.511  1.00  0.00     0.041 C 
HETATM   43  C19 UNL     1      -9.852   7.913  16.135  1.00  0.00     0.038 C 
HETATM   44  C20 UNL     1      -9.828   8.010  14.609  1.00  0.00     0.156 C 
HETATM   45  O5  UNL     1      -8.443   7.864  14.213  1.00  0.00    -0.372 OA
BRANCH  44  46
HETATM   46  C21 UNL     1     -10.666   6.952  13.848  1.00  0.00     0.076 C 
HETATM   47  C22 UNL     1      -9.766   6.111  12.929  1.00  0.00     0.048 C 
HETATM   48  C23 UNL     1     -11.786   7.584  13.021  1.00  0.00     0.048 C 
BRANCH  46  49
HETATM   49  O4  UNL     1     -11.264   6.054  14.795  1.00  0.00    -0.388 OA
HETATM   50  H35 UNL     1     -10.524   5.772  15.369  1.00  0.00     0.210 HD
ENDBRANCH  46  49
ENDBRANCH  44  46
ENDBRANCH  11  40
BRANCH  12  51
HETATM   51  O6  UNL     1      -7.606   5.727  13.488  1.00  0.00    -0.395 OA
HETATM   52  H37 UNL     1      -7.711   4.808  13.187  1.00  0.00     0.210 HD
ENDBRANCH  12  51
TORSDOF 11
ENDMDL
MODEL 6
REMARK minimizedAffinity -8.39599037
REMARK CNNscore 0.466035008
REMARK CNNaffinity 6.8293438
REMARK  11 active torsions:
REMARK  status: ('A' for Active; 'I' for Inactive)
REMARK    1  A    between atoms: C2_2  and  O2_4 
REMARK    2  A    between atoms: O2_4  and  C3_5 
REMARK    3  A    between atoms: C4_6  and  O3_7 
REMARK    4  A    between atoms: O3_7  and  C5_8 
REMARK    5  A    between atoms: C15_18  and  C16_19 
REMARK    6  A    between atoms: C20_23  and  C21_24 
REMARK    7  A    between atoms: C21_24  and  O4_27 
REMARK    8  A    between atoms: C24_29  and  O6_30 
REMARK    9  A    between atoms: C30_36  and  O7_37 
REMARK   10  A    between atoms: C36_44  and  O9_45 
REMARK   11  A    between atoms: C37_46  and  O10_47 
ROOT
HETATM    1  C5  UNL     1      -4.126   6.627  13.810  1.00  0.00     0.133 C 
HETATM    2  C6  UNL     1      -5.272   7.405  14.460  1.00  0.00     0.034 C 
HETATM    3  C7  UNL     1      -4.948   8.881  14.622  1.00  0.00     0.013 C 
HETATM    4  C8  UNL     1      -3.629   9.125  15.321  1.00  0.00    -0.025 A 
HETATM    5  C9  UNL     1      -3.583   9.481  16.779  1.00  0.00     0.021 A 
HETATM    6  C10 UNL     1      -3.309  10.575  15.754  1.00  0.00    -0.027 A 
HETATM    7  C11 UNL     1      -4.351  11.683  15.753  1.00  0.00     0.011 C 
HETATM    8  C12 UNL     1      -3.946  12.930  16.576  1.00  0.00     0.011 C 
HETATM    9  C13 UNL     1      -2.435  13.040  16.868  1.00  0.00    -0.028 C 
HETATM   10  C14 UNL     1      -2.099  12.206  18.137  1.00  0.00     0.016 C 
HETATM   11  C15 UNL     1      -1.863  14.489  17.056  1.00  0.00     0.057 C 
HETATM   12  C24 UNL     1      -0.352  14.323  16.673  1.00  0.00     0.126 C 
HETATM   13  C25 UNL     1      -0.219  12.961  15.946  1.00  0.00     0.042 C 
HETATM   14  C26 UNL     1      -1.660  12.560  15.579  1.00  0.00    -0.029 C 
HETATM   15  C27 UNL     1      -2.015  13.363  14.279  1.00  0.00     0.016 C 
HETATM   16  C28 UNL     1      -1.872  11.016  15.364  1.00  0.00     0.006 C 
HETATM   17  C29 UNL     1      -1.589  10.547  13.911  1.00  0.00     0.038 C 
HETATM   18  C30 UNL     1      -1.716   9.029  13.678  1.00  0.00     0.124 C 
HETATM   19  C31 UNL     1      -2.436   8.288  14.824  1.00  0.00     0.034 C 
HETATM   20  C32 UNL     1      -2.801   6.783  14.610  1.00  0.00    -0.015 C 
HETATM   21  C33 UNL     1      -2.923   6.106  16.006  1.00  0.00     0.018 C 
HETATM   22  C34 UNL     1      -1.668   6.032  13.873  1.00  0.00     0.018 C 
ENDROOT
BRANCH   1  23
HETATM   23  O3  UNL     1      -4.474   5.237  13.775  1.00  0.00    -0.352 OA
BRANCH  23  24
HETATM   24  C4  UNL     1      -5.642   4.941  12.996  1.00  0.00     0.292 C 
HETATM   25  C3  UNL     1      -5.464   3.492  12.471  1.00  0.00     0.218 C 
HETATM   26  C37 UNL     1      -6.813   2.812  12.173  1.00  0.00     0.183 C 
HETATM   27  C36 UNL     1      -7.861   3.059  13.275  1.00  0.00     0.173 C 
HETATM   28  C35 UNL     1      -7.344   4.003  14.360  1.00  0.00     0.205 C 
HETATM   29  O8  UNL     1      -6.817   5.179  13.762  1.00  0.00    -0.356 OA
BRANCH  25  30
HETATM   30  O2  UNL     1      -4.641   3.607  11.268  1.00  0.00    -0.309 OA
BRANCH  30  31
HETATM   31  C2  UNL     1      -3.427   3.010  11.262  1.00  0.00     0.255 C 
HETATM   32  C1  UNL     1      -2.363   3.962  10.806  1.00  0.00     0.126 C 
HETATM   33  O1  UNL     1      -3.220   1.852  11.595  1.00  0.00    -0.266 OA
ENDBRANCH  30  31
ENDBRANCH  25  30
BRANCH  26  34
HETATM   34  O10 UNL     1      -6.670   1.379  12.072  1.00  0.00    -0.390 OA
HETATM   35  H60 UNL     1      -5.787   1.165  11.703  1.00  0.00     0.210 HD
ENDBRANCH  26  34
BRANCH  27  36
HETATM   36  O9  UNL     1      -9.028   3.628  12.655  1.00  0.00    -0.391 OA
HETATM   37  H58 UNL     1      -9.714   3.714  13.338  1.00  0.00     0.210 HD
ENDBRANCH  27  36
ENDBRANCH  23  24
ENDBRANCH   1  23
BRANCH  18  38
HETATM   38  O7  UNL     1      -2.331   8.804  12.412  1.00  0.00    -0.395 OA
HETATM   39  H47 UNL     1      -3.173   9.288  12.393  1.00  0.00     0.210 HD
ENDBRANCH  18  38
BRANCH  11  40
HETATM   40  C16 UNL     1      -2.207  15.382  18.288  1.00  0.00     0.065 C 
HETATM   41  C17 UNL     1      -1.654  16.818  18.312  1.00  0.00     0.046 C 
HETATM   42  C18 UNL     1      -1.877  14.670  19.602  1.00  0.00     0.041 C 
HETATM   43  C19 UNL     1      -2.902  15.201  20.581  1.00  0.00     0.038 C 
HETATM   44  C20 UNL     1      -4.095  15.596  19.711  1.00  0.00     0.156 C 
HETATM   45  O5  UNL     1      -3.655  15.472  18.336  1.00  0.00    -0.372 OA
BRANCH  44  46
HETATM   46  C21 UNL     1      -5.379  14.747  19.889  1.00  0.00     0.076 C 
HETATM   47  C22 UNL     1      -6.240  15.304  21.033  1.00  0.00     0.048 C 
HETATM   48  C23 UNL     1      -5.067  13.274  20.160  1.00  0.00     0.048 C 
BRANCH  46  49
HETATM   49  O4  UNL     1      -6.165  14.823  18.690  1.00  0.00    -0.388 OA
HETATM   50  H35 UNL     1      -6.233  15.780  18.500  1.00  0.00     0.210 HD
ENDBRANCH  46  49
ENDBRANCH  44  46
ENDBRANCH  11  40
BRANCH  12  51
HETATM   51  O6  UNL     1       0.537  14.331  17.773  1.00  0.00    -0.395 OA
HETATM   52  H37 UNL     1       1.442  14.302  17.419  1.00  0.00     0.210 HD
ENDBRANCH  12  51
TORSDOF 11
ENDMDL
MODEL 7
REMARK minimizedAffinity -9.00318432
REMARK CNNscore 0.441370994
REMARK CNNaffinity 5.92284632
REMARK  11 active torsions:
REMARK  status: ('A' for Active; 'I' for Inactive)
REMARK    1  A    between atoms: C2_2  and  O2_4 
REMARK    2  A    between atoms: O2_4  and  C3_5 
REMARK    3  A    between atoms: C4_6  and  O3_7 
REMARK    4  A    between atoms: O3_7  and  C5_8 
REMARK    5  A    between atoms: C15_18  and  C16_19 
REMARK    6  A    between atoms: C20_23  and  C21_24 
REMARK    7  A    between atoms: C21_24  and  O4_27 
REMARK    8  A    between atoms: C24_29  and  O6_30 
REMARK    9  A    between atoms: C30_36  and  O7_37 
REMARK   10  A    between atoms: C36_44  and  O9_45 
REMARK   11  A    between atoms: C37_46  and  O10_47 
ROOT
HETATM    1  C5  UNL     1     -17.877  -0.224  14.335  1.00  0.00     0.133 C 
HETATM    2  C6  UNL     1     -17.359   0.277  15.685  1.00  0.00     0.034 C 
HETATM    3  C7  UNL     1     -17.352   1.793  15.773  1.00  0.00     0.013 C 
HETATM    4  C8  UNL     1     -16.639   2.452  14.612  1.00  0.00    -0.025 A 
HETATM    5  C9  UNL     1     -15.229   2.949  14.755  1.00  0.00     0.021 A 
HETATM    6  C10 UNL     1     -16.361   3.970  14.715  1.00  0.00    -0.027 A 
HETATM    7  C11 UNL     1     -16.523   4.750  16.010  1.00  0.00     0.011 C 
HETATM    8  C12 UNL     1     -15.831   6.135  16.003  1.00  0.00     0.011 C 
HETATM    9  C13 UNL     1     -15.501   6.677  14.596  1.00  0.00    -0.028 C 
HETATM   10  C14 UNL     1     -14.135   6.094  14.133  1.00  0.00     0.016 C 
HETATM   11  C15 UNL     1     -15.456   8.238  14.441  1.00  0.00     0.057 C 
HETATM   12  C24 UNL     1     -15.766   8.447  12.918  1.00  0.00     0.126 C 
HETATM   13  C25 UNL     1     -16.330   7.107  12.384  1.00  0.00     0.042 C 
HETATM   14  C26 UNL     1     -16.700   6.298  13.641  1.00  0.00    -0.029 C 
HETATM   15  C27 UNL     1     -18.093   6.844  14.113  1.00  0.00     0.016 C 
HETATM   16  C28 UNL     1     -16.748   4.741  13.424  1.00  0.00     0.006 C 
HETATM   17  C29 UNL     1     -18.128   4.225  12.935  1.00  0.00     0.038 C 
HETATM   18  C30 UNL     1     -18.194   2.714  12.642  1.00  0.00     0.124 C 
HETATM   19  C31 UNL     1     -16.998   1.923  13.212  1.00  0.00     0.034 C 
HETATM   20  C32 UNL     1     -17.054   0.361  13.152  1.00  0.00    -0.015 C 
HETATM   21  C33 UNL     1     -15.596  -0.182  13.179  1.00  0.00     0.018 C 
HETATM   22  C34 UNL     1     -17.662  -0.126  11.816  1.00  0.00     0.018 C 
ENDROOT
BRANCH   1  23
HETATM   23  O3  UNL     1     -17.768  -1.653  14.300  1.00  0.00    -0.352 OA
BRANCH  23  24
HETATM   24  C4  UNL     1     -16.435  -2.148  14.487  1.00  0.00     0.292 C 
HETATM   25  C3  UNL     1     -16.466  -3.021  15.769  1.00  0.00     0.218 C 
HETATM   26  C37 UNL     1     -15.355  -4.087  15.773  1.00  0.00     0.183 C 
HETATM   27  C36 UNL     1     -15.209  -4.800  14.414  1.00  0.00     0.173 C 
HETATM   28  C35 UNL     1     -16.138  -4.212  13.353  1.00  0.00     0.205 C 
HETATM   29  O8  UNL     1     -15.982  -2.801  13.307  1.00  0.00    -0.356 OA
BRANCH  25  30
HETATM   30  O2  UNL     1     -16.321  -2.088  16.885  1.00  0.00    -0.309 OA
BRANCH  30  31
HETATM   31  C2  UNL     1     -16.865  -2.424  18.077  1.00  0.00     0.255 C 
HETATM   32  C1  UNL     1     -18.308  -2.799  17.921  1.00  0.00     0.126 C 
HETATM   33  O1  UNL     1     -16.261  -2.433  19.140  1.00  0.00    -0.266 OA
ENDBRANCH  30  31
ENDBRANCH  25  30
BRANCH  26  34
HETATM   34  O10 UNL     1     -15.624  -5.125  16.740  1.00  0.00    -0.390 OA
HETATM   35  H60 UNL     1     -16.098  -4.739  17.507  1.00  0.00     0.210 HD
ENDBRANCH  26  34
BRANCH  27  36
HETATM   36  O9  UNL     1     -13.842  -4.664  13.989  1.00  0.00    -0.391 OA
HETATM   37  H58 UNL     1     -13.734  -5.177  13.170  1.00  0.00     0.210 HD
ENDBRANCH  27  36
ENDBRANCH  23  24
ENDBRANCH   1  23
BRANCH  18  38
HETATM   38  O7  UNL     1     -19.447   2.208  13.094  1.00  0.00    -0.395 OA
HETATM   39  H47 UNL     1     -19.550   2.442  14.031  1.00  0.00     0.210 HD
ENDBRANCH  18  38
BRANCH  11  40
HETATM   40  C16 UNL     1     -14.345   9.122  15.085  1.00  0.00     0.065 C 
HETATM   41  C17 UNL     1     -14.683   9.861  16.392  1.00  0.00     0.046 C 
HETATM   42  C18 UNL     1     -13.748  10.097  14.069  1.00  0.00     0.041 C 
HETATM   43  C19 UNL     1     -12.311  10.264  14.513  1.00  0.00     0.038 C 
HETATM   44  C20 UNL     1     -11.981   8.965  15.247  1.00  0.00     0.156 C 
HETATM   45  O5  UNL     1     -13.228   8.236  15.362  1.00  0.00    -0.372 OA
BRANCH  44  46
HETATM   46  C21 UNL     1     -10.939   8.043  14.565  1.00  0.00     0.076 C 
HETATM   47  C22 UNL     1      -9.515   8.554  14.825  1.00  0.00     0.048 C 
HETATM   48  C23 UNL     1     -11.169   7.924  13.057  1.00  0.00     0.048 C 
BRANCH  46  49
HETATM   49  O4  UNL     1     -11.030   6.728  15.134  1.00  0.00    -0.388 OA
HETATM   50  H35 UNL     1     -10.996   6.875  16.100  1.00  0.00     0.210 HD
ENDBRANCH  46  49
ENDBRANCH  44  46
ENDBRANCH  11  40
BRANCH  12  51
HETATM   51  O6  UNL     1     -14.643   8.804  12.135  1.00  0.00    -0.395 OA
HETATM   52  H37 UNL     1     -14.960   8.985  11.233  1.00  0.00     0.210 HD
ENDBRANCH  12  51
TORSDOF 11
ENDMDL
MODEL 8
REMARK minimizedAffinity -11.0845699
REMARK CNNscore 0.439037472
REMARK CNNaffinity 7.48584366
REMARK  11 active torsions:
REMARK  status: ('A' for Active; 'I' for Inactive)
REMARK    1  A    between atoms: C2_2  and  O2_4 
REMARK    2  A    between atoms: O2_4  and  C3_5 
REMARK    3  A    between atoms: C4_6  and  O3_7 
REMARK    4  A    between atoms: O3_7  and  C5_8 
REMARK    5  A    between atoms: C15_18  and  C16_19 
REMARK    6  A    between atoms: C20_23  and  C21_24 
REMARK    7  A    between atoms: C21_24  and  O4_27 
REMARK    8  A    between atoms: C24_29  and  O6_30 
REMARK    9  A    between atoms: C30_36  and  O7_37 
REMARK   10  A    between atoms: C36_44  and  O9_45 
REMARK   11  A    between atoms: C37_46  and  O10_47 
ROOT
HETATM    1  C5  UNL     1      -4.775   6.449  15.226  1.00  0.00     0.133 C 
HETATM    2  C6  UNL     1      -4.084   5.415  14.334  1.00  0.00     0.034 C 
HETATM    3  C7  UNL     1      -2.571   5.554  14.357  1.00  0.00     0.013 C 
HETATM    4  C8  UNL     1      -2.100   6.962  14.063  1.00  0.00    -0.025 A 
HETATM    5  C9  UNL     1      -1.601   7.339  12.697  1.00  0.00     0.021 A 
HETATM    6  C10 UNL     1      -0.587   7.172  13.823  1.00  0.00    -0.027 A 
HETATM    7  C11 UNL     1       0.380   6.018  13.605  1.00  0.00     0.011 C 
HETATM    8  C12 UNL     1       1.741   6.441  13.001  1.00  0.00     0.011 C 
HETATM    9  C13 UNL     1       2.064   7.944  13.142  1.00  0.00    -0.028 C 
HETATM   10  C14 UNL     1       1.404   8.719  11.966  1.00  0.00     0.016 C 
HETATM   11  C15 UNL     1       3.583   8.330  13.206  1.00  0.00     0.057 C 
HETATM   12  C24 UNL     1       3.566   9.694  13.978  1.00  0.00     0.126 C 
HETATM   13  C25 UNL     1       2.167   9.826  14.630  1.00  0.00     0.042 C 
HETATM   14  C26 UNL     1       1.559   8.413  14.563  1.00  0.00    -0.029 C 
HETATM   15  C27 UNL     1       2.182   7.615  15.762  1.00  0.00     0.016 C 
HETATM   16  C28 UNL     1      -0.013   8.376  14.618  1.00  0.00     0.006 C 
HETATM   17  C29 UNL     1      -0.583   8.331  16.062  1.00  0.00     0.038 C 
HETATM   18  C30 UNL     1      -2.120   8.367  16.159  1.00  0.00     0.124 C 
HETATM   19  C31 UNL     1      -2.829   8.089  14.817  1.00  0.00     0.034 C 
HETATM   20  C32 UNL     1      -4.381   7.901  14.831  1.00  0.00    -0.015 C 
HETATM   21  C33 UNL     1      -4.929   8.250  13.417  1.00  0.00     0.018 C 
HETATM   22  C34 UNL     1      -5.056   8.896  15.803  1.00  0.00     0.018 C 
ENDROOT
BRANCH   1  23
HETATM   23  O3  UNL     1      -6.194   6.309  15.080  1.00  0.00    -0.352 OA
BRANCH  23  24
HETATM   24  C4  UNL     1      -6.628   6.073  13.734  1.00  0.00     0.292 C 
HETATM   25  C3  UNL     1      -7.181   4.624  13.698  1.00  0.00     0.218 C 
HETATM   26  C37 UNL     1      -8.214   4.424  12.574  1.00  0.00     0.183 C 
HETATM   27  C36 UNL     1      -9.222   5.585  12.478  1.00  0.00     0.173 C 
HETATM   28  C35 UNL     1      -8.898   6.711  13.459  1.00  0.00     0.205 C 
HETATM   29  O8  UNL     1      -7.536   7.089  13.324  1.00  0.00    -0.356 OA
BRANCH  25  30
HETATM   30  O2  UNL     1      -6.014   3.762  13.516  1.00  0.00    -0.309 OA
BRANCH  30  31
HETATM   31  C2  UNL     1      -5.912   3.054  12.367  1.00  0.00     0.255 C 
HETATM   32  C1  UNL     1      -4.852   3.628  11.476  1.00  0.00     0.126 C 
HETATM   33  O1  UNL     1      -6.586   2.071  12.094  1.00  0.00    -0.266 OA
ENDBRANCH  30  31
ENDBRANCH  25  30
BRANCH  26  34
HETATM   34  O10 UNL     1      -9.000   3.231  12.786  1.00  0.00    -0.390 OA
HETATM   35  H60 UNL     1      -8.449   2.554  13.233  1.00  0.00     0.210 HD
ENDBRANCH  26  34
BRANCH  27  36
HETATM   36  O9  UNL     1      -9.184   6.092  11.132  1.00  0.00    -0.391 OA
HETATM   37  H58 UNL     1      -9.873   6.774  11.053  1.00  0.00     0.210 HD
ENDBRANCH  27  36
ENDBRANCH  23  24
ENDBRANCH   1  23
BRANCH  18  38
HETATM   38  O7  UNL     1      -2.540   7.479  17.191  1.00  0.00    -0.395 OA
HETATM   39  H47 UNL     1      -2.168   6.601  17.008  1.00  0.00     0.210 HD
ENDBRANCH  18  38
BRANCH  11  40
HETATM   40  C16 UNL     1       4.542   8.198  11.983  1.00  0.00     0.065 C 
HETATM   41  C17 UNL     1       5.938   7.597  12.226  1.00  0.00     0.046 C 
HETATM   42  C18 UNL     1       4.664   9.521  11.225  1.00  0.00     0.041 C 
HETATM   43  C19 UNL     1       4.893   9.107   9.787  1.00  0.00     0.038 C 
HETATM   44  C20 UNL     1       4.239   7.730   9.675  1.00  0.00     0.156 C 
HETATM   45  O5  UNL     1       3.863   7.348  11.021  1.00  0.00    -0.372 OA
BRANCH  44  46
HETATM   46  C21 UNL     1       2.980   7.647   8.776  1.00  0.00     0.076 C 
HETATM   47  C22 UNL     1       1.715   7.966   9.587  1.00  0.00     0.048 C 
HETATM   48  C23 UNL     1       2.827   6.274   8.118  1.00  0.00     0.048 C 
BRANCH  46  49
HETATM   49  O4  UNL     1       3.078   8.631   7.736  1.00  0.00    -0.388 OA
HETATM   50  H35 UNL     1       3.292   9.463   8.203  1.00  0.00     0.210 HD
ENDBRANCH  46  49
ENDBRANCH  44  46
ENDBRANCH  11  40
BRANCH  12  51
HETATM   51  O6  UNL     1       3.791  10.831  13.167  1.00  0.00    -0.395 OA
HETATM   52  H37 UNL     1       3.838  11.605  13.753  1.00  0.00     0.210 HD
ENDBRANCH  12  51
TORSDOF 11
ENDMDL
MODEL 9
REMARK minimizedAffinity -9.78360748
REMARK CNNscore 0.432636172
REMARK CNNaffinity 7.30467415
REMARK  11 active torsions:
REMARK  status: ('A' for Active; 'I' for Inactive)
REMARK    1  A    between atoms: C2_2  and  O2_4 
REMARK    2  A    between atoms: O2_4  and  C3_5 
REMARK    3  A    between atoms: C4_6  and  O3_7 
REMARK    4  A    between atoms: O3_7  and  C5_8 
REMARK    5  A    between atoms: C15_18  and  C16_19 
REMARK    6  A    between atoms: C20_23  and  C21_24 
REMARK    7  A    between atoms: C21_24  and  O4_27 
REMARK    8  A    between atoms: C24_29  and  O6_30 
REMARK    9  A    between atoms: C30_36  and  O7_37 
REMARK   10  A    between atoms: C36_44  and  O9_45 
REMARK   11  A    between atoms: C37_46  and  O10_47 
ROOT
HETATM    1  C5  UNL     1      -7.612   6.450  14.072  1.00  0.00     0.133 C 
HETATM    2  C6  UNL     1      -7.246   7.926  13.900  1.00  0.00     0.034 C 
HETATM    3  C7  UNL     1      -5.820   8.112  13.408  1.00  0.00     0.013 C 
HETATM    4  C8  UNL     1      -4.802   7.368  14.245  1.00  0.00    -0.025 A 
HETATM    5  C9  UNL     1      -3.992   8.083  15.288  1.00  0.00     0.021 A 
HETATM    6  C10 UNL     1      -3.308   7.674  13.988  1.00  0.00    -0.027 A 
HETATM    7  C11 UNL     1      -2.842   8.853  13.148  1.00  0.00     0.011 C 
HETATM    8  C12 UNL     1      -1.347   9.209  13.336  1.00  0.00     0.011 C 
HETATM    9  C13 UNL     1      -0.495   8.083  13.957  1.00  0.00    -0.028 C 
HETATM   10  C14 UNL     1      -0.612   8.151  15.507  1.00  0.00     0.016 C 
HETATM   11  C15 UNL     1       1.026   8.063  13.572  1.00  0.00     0.057 C 
HETATM   12  C24 UNL     1       1.418   6.558  13.771  1.00  0.00     0.126 C 
HETATM   13  C25 UNL     1       0.097   5.757  13.873  1.00  0.00     0.042 C 
HETATM   14  C26 UNL     1      -0.993   6.713  13.351  1.00  0.00    -0.029 C 
HETATM   15  C27 UNL     1      -0.920   6.639  11.786  1.00  0.00     0.016 C 
HETATM   16  C28 UNL     1      -2.445   6.389  13.865  1.00  0.00     0.006 C 
HETATM   17  C29 UNL     1      -3.203   5.367  12.976  1.00  0.00     0.038 C 
HETATM   18  C30 UNL     1      -4.602   4.970  13.486  1.00  0.00     0.124 C 
HETATM   19  C31 UNL     1      -5.146   5.907  14.585  1.00  0.00     0.034 C 
HETATM   20  C32 UNL     1      -6.632   5.725  15.037  1.00  0.00    -0.015 C 
HETATM   21  C33 UNL     1      -6.776   6.282  16.482  1.00  0.00     0.018 C 
HETATM   22  C34 UNL     1      -7.011   4.228  15.120  1.00  0.00     0.018 C 
ENDROOT
BRANCH   1  23
HETATM   23  O3  UNL     1      -8.935   6.364  14.620  1.00  0.00    -0.352 OA
BRANCH  23  24
HETATM   24  C4  UNL     1      -9.690   7.580  14.531  1.00  0.00     0.292 C 
HETATM   25  C3  UNL     1     -11.168   7.201  14.809  1.00  0.00     0.218 C 
HETATM   26  C37 UNL     1     -11.980   8.389  15.357  1.00  0.00     0.183 C 
HETATM   27  C36 UNL     1     -11.220   9.180  16.439  1.00  0.00     0.173 C 
HETATM   28  C35 UNL     1      -9.799   8.658  16.643  1.00  0.00     0.205 C 
HETATM   29  O8  UNL     1      -9.135   8.569  15.391  1.00  0.00    -0.356 OA
BRANCH  25  30
HETATM   30  O2  UNL     1     -11.700   6.729  13.532  1.00  0.00    -0.309 OA
BRANCH  30  31
HETATM   31  C2  UNL     1     -12.489   7.565  12.817  1.00  0.00     0.255 C 
HETATM   32  C1  UNL     1     -13.908   7.082  12.801  1.00  0.00     0.126 C 
HETATM   33  O1  UNL     1     -12.101   8.585  12.267  1.00  0.00    -0.266 OA
ENDBRANCH  30  31
ENDBRANCH  25  30
BRANCH  26  34
HETATM   34  O10 UNL     1     -13.208   7.948  15.976  1.00  0.00    -0.390 OA
HETATM   35  H60 UNL     1     -13.537   7.150  15.510  1.00  0.00     0.210 HD
ENDBRANCH  26  34
BRANCH  27  36
HETATM   36  O9  UNL     1     -11.173  10.558  16.027  1.00  0.00    -0.391 OA
HETATM   37  H58 UNL     1     -10.760  11.068  16.744  1.00  0.00     0.210 HD
ENDBRANCH  27  36
ENDBRANCH  23  24
ENDBRANCH   1  23
BRANCH  18  38
HETATM   38  O7  UNL     1      -5.487   4.862  12.375  1.00  0.00    -0.395 OA
HETATM   39  H47 UNL     1      -5.460   5.698  11.881  1.00  0.00     0.210 HD
ENDBRANCH  18  38
BRANCH  11  40
HETATM   40  C16 UNL     1       2.036   9.148  14.055  1.00  0.00     0.065 C 
HETATM   41  C17 UNL     1       1.482  10.342  14.853  1.00  0.00     0.046 C 
HETATM   42  C18 UNL     1       2.912   9.647  12.904  1.00  0.00     0.041 C 
HETATM   43  C19 UNL     1       4.228  10.001  13.563  1.00  0.00     0.038 C 
HETATM   44  C20 UNL     1       4.289   9.107  14.801  1.00  0.00     0.156 C 
HETATM   45  O5  UNL     1       2.995   8.464  14.904  1.00  0.00    -0.372 OA
BRANCH  44  46
HETATM   46  C21 UNL     1       5.380   8.007  14.792  1.00  0.00     0.076 C 
HETATM   47  C22 UNL     1       6.691   8.542  15.387  1.00  0.00     0.048 C 
HETATM   48  C23 UNL     1       5.645   7.463  13.387  1.00  0.00     0.048 C 
BRANCH  46  49
HETATM   49  O4  UNL     1       4.953   6.914  15.620  1.00  0.00    -0.388 OA
HETATM   50  H35 UNL     1       4.686   7.332  16.462  1.00  0.00     0.210 HD
ENDBRANCH  46  49
ENDBRANCH  44  46
ENDBRANCH  11  40
BRANCH  12  51
HETATM   51  O6  UNL     1       2.188   6.301  14.930  1.00  0.00    -0.395 OA
HETATM   52  H37 UNL     1       2.439   5.362  14.912  1.00  0.00     0.210 HD
ENDBRANCH  12  51
TORSDOF 11
ENDMDL
