MODEL 1
REMARK minimizedAffinity -9.05496025
REMARK CNNscore 0.509870172
REMARK CNNaffinity 7.18639326
REMARK  11 active torsions:
REMARK  status: ('A' for Active; 'I' for Inactive)
REMARK    1  A    between atoms: C2_2  and  C4_4 
REMARK    2  A    between atoms: C5_5  and  C6_6 
REMARK    3  A    between atoms: C6_6  and  C7_7 
REMARK    4  A    between atoms: C7_7  and  C9_9 
REMARK    5  A    between atoms: C27_28  and  O2_29 
REMARK    6  A    between atoms: O2_29  and  C28_30 
REMARK    7  A    between atoms: C29_32  and  C30_33 
REMARK    8  A    between atoms: C30_33  and  O4_34 
REMARK    9  A    between atoms: C31_35  and  O5_36 
REMARK   10  A    between atoms: C32_37  and  O6_38 
REMARK   11  A    between atoms: C33_39  and  O7_40 
ROOT
HETATM    1  C9  UNL     1      -2.066   6.388  13.793  1.00  0.00    -0.002 C 
HETATM    2  C10 UNL     1      -0.778   6.225  12.920  1.00  0.00     0.006 C 
HETATM    3  C11 UNL     1       0.105   7.467  13.151  1.00  0.00     0.011 C 
HETATM    4  C12 UNL     1      -0.485   8.131  14.407  1.00  0.00    -0.029 C 
HETATM    5  C13 UNL     1       0.084   7.333  15.626  1.00  0.00     0.016 C 
HETATM    6  C14 UNL     1      -0.180   9.658  14.554  1.00  0.00     0.028 C 
HETATM    7  C15 UNL     1       1.302   9.969  14.689  1.00  0.00    -0.021 C 
HETATM    8  C16 UNL     1       1.775  10.782  15.652  1.00  0.00     0.008 C 
HETATM    9  C17 UNL     1       0.843  11.423  16.670  1.00  0.00     0.092 C 
HETATM   10  O1  UNL     1       0.140  12.429  15.901  1.00  0.00    -0.374 OA
HETATM   11  C18 UNL     1      -1.100  11.862  15.455  1.00  0.00     0.179 C 
HETATM   12  C19 UNL     1      -1.050  10.336  15.703  1.00  0.00    -0.004 C 
HETATM   13  C20 UNL     1      -2.514   9.815  15.773  1.00  0.00     0.014 C 
HETATM   14  C21 UNL     1      -2.764   8.333  15.449  1.00  0.00     0.011 C 
HETATM   15  C22 UNL     1      -2.029   7.906  14.165  1.00  0.00    -0.032 C 
HETATM   16  C23 UNL     1      -2.611   8.728  12.972  1.00  0.00     0.016 C 
HETATM   17  C24 UNL     1      -0.226  10.340  17.013  1.00  0.00     0.036 C 
HETATM   18  C25 UNL     1      -0.970  10.630  18.313  1.00  0.00     0.011 C 
HETATM   19  C26 UNL     1      -0.005  10.717  19.502  1.00  0.00     0.033 C 
HETATM   20  C27 UNL     1       1.443  11.068  19.115  1.00  0.00     0.136 C 
HETATM   21  C34 UNL     1       1.503  12.090  17.943  1.00  0.00     0.014 C 
HETATM   22  C35 UNL     1       2.980  12.508  17.712  1.00  0.00     0.021 C 
HETATM   23  C36 UNL     1       0.782  13.409  18.336  1.00  0.00     0.021 C 
ENDROOT
BRANCH  20  24
HETATM   24  O2  UNL     1       2.152  11.592  20.243  1.00  0.00    -0.352 OA
BRANCH  24  25
HETATM   25  C28 UNL     1       3.550  11.331  20.254  1.00  0.00     0.292 C 
HETATM   26  O3  UNL     1       3.853  10.011  20.704  1.00  0.00    -0.348 OA
HETATM   27  C29 UNL     1       3.723   9.745  22.116  1.00  0.00     0.179 C 
HETATM   28  C31 UNL     1       4.366  10.811  23.011  1.00  0.00     0.180 C 
HETATM   29  C32 UNL     1       4.021  12.235  22.571  1.00  0.00     0.183 C 
HETATM   30  C33 UNL     1       4.272  12.419  21.072  1.00  0.00     0.204 C 
BRANCH  27  31
HETATM   31  C30 UNL     1       2.285   9.395  22.545  1.00  0.00     0.198 C 
BRANCH  31  32
HETATM   32  O4  UNL     1       1.940   8.042  22.261  1.00  0.00    -0.398 OA
HETATM   33  H44 UNL     1       0.989   7.941  22.460  1.00  0.00     0.209 HD
ENDBRANCH  31  32
ENDBRANCH  27  31
BRANCH  28  34
HETATM   34  O5  UNL     1       5.807  10.670  22.954  1.00  0.00    -0.390 OA
HETATM   35  H46 UNL     1       6.128  11.445  23.469  1.00  0.00     0.210 HD
ENDBRANCH  28  34
BRANCH  29  36
HETATM   36  O6  UNL     1       4.854  13.141  23.334  1.00  0.00    -0.390 OA
HETATM   37  H48 UNL     1       5.384  13.646  22.683  1.00  0.00     0.210 HD
ENDBRANCH  29  36
BRANCH  30  38
HETATM   38  O7  UNL     1       5.695  12.408  20.829  1.00  0.00    -0.388 OA
HETATM   39  H50 UNL     1       6.016  11.534  21.141  1.00  0.00     0.210 HD
ENDBRANCH  30  38
ENDBRANCH  24  25
ENDBRANCH  20  24
BRANCH   1  40
HETATM   40  C7  UNL     1      -3.322   5.792  13.079  1.00  0.00    -0.010 C 
HETATM   41  C8  UNL     1      -4.481   5.518  14.043  1.00  0.00     0.010 C 
BRANCH  40  42
HETATM   42  C6  UNL     1      -3.006   4.511  12.259  1.00  0.00     0.031 C 
BRANCH  42  43
HETATM   43  C5  UNL     1      -4.021   3.402  12.383  1.00  0.00    -0.026 C 
HETATM   44  C4  UNL     1      -5.294   3.530  11.971  1.00  0.00     0.002 C 
BRANCH  44  45
HETATM   45  C2  UNL     1      -6.334   2.514  12.058  1.00  0.00    -0.072 C 
HETATM   46  C1  UNL     1      -6.189   1.354  11.389  1.00  0.00     0.018 C 
HETATM   47  C3  UNL     1      -7.567   2.776  12.884  1.00  0.00     0.047 C 
ENDBRANCH  44  45
ENDBRANCH  42  43
ENDBRANCH  40  42
ENDBRANCH   1  40
TORSDOF 11
ENDMDL
MODEL 2
REMARK minimizedAffinity -7.79130363
REMARK CNNscore 0.43310523
REMARK CNNaffinity 7.14990425
REMARK  11 active torsions:
REMARK  status: ('A' for Active; 'I' for Inactive)
REMARK    1  A    between atoms: C2_2  and  C4_4 
REMARK    2  A    between atoms: C5_5  and  C6_6 
REMARK    3  A    between atoms: C6_6  and  C7_7 
REMARK    4  A    between atoms: C7_7  and  C9_9 
REMARK    5  A    between atoms: C27_28  and  O2_29 
REMARK    6  A    between atoms: O2_29  and  C28_30 
REMARK    7  A    between atoms: C29_32  and  C30_33 
REMARK    8  A    between atoms: C30_33  and  O4_34 
REMARK    9  A    between atoms: C31_35  and  O5_36 
REMARK   10  A    between atoms: C32_37  and  O6_38 
REMARK   11  A    between atoms: C33_39  and  O7_40 
ROOT
HETATM    1  C9  UNL     1      -6.992 -12.096  -0.723  1.00  0.00    -0.002 C 
HETATM    2  C10 UNL     1      -6.311 -13.500  -0.619  1.00  0.00     0.006 C 
HETATM    3  C11 UNL     1      -5.396 -13.487   0.620  1.00  0.00     0.011 C 
HETATM    4  C12 UNL     1      -5.836 -12.244   1.412  1.00  0.00    -0.029 C 
HETATM    5  C13 UNL     1      -7.121 -12.665   2.199  1.00  0.00     0.016 C 
HETATM    6  C14 UNL     1      -4.759 -11.661   2.384  1.00  0.00     0.028 C 
HETATM    7  C15 UNL     1      -4.357 -12.623   3.491  1.00  0.00    -0.021 C 
HETATM    8  C16 UNL     1      -4.309 -12.246   4.781  1.00  0.00     0.008 C 
HETATM    9  C17 UNL     1      -4.671 -10.828   5.201  1.00  0.00     0.092 C 
HETATM   10  O1  UNL     1      -3.552 -10.038   4.730  1.00  0.00    -0.374 OA
HETATM   11  C18 UNL     1      -3.895  -9.505   3.444  1.00  0.00     0.179 C 
HETATM   12  C19 UNL     1      -5.169 -10.228   2.945  1.00  0.00    -0.004 C 
HETATM   13  C20 UNL     1      -5.855  -9.313   1.891  1.00  0.00     0.014 C 
HETATM   14  C21 UNL     1      -6.774  -9.979   0.853  1.00  0.00     0.011 C 
HETATM   15  C22 UNL     1      -6.116 -11.227   0.237  1.00  0.00    -0.032 C 
HETATM   16  C23 UNL     1      -4.832 -10.774  -0.529  1.00  0.00     0.016 C 
HETATM   17  C24 UNL     1      -5.879 -10.412   4.308  1.00  0.00     0.036 C 
HETATM   18  C25 UNL     1      -6.651  -9.221   4.867  1.00  0.00     0.011 C 
HETATM   19  C26 UNL     1      -7.196  -9.518   6.270  1.00  0.00     0.033 C 
HETATM   20  C27 UNL     1      -6.430 -10.618   7.026  1.00  0.00     0.136 C 
HETATM   21  C34 UNL     1      -4.900 -10.562   6.744  1.00  0.00     0.014 C 
HETATM   22  C35 UNL     1      -4.181 -11.596   7.651  1.00  0.00     0.021 C 
HETATM   23  C36 UNL     1      -4.317  -9.189   7.180  1.00  0.00     0.021 C 
ENDROOT
BRANCH  20  24
HETATM   24  O2  UNL     1      -6.659 -10.513   8.435  1.00  0.00    -0.352 OA
BRANCH  24  25
HETATM   25  C28 UNL     1      -6.607  -9.192   8.960  1.00  0.00     0.292 C 
HETATM   26  O3  UNL     1      -5.766  -9.097  10.109  1.00  0.00    -0.348 OA
HETATM   27  C29 UNL     1      -6.268  -9.643  11.346  1.00  0.00     0.179 C 
HETATM   28  C31 UNL     1      -7.711  -9.235  11.665  1.00  0.00     0.180 C 
HETATM   29  C32 UNL     1      -8.641  -9.369  10.458  1.00  0.00     0.183 C 
HETATM   30  C33 UNL     1      -8.038  -8.686   9.226  1.00  0.00     0.204 C 
BRANCH  27  31
HETATM   31  C30 UNL     1      -6.031 -11.159  11.489  1.00  0.00     0.198 C 
BRANCH  31  32
HETATM   32  O4  UNL     1      -6.052 -11.594  12.846  1.00  0.00    -0.398 OA
HETATM   33  H44 UNL     1      -5.784 -12.533  12.850  1.00  0.00     0.209 HD
ENDBRANCH  31  32
ENDBRANCH  27  31
BRANCH  28  34
HETATM   34  O5  UNL     1      -7.730  -7.848  12.084  1.00  0.00    -0.390 OA
HETATM   35  H46 UNL     1      -8.691  -7.653  12.167  1.00  0.00     0.210 HD
ENDBRANCH  28  34
BRANCH  29  36
HETATM   36  O6  UNL     1      -9.901  -8.749  10.807  1.00  0.00    -0.390 OA
HETATM   37  H48 UNL     1     -10.048  -8.029  10.159  1.00  0.00     0.210 HD
ENDBRANCH  29  36
BRANCH  30  38
HETATM   38  O7  UNL     1      -8.066  -7.256   9.421  1.00  0.00    -0.388 OA
HETATM   39  H50 UNL     1      -7.531  -7.081  10.226  1.00  0.00     0.210 HD
ENDBRANCH  30  38
ENDBRANCH  24  25
ENDBRANCH  20  24
BRANCH   1  40
HETATM   40  C7  UNL     1      -7.183 -11.660  -2.211  1.00  0.00    -0.010 C 
HETATM   41  C8  UNL     1      -6.470 -12.588  -3.200  1.00  0.00     0.010 C 
BRANCH  40  42
HETATM   42  C6  UNL     1      -6.760 -10.188  -2.474  1.00  0.00     0.031 C 
BRANCH  42  43
HETATM   43  C5  UNL     1      -7.794  -9.337  -3.167  1.00  0.00    -0.026 C 
HETATM   44  C4  UNL     1      -7.489  -8.190  -3.800  1.00  0.00     0.002 C 
BRANCH  44  45
HETATM   45  C2  UNL     1      -8.424  -7.311  -4.488  1.00  0.00    -0.072 C 
HETATM   46  C1  UNL     1      -8.643  -7.473  -5.807  1.00  0.00     0.018 C 
HETATM   47  C3  UNL     1      -9.127  -6.221  -3.720  1.00  0.00     0.047 C 
ENDBRANCH  44  45
ENDBRANCH  42  43
ENDBRANCH  40  42
ENDBRANCH   1  40
TORSDOF 11
ENDMDL
MODEL 3
REMARK minimizedAffinity -8.13250256
REMARK CNNscore 0.411509067
REMARK CNNaffinity 6.84026194
REMARK  11 active torsions:
REMARK  status: ('A' for Active; 'I' for Inactive)
REMARK    1  A    between atoms: C2_2  and  C4_4 
REMARK    2  A    between atoms: C5_5  and  C6_6 
REMARK    3  A    between atoms: C6_6  and  C7_7 
REMARK    4  A    between atoms: C7_7  and  C9_9 
REMARK    5  A    between atoms: C27_28  and  O2_29 
REMARK    6  A    between atoms: O2_29  and  C28_30 
REMARK    7  A    between atoms: C29_32  and  C30_33 
REMARK    8  A    between atoms: C30_33  and  O4_34 
REMARK    9  A    between atoms: C31_35  and  O5_36 
REMARK   10  A    between atoms: C32_37  and  O6_38 
REMARK   11  A    between atoms: C33_39  and  O7_40 
ROOT
HETATM    1  C9  UNL     1      -0.935   6.029  11.938  1.00  0.00    -0.002 C 
HETATM    2  C10 UNL     1      -2.020   5.145  12.637  1.00  0.00     0.006 C 
HETATM    3  C11 UNL     1      -2.354   5.797  13.993  1.00  0.00     0.011 C 
HETATM    4  C12 UNL     1      -1.758   7.212  13.898  1.00  0.00    -0.029 C 
HETATM    5  C13 UNL     1      -2.789   8.061  13.082  1.00  0.00     0.016 C 
HETATM    6  C14 UNL     1      -1.443   7.893  15.269  1.00  0.00     0.028 C 
HETATM    7  C15 UNL     1      -2.676   8.118  16.131  1.00  0.00    -0.021 C 
HETATM    8  C16 UNL     1      -2.931   9.304  16.714  1.00  0.00     0.008 C 
HETATM    9  C17 UNL     1      -1.997  10.491  16.527  1.00  0.00     0.092 C 
HETATM   10  O1  UNL     1      -0.835  10.137  17.315  1.00  0.00    -0.374 OA
HETATM   11  C18 UNL     1       0.126   9.529  16.443  1.00  0.00     0.179 C 
HETATM   12  C19 UNL     1      -0.572   9.215  15.098  1.00  0.00    -0.004 C 
HETATM   13  C20 UNL     1       0.526   9.106  14.003  1.00  0.00     0.014 C 
HETATM   14  C21 UNL     1       0.209   8.276  12.748  1.00  0.00     0.011 C 
HETATM   15  C22 UNL     1      -0.418   6.919  13.116  1.00  0.00    -0.032 C 
HETATM   16  C23 UNL     1       0.630   6.103  13.937  1.00  0.00     0.016 C 
HETATM   17  C24 UNL     1      -1.525  10.434  15.042  1.00  0.00     0.036 C 
HETATM   18  C25 UNL     1      -0.948  11.757  14.549  1.00  0.00     0.011 C 
HETATM   19  C26 UNL     1      -1.975  12.891  14.662  1.00  0.00     0.033 C 
HETATM   20  C27 UNL     1      -3.076  12.643  15.708  1.00  0.00     0.136 C 
HETATM   21  C34 UNL     1      -2.530  11.913  16.969  1.00  0.00     0.014 C 
HETATM   22  C35 UNL     1      -3.656  11.834  18.035  1.00  0.00     0.021 C 
HETATM   23  C36 UNL     1      -1.414  12.758  17.644  1.00  0.00     0.021 C 
ENDROOT
BRANCH  20  24
HETATM   24  O2  UNL     1      -3.687  13.878  16.097  1.00  0.00    -0.352 OA
BRANCH  24  25
HETATM   25  C28 UNL     1      -5.057  14.016  15.740  1.00  0.00     0.292 C 
HETATM   26  O3  UNL     1      -5.227  14.683  14.490  1.00  0.00    -0.348 OA
HETATM   27  C29 UNL     1      -5.006  16.108  14.463  1.00  0.00     0.179 C 
HETATM   28  C31 UNL     1      -5.690  16.865  15.608  1.00  0.00     0.180 C 
HETATM   29  C32 UNL     1      -5.485  16.189  16.965  1.00  0.00     0.183 C 
HETATM   30  C33 UNL     1      -5.824  14.697  16.888  1.00  0.00     0.204 C 
BRANCH  27  31
HETATM   31  C30 UNL     1      -3.525  16.497  14.292  1.00  0.00     0.198 C 
BRANCH  31  32
HETATM   32  O4  UNL     1      -2.926  15.897  13.147  1.00  0.00    -0.398 OA
HETATM   33  H44 UNL     1      -1.973  16.105  13.180  1.00  0.00     0.209 HD
ENDBRANCH  31  32
ENDBRANCH  27  31
BRANCH  28  34
HETATM   34  O5  UNL     1      -7.116  16.920  15.355  1.00  0.00    -0.390 OA
HETATM   35  H46 UNL     1      -7.473  17.327  16.176  1.00  0.00     0.210 HD
ENDBRANCH  28  34
BRANCH  29  36
HETATM   36  O6  UNL     1      -6.351  16.851  17.917  1.00  0.00    -0.390 OA
HETATM   37  H48 UNL     1      -6.953  16.164  18.272  1.00  0.00     0.210 HD
ENDBRANCH  29  36
BRANCH  30  38
HETATM   38  O7  UNL     1      -7.252  14.548  16.734  1.00  0.00    -0.388 OA
HETATM   39  H50 UNL     1      -7.484  15.011  15.900  1.00  0.00     0.210 HD
ENDBRANCH  30  38
ENDBRANCH  24  25
ENDBRANCH  20  24
BRANCH   1  40
HETATM   40  C7  UNL     1       0.073   5.160  11.120  1.00  0.00    -0.010 C 
HETATM   41  C8  UNL     1       0.035   3.679  11.510  1.00  0.00     0.010 C 
BRANCH  40  42
HETATM   42  C6  UNL     1       1.533   5.686  11.194  1.00  0.00     0.031 C 
BRANCH  42  43
HETATM   43  C5  UNL     1       2.122   6.132   9.880  1.00  0.00    -0.026 C 
HETATM   44  C4  UNL     1       1.693   7.223   9.222  1.00  0.00     0.002 C 
BRANCH  44  45
HETATM   45  C2  UNL     1       2.204   7.718   7.950  1.00  0.00    -0.072 C 
HETATM   46  C1  UNL     1       3.089   8.732   7.938  1.00  0.00     0.018 C 
HETATM   47  C3  UNL     1       1.726   7.100   6.662  1.00  0.00     0.047 C 
ENDBRANCH  44  45
ENDBRANCH  42  43
ENDBRANCH  40  42
ENDBRANCH   1  40
TORSDOF 11
ENDMDL
MODEL 4
REMARK minimizedAffinity -7.62360191
REMARK CNNscore 0.260416031
REMARK CNNaffinity 6.63837814
REMARK  11 active torsions:
REMARK  status: ('A' for Active; 'I' for Inactive)
REMARK    1  A    between atoms: C2_2  and  C4_4 
REMARK    2  A    between atoms: C5_5  and  C6_6 
REMARK    3  A    between atoms: C6_6  and  C7_7 
REMARK    4  A    between atoms: C7_7  and  C9_9 
REMARK    5  A    between atoms: C27_28  and  O2_29 
REMARK    6  A    between atoms: O2_29  and  C28_30 
REMARK    7  A    between atoms: C29_32  and  C30_33 
REMARK    8  A    between atoms: C30_33  and  O4_34 
REMARK    9  A    between atoms: C31_35  and  O5_36 
REMARK   10  A    between atoms: C32_37  and  O6_38 
REMARK   11  A    between atoms: C33_39  and  O7_40 
ROOT
HETATM    1  C9  UNL     1      -2.071   6.153  12.684  1.00  0.00    -0.002 C 
HETATM    2  C10 UNL     1      -3.093   5.460  13.644  1.00  0.00     0.006 C 
HETATM    3  C11 UNL     1      -3.190   6.314  14.923  1.00  0.00     0.011 C 
HETATM    4  C12 UNL     1      -2.533   7.652  14.544  1.00  0.00    -0.029 C 
HETATM    5  C13 UNL     1      -3.619   8.461  13.760  1.00  0.00     0.016 C 
HETATM    6  C14 UNL     1      -1.984   8.486  15.747  1.00  0.00     0.028 C 
HETATM    7  C15 UNL     1      -3.065   8.922  16.725  1.00  0.00    -0.021 C 
HETATM    8  C16 UNL     1      -3.164  10.192  17.158  1.00  0.00     0.008 C 
HETATM    9  C17 UNL     1      -2.199  11.266  16.676  1.00  0.00     0.092 C 
HETATM   10  O1  UNL     1      -0.958  10.933  17.345  1.00  0.00    -0.374 OA
HETATM   11  C18 UNL     1      -0.170  10.139  16.449  1.00  0.00     0.179 C 
HETATM   12  C19 UNL     1      -1.071   9.700  15.270  1.00  0.00    -0.004 C 
HETATM   13  C20 UNL     1      -0.150   9.358  14.065  1.00  0.00     0.014 C 
HETATM   14  C21 UNL     1      -0.693   8.393  12.998  1.00  0.00     0.011 C 
HETATM   15  C22 UNL     1      -1.339   7.151  13.640  1.00  0.00    -0.032 C 
HETATM   16  C23 UNL     1      -0.233   6.375  14.423  1.00  0.00     0.016 C 
HETATM   17  C24 UNL     1      -1.950  10.971  15.166  1.00  0.00     0.036 C 
HETATM   18  C25 UNL     1      -1.373  12.166  14.413  1.00  0.00     0.011 C 
HETATM   19  C26 UNL     1      -2.305  13.381  14.497  1.00  0.00     0.033 C 
HETATM   20  C27 UNL     1      -3.257  13.365  15.706  1.00  0.00     0.136 C 
HETATM   21  C34 UNL     1      -2.578  12.773  16.975  1.00  0.00     0.014 C 
HETATM   22  C35 UNL     1      -3.542  12.927  18.183  1.00  0.00     0.021 C 
HETATM   23  C36 UNL     1      -1.329  13.611  17.364  1.00  0.00     0.021 C 
ENDROOT
BRANCH  20  24
HETATM   24  O2  UNL     1      -3.732  14.685  15.990  1.00  0.00    -0.352 OA
BRANCH  24  25
HETATM   25  C28 UNL     1      -3.298  15.692  15.085  1.00  0.00     0.292 C 
HETATM   26  O3  UNL     1      -2.601  16.751  15.741  1.00  0.00    -0.348 OA
HETATM   27  C29 UNL     1      -3.386  17.684  16.512  1.00  0.00     0.179 C 
HETATM   28  C31 UNL     1      -4.635  18.194  15.784  1.00  0.00     0.180 C 
HETATM   29  C32 UNL     1      -5.422  17.071  15.107  1.00  0.00     0.183 C 
HETATM   30  C33 UNL     1      -4.497  16.193  14.257  1.00  0.00     0.204 C 
BRANCH  27  31
HETATM   31  C30 UNL     1      -3.685  17.200  17.944  1.00  0.00     0.198 C 
BRANCH  31  32
HETATM   32  O4  UNL     1      -5.061  17.322  18.290  1.00  0.00    -0.398 OA
HETATM   33  H44 UNL     1      -5.139  17.102  19.238  1.00  0.00     0.209 HD
ENDBRANCH  31  32
ENDBRANCH  27  31
BRANCH  28  34
HETATM   34  O5  UNL     1      -4.235  19.133  14.755  1.00  0.00    -0.390 OA
HETATM   35  H46 UNL     1      -5.079  19.324  14.286  1.00  0.00     0.210 HD
ENDBRANCH  28  34
BRANCH  29  36
HETATM   36  O6  UNL     1      -6.433  17.686  14.274  1.00  0.00    -0.390 OA
HETATM   37  H48 UNL     1      -6.260  17.386  13.357  1.00  0.00     0.210 HD
ENDBRANCH  29  36
BRANCH  30  38
HETATM   38  O7  UNL     1      -4.067  16.945  13.102  1.00  0.00    -0.388 OA
HETATM   39  H50 UNL     1      -3.594  17.731  13.451  1.00  0.00     0.210 HD
ENDBRANCH  30  38
ENDBRANCH  24  25
ENDBRANCH  20  24
BRANCH   1  40
HETATM   40  C7  UNL     1      -1.244   5.105  11.873  1.00  0.00    -0.010 C 
HETATM   41  C8  UNL     1      -0.139   5.744  11.026  1.00  0.00     0.010 C 
BRANCH  40  42
HETATM   42  C6  UNL     1      -2.128   4.190  10.981  1.00  0.00     0.031 C 
BRANCH  42  43
HETATM   43  C5  UNL     1      -3.341   3.608  11.662  1.00  0.00    -0.026 C 
HETATM   44  C4  UNL     1      -4.425   3.189  10.986  1.00  0.00     0.002 C 
BRANCH  44  45
HETATM   45  C2  UNL     1      -5.635   2.621  11.566  1.00  0.00    -0.072 C 
HETATM   46  C1  UNL     1      -6.312   3.312  12.503  1.00  0.00     0.018 C 
HETATM   47  C3  UNL     1      -6.109   1.261  11.121  1.00  0.00     0.047 C 
ENDBRANCH  44  45
ENDBRANCH  42  43
ENDBRANCH  40  42
ENDBRANCH   1  40
TORSDOF 11
ENDMDL
MODEL 5
REMARK minimizedAffinity -9.29288673
REMARK CNNscore 0.258308321
REMARK CNNaffinity 7.12778854
REMARK  11 active torsions:
REMARK  status: ('A' for Active; 'I' for Inactive)
REMARK    1  A    between atoms: C2_2  and  C4_4 
REMARK    2  A    between atoms: C5_5  and  C6_6 
REMARK    3  A    between atoms: C6_6  and  C7_7 
REMARK    4  A    between atoms: C7_7  and  C9_9 
REMARK    5  A    between atoms: C27_28  and  O2_29 
REMARK    6  A    between atoms: O2_29  and  C28_30 
REMARK    7  A    between atoms: C29_32  and  C30_33 
REMARK    8  A    between atoms: C30_33  and  O4_34 
REMARK    9  A    between atoms: C31_35  and  O5_36 
REMARK   10  A    between atoms: C32_37  and  O6_38 
REMARK   11  A    between atoms: C33_39  and  O7_40 
ROOT
HETATM    1  C9  UNL     1      -5.345   6.512  14.998  1.00  0.00    -0.002 C 
HETATM    2  C10 UNL     1      -5.365   5.124  14.277  1.00  0.00     0.006 C 
HETATM    3  C11 UNL     1      -4.199   5.103  13.269  1.00  0.00     0.011 C 
HETATM    4  C12 UNL     1      -3.314   6.293  13.677  1.00  0.00    -0.029 C 
HETATM    5  C13 UNL     1      -2.455   5.797  14.887  1.00  0.00     0.016 C 
HETATM    6  C14 UNL     1      -2.399   6.859  12.543  1.00  0.00     0.028 C 
HETATM    7  C15 UNL     1      -1.376   5.855  12.033  1.00  0.00    -0.021 C 
HETATM    8  C16 UNL     1      -0.075   6.170  11.895  1.00  0.00     0.008 C 
HETATM    9  C17 UNL     1       0.443   7.555  12.258  1.00  0.00     0.092 C 
HETATM   10  O1  UNL     1      -0.072   8.398  11.199  1.00  0.00    -0.374 OA
HETATM   11  C18 UNL     1      -1.299   8.983  11.653  1.00  0.00     0.179 C 
HETATM   12  C19 UNL     1      -1.737   8.250  12.943  1.00  0.00    -0.004 C 
HETATM   13  C20 UNL     1      -2.687   9.195  13.731  1.00  0.00     0.014 C 
HETATM   14  C21 UNL     1      -3.685   8.554  14.711  1.00  0.00     0.011 C 
HETATM   15  C22 UNL     1      -4.412   7.357  14.072  1.00  0.00    -0.032 C 
HETATM   16  C23 UNL     1      -5.249   7.883  12.863  1.00  0.00     0.016 C 
HETATM   17  C24 UNL     1      -0.334   7.979  13.541  1.00  0.00     0.036 C 
HETATM   18  C25 UNL     1       0.341   9.119  14.297  1.00  0.00     0.011 C 
HETATM   19  C26 UNL     1       1.765   8.739  14.724  1.00  0.00     0.033 C 
HETATM   20  C27 UNL     1       2.403   7.626  13.875  1.00  0.00     0.136 C 
HETATM   21  C34 UNL     1       2.009   7.739  12.373  1.00  0.00     0.014 C 
HETATM   22  C35 UNL     1       2.806   6.683  11.561  1.00  0.00     0.021 C 
HETATM   23  C36 UNL     1       2.469   9.105  11.792  1.00  0.00     0.021 C 
ENDROOT
BRANCH  20  24
HETATM   24  O2  UNL     1       3.829   7.655  13.997  1.00  0.00    -0.352 OA
BRANCH  24  25
HETATM   25  C28 UNL     1       4.379   8.912  14.376  1.00  0.00     0.292 C 
HETATM   26  O3  UNL     1       5.137   9.512  13.325  1.00  0.00    -0.348 OA
HETATM   27  C29 UNL     1       6.435   8.952  13.041  1.00  0.00     0.179 C 
HETATM   28  C31 UNL     1       7.292   8.705  14.288  1.00  0.00     0.180 C 
HETATM   29  C32 UNL     1       6.510   8.024  15.413  1.00  0.00     0.183 C 
HETATM   30  C33 UNL     1       5.188   8.751  15.677  1.00  0.00     0.204 C 
BRANCH  27  31
HETATM   31  C30 UNL     1       6.386   7.733  12.099  1.00  0.00     0.198 C 
BRANCH  31  32
HETATM   32  O4  UNL     1       6.954   8.001  10.821  1.00  0.00    -0.398 OA
HETATM   33  H44 UNL     1       6.781   7.220  10.261  1.00  0.00     0.209 HD
ENDBRANCH  31  32
ENDBRANCH  27  31
BRANCH  28  34
HETATM   34  O5  UNL     1       7.773   9.975  14.793  1.00  0.00    -0.390 OA
HETATM   35  H46 UNL     1       8.219   9.727  15.634  1.00  0.00     0.210 HD
ENDBRANCH  28  34
BRANCH  29  36
HETATM   36  O6  UNL     1       7.341   8.050  16.598  1.00  0.00    -0.390 OA
HETATM   37  H48 UNL     1       6.839   8.544  17.280  1.00  0.00     0.210 HD
ENDBRANCH  29  36
BRANCH  30  38
HETATM   38  O7  UNL     1       5.468  10.028  16.288  1.00  0.00    -0.388 OA
HETATM   39  H50 UNL     1       6.025  10.520  15.646  1.00  0.00     0.210 HD
ENDBRANCH  30  38
ENDBRANCH  24  25
ENDBRANCH  20  24
BRANCH   1  40
HETATM   40  C7  UNL     1      -6.790   7.014  15.314  1.00  0.00    -0.010 C 
HETATM   41  C8  UNL     1      -7.139   6.927  16.803  1.00  0.00     0.010 C 
BRANCH  40  42
HETATM   42  C6  UNL     1      -7.882   6.295  14.474  1.00  0.00     0.031 C 
BRANCH  42  43
HETATM   43  C5  UNL     1      -9.216   6.998  14.418  1.00  0.00    -0.026 C 
HETATM   44  C4  UNL     1     -10.204   6.619  13.590  1.00  0.00     0.002 C 
BRANCH  44  45
HETATM   45  C2  UNL     1     -11.515   7.244  13.471  1.00  0.00    -0.072 C 
HETATM   46  C1  UNL     1     -11.638   8.414  12.815  1.00  0.00     0.018 C 
HETATM   47  C3  UNL     1     -12.717   6.583  14.095  1.00  0.00     0.047 C 
ENDBRANCH  44  45
ENDBRANCH  42  43
ENDBRANCH  40  42
ENDBRANCH   1  40
TORSDOF 11
ENDMDL
MODEL 6
REMARK minimizedAffinity -7.59140539
REMARK CNNscore 0.213782683
REMARK CNNaffinity 5.95237207
REMARK  11 active torsions:
REMARK  status: ('A' for Active; 'I' for Inactive)
REMARK    1  A    between atoms: C2_2  and  C4_4 
REMARK    2  A    between atoms: C5_5  and  C6_6 
REMARK    3  A    between atoms: C6_6  and  C7_7 
REMARK    4  A    between atoms: C7_7  and  C9_9 
REMARK    5  A    between atoms: C27_28  and  O2_29 
REMARK    6  A    between atoms: O2_29  and  C28_30 
REMARK    7  A    between atoms: C29_32  and  C30_33 
REMARK    8  A    between atoms: C30_33  and  O4_34 
REMARK    9  A    between atoms: C31_35  and  O5_36 
REMARK   10  A    between atoms: C32_37  and  O6_38 
REMARK   11  A    between atoms: C33_39  and  O7_40 
ROOT
HETATM    1  C9  UNL     1      -4.042 -10.684   4.718  1.00  0.00    -0.002 C 
HETATM    2  C10 UNL     1      -2.883  -9.882   4.039  1.00  0.00     0.006 C 
HETATM    3  C11 UNL     1      -3.067  -9.993   2.513  1.00  0.00     0.011 C 
HETATM    4  C12 UNL     1      -4.501 -10.521   2.334  1.00  0.00    -0.029 C 
HETATM    5  C13 UNL     1      -5.440  -9.279   2.493  1.00  0.00     0.016 C 
HETATM    6  C14 UNL     1      -4.775 -11.252   0.980  1.00  0.00     0.028 C 
HETATM    7  C15 UNL     1      -4.606 -10.356  -0.237  1.00  0.00    -0.021 C 
HETATM    8  C16 UNL     1      -5.533 -10.293  -1.211  1.00  0.00     0.008 C 
HETATM    9  C17 UNL     1      -6.813 -11.113  -1.133  1.00  0.00     0.092 C 
HETATM   10  O1  UNL     1      -6.365 -12.467  -1.384  1.00  0.00    -0.374 OA
HETATM   11  C18 UNL     1      -6.146 -13.104  -0.118  1.00  0.00     0.179 C 
HETATM   12  C19 UNL     1      -6.172 -12.017   0.982  1.00  0.00    -0.004 C 
HETATM   13  C20 UNL     1      -6.507 -12.710   2.332  1.00  0.00     0.014 C 
HETATM   14  C21 UNL     1      -6.056 -12.014   3.628  1.00  0.00     0.011 C 
HETATM   15  C22 UNL     1      -4.593 -11.543   3.533  1.00  0.00    -0.032 C 
HETATM   16  C23 UNL     1      -3.684 -12.803   3.364  1.00  0.00     0.016 C 
HETATM   17  C24 UNL     1      -7.247 -11.089   0.365  1.00  0.00     0.036 C 
HETATM   18  C25 UNL     1      -8.709 -11.473   0.568  1.00  0.00     0.011 C 
HETATM   19  C26 UNL     1      -9.645 -10.529  -0.198  1.00  0.00     0.033 C 
HETATM   20  C27 UNL     1      -8.986  -9.819  -1.394  1.00  0.00     0.136 C 
HETATM   21  C34 UNL     1      -7.978 -10.742  -2.137  1.00  0.00     0.014 C 
HETATM   22  C35 UNL     1      -7.470 -10.013  -3.411  1.00  0.00     0.021 C 
HETATM   23  C36 UNL     1      -8.696 -12.010  -2.674  1.00  0.00     0.021 C 
ENDROOT
BRANCH  20  24
HETATM   24  O2  UNL     1      -9.980  -9.358  -2.315  1.00  0.00    -0.352 OA
BRANCH  24  25
HETATM   25  C28 UNL     1     -10.480  -8.050  -2.062  1.00  0.00     0.292 C 
HETATM   26  O3  UNL     1     -11.577  -7.714  -2.912  1.00  0.00    -0.348 OA
HETATM   27  C29 UNL     1     -11.279  -7.408  -4.289  1.00  0.00     0.179 C 
HETATM   28  C31 UNL     1     -10.104  -6.441  -4.472  1.00  0.00     0.180 C 
HETATM   29  C32 UNL     1      -8.901  -6.806  -3.601  1.00  0.00     0.183 C 
HETATM   30  C33 UNL     1      -9.328  -7.031  -2.147  1.00  0.00     0.204 C 
BRANCH  27  31
HETATM   31  C30 UNL     1     -11.169  -8.657  -5.186  1.00  0.00     0.198 C 
BRANCH  31  32
HETATM   32  O4  UNL     1      -9.821  -8.984  -5.511  1.00  0.00    -0.398 OA
HETATM   33  H44 UNL     1      -9.852  -9.710  -6.164  1.00  0.00     0.209 HD
ENDBRANCH  31  32
ENDBRANCH  27  31
BRANCH  28  34
HETATM   34  O5  UNL     1     -10.527  -5.105  -4.099  1.00  0.00    -0.390 OA
HETATM   35  H46 UNL     1      -9.694  -4.584  -4.152  1.00  0.00     0.210 HD
ENDBRANCH  28  34
BRANCH  29  36
HETATM   36  O6  UNL     1      -7.956  -5.713  -3.681  1.00  0.00    -0.390 OA
HETATM   37  H48 UNL     1      -7.833  -5.382  -2.767  1.00  0.00     0.210 HD
ENDBRANCH  29  36
BRANCH  30  38
HETATM   38  O7  UNL     1      -9.697  -5.763  -1.564  1.00  0.00    -0.388 OA
HETATM   39  H50 UNL     1     -10.440  -5.422  -2.107  1.00  0.00     0.210 HD
ENDBRANCH  30  38
ENDBRANCH  24  25
ENDBRANCH  20  24
BRANCH   1  40
HETATM   40  C7  UNL     1      -3.563 -11.384   6.030  1.00  0.00    -0.010 C 
HETATM   41  C8  UNL     1      -4.424 -12.593   6.409  1.00  0.00     0.010 C 
BRANCH  40  42
HETATM   42  C6  UNL     1      -3.463 -10.411   7.238  1.00  0.00     0.031 C 
BRANCH  42  43
HETATM   43  C5  UNL     1      -4.566 -10.538   8.258  1.00  0.00    -0.026 C 
HETATM   44  C4  UNL     1      -4.491  -9.992   9.484  1.00  0.00     0.002 C 
BRANCH  44  45
HETATM   45  C2  UNL     1      -5.506 -10.071  10.526  1.00  0.00    -0.072 C 
HETATM   46  C1  UNL     1      -6.277 -11.171  10.622  1.00  0.00     0.018 C 
HETATM   47  C3  UNL     1      -5.692  -8.917  11.477  1.00  0.00     0.047 C 
ENDBRANCH  44  45
ENDBRANCH  42  43
ENDBRANCH  40  42
ENDBRANCH   1  40
TORSDOF 11
ENDMDL
MODEL 7
REMARK minimizedAffinity -8.0349493
REMARK CNNscore 0.208958
REMARK CNNaffinity 6.48504639
REMARK  11 active torsions:
REMARK  status: ('A' for Active; 'I' for Inactive)
REMARK    1  A    between atoms: C2_2  and  C4_4 
REMARK    2  A    between atoms: C5_5  and  C6_6 
REMARK    3  A    between atoms: C6_6  and  C7_7 
REMARK    4  A    between atoms: C7_7  and  C9_9 
REMARK    5  A    between atoms: C27_28  and  O2_29 
REMARK    6  A    between atoms: O2_29  and  C28_30 
REMARK    7  A    between atoms: C29_32  and  C30_33 
REMARK    8  A    between atoms: C30_33  and  O4_34 
REMARK    9  A    between atoms: C31_35  and  O5_36 
REMARK   10  A    between atoms: C32_37  and  O6_38 
REMARK   11  A    between atoms: C33_39  and  O7_40 
ROOT
HETATM    1  C9  UNL     1      -2.493   6.026  12.444  1.00  0.00    -0.002 C 
HETATM    2  C10 UNL     1      -3.921   5.651  12.958  1.00  0.00     0.006 C 
HETATM    3  C11 UNL     1      -4.239   6.556  14.165  1.00  0.00     0.011 C 
HETATM    4  C12 UNL     1      -3.181   7.671  14.099  1.00  0.00    -0.029 C 
HETATM    5  C13 UNL     1      -3.693   8.690  13.027  1.00  0.00     0.016 C 
HETATM    6  C14 UNL     1      -2.893   8.393  15.455  1.00  0.00     0.028 C 
HETATM    7  C15 UNL     1      -4.100   9.126  16.020  1.00  0.00    -0.021 C 
HETATM    8  C16 UNL     1      -4.024  10.398  16.451  1.00  0.00     0.008 C 
HETATM    9  C17 UNL     1      -2.718  11.177  16.382  1.00  0.00     0.092 C 
HETATM   10  O1  UNL     1      -1.908  10.575  17.421  1.00  0.00    -0.374 OA
HETATM   11  C18 UNL     1      -1.083   9.572  16.815  1.00  0.00     0.179 C 
HETATM   12  C19 UNL     1      -1.601   9.321  15.379  1.00  0.00    -0.004 C 
HETATM   13  C20 UNL     1      -0.436   8.709  14.551  1.00  0.00     0.014 C 
HETATM   14  C21 UNL     1      -0.799   7.864  13.318  1.00  0.00     0.011 C 
HETATM   15  C22 UNL     1      -1.913   6.851  13.639  1.00  0.00    -0.032 C 
HETATM   16  C23 UNL     1      -1.374   5.858  14.718  1.00  0.00     0.016 C 
HETATM   17  C24 UNL     1      -2.045  10.764  15.038  1.00  0.00     0.036 C 
HETATM   18  C25 UNL     1      -0.967  11.745  14.587  1.00  0.00     0.011 C 
HETATM   19  C26 UNL     1      -1.538  13.156  14.401  1.00  0.00     0.033 C 
HETATM   20  C27 UNL     1      -2.821  13.429  15.206  1.00  0.00     0.136 C 
HETATM   21  C34 UNL     1      -2.791  12.742  16.602  1.00  0.00     0.014 C 
HETATM   22  C35 UNL     1      -4.042  13.183  17.410  1.00  0.00     0.021 C 
HETATM   23  C36 UNL     1      -1.587  13.259  17.437  1.00  0.00     0.021 C 
ENDROOT
BRANCH  20  24
HETATM   24  O2  UNL     1      -3.021  14.837  15.371  1.00  0.00    -0.352 OA
BRANCH  24  25
HETATM   25  C28 UNL     1      -4.275  15.328  14.912  1.00  0.00     0.292 C 
HETATM   26  O3  UNL     1      -4.205  15.836  13.580  1.00  0.00    -0.348 OA
HETATM   27  C29 UNL     1      -3.558  17.111  13.390  1.00  0.00     0.179 C 
HETATM   28  C31 UNL     1      -4.004  18.189  14.386  1.00  0.00     0.180 C 
HETATM   29  C32 UNL     1      -4.047  17.677  15.827  1.00  0.00     0.183 C 
HETATM   30  C33 UNL     1      -4.824  16.360  15.915  1.00  0.00     0.204 C 
BRANCH  27  31
HETATM   31  C30 UNL     1      -2.025  17.011  13.267  1.00  0.00     0.198 C 
BRANCH  31  32
HETATM   32  O4  UNL     1      -1.606  15.864  12.533  1.00  0.00    -0.398 OA
HETATM   33  H44 UNL     1      -0.632  15.821  12.601  1.00  0.00     0.209 HD
ENDBRANCH  31  32
ENDBRANCH  27  31
BRANCH  28  34
HETATM   34  O5  UNL     1      -5.339  18.633  14.037  1.00  0.00    -0.390 OA
HETATM   35  H46 UNL     1      -5.573  19.238  14.776  1.00  0.00     0.210 HD
ENDBRANCH  28  34
BRANCH  29  36
HETATM   36  O6  UNL     1      -4.691  18.694  16.631  1.00  0.00    -0.390 OA
HETATM   37  H48 UNL     1      -5.482  18.274  17.030  1.00  0.00     0.210 HD
ENDBRANCH  29  36
BRANCH  30  38
HETATM   38  O7  UNL     1      -6.225  16.625  15.690  1.00  0.00    -0.388 OA
HETATM   39  H50 UNL     1      -6.285  17.017  14.792  1.00  0.00     0.210 HD
ENDBRANCH  30  38
ENDBRANCH  24  25
ENDBRANCH  20  24
BRANCH   1  40
HETATM   40  C7  UNL     1      -1.725   4.771  11.919  1.00  0.00    -0.010 C 
HETATM   41  C8  UNL     1      -0.350   5.115  11.336  1.00  0.00     0.010 C 
BRANCH  40  42
HETATM   42  C6  UNL     1      -2.541   3.944  10.888  1.00  0.00     0.031 C 
BRANCH  42  43
HETATM   43  C5  UNL     1      -3.615   3.064  11.477  1.00  0.00    -0.026 C 
HETATM   44  C4  UNL     1      -4.899   3.120  11.084  1.00  0.00     0.002 C 
BRANCH  44  45
HETATM   45  C2  UNL     1      -5.995   2.311  11.603  1.00  0.00    -0.072 C 
HETATM   46  C1  UNL     1      -6.144   1.042  11.178  1.00  0.00     0.018 C 
HETATM   47  C3  UNL     1      -6.956   2.906  12.599  1.00  0.00     0.047 C 
ENDBRANCH  44  45
ENDBRANCH  42  43
ENDBRANCH  40  42
ENDBRANCH   1  40
TORSDOF 11
ENDMDL
MODEL 8
REMARK minimizedAffinity -8.79358196
REMARK CNNscore 0.183398202
REMARK CNNaffinity 6.75146437
REMARK  11 active torsions:
REMARK  status: ('A' for Active; 'I' for Inactive)
REMARK    1  A    between atoms: C2_2  and  C4_4 
REMARK    2  A    between atoms: C5_5  and  C6_6 
REMARK    3  A    between atoms: C6_6  and  C7_7 
REMARK    4  A    between atoms: C7_7  and  C9_9 
REMARK    5  A    between atoms: C27_28  and  O2_29 
REMARK    6  A    between atoms: O2_29  and  C28_30 
REMARK    7  A    between atoms: C29_32  and  C30_33 
REMARK    8  A    between atoms: C30_33  and  O4_34 
REMARK    9  A    between atoms: C31_35  and  O5_36 
REMARK   10  A    between atoms: C32_37  and  O6_38 
REMARK   11  A    between atoms: C33_39  and  O7_40 
ROOT
HETATM    1  C9  UNL     1      -5.196   6.413  14.567  1.00  0.00    -0.002 C 
HETATM    2  C10 UNL     1      -4.132   5.563  13.798  1.00  0.00     0.006 C 
HETATM    3  C11 UNL     1      -2.853   6.414  13.673  1.00  0.00     0.011 C 
HETATM    4  C12 UNL     1      -3.056   7.565  14.673  1.00  0.00    -0.029 C 
HETATM    5  C13 UNL     1      -2.694   6.983  16.080  1.00  0.00     0.016 C 
HETATM    6  C14 UNL     1      -2.225   8.855  14.377  1.00  0.00     0.028 C 
HETATM    7  C15 UNL     1      -0.721   8.635  14.438  1.00  0.00    -0.021 C 
HETATM    8  C16 UNL     1       0.091   9.453  15.132  1.00  0.00     0.008 C 
HETATM    9  C17 UNL     1      -0.461  10.642  15.906  1.00  0.00     0.092 C 
HETATM   10  O1  UNL     1      -0.835  11.579  14.867  1.00  0.00    -0.374 OA
HETATM   11  C18 UNL     1      -2.229  11.399  14.587  1.00  0.00     0.179 C 
HETATM   12  C19 UNL     1      -2.695  10.090  15.266  1.00  0.00    -0.004 C 
HETATM   13  C20 UNL     1      -4.235  10.174  15.462  1.00  0.00     0.014 C 
HETATM   14  C21 UNL     1      -5.016   8.854  15.577  1.00  0.00     0.011 C 
HETATM   15  C22 UNL     1      -4.597   7.854  14.484  1.00  0.00    -0.032 C 
HETATM   16  C23 UNL     1      -4.961   8.469  13.095  1.00  0.00     0.016 C 
HETATM   17  C24 UNL     1      -1.805  10.157  16.532  1.00  0.00     0.036 C 
HETATM   18  C25 UNL     1      -2.280  11.042  17.680  1.00  0.00     0.011 C 
HETATM   19  C26 UNL     1      -1.240  11.098  18.807  1.00  0.00     0.033 C 
HETATM   20  C27 UNL     1       0.197  10.782  18.358  1.00  0.00     0.136 C 
HETATM   21  C34 UNL     1       0.503  11.348  16.941  1.00  0.00     0.014 C 
HETATM   22  C35 UNL     1       2.006  11.123  16.621  1.00  0.00     0.021 C 
HETATM   23  C36 UNL     1       0.329  12.892  16.924  1.00  0.00     0.021 C 
ENDROOT
BRANCH  20  24
HETATM   24  O2  UNL     1       1.144  11.303  19.296  1.00  0.00    -0.352 OA
BRANCH  24  25
HETATM   25  C28 UNL     1       2.509  11.078  18.967  1.00  0.00     0.292 C 
HETATM   26  O3  UNL     1       3.023   9.888  19.565  1.00  0.00    -0.348 OA
HETATM   27  C29 UNL     1       3.298   9.923  20.980  1.00  0.00     0.179 C 
HETATM   28  C31 UNL     1       4.075  11.166  21.432  1.00  0.00     0.180 C 
HETATM   29  C32 UNL     1       3.515  12.458  20.835  1.00  0.00     0.183 C 
HETATM   30  C33 UNL     1       3.338  12.328  19.320  1.00  0.00     0.204 C 
BRANCH  27  31
HETATM   31  C30 UNL     1       2.061   9.643  21.854  1.00  0.00     0.198 C 
BRANCH  31  32
HETATM   32  O4  UNL     1       2.396   9.355  23.208  1.00  0.00    -0.398 OA
HETATM   33  H44 UNL     1       1.572   9.083  23.657  1.00  0.00     0.209 HD
ENDBRANCH  31  32
ENDBRANCH  27  31
BRANCH  28  34
HETATM   34  O5  UNL     1       5.454  11.044  21.004  1.00  0.00    -0.390 OA
HETATM   35  H46 UNL     1       5.841  11.916  21.246  1.00  0.00     0.210 HD
ENDBRANCH  28  34
BRANCH  29  36
HETATM   36  O6  UNL     1       4.450  13.520  21.141  1.00  0.00    -0.390 OA
HETATM   37  H48 UNL     1       4.746  13.888  20.282  1.00  0.00     0.210 HD
ENDBRANCH  29  36
BRANCH  30  38
HETATM   38  O7  UNL     1       4.640  12.293  18.696  1.00  0.00    -0.388 OA
HETATM   39  H50 UNL     1       5.100  11.511  19.071  1.00  0.00     0.210 HD
ENDBRANCH  30  38
ENDBRANCH  24  25
ENDBRANCH  20  24
BRANCH   1  40
HETATM   40  C7  UNL     1      -6.640   6.139  14.037  1.00  0.00    -0.010 C 
HETATM   41  C8  UNL     1      -7.698   7.023  14.706  1.00  0.00     0.010 C 
BRANCH  40  42
HETATM   42  C6  UNL     1      -7.057   4.646  14.147  1.00  0.00     0.031 C 
BRANCH  42  43
HETATM   43  C5  UNL     1      -6.256   3.692  13.298  1.00  0.00    -0.026 C 
HETATM   44  C4  UNL     1      -6.471   3.533  11.980  1.00  0.00     0.002 C 
BRANCH  44  45
HETATM   45  C2  UNL     1      -5.747   2.633  11.092  1.00  0.00    -0.072 C 
HETATM   46  C1  UNL     1      -6.067   1.325  11.066  1.00  0.00     0.018 C 
HETATM   47  C3  UNL     1      -4.641   3.171  10.222  1.00  0.00     0.047 C 
ENDBRANCH  44  45
ENDBRANCH  42  43
ENDBRANCH  40  42
ENDBRANCH   1  40
TORSDOF 11
ENDMDL
MODEL 9
REMARK minimizedAffinity -9.34819317
REMARK CNNscore 0.171853617
REMARK CNNaffinity 6.6803112
REMARK  11 active torsions:
REMARK  status: ('A' for Active; 'I' for Inactive)
REMARK    1  A    between atoms: C2_2  and  C4_4 
REMARK    2  A    between atoms: C5_5  and  C6_6 
REMARK    3  A    between atoms: C6_6  and  C7_7 
REMARK    4  A    between atoms: C7_7  and  C9_9 
REMARK    5  A    between atoms: C27_28  and  O2_29 
REMARK    6  A    between atoms: O2_29  and  C28_30 
REMARK    7  A    between atoms: C29_32  and  C30_33 
REMARK    8  A    between atoms: C30_33  and  O4_34 
REMARK    9  A    between atoms: C31_35  and  O5_36 
REMARK   10  A    between atoms: C32_37  and  O6_38 
REMARK   11  A    between atoms: C33_39  and  O7_40 
ROOT
HETATM    1  C9  UNL     1      -4.943   6.422  13.205  1.00  0.00    -0.002 C 
HETATM    2  C10 UNL     1      -5.524   7.874  13.258  1.00  0.00     0.006 C 
HETATM    3  C11 UNL     1      -4.443   8.789  13.865  1.00  0.00     0.011 C 
HETATM    4  C12 UNL     1      -3.152   7.955  13.804  1.00  0.00    -0.029 C 
HETATM    5  C13 UNL     1      -2.625   8.081  12.336  1.00  0.00     0.016 C 
HETATM    6  C14 UNL     1      -2.045   8.371  14.827  1.00  0.00     0.028 C 
HETATM    7  C15 UNL     1      -1.527   9.786  14.616  1.00  0.00    -0.021 C 
HETATM    8  C16 UNL     1      -0.211  10.063  14.571  1.00  0.00     0.008 C 
HETATM    9  C17 UNL     1       0.832   8.964  14.716  1.00  0.00     0.092 C 
HETATM   10  O1  UNL     1       0.760   8.610  16.119  1.00  0.00    -0.374 OA
HETATM   11  C18 UNL     1      -0.119   7.486  16.249  1.00  0.00     0.179 C 
HETATM   12  C19 UNL     1      -0.870   7.300  14.909  1.00  0.00    -0.004 C 
HETATM   13  C20 UNL     1      -1.357   5.826  14.834  1.00  0.00     0.014 C 
HETATM   14  C21 UNL     1      -2.565   5.514  13.934  1.00  0.00     0.011 C 
HETATM   15  C22 UNL     1      -3.708   6.521  14.158  1.00  0.00    -0.032 C 
HETATM   16  C23 UNL     1      -4.202   6.378  15.633  1.00  0.00     0.016 C 
HETATM   17  C24 UNL     1       0.264   7.732  13.947  1.00  0.00     0.036 C 
HETATM   18  C25 UNL     1       1.333   6.697  13.609  1.00  0.00     0.011 C 
HETATM   19  C26 UNL     1       2.446   7.306  12.746  1.00  0.00     0.033 C 
HETATM   20  C27 UNL     1       2.582   8.833  12.876  1.00  0.00     0.136 C 
HETATM   21  C34 UNL     1       2.324   9.320  14.331  1.00  0.00     0.014 C 
HETATM   22  C35 UNL     1       2.626  10.841  14.416  1.00  0.00     0.021 C 
HETATM   23  C36 UNL     1       3.339   8.667  15.310  1.00  0.00     0.021 C 
ENDROOT
BRANCH  20  24
HETATM   24  O2  UNL     1       3.881   9.260  12.452  1.00  0.00    -0.352 OA
BRANCH  24  25
HETATM   25  C28 UNL     1       4.968   8.716  13.191  1.00  0.00     0.292 C 
HETATM   26  O3  UNL     1       6.162   9.483  13.045  1.00  0.00    -0.348 OA
HETATM   27  C29 UNL     1       6.870   9.376  11.793  1.00  0.00     0.179 C 
HETATM   28  C31 UNL     1       7.060   7.933  11.308  1.00  0.00     0.180 C 
HETATM   29  C32 UNL     1       5.780   7.103  11.417  1.00  0.00     0.183 C 
HETATM   30  C33 UNL     1       5.161   7.236  12.812  1.00  0.00     0.204 C 
BRANCH  27  31
HETATM   31  C30 UNL     1       6.322  10.307  10.695  1.00  0.00     0.198 C 
BRANCH  31  32
HETATM   32  O4  UNL     1       5.394   9.656   9.832  1.00  0.00    -0.398 OA
HETATM   33  H44 UNL     1       5.187  10.279   9.110  1.00  0.00     0.209 HD
ENDBRANCH  31  32
ENDBRANCH  27  31
BRANCH  28  34
HETATM   34  O5  UNL     1       8.073   7.289  12.120  1.00  0.00    -0.390 OA
HETATM   35  H46 UNL     1       8.052   6.357  11.806  1.00  0.00     0.210 HD
ENDBRANCH  28  34
BRANCH  29  36
HETATM   36  O6  UNL     1       6.131   5.724  11.154  1.00  0.00    -0.390 OA
HETATM   37  H48 UNL     1       5.886   5.216  11.956  1.00  0.00     0.210 HD
ENDBRANCH  29  36
BRANCH  30  38
HETATM   38  O7  UNL     1       6.000   6.549  13.765  1.00  0.00    -0.388 OA
HETATM   39  H50 UNL     1       6.877   6.989  13.720  1.00  0.00     0.210 HD
ENDBRANCH  30  38
ENDBRANCH  24  25
ENDBRANCH  20  24
BRANCH   1  40
HETATM   40  C7  UNL     1      -6.050   5.352  13.472  1.00  0.00    -0.010 C 
HETATM   41  C8  UNL     1      -5.650   3.951  12.998  1.00  0.00     0.010 C 
BRANCH  40  42
HETATM   42  C6  UNL     1      -7.429   5.738  12.869  1.00  0.00     0.031 C 
BRANCH  42  43
HETATM   43  C5  UNL     1      -8.416   6.322  13.848  1.00  0.00    -0.026 C 
HETATM   44  C4  UNL     1      -9.691   6.595  13.521  1.00  0.00     0.002 C 
BRANCH  44  45
HETATM   45  C2  UNL     1     -10.704   7.162  14.402  1.00  0.00    -0.072 C 
HETATM   46  C1  UNL     1     -11.985   6.763  14.286  1.00  0.00     0.018 C 
HETATM   47  C3  UNL     1     -10.310   8.198  15.423  1.00  0.00     0.047 C 
ENDBRANCH  44  45
ENDBRANCH  42  43
ENDBRANCH  40  42
ENDBRANCH   1  40
TORSDOF 11
ENDMDL
