MODEL 1
REMARK minimizedAffinity -9.24607754
REMARK  6 active torsions:
REMARK  status: ('A' for Active; 'I' for Inactive)
REMARK    1  A    between atoms: C3_3  and  C4_4 
REMARK    2  A    between atoms: C4_4  and  O2_6 
REMARK    3  A    between atoms: O2_6  and  C5_7 
REMARK    4  A    between atoms: C5_7  and  C6_8 
REMARK    5  A    between atoms: C6_8  and  C7_9 
REMARK    6  A    between atoms: C13_15  and  C14_16 
ROOT
HETATM    1  C1  UNL     1      -4.891   6.590  15.604  1.00  0.00     0.069 C 
HETATM    2  C2  UNL     1      -3.465   7.032  15.400  1.00  0.00     0.018 A 
HETATM    3  C3  UNL     1      -2.608   6.484  14.507  1.00  0.00     0.052 A 
HETATM    4  C13 UNL     1      -1.159   6.950  14.393  1.00  0.00     0.104 A 
HETATM    5  C23 UNL     1      -0.806   8.027  15.412  1.00  0.00     0.024 A 
HETATM    6  C24 UNL     1      -1.732   8.538  16.250  1.00  0.00     0.020 A 
HETATM    7  C25 UNL     1      -1.435   9.657  17.216  1.00  0.00     0.058 C 
HETATM    8  C26 UNL     1      -0.214  10.463  16.793  1.00  0.00     0.014 C 
HETATM    9  C27 UNL     1       0.967   9.549  16.514  1.00  0.00     0.084 C 
HETATM   10  C28 UNL     1       0.612   8.474  15.511  1.00  0.00     0.158 C 
HETATM   11  O5  UNL     1       1.486   7.926  14.840  1.00  0.00    -0.293 OA
HETATM   12  N1  UNL     1      -3.024   8.048  16.234  1.00  0.00    -0.362 N 
HETATM   13  H24 UNL     1      -3.711   8.498  16.834  1.00  0.00     0.165 HD
ENDROOT
BRANCH   4  14
HETATM   14  C14 UNL     1      -0.824   7.366  12.969  1.00  0.00     0.029 A 
HETATM   15  C15 UNL     1      -1.409   8.410  12.359  1.00  0.00     0.154 A 
HETATM   16  O3  UNL     1      -1.168   8.866  11.089  1.00  0.00    -0.321 OA
HETATM   17  C16 UNL     1      -0.233   8.200  10.341  1.00  0.00     0.089 A 
HETATM   18  C17 UNL     1       0.009   8.674   9.052  1.00  0.00     0.040 A 
HETATM   19  C21 UNL     1       0.463   7.093  10.822  1.00  0.00     0.050 A 
HETATM   20  C18 UNL     1       0.953   8.035   8.245  1.00  0.00     0.026 A 
HETATM   21  C19 UNL     1       1.649   6.926   8.731  1.00  0.00     0.035 A 
HETATM   22 CL1  UNL     1       2.810   6.145   7.733  1.00  0.00    -0.084 Cl
HETATM   23  C20 UNL     1       1.410   6.448  10.018  1.00  0.00     0.042 A 
HETATM   24  C22 UNL     1       0.187   6.612  12.186  1.00  0.00     0.194 A 
HETATM   25  O4  UNL     1       0.777   5.634  12.629  1.00  0.00    -0.287 OA
ENDBRANCH   4  14
BRANCH   3  26
HETATM   26  C4  UNL     1      -2.978   5.381  13.596  1.00  0.00     0.292 C 
HETATM   27  O1  UNL     1      -2.239   4.963  12.717  1.00  0.00    -0.259 OA
BRANCH  26  28
HETATM   28  O2  UNL     1      -4.255   4.990  13.822  1.00  0.00    -0.317 OA
BRANCH  28  29
HETATM   29  C5  UNL     1      -4.972   4.518  12.669  1.00  0.00     0.183 C 
BRANCH  29  30
HETATM   30  C6  UNL     1      -6.259   3.812  13.092  1.00  0.00     0.065 C 
BRANCH  30  31
HETATM   31  C7  UNL     1      -7.417   4.770  13.191  1.00  0.00    -0.056 A 
HETATM   32  C8  UNL     1      -7.729   5.389  14.408  1.00  0.00     0.007 A 
HETATM   33  C9  UNL     1      -8.787   6.294  14.490  1.00  0.00     0.001 A 
HETATM   34  C10 UNL     1      -9.540   6.592  13.356  1.00  0.00     0.000 A 
HETATM   35  C11 UNL     1      -9.237   5.984  12.138  1.00  0.00     0.001 A 
HETATM   36  C12 UNL     1      -8.179   5.078  12.055  1.00  0.00     0.007 A 
ENDBRANCH  30  31
ENDBRANCH  29  30
ENDBRANCH  28  29
ENDBRANCH  26  28
ENDBRANCH   3  26
TORSDOF 6
ENDMDL
MODEL 2
REMARK minimizedAffinity -9.1697998
REMARK  6 active torsions:
REMARK  status: ('A' for Active; 'I' for Inactive)
REMARK    1  A    between atoms: C3_3  and  C4_4 
REMARK    2  A    between atoms: C4_4  and  O2_6 
REMARK    3  A    between atoms: O2_6  and  C5_7 
REMARK    4  A    between atoms: C5_7  and  C6_8 
REMARK    5  A    between atoms: C6_8  and  C7_9 
REMARK    6  A    between atoms: C13_15  and  C14_16 
ROOT
HETATM    1  C1  UNL     1      -6.257   8.498  14.770  1.00  0.00     0.069 C 
HETATM    2  C2  UNL     1      -4.831   8.924  15.009  1.00  0.00     0.018 A 
HETATM    3  C3  UNL     1      -3.787   8.076  15.158  1.00  0.00     0.052 A 
HETATM    4  C13 UNL     1      -2.376   8.581  15.450  1.00  0.00     0.104 A 
HETATM    5  C23 UNL     1      -2.314  10.096  15.602  1.00  0.00     0.024 A 
HETATM    6  C24 UNL     1      -3.401  10.871  15.408  1.00  0.00     0.020 A 
HETATM    7  C25 UNL     1      -3.358  12.377  15.474  1.00  0.00     0.058 C 
HETATM    8  C26 UNL     1      -1.949  12.914  15.255  1.00  0.00     0.014 C 
HETATM    9  C27 UNL     1      -0.957  12.219  16.172  1.00  0.00     0.084 C 
HETATM   10  C28 UNL     1      -1.028  10.715  16.029  1.00  0.00     0.158 C 
HETATM   11  O5  UNL     1      -0.066  10.009  16.330  1.00  0.00    -0.293 OA
HETATM   12  N1  UNL     1      -4.622  10.291  15.117  1.00  0.00    -0.362 N 
HETATM   13  H24 UNL     1      -5.406  10.906  14.916  1.00  0.00     0.165 HD
ENDROOT
BRANCH   4  14
HETATM   14  C14 UNL     1      -1.380   8.058  14.427  1.00  0.00     0.029 A 
HETATM   15  C15 UNL     1      -0.461   7.124  14.718  1.00  0.00     0.154 A 
HETATM   16  O3  UNL     1       0.468   6.584  13.866  1.00  0.00    -0.321 OA
HETATM   17  C16 UNL     1       0.479   7.033  12.571  1.00  0.00     0.089 A 
HETATM   18  C17 UNL     1       1.424   6.476  11.710  1.00  0.00     0.040 A 
HETATM   19  C21 UNL     1      -0.405   8.003  12.106  1.00  0.00     0.050 A 
HETATM   20  C18 UNL     1       1.480   6.894  10.379  1.00  0.00     0.026 A 
HETATM   21  C19 UNL     1       0.591   7.866   9.917  1.00  0.00     0.035 A 
HETATM   22 CL1  UNL     1       0.665   8.376   8.276  1.00  0.00    -0.084 Cl
HETATM   23  C20 UNL     1      -0.354   8.427  10.773  1.00  0.00     0.042 A 
HETATM   24  C22 UNL     1      -1.392   8.577  13.036  1.00  0.00     0.194 A 
HETATM   25  O4  UNL     1      -2.174   9.439  12.655  1.00  0.00    -0.287 OA
ENDBRANCH   4  14
BRANCH   3  26
HETATM   26  C4  UNL     1      -3.916   6.606  15.085  1.00  0.00     0.292 C 
HETATM   27  O1  UNL     1      -3.845   5.879  16.065  1.00  0.00    -0.259 OA
BRANCH  26  28
HETATM   28  O2  UNL     1      -4.024   6.205  13.796  1.00  0.00    -0.317 OA
BRANCH  28  29
HETATM   29  C5  UNL     1      -3.428   4.933  13.490  1.00  0.00     0.183 C 
BRANCH  29  30
HETATM   30  C6  UNL     1      -3.891   4.441  12.119  1.00  0.00     0.065 C 
BRANCH  30  31
HETATM   31  C7  UNL     1      -5.120   3.577  12.220  1.00  0.00    -0.056 A 
HETATM   32  C8  UNL     1      -5.201   2.367  11.520  1.00  0.00     0.007 A 
HETATM   33  C9  UNL     1      -6.331   1.558  11.635  1.00  0.00     0.001 A 
HETATM   34  C10 UNL     1      -7.389   1.949  12.453  1.00  0.00     0.000 A 
HETATM   35  C11 UNL     1      -7.318   3.150  13.158  1.00  0.00     0.001 A 
HETATM   36  C12 UNL     1      -6.188   3.961  13.043  1.00  0.00     0.007 A 
ENDBRANCH  30  31
ENDBRANCH  29  30
ENDBRANCH  28  29
ENDBRANCH  26  28
ENDBRANCH   3  26
TORSDOF 6
ENDMDL
MODEL 3
REMARK minimizedAffinity -9.08678246
REMARK  6 active torsions:
REMARK  status: ('A' for Active; 'I' for Inactive)
REMARK    1  A    between atoms: C3_3  and  C4_4 
REMARK    2  A    between atoms: C4_4  and  O2_6 
REMARK    3  A    between atoms: O2_6  and  C5_7 
REMARK    4  A    between atoms: C5_7  and  C6_8 
REMARK    5  A    between atoms: C6_8  and  C7_9 
REMARK    6  A    between atoms: C13_15  and  C14_16 
ROOT
HETATM    1  C1  UNL     1      -4.836   9.505  15.499  1.00  0.00     0.069 C 
HETATM    2  C2  UNL     1      -3.350   9.310  15.653  1.00  0.00     0.018 A 
HETATM    3  C3  UNL     1      -2.704   8.134  15.473  1.00  0.00     0.052 A 
HETATM    4  C13 UNL     1      -1.200   8.000  15.698  1.00  0.00     0.104 A 
HETATM    5  C23 UNL     1      -0.561   9.296  16.185  1.00  0.00     0.024 A 
HETATM    6  C24 UNL     1      -1.276  10.433  16.310  1.00  0.00     0.020 A 
HETATM    7  C25 UNL     1      -0.660  11.749  16.715  1.00  0.00     0.058 C 
HETATM    8  C26 UNL     1       0.840  11.777  16.453  1.00  0.00     0.014 C 
HETATM    9  C27 UNL     1       1.517  10.558  17.057  1.00  0.00     0.084 C 
HETATM   10  C28 UNL     1       0.875   9.274  16.582  1.00  0.00     0.158 C 
HETATM   11  O5  UNL     1       1.503   8.216  16.591  1.00  0.00    -0.293 OA
HETATM   12  N1  UNL     1      -2.633  10.430  16.046  1.00  0.00    -0.362 N 
HETATM   13  H24 UNL     1      -3.129  11.317  16.090  1.00  0.00     0.165 HD
ENDROOT
BRANCH   4  14
HETATM   14  C14 UNL     1      -0.506   7.437  14.467  1.00  0.00     0.029 A 
HETATM   15  C15 UNL     1       0.080   6.230  14.451  1.00  0.00     0.154 A 
HETATM   16  O3  UNL     1       0.718   5.634  13.393  1.00  0.00    -0.321 OA
HETATM   17  C16 UNL     1       0.776   6.329  12.214  1.00  0.00     0.089 A 
HETATM   18  C17 UNL     1       1.423   5.714  11.142  1.00  0.00     0.040 A 
HETATM   19  C21 UNL     1       0.222   7.598  12.062  1.00  0.00     0.050 A 
HETATM   20  C18 UNL     1       1.511   6.376   9.915  1.00  0.00     0.026 A 
HETATM   21  C19 UNL     1       0.954   7.647   9.767  1.00  0.00     0.035 A 
HETATM   22 CL1  UNL     1       1.066   8.455   8.254  1.00  0.00    -0.084 Cl
HETATM   23  C20 UNL     1       0.308   8.266  10.835  1.00  0.00     0.042 A 
HETATM   24  C22 UNL     1      -0.454   8.226  13.210  1.00  0.00     0.194 A 
HETATM   25  O4  UNL     1      -0.940   9.345  13.107  1.00  0.00    -0.287 OA
ENDBRANCH   4  14
BRANCH   3  26
HETATM   26  C4  UNL     1      -3.386   6.883  15.081  1.00  0.00     0.292 C 
HETATM   27  O1  UNL     1      -3.502   5.923  15.827  1.00  0.00    -0.259 OA
BRANCH  26  28
HETATM   28  O2  UNL     1      -3.758   6.937  13.780  1.00  0.00    -0.317 OA
BRANCH  28  29
HETATM   29  C5  UNL     1      -4.058   5.672  13.167  1.00  0.00     0.183 C 
BRANCH  29  30
HETATM   30  C6  UNL     1      -5.547   5.355  13.294  1.00  0.00     0.065 C 
BRANCH  30  31
HETATM   31  C7  UNL     1      -5.876   3.987  12.758  1.00  0.00    -0.056 A 
HETATM   32  C8  UNL     1      -7.081   3.358  13.098  1.00  0.00     0.007 A 
HETATM   33  C9  UNL     1      -7.392   2.101  12.581  1.00  0.00     0.001 A 
HETATM   34  C10 UNL     1      -6.505   1.462  11.718  1.00  0.00     0.000 A 
HETATM   35  C11 UNL     1      -5.304   2.079  11.370  1.00  0.00     0.001 A 
HETATM   36  C12 UNL     1      -4.991   3.337  11.888  1.00  0.00     0.007 A 
ENDBRANCH  30  31
ENDBRANCH  29  30
ENDBRANCH  28  29
ENDBRANCH  26  28
ENDBRANCH   3  26
TORSDOF 6
ENDMDL
MODEL 4
REMARK minimizedAffinity -9.08119583
REMARK  6 active torsions:
REMARK  status: ('A' for Active; 'I' for Inactive)
REMARK    1  A    between atoms: C3_3  and  C4_4 
REMARK    2  A    between atoms: C4_4  and  O2_6 
REMARK    3  A    between atoms: O2_6  and  C5_7 
REMARK    4  A    between atoms: C5_7  and  C6_8 
REMARK    5  A    between atoms: C6_8  and  C7_9 
REMARK    6  A    between atoms: C13_15  and  C14_16 
ROOT
HETATM    1  C1  UNL     1      -2.018   7.559  15.277  1.00  0.00     0.069 C 
HETATM    2  C2  UNL     1      -0.696   7.918  14.649  1.00  0.00     0.018 A 
HETATM    3  C3  UNL     1      -0.036   7.151  13.750  1.00  0.00     0.052 A 
HETATM    4  C13 UNL     1       1.327   7.556  13.194  1.00  0.00     0.104 A 
HETATM    5  C23 UNL     1       1.848   8.852  13.804  1.00  0.00     0.024 A 
HETATM    6  C24 UNL     1       1.111   9.570  14.675  1.00  0.00     0.020 A 
HETATM    7  C25 UNL     1       1.563  10.894  15.238  1.00  0.00     0.058 C 
HETATM    8  C26 UNL     1       2.620  11.552  14.359  1.00  0.00     0.014 C 
HETATM    9  C27 UNL     1       3.749  10.583  14.054  1.00  0.00     0.084 C 
HETATM   10  C28 UNL     1       3.230   9.293  13.460  1.00  0.00     0.158 C 
HETATM   11  O5  UNL     1       3.956   8.582  12.767  1.00  0.00    -0.293 OA
HETATM   12  N1  UNL     1      -0.128   9.108  15.079  1.00  0.00    -0.362 N 
HETATM   13  H24 UNL     1      -0.684   9.703  15.687  1.00  0.00     0.165 HD
ENDROOT
BRANCH   4  14
HETATM   14  C14 UNL     1       1.315   7.593  11.674  1.00  0.00     0.029 A 
HETATM   15  C15 UNL     1       0.677   8.545  10.974  1.00  0.00     0.154 A 
HETATM   16  O3  UNL     1       0.616   8.669   9.610  1.00  0.00    -0.321 OA
HETATM   17  C16 UNL     1       1.271   7.729   8.858  1.00  0.00     0.089 A 
HETATM   18  C17 UNL     1       1.208   7.864   7.471  1.00  0.00     0.040 A 
HETATM   19  C21 UNL     1       1.977   6.672   9.426  1.00  0.00     0.050 A 
HETATM   20  C18 UNL     1       1.858   6.936   6.654  1.00  0.00     0.026 A 
HETATM   21  C19 UNL     1       2.566   5.879   7.229  1.00  0.00     0.035 A 
HETATM   22 CL1  UNL     1       3.364   4.740   6.217  1.00  0.00    -0.084 Cl
HETATM   23  C20 UNL     1       2.630   5.738   8.613  1.00  0.00     0.042 A 
HETATM   24  C22 UNL     1       2.026   6.550  10.893  1.00  0.00     0.194 A 
HETATM   25  O4  UNL     1       2.631   5.624  11.418  1.00  0.00    -0.287 OA
ENDBRANCH   4  14
BRANCH   3  26
HETATM   26  C4  UNL     1      -0.548   5.857  13.252  1.00  0.00     0.292 C 
HETATM   27  O1  UNL     1       0.034   4.797  13.425  1.00  0.00    -0.259 OA
BRANCH  26  28
HETATM   28  O2  UNL     1      -1.672   6.044  12.520  1.00  0.00    -0.317 OA
BRANCH  28  29
HETATM   29  C5  UNL     1      -2.641   4.985  12.588  1.00  0.00     0.183 C 
BRANCH  29  30
HETATM   30  C6  UNL     1      -4.036   5.551  12.849  1.00  0.00     0.065 C 
BRANCH  30  31
HETATM   31  C7  UNL     1      -5.103   4.498  12.703  1.00  0.00    -0.056 A 
HETATM   32  C8  UNL     1      -4.941   3.438  11.803  1.00  0.00     0.007 A 
HETATM   33  C9  UNL     1      -5.921   2.452  11.687  1.00  0.00     0.001 A 
HETATM   34  C10 UNL     1      -7.070   2.516  12.473  1.00  0.00     0.000 A 
HETATM   35  C11 UNL     1      -7.241   3.565  13.375  1.00  0.00     0.001 A 
HETATM   36  C12 UNL     1      -6.261   4.552  13.490  1.00  0.00     0.007 A 
ENDBRANCH  30  31
ENDBRANCH  29  30
ENDBRANCH  28  29
ENDBRANCH  26  28
ENDBRANCH   3  26
TORSDOF 6
ENDMDL
MODEL 5
REMARK minimizedAffinity -9.07056332
REMARK  6 active torsions:
REMARK  status: ('A' for Active; 'I' for Inactive)
REMARK    1  A    between atoms: C3_3  and  C4_4 
REMARK    2  A    between atoms: C4_4  and  O2_6 
REMARK    3  A    between atoms: O2_6  and  C5_7 
REMARK    4  A    between atoms: C5_7  and  C6_8 
REMARK    5  A    between atoms: C6_8  and  C7_9 
REMARK    6  A    between atoms: C13_15  and  C14_16 
ROOT
HETATM    1  C1  UNL     1      -5.462   8.154  13.100  1.00  0.00     0.069 C 
HETATM    2  C2  UNL     1      -4.076   8.053  13.684  1.00  0.00     0.018 A 
HETATM    3  C3  UNL     1      -3.279   6.963  13.594  1.00  0.00     0.052 A 
HETATM    4  C13 UNL     1      -1.905   6.914  14.257  1.00  0.00     0.104 A 
HETATM    5  C23 UNL     1      -1.588   8.180  15.046  1.00  0.00     0.024 A 
HETATM    6  C24 UNL     1      -2.430   9.234  15.058  1.00  0.00     0.020 A 
HETATM    7  C25 UNL     1      -2.113  10.529  15.764  1.00  0.00     0.058 C 
HETATM    8  C26 UNL     1      -0.615  10.704  15.982  1.00  0.00     0.014 C 
HETATM    9  C27 UNL     1      -0.017   9.471  16.638  1.00  0.00     0.084 C 
HETATM   10  C28 UNL     1      -0.342   8.215  15.861  1.00  0.00     0.158 C 
HETATM   11  O5  UNL     1       0.368   7.215  15.957  1.00  0.00    -0.293 OA
HETATM   12  N1  UNL     1      -3.638   9.163  14.390  1.00  0.00    -0.362 N 
HETATM   13  H24 UNL     1      -4.220   9.997  14.368  1.00  0.00     0.165 HD
ENDROOT
BRANCH   4  14
HETATM   14  C14 UNL     1      -0.818   6.570  13.250  1.00  0.00     0.029 A 
HETATM   15  C15 UNL     1      -0.085   5.448  13.326  1.00  0.00     0.154 A 
HETATM   16  O3  UNL     1       0.904   5.047  12.465  1.00  0.00    -0.321 OA
HETATM   17  C16 UNL     1       1.194   5.865  11.405  1.00  0.00     0.089 A 
HETATM   18  C17 UNL     1       2.198   5.448  10.532  1.00  0.00     0.040 A 
HETATM   19  C21 UNL     1       0.529   7.069  11.182  1.00  0.00     0.050 A 
HETATM   20  C18 UNL     1       2.533   6.241   9.432  1.00  0.00     0.026 A 
HETATM   21  C19 UNL     1       1.864   7.446   9.212  1.00  0.00     0.035 A 
HETATM   22 CL1  UNL     1       2.282   8.417   7.856  1.00  0.00    -0.084 Cl
HETATM   23  C20 UNL     1       0.861   7.868  10.082  1.00  0.00     0.042 A 
HETATM   24  C22 UNL     1      -0.526   7.488  12.120  1.00  0.00     0.194 A 
HETATM   25  O4  UNL     1      -1.119   8.546  11.953  1.00  0.00    -0.287 OA
ENDBRANCH   4  14
BRANCH   3  26
HETATM   26  C4  UNL     1      -3.670   5.726  12.886  1.00  0.00     0.292 C 
HETATM   27  O1  UNL     1      -2.918   5.118  12.137  1.00  0.00    -0.259 OA
BRANCH  26  28
HETATM   28  O2  UNL     1      -4.974   5.442  13.116  1.00  0.00    -0.317 OA
BRANCH  28  29
HETATM   29  C5  UNL     1      -5.324   4.049  13.064  1.00  0.00     0.183 C 
BRANCH  29  30
HETATM   30  C6  UNL     1      -6.838   3.881  12.954  1.00  0.00     0.065 C 
BRANCH  30  31
HETATM   31  C7  UNL     1      -7.575   4.873  13.815  1.00  0.00    -0.056 A 
HETATM   32  C8  UNL     1      -7.320   4.953  15.189  1.00  0.00     0.007 A 
HETATM   33  C9  UNL     1      -7.988   5.889  15.979  1.00  0.00     0.001 A 
HETATM   34  C10 UNL     1      -8.912   6.757  15.401  1.00  0.00     0.000 A 
HETATM   35  C11 UNL     1      -9.171   6.689  14.033  1.00  0.00     0.001 A 
HETATM   36  C12 UNL     1      -8.505   5.752  13.243  1.00  0.00     0.007 A 
ENDBRANCH  30  31
ENDBRANCH  29  30
ENDBRANCH  28  29
ENDBRANCH  26  28
ENDBRANCH   3  26
TORSDOF 6
ENDMDL
MODEL 6
REMARK minimizedAffinity -8.92369747
REMARK  6 active torsions:
REMARK  status: ('A' for Active; 'I' for Inactive)
REMARK    1  A    between atoms: C3_3  and  C4_4 
REMARK    2  A    between atoms: C4_4  and  O2_6 
REMARK    3  A    between atoms: O2_6  and  C5_7 
REMARK    4  A    between atoms: C5_7  and  C6_8 
REMARK    5  A    between atoms: C6_8  and  C7_9 
REMARK    6  A    between atoms: C13_15  and  C14_16 
ROOT
HETATM    1  C1  UNL     1      -6.588   8.749  15.052  1.00  0.00     0.069 C 
HETATM    2  C2  UNL     1      -5.099   8.816  15.274  1.00  0.00     0.018 A 
HETATM    3  C3  UNL     1      -4.204   7.936  14.767  1.00  0.00     0.052 A 
HETATM    4  C13 UNL     1      -2.713   8.037  15.078  1.00  0.00     0.104 A 
HETATM    5  C23 UNL     1      -2.388   9.176  16.037  1.00  0.00     0.024 A 
HETATM    6  C24 UNL     1      -3.341  10.026  16.473  1.00  0.00     0.020 A 
HETATM    7  C25 UNL     1      -3.042  11.209  17.360  1.00  0.00     0.058 C 
HETATM    8  C26 UNL     1      -1.580  11.629  17.271  1.00  0.00     0.014 C 
HETATM    9  C27 UNL     1      -0.661  10.439  17.484  1.00  0.00     0.084 C 
HETATM   10  C28 UNL     1      -0.992   9.305  16.540  1.00  0.00     0.158 C 
HETATM   11  O5  UNL     1      -0.144   8.462  16.249  1.00  0.00    -0.293 OA
HETATM   12  N1  UNL     1      -4.657   9.843  16.093  1.00  0.00    -0.362 N 
HETATM   13  H24 UNL     1      -5.339  10.538  16.388  1.00  0.00     0.165 HD
ENDROOT
BRANCH   4  14
HETATM   14  C14 UNL     1      -1.887   8.098  13.802  1.00  0.00     0.029 A 
HETATM   15  C15 UNL     1      -1.965   9.119  12.934  1.00  0.00     0.154 A 
HETATM   16  O3  UNL     1      -1.258   9.269  11.768  1.00  0.00    -0.321 OA
HETATM   17  C16 UNL     1      -0.369   8.282  11.433  1.00  0.00     0.089 A 
HETATM   18  C17 UNL     1       0.349   8.445  10.249  1.00  0.00     0.040 A 
HETATM   19  C21 UNL     1      -0.169   7.152  12.223  1.00  0.00     0.050 A 
HETATM   20  C18 UNL     1       1.271   7.471   9.858  1.00  0.00     0.026 A 
HETATM   21  C19 UNL     1       1.468   6.341  10.653  1.00  0.00     0.035 A 
HETATM   22 CL1  UNL     1       2.605   5.146  10.166  1.00  0.00    -0.084 Cl
HETATM   23  C20 UNL     1       0.753   6.173  11.837  1.00  0.00     0.042 A 
HETATM   24  C22 UNL     1      -0.942   7.004  13.468  1.00  0.00     0.194 A 
HETATM   25  O4  UNL     1      -0.793   6.015  14.174  1.00  0.00    -0.287 OA
ENDBRANCH   4  14
BRANCH   3  26
HETATM   26  C4  UNL     1      -4.582   6.795  13.907  1.00  0.00     0.292 C 
HETATM   27  O1  UNL     1      -4.162   6.647  12.769  1.00  0.00    -0.259 OA
BRANCH  26  28
HETATM   28  O2  UNL     1      -5.509   6.024  14.525  1.00  0.00    -0.317 OA
BRANCH  28  29
HETATM   29  C5  UNL     1      -6.668   5.698  13.740  1.00  0.00     0.183 C 
BRANCH  29  30
HETATM   30  C6  UNL     1      -7.144   4.280  14.052  1.00  0.00     0.065 C 
BRANCH  30  31
HETATM   31  C7  UNL     1      -6.701   3.297  13.001  1.00  0.00    -0.056 A 
HETATM   32  C8  UNL     1      -7.306   2.038  12.902  1.00  0.00     0.007 A 
HETATM   33  C9  UNL     1      -6.910   1.139  11.912  1.00  0.00     0.001 A 
HETATM   34  C10 UNL     1      -5.907   1.492  11.010  1.00  0.00     0.000 A 
HETATM   35  C11 UNL     1      -5.300   2.743  11.098  1.00  0.00     0.001 A 
HETATM   36  C12 UNL     1      -5.695   3.643  12.088  1.00  0.00     0.007 A 
ENDBRANCH  30  31
ENDBRANCH  29  30
ENDBRANCH  28  29
ENDBRANCH  26  28
ENDBRANCH   3  26
TORSDOF 6
ENDMDL
MODEL 7
REMARK minimizedAffinity -8.8462677
REMARK  6 active torsions:
REMARK  status: ('A' for Active; 'I' for Inactive)
REMARK    1  A    between atoms: C3_3  and  C4_4 
REMARK    2  A    between atoms: C4_4  and  O2_6 
REMARK    3  A    between atoms: O2_6  and  C5_7 
REMARK    4  A    between atoms: C5_7  and  C6_8 
REMARK    5  A    between atoms: C6_8  and  C7_9 
REMARK    6  A    between atoms: C13_15  and  C14_16 
ROOT
HETATM    1  C1  UNL     1      -0.183   3.053  12.061  1.00  0.00     0.069 C 
HETATM    2  C2  UNL     1       0.058   4.435  11.514  1.00  0.00     0.018 A 
HETATM    3  C3  UNL     1      -0.815   5.465  11.608  1.00  0.00     0.052 A 
HETATM    4  C13 UNL     1      -0.524   6.827  10.982  1.00  0.00     0.104 A 
HETATM    5  C23 UNL     1       0.797   6.854  10.223  1.00  0.00     0.024 A 
HETATM    6  C24 UNL     1       1.623   5.788  10.203  1.00  0.00     0.020 A 
HETATM    7  C25 UNL     1       2.972   5.806   9.527  1.00  0.00     0.058 C 
HETATM    8  C26 UNL     1       3.500   7.225   9.353  1.00  0.00     0.014 C 
HETATM    9  C27 UNL     1       2.457   8.112   8.694  1.00  0.00     0.084 C 
HETATM   10  C28 UNL     1       1.143   8.075   9.442  1.00  0.00     0.158 C 
HETATM   11  O5  UNL     1       0.341   9.004   9.350  1.00  0.00    -0.293 OA
HETATM   12  N1  UNL     1       1.256   4.616  10.837  1.00  0.00    -0.362 N 
HETATM   13  H24 UNL     1       1.928   3.853  10.856  1.00  0.00     0.165 HD
ENDROOT
BRANCH   4  14
HETATM   14  C14 UNL     1      -0.624   7.941  12.013  1.00  0.00     0.029 A 
HETATM   15  C15 UNL     1      -1.546   8.914  11.945  1.00  0.00     0.154 A 
HETATM   16  O3  UNL     1      -1.722   9.950  12.827  1.00  0.00    -0.321 OA
HETATM   17  C16 UNL     1      -0.875  10.019  13.902  1.00  0.00     0.089 A 
HETATM   18  C17 UNL     1      -1.064  11.072  14.796  1.00  0.00     0.040 A 
HETATM   19  C21 UNL     1       0.139   9.090  14.119  1.00  0.00     0.050 A 
HETATM   20  C18 UNL     1      -0.232  11.192  15.912  1.00  0.00     0.026 A 
HETATM   21  C19 UNL     1       0.784  10.258  16.125  1.00  0.00     0.035 A 
HETATM   22 CL1  UNL     1       1.804  10.411  17.501  1.00  0.00    -0.084 Cl
HETATM   23  C20 UNL     1       0.977   9.204  15.235  1.00  0.00     0.042 A 
HETATM   24  C22 UNL     1       0.319   7.988  13.159  1.00  0.00     0.194 A 
HETATM   25  O4  UNL     1       1.210   7.164  13.321  1.00  0.00    -0.287 OA
ENDBRANCH   4  14
BRANCH   3  26
HETATM   26  C4  UNL     1      -2.124   5.362  12.285  1.00  0.00     0.292 C 
HETATM   27  O1  UNL     1      -2.630   6.285  12.907  1.00  0.00    -0.259 OA
BRANCH  26  28
HETATM   28  O2  UNL     1      -2.607   4.100  12.191  1.00  0.00    -0.317 OA
BRANCH  28  29
HETATM   29  C5  UNL     1      -3.788   3.828  12.962  1.00  0.00     0.183 C 
BRANCH  29  30
HETATM   30  C6  UNL     1      -5.024   3.819  12.064  1.00  0.00     0.065 C 
BRANCH  30  31
HETATM   31  C7  UNL     1      -6.149   4.629  12.651  1.00  0.00    -0.056 A 
HETATM   32  C8  UNL     1      -5.883   5.689  13.527  1.00  0.00     0.007 A 
HETATM   33  C9  UNL     1      -6.926   6.452  14.051  1.00  0.00     0.001 A 
HETATM   34  C10 UNL     1      -8.244   6.167  13.699  1.00  0.00     0.000 A 
HETATM   35  C11 UNL     1      -8.521   5.117  12.825  1.00  0.00     0.001 A 
HETATM   36  C12 UNL     1      -7.478   4.352  12.302  1.00  0.00     0.007 A 
ENDBRANCH  30  31
ENDBRANCH  29  30
ENDBRANCH  28  29
ENDBRANCH  26  28
ENDBRANCH   3  26
TORSDOF 6
ENDMDL
MODEL 8
REMARK minimizedAffinity -8.83110905
REMARK  6 active torsions:
REMARK  status: ('A' for Active; 'I' for Inactive)
REMARK    1  A    between atoms: C3_3  and  C4_4 
REMARK    2  A    between atoms: C4_4  and  O2_6 
REMARK    3  A    between atoms: O2_6  and  C5_7 
REMARK    4  A    between atoms: C5_7  and  C6_8 
REMARK    5  A    between atoms: C6_8  and  C7_9 
REMARK    6  A    between atoms: C13_15  and  C14_16 
ROOT
HETATM    1  C1  UNL     1      -2.476   3.182  10.901  1.00  0.00     0.069 C 
HETATM    2  C2  UNL     1      -3.267   3.970  11.912  1.00  0.00     0.018 A 
HETATM    3  C3  UNL     1      -2.729   4.660  12.944  1.00  0.00     0.052 A 
HETATM    4  C13 UNL     1      -3.599   5.394  13.962  1.00  0.00     0.104 A 
HETATM    5  C23 UNL     1      -5.089   5.206  13.705  1.00  0.00     0.024 A 
HETATM    6  C24 UNL     1      -5.541   4.523  12.633  1.00  0.00     0.020 A 
HETATM    7  C25 UNL     1      -7.007   4.384  12.306  1.00  0.00     0.058 C 
HETATM    8  C26 UNL     1      -7.840   5.478  12.961  1.00  0.00     0.014 C 
HETATM    9  C27 UNL     1      -7.536   5.573  14.446  1.00  0.00     0.084 C 
HETATM   10  C28 UNL     1      -6.056   5.748  14.701  1.00  0.00     0.158 C 
HETATM   11  O5  UNL     1      -5.653   6.261  15.744  1.00  0.00    -0.293 OA
HETATM   12  N1  UNL     1      -4.645   3.927  11.764  1.00  0.00    -0.362 N 
HETATM   13  H24 UNL     1      -5.017   3.474  10.934  1.00  0.00     0.165 HD
ENDROOT
BRANCH   4  14
HETATM   14  C14 UNL     1      -3.207   6.860  14.067  1.00  0.00     0.029 A 
HETATM   15  C15 UNL     1      -3.248   7.700  13.020  1.00  0.00     0.154 A 
HETATM   16  O3  UNL     1      -2.926   9.033  13.017  1.00  0.00    -0.321 OA
HETATM   17  C16 UNL     1      -2.516   9.590  14.200  1.00  0.00     0.089 A 
HETATM   18  C17 UNL     1      -2.196  10.948  14.189  1.00  0.00     0.040 A 
HETATM   19  C21 UNL     1      -2.414   8.857  15.380  1.00  0.00     0.050 A 
HETATM   20  C18 UNL     1      -1.773  11.569  15.367  1.00  0.00     0.026 A 
HETATM   21  C19 UNL     1      -1.674  10.830  16.547  1.00  0.00     0.035 A 
HETATM   22 CL1  UNL     1      -1.154  11.602  17.992  1.00  0.00    -0.084 Cl
HETATM   23  C20 UNL     1      -1.992   9.474  16.563  1.00  0.00     0.042 A 
HETATM   24  C22 UNL     1      -2.757   7.425  15.363  1.00  0.00     0.194 A 
HETATM   25  O4  UNL     1      -2.666   6.755  16.384  1.00  0.00    -0.287 OA
ENDBRANCH   4  14
BRANCH   3  26
HETATM   26  C4  UNL     1      -1.275   4.742  13.198  1.00  0.00     0.292 C 
HETATM   27  O1  UNL     1      -0.802   5.094  14.269  1.00  0.00    -0.259 OA
BRANCH  26  28
HETATM   28  O2  UNL     1      -0.582   4.469  12.067  1.00  0.00    -0.317 OA
BRANCH  28  29
HETATM   29  C5  UNL     1       0.531   5.337  11.797  1.00  0.00     0.183 C 
BRANCH  29  30
HETATM   30  C6  UNL     1       0.050   6.641  11.163  1.00  0.00     0.065 C 
BRANCH  30  31
HETATM   31  C7  UNL     1       0.856   7.001   9.943  1.00  0.00    -0.056 A 
HETATM   32  C8  UNL     1       0.515   8.115   9.166  1.00  0.00     0.007 A 
HETATM   33  C9  UNL     1       1.278   8.459   8.050  1.00  0.00     0.001 A 
HETATM   34  C10 UNL     1       2.390   7.694   7.702  1.00  0.00     0.000 A 
HETATM   35  C11 UNL     1       2.740   6.585   8.470  1.00  0.00     0.001 A 
HETATM   36  C12 UNL     1       1.977   6.240   9.586  1.00  0.00     0.007 A 
ENDBRANCH  30  31
ENDBRANCH  29  30
ENDBRANCH  28  29
ENDBRANCH  26  28
ENDBRANCH   3  26
TORSDOF 6
ENDMDL
MODEL 9
REMARK minimizedAffinity -8.82059956
REMARK  6 active torsions:
REMARK  status: ('A' for Active; 'I' for Inactive)
REMARK    1  A    between atoms: C3_3  and  C4_4 
REMARK    2  A    between atoms: C4_4  and  O2_6 
REMARK    3  A    between atoms: O2_6  and  C5_7 
REMARK    4  A    between atoms: C5_7  and  C6_8 
REMARK    5  A    between atoms: C6_8  and  C7_9 
REMARK    6  A    between atoms: C13_15  and  C14_16 
ROOT
HETATM    1  C1  UNL     1      -5.281   2.960  10.246  1.00  0.00     0.069 C 
HETATM    2  C2  UNL     1      -5.427   3.789  11.496  1.00  0.00     0.018 A 
HETATM    3  C3  UNL     1      -4.403   4.156  12.301  1.00  0.00     0.052 A 
HETATM    4  C13 UNL     1      -4.633   4.954  13.582  1.00  0.00     0.104 A 
HETATM    5  C23 UNL     1      -6.110   5.221  13.851  1.00  0.00     0.024 A 
HETATM    6  C24 UNL     1      -7.066   4.842  12.978  1.00  0.00     0.020 A 
HETATM    7  C25 UNL     1      -8.528   5.158  13.175  1.00  0.00     0.058 C 
HETATM    8  C26 UNL     1      -8.731   6.339  14.116  1.00  0.00     0.014 C 
HETATM    9  C27 UNL     1      -7.955   6.142  15.406  1.00  0.00     0.084 C 
HETATM   10  C28 UNL     1      -6.492   5.866  15.138  1.00  0.00     0.158 C 
HETATM   11  O5  UNL     1      -5.640   6.100  15.995  1.00  0.00    -0.293 OA
HETATM   12  N1  UNL     1      -6.723   4.148  11.833  1.00  0.00    -0.362 N 
HETATM   13  H24 UNL     1      -7.461   3.933  11.167  1.00  0.00     0.165 HD
ENDROOT
BRANCH   4  14
HETATM   14  C14 UNL     1      -3.801   6.227  13.596  1.00  0.00     0.029 A 
HETATM   15  C15 UNL     1      -4.132   7.320  12.890  1.00  0.00     0.154 A 
HETATM   16  O3  UNL     1      -3.455   8.512  12.845  1.00  0.00    -0.321 OA
HETATM   17  C16 UNL     1      -2.313   8.622  13.595  1.00  0.00     0.089 A 
HETATM   18  C17 UNL     1      -1.634   9.840  13.548  1.00  0.00     0.040 A 
HETATM   19  C21 UNL     1      -1.828   7.581  14.382  1.00  0.00     0.050 A 
HETATM   20  C18 UNL     1      -0.465  10.010  14.294  1.00  0.00     0.026 A 
HETATM   21  C19 UNL     1       0.016   8.963  15.082  1.00  0.00     0.035 A 
HETATM   22 CL1  UNL     1       1.455   9.180  15.998  1.00  0.00    -0.084 Cl
HETATM   23  C20 UNL     1      -0.658   7.745  15.132  1.00  0.00     0.042 A 
HETATM   24  C22 UNL     1      -2.564   6.305  14.413  1.00  0.00     0.194 A 
HETATM   25  O4  UNL     1      -2.153   5.370  15.088  1.00  0.00    -0.287 OA
ENDBRANCH   4  14
BRANCH   3  26
HETATM   26  C4  UNL     1      -2.993   3.799  12.039  1.00  0.00     0.292 C 
HETATM   27  O1  UNL     1      -2.486   2.753  12.419  1.00  0.00    -0.259 OA
BRANCH  26  28
HETATM   28  O2  UNL     1      -2.354   4.820  11.419  1.00  0.00    -0.317 OA
BRANCH  28  29
HETATM   29  C5  UNL     1      -0.939   4.648  11.238  1.00  0.00     0.183 C 
BRANCH  29  30
HETATM   30  C6  UNL     1      -0.189   5.913  11.648  1.00  0.00     0.065 C 
BRANCH  30  31
HETATM   31  C7  UNL     1       0.411   6.618  10.461  1.00  0.00    -0.056 A 
HETATM   32  C8  UNL     1      -0.195   7.763   9.929  1.00  0.00     0.007 A 
HETATM   33  C9  UNL     1       0.377   8.426   8.843  1.00  0.00     0.001 A 
HETATM   34  C10 UNL     1       1.562   7.954   8.282  1.00  0.00     0.000 A 
HETATM   35  C11 UNL     1       2.176   6.817   8.805  1.00  0.00     0.001 A 
HETATM   36  C12 UNL     1       1.604   6.152   9.890  1.00  0.00     0.007 A 
ENDBRANCH  30  31
ENDBRANCH  29  30
ENDBRANCH  28  29
ENDBRANCH  26  28
ENDBRANCH   3  26
TORSDOF 6
ENDMDL
