MODEL 1
REMARK minimizedAffinity -6.28450727
REMARK CNNscore 0.521682918
REMARK CNNaffinity 5.51985884
REMARK  4 active torsions:
REMARK  status: ('A' for Active; 'I' for Inactive)
REMARK    1  A    between atoms: C2_2  and  C3_3 
REMARK    2  A    between atoms: C2_2  and  C9_9 
REMARK    3  A    between atoms: C3_3  and  C4_4 
REMARK    4  A    between atoms: C4_4  and  C5_5 
ROOT
HETATM    1  C9  UNL     1      -4.872 -11.168   3.150  1.00  0.00     0.018 C 
HETATM    2  C10 UNL     1      -3.375 -11.376   3.492  1.00  0.00     0.010 C 
HETATM    3  C11 UNL     1      -3.210 -11.020   4.986  1.00  0.00     0.011 C 
HETATM    4  C12 UNL     1      -4.627 -11.165   5.592  1.00  0.00    -0.032 C 
HETATM    5  C13 UNL     1      -4.881 -12.701   5.746  1.00  0.00     0.016 C 
HETATM    6  C14 UNL     1      -5.450 -10.541   4.433  1.00  0.00     0.002 C 
HETATM    7  C15 UNL     1      -6.950 -10.653   4.661  1.00  0.00     0.006 C 
HETATM    8  C16 UNL     1      -7.338  -9.966   5.982  1.00  0.00     0.006 C 
HETATM    9  C17 UNL     1      -6.512 -10.468   7.200  1.00  0.00     0.003 C 
HETATM   10  C18 UNL     1      -7.045  -9.971   8.612  1.00  0.00    -0.035 C 
HETATM   11  C19 UNL     1      -7.112  -8.431   8.712  1.00  0.00     0.016 C 
HETATM   12  C20 UNL     1      -8.517 -10.490   8.787  1.00  0.00     0.017 C 
HETATM   13  C21 UNL     1      -8.928 -10.859  10.208  1.00  0.00     0.080 C 
HETATM   14  C22 UNL     1      -8.140 -10.107  11.250  1.00  0.00     0.135 C 
HETATM   15  O1  UNL     1      -8.715  -9.462  12.127  1.00  0.00    -0.297 OA
HETATM   16  C23 UNL     1      -6.615 -10.268  11.209  1.00  0.00     0.017 C 
HETATM   17  C24 UNL     1      -6.274 -11.440  12.154  1.00  0.00     0.023 C 
HETATM   18  C25 UNL     1      -5.957  -9.002  11.792  1.00  0.00     0.023 C 
HETATM   19  C26 UNL     1      -6.164 -10.618   9.745  1.00  0.00     0.009 C 
HETATM   20  C27 UNL     1      -4.654 -10.420   9.509  1.00  0.00     0.007 C 
HETATM   21  C28 UNL     1      -4.207 -10.982   8.157  1.00  0.00     0.011 C 
HETATM   22  C29 UNL     1      -4.950 -10.366   6.945  1.00  0.00    -0.032 C 
HETATM   23  C30 UNL     1      -4.478  -8.887   6.826  1.00  0.00     0.016 C 
ENDROOT
BRANCH   1  24
HETATM   24  C2  UNL     1      -5.143 -10.395   1.860  1.00  0.00    -0.084 C 
HETATM   25  C1  UNL     1      -6.199  -9.561   1.810  1.00  0.00     0.014 C 
BRANCH  24  26
HETATM   26  C3  UNL     1      -4.199 -10.626   0.684  1.00  0.00     0.037 C 
BRANCH  26  27
HETATM   27  C4  UNL     1      -4.717 -11.371  -0.565  1.00  0.00     0.031 C 
BRANCH  27  28
HETATM   28  C5  UNL     1      -3.694 -12.289  -1.185  1.00  0.00    -0.024 C 
HETATM   29  C6  UNL     1      -3.547 -12.591  -2.489  1.00  0.00    -0.091 C 
HETATM   30  C7  UNL     1      -2.454 -13.526  -2.941  1.00  0.00     0.042 C 
HETATM   31  C8  UNL     1      -4.414 -12.074  -3.604  1.00  0.00     0.042 C 
ENDBRANCH  27  28
ENDBRANCH  26  27
ENDBRANCH  24  26
ENDBRANCH   1  24
TORSDOF 4
ENDMDL
MODEL 2
REMARK minimizedAffinity -6.71259165
REMARK CNNscore 0.519701838
REMARK CNNaffinity 5.41245508
REMARK  4 active torsions:
REMARK  status: ('A' for Active; 'I' for Inactive)
REMARK    1  A    between atoms: C2_2  and  C3_3 
REMARK    2  A    between atoms: C2_2  and  C9_9 
REMARK    3  A    between atoms: C3_3  and  C4_4 
REMARK    4  A    between atoms: C4_4  and  C5_5 
ROOT
HETATM    1  C9  UNL     1      -4.865 -11.473   3.091  1.00  0.00     0.018 C 
HETATM    2  C10 UNL     1      -3.373 -11.711   3.437  1.00  0.00     0.010 C 
HETATM    3  C11 UNL     1      -3.191 -11.291   4.913  1.00  0.00     0.011 C 
HETATM    4  C12 UNL     1      -4.609 -11.362   5.529  1.00  0.00    -0.032 C 
HETATM    5  C13 UNL     1      -4.911 -12.881   5.756  1.00  0.00     0.016 C 
HETATM    6  C14 UNL     1      -5.417 -10.768   4.345  1.00  0.00     0.002 C 
HETATM    7  C15 UNL     1      -6.919 -10.822   4.583  1.00  0.00     0.006 C 
HETATM    8  C16 UNL     1      -7.279 -10.062   5.870  1.00  0.00     0.006 C 
HETATM    9  C17 UNL     1      -6.465 -10.532   7.109  1.00  0.00     0.003 C 
HETATM   10  C18 UNL     1      -6.975  -9.953   8.497  1.00  0.00    -0.035 C 
HETATM   11  C19 UNL     1      -6.993  -8.408   8.525  1.00  0.00     0.016 C 
HETATM   12  C20 UNL     1      -8.462 -10.416   8.701  1.00  0.00     0.017 C 
HETATM   13  C21 UNL     1      -8.878 -10.706  10.139  1.00  0.00     0.080 C 
HETATM   14  C22 UNL     1      -8.062  -9.931  11.142  1.00  0.00     0.135 C 
HETATM   15  O1  UNL     1      -8.613  -9.227  11.989  1.00  0.00    -0.297 OA
HETATM   16  C23 UNL     1      -6.543 -10.141  11.104  1.00  0.00     0.017 C 
HETATM   17  C24 UNL     1      -6.235 -11.278  12.102  1.00  0.00     0.023 C 
HETATM   18  C25 UNL     1      -5.843  -8.871  11.625  1.00  0.00     0.023 C 
HETATM   19  C26 UNL     1      -6.110 -10.573   9.656  1.00  0.00     0.009 C 
HETATM   20  C27 UNL     1      -4.596 -10.434   9.407  1.00  0.00     0.007 C 
HETATM   21  C28 UNL     1      -4.172 -11.073   8.082  1.00  0.00     0.011 C 
HETATM   22  C29 UNL     1      -4.901 -10.491   6.844  1.00  0.00    -0.032 C 
HETATM   23  C30 UNL     1      -4.383  -9.035   6.655  1.00  0.00     0.016 C 
ENDROOT
BRANCH   1  24
HETATM   24  C2  UNL     1      -5.117 -10.752   1.766  1.00  0.00    -0.084 C 
HETATM   25  C1  UNL     1      -4.068 -10.455   0.977  1.00  0.00     0.014 C 
BRANCH  24  26
HETATM   26  C3  UNL     1      -6.559 -10.394   1.418  1.00  0.00     0.037 C 
BRANCH  26  27
HETATM   27  C4  UNL     1      -6.978 -10.311  -0.065  1.00  0.00     0.031 C 
BRANCH  27  28
HETATM   28  C5  UNL     1      -7.766  -9.069  -0.399  1.00  0.00    -0.024 C 
HETATM   29  C6  UNL     1      -7.865  -8.458  -1.595  1.00  0.00    -0.091 C 
HETATM   30  C7  UNL     1      -8.713  -7.222  -1.756  1.00  0.00     0.042 C 
HETATM   31  C8  UNL     1      -7.171  -8.896  -2.856  1.00  0.00     0.042 C 
ENDBRANCH  27  28
ENDBRANCH  26  27
ENDBRANCH  24  26
ENDBRANCH   1  24
TORSDOF 4
ENDMDL
MODEL 3
REMARK minimizedAffinity -6.51330042
REMARK CNNscore 0.450980693
REMARK CNNaffinity 6.36002731
REMARK  4 active torsions:
REMARK  status: ('A' for Active; 'I' for Inactive)
REMARK    1  A    between atoms: C2_2  and  C3_3 
REMARK    2  A    between atoms: C2_2  and  C9_9 
REMARK    3  A    between atoms: C3_3  and  C4_4 
REMARK    4  A    between atoms: C4_4  and  C5_5 
ROOT
HETATM    1  C9  UNL     1     -14.611   7.124  20.801  1.00  0.00     0.018 C 
HETATM    2  C10 UNL     1     -14.911   8.490  21.469  1.00  0.00     0.010 C 
HETATM    3  C11 UNL     1     -15.112   8.208  22.975  1.00  0.00     0.011 C 
HETATM    4  C12 UNL     1     -14.397   6.861  23.231  1.00  0.00    -0.032 C 
HETATM    5  C13 UNL     1     -12.864   7.178  23.258  1.00  0.00     0.016 C 
HETATM    6  C14 UNL     1     -14.825   6.110  21.942  1.00  0.00     0.002 C 
HETATM    7  C15 UNL     1     -14.157   4.750  21.813  1.00  0.00     0.006 C 
HETATM    8  C16 UNL     1     -14.488   3.879  23.037  1.00  0.00     0.006 C 
HETATM    9  C17 UNL     1     -14.167   4.573  24.390  1.00  0.00     0.003 C 
HETATM   10  C18 UNL     1     -14.260   3.624  25.661  1.00  0.00    -0.035 C 
HETATM   11  C19 UNL     1     -15.649   2.964  25.808  1.00  0.00     0.016 C 
HETATM   12  C20 UNL     1     -13.231   2.452  25.470  1.00  0.00     0.017 C 
HETATM   13  C21 UNL     1     -12.565   1.937  26.741  1.00  0.00     0.080 C 
HETATM   14  C22 UNL     1     -13.412   2.162  27.967  1.00  0.00     0.135 C 
HETATM   15  O1  UNL     1     -13.694   1.225  28.714  1.00  0.00    -0.297 OA
HETATM   16  C23 UNL     1     -13.813   3.610  28.272  1.00  0.00     0.017 C 
HETATM   17  C24 UNL     1     -12.732   4.172  29.220  1.00  0.00     0.023 C 
HETATM   18  C25 UNL     1     -15.147   3.614  29.044  1.00  0.00     0.023 C 
HETATM   19  C26 UNL     1     -13.834   4.440  26.938  1.00  0.00     0.009 C 
HETATM   20  C27 UNL     1     -14.586   5.779  27.065  1.00  0.00     0.007 C 
HETATM   21  C28 UNL     1     -14.395   6.664  25.830  1.00  0.00     0.011 C 
HETATM   22  C29 UNL     1     -14.851   6.000  24.506  1.00  0.00    -0.032 C 
HETATM   23  C30 UNL     1     -16.403   5.894  24.563  1.00  0.00     0.016 C 
ENDROOT
BRANCH   1  24
HETATM   24  C2  UNL     1     -15.392   6.843  19.517  1.00  0.00    -0.084 C 
HETATM   25  C1  UNL     1     -16.477   6.048  19.576  1.00  0.00     0.014 C 
BRANCH  24  26
HETATM   26  C3  UNL     1     -14.882   7.476  18.225  1.00  0.00     0.037 C 
BRANCH  26  27
HETATM   27  C4  UNL     1     -15.552   7.100  16.887  1.00  0.00     0.031 C 
BRANCH  27  28
HETATM   28  C5  UNL     1     -14.617   7.174  15.705  1.00  0.00    -0.024 C 
HETATM   29  C6  UNL     1     -14.424   6.241  14.752  1.00  0.00    -0.091 C 
HETATM   30  C7  UNL     1     -13.453   6.486  13.626  1.00  0.00     0.042 C 
HETATM   31  C8  UNL     1     -15.106   4.902  14.696  1.00  0.00     0.042 C 
ENDBRANCH  27  28
ENDBRANCH  26  27
ENDBRANCH  24  26
ENDBRANCH   1  24
TORSDOF 4
ENDMDL
MODEL 4
REMARK minimizedAffinity -8.4218483
REMARK CNNscore 0.447693944
REMARK CNNaffinity 7.07803154
REMARK  4 active torsions:
REMARK  status: ('A' for Active; 'I' for Inactive)
REMARK    1  A    between atoms: C2_2  and  C3_3 
REMARK    2  A    between atoms: C2_2  and  C9_9 
REMARK    3  A    between atoms: C3_3  and  C4_4 
REMARK    4  A    between atoms: C4_4  and  C5_5 
ROOT
HETATM    1  C9  UNL     1       0.634   5.986  12.923  1.00  0.00     0.018 C 
HETATM    2  C10 UNL     1       1.152   7.052  13.922  1.00  0.00     0.010 C 
HETATM    3  C11 UNL     1      -0.094   7.772  14.484  1.00  0.00     0.011 C 
HETATM    4  C12 UNL     1      -1.264   6.786  14.257  1.00  0.00    -0.032 C 
HETATM    5  C13 UNL     1      -1.122   5.679  15.354  1.00  0.00     0.016 C 
HETATM    6  C14 UNL     1      -0.878   6.273  12.844  1.00  0.00     0.002 C 
HETATM    7  C15 UNL     1      -1.786   5.150  12.366  1.00  0.00     0.006 C 
HETATM    8  C16 UNL     1      -3.250   5.623  12.348  1.00  0.00     0.006 C 
HETATM    9  C17 UNL     1      -3.716   6.229  13.702  1.00  0.00     0.003 C 
HETATM   10  C18 UNL     1      -5.278   6.499  13.804  1.00  0.00    -0.035 C 
HETATM   11  C19 UNL     1      -5.792   7.435  12.687  1.00  0.00     0.016 C 
HETATM   12  C20 UNL     1      -6.023   5.130  13.612  1.00  0.00     0.017 C 
HETATM   13  C21 UNL     1      -7.309   4.954  14.414  1.00  0.00     0.080 C 
HETATM   14  C22 UNL     1      -7.971   6.269  14.737  1.00  0.00     0.135 C 
HETATM   15  O1  UNL     1      -9.150   6.466  14.442  1.00  0.00    -0.297 OA
HETATM   16  C23 UNL     1      -7.135   7.287  15.522  1.00  0.00     0.017 C 
HETATM   17  C24 UNL     1      -7.443   7.047  17.015  1.00  0.00     0.023 C 
HETATM   18  C25 UNL     1      -7.616   8.710  15.176  1.00  0.00     0.023 C 
HETATM   19  C26 UNL     1      -5.608   7.034  15.247  1.00  0.00     0.009 C 
HETATM   20  C27 UNL     1      -4.711   8.216  15.662  1.00  0.00     0.007 C 
HETATM   21  C28 UNL     1      -3.224   7.857  15.600  1.00  0.00     0.011 C 
HETATM   22  C29 UNL     1      -2.751   7.385  14.202  1.00  0.00    -0.032 C 
HETATM   23  C30 UNL     1      -2.800   8.626  13.263  1.00  0.00     0.016 C 
ENDROOT
BRANCH   1  24
HETATM   24  C2  UNL     1       1.366   5.943  11.581  1.00  0.00    -0.084 C 
HETATM   25  C1  UNL     1       1.675   4.745  11.048  1.00  0.00     0.014 C 
BRANCH  24  26
HETATM   26  C3  UNL     1       1.720   7.273  10.924  1.00  0.00     0.037 C 
BRANCH  26  27
HETATM   27  C4  UNL     1       3.031   7.390  10.117  1.00  0.00     0.031 C 
BRANCH  27  28
HETATM   28  C5  UNL     1       2.863   7.079   8.650  1.00  0.00    -0.024 C 
HETATM   29  C6  UNL     1       1.855   7.457   7.841  1.00  0.00    -0.091 C 
HETATM   30  C7  UNL     1       1.853   7.066   6.385  1.00  0.00     0.042 C 
HETATM   31  C8  UNL     1       0.658   8.264   8.263  1.00  0.00     0.042 C 
ENDBRANCH  27  28
ENDBRANCH  26  27
ENDBRANCH  24  26
ENDBRANCH   1  24
TORSDOF 4
ENDMDL
MODEL 5
REMARK minimizedAffinity -6.11488438
REMARK CNNscore 0.355024636
REMARK CNNaffinity 5.20266867
REMARK  4 active torsions:
REMARK  status: ('A' for Active; 'I' for Inactive)
REMARK    1  A    between atoms: C2_2  and  C3_3 
REMARK    2  A    between atoms: C2_2  and  C9_9 
REMARK    3  A    between atoms: C3_3  and  C4_4 
REMARK    4  A    between atoms: C4_4  and  C5_5 
ROOT
HETATM    1  C9  UNL     1       6.115   8.391  13.422  1.00  0.00     0.018 C 
HETATM    2  C10 UNL     1       6.740   8.772  12.055  1.00  0.00     0.010 C 
HETATM    3  C11 UNL     1       7.849   9.806  12.351  1.00  0.00     0.011 C 
HETATM    4  C12 UNL     1       8.219   9.584  13.837  1.00  0.00    -0.032 C 
HETATM    5  C13 UNL     1       9.093   8.287  13.881  1.00  0.00     0.016 C 
HETATM    6  C14 UNL     1       6.794   9.358  14.410  1.00  0.00     0.002 C 
HETATM    7  C15 UNL     1       6.815   8.968  15.880  1.00  0.00     0.006 C 
HETATM    8  C16 UNL     1       7.524  10.054  16.707  1.00  0.00     0.006 C 
HETATM    9  C17 UNL     1       8.938  10.411  16.167  1.00  0.00     0.003 C 
HETATM   10  C18 UNL     1       9.798  11.340  17.127  1.00  0.00    -0.035 C 
HETATM   11  C19 UNL     1       9.089  12.672  17.457  1.00  0.00     0.016 C 
HETATM   12  C20 UNL     1       9.986  10.588  18.493  1.00  0.00     0.017 C 
HETATM   13  C21 UNL     1      11.315  10.820  19.204  1.00  0.00     0.080 C 
HETATM   14  C22 UNL     1      11.934  12.147  18.848  1.00  0.00     0.135 C 
HETATM   15  O1  UNL     1      12.260  12.943  19.728  1.00  0.00    -0.297 OA
HETATM   16  C23 UNL     1      12.215  12.400  17.362  1.00  0.00     0.017 C 
HETATM   17  C24 UNL     1      13.665  11.934  17.106  1.00  0.00     0.023 C 
HETATM   18  C25 UNL     1      12.165  13.915  17.087  1.00  0.00     0.023 C 
HETATM   19  C26 UNL     1      11.222  11.549  16.489  1.00  0.00     0.009 C 
HETATM   20  C27 UNL     1      11.153  12.012  15.021  1.00  0.00     0.007 C 
HETATM   21  C28 UNL     1      10.363  11.033  14.148  1.00  0.00     0.011 C 
HETATM   22  C29 UNL     1       8.909  10.797  14.629  1.00  0.00    -0.032 C 
HETATM   23  C30 UNL     1       8.127  12.121  14.379  1.00  0.00     0.016 C 
ENDROOT
BRANCH   1  24
HETATM   24  C2  UNL     1       4.587   8.379  13.457  1.00  0.00    -0.084 C 
HETATM   25  C1  UNL     1       3.965   7.985  14.585  1.00  0.00     0.014 C 
BRANCH  24  26
HETATM   26  C3  UNL     1       3.846   8.806  12.194  1.00  0.00     0.037 C 
BRANCH  26  27
HETATM   27  C4  UNL     1       3.395   7.729  11.184  1.00  0.00     0.031 C 
BRANCH  27  28
HETATM   28  C5  UNL     1       2.018   7.973  10.619  1.00  0.00    -0.024 C 
HETATM   29  C6  UNL     1       1.674   8.097   9.323  1.00  0.00    -0.091 C 
HETATM   30  C7  UNL     1       0.236   8.327   8.930  1.00  0.00     0.042 C 
HETATM   31  C8  UNL     1       2.626   8.037   8.160  1.00  0.00     0.042 C 
ENDBRANCH  27  28
ENDBRANCH  26  27
ENDBRANCH  24  26
ENDBRANCH   1  24
TORSDOF 4
ENDMDL
MODEL 6
REMARK minimizedAffinity -6.38103104
REMARK CNNscore 0.326790124
REMARK CNNaffinity 6.23627043
REMARK  4 active torsions:
REMARK  status: ('A' for Active; 'I' for Inactive)
REMARK    1  A    between atoms: C2_2  and  C3_3 
REMARK    2  A    between atoms: C2_2  and  C9_9 
REMARK    3  A    between atoms: C3_3  and  C4_4 
REMARK    4  A    between atoms: C4_4  and  C5_5 
ROOT
HETATM    1  C9  UNL     1     -14.307   5.250  23.754  1.00  0.00     0.018 C 
HETATM    2  C10 UNL     1     -14.461   5.374  25.291  1.00  0.00     0.010 C 
HETATM    3  C11 UNL     1     -13.921   6.769  25.677  1.00  0.00     0.011 C 
HETATM    4  C12 UNL     1     -13.997   7.603  24.377  1.00  0.00    -0.032 C 
HETATM    5  C13 UNL     1     -15.503   7.983  24.189  1.00  0.00     0.016 C 
HETATM    6  C14 UNL     1     -13.528   6.522  23.367  1.00  0.00     0.002 C 
HETATM    7  C15 UNL     1     -13.619   6.996  21.925  1.00  0.00     0.006 C 
HETATM    8  C16 UNL     1     -12.775   8.267  21.729  1.00  0.00     0.006 C 
HETATM    9  C17 UNL     1     -13.116   9.392  22.747  1.00  0.00     0.003 C 
HETATM   10  C18 UNL     1     -12.449  10.798  22.428  1.00  0.00    -0.035 C 
HETATM   11  C19 UNL     1     -10.909  10.718  22.339  1.00  0.00     0.016 C 
HETATM   12  C20 UNL     1     -12.951  11.266  21.015  1.00  0.00     0.017 C 
HETATM   13  C21 UNL     1     -13.142  12.768  20.840  1.00  0.00     0.080 C 
HETATM   14  C22 UNL     1     -12.262  13.572  21.762  1.00  0.00     0.135 C 
HETATM   15  O1  UNL     1     -11.515  14.443  21.314  1.00  0.00    -0.297 OA
HETATM   16  C23 UNL     1     -12.417  13.312  23.265  1.00  0.00     0.017 C 
HETATM   17  C24 UNL     1     -13.460  14.328  23.779  1.00  0.00     0.023 C 
HETATM   18  C25 UNL     1     -11.084  13.624  23.973  1.00  0.00     0.023 C 
HETATM   19  C26 UNL     1     -12.944  11.848  23.491  1.00  0.00     0.009 C 
HETATM   20  C27 UNL     1     -12.768  11.355  24.940  1.00  0.00     0.007 C 
HETATM   21  C28 UNL     1     -13.492  10.029  25.186  1.00  0.00     0.011 C 
HETATM   22  C29 UNL     1     -13.037   8.883  24.248  1.00  0.00    -0.032 C 
HETATM   23  C30 UNL     1     -11.582   8.511  24.657  1.00  0.00     0.016 C 
ENDROOT
BRANCH   1  24
HETATM   24  C2  UNL     1     -13.702   3.934  23.265  1.00  0.00    -0.084 C 
HETATM   25  C1  UNL     1     -14.160   3.393  22.120  1.00  0.00     0.014 C 
BRANCH  24  26
HETATM   26  C3  UNL     1     -12.612   3.294  24.121  1.00  0.00     0.037 C 
BRANCH  26  27
HETATM   27  C4  UNL     1     -12.924   1.993  24.890  1.00  0.00     0.031 C 
BRANCH  27  28
HETATM   28  C5  UNL     1     -12.213   1.893  26.217  1.00  0.00    -0.024 C 
HETATM   29  C6  UNL     1     -12.699   2.210  27.433  1.00  0.00    -0.091 C 
HETATM   30  C7  UNL     1     -11.849   2.035  28.666  1.00  0.00     0.042 C 
HETATM   31  C8  UNL     1     -14.072   2.759  27.705  1.00  0.00     0.042 C 
ENDBRANCH  27  28
ENDBRANCH  26  27
ENDBRANCH  24  26
ENDBRANCH   1  24
TORSDOF 4
ENDMDL
MODEL 7
REMARK minimizedAffinity -6.24469757
REMARK CNNscore 0.324494541
REMARK CNNaffinity 6.1006031
REMARK  4 active torsions:
REMARK  status: ('A' for Active; 'I' for Inactive)
REMARK    1  A    between atoms: C2_2  and  C3_3 
REMARK    2  A    between atoms: C2_2  and  C9_9 
REMARK    3  A    between atoms: C3_3  and  C4_4 
REMARK    4  A    between atoms: C4_4  and  C5_5 
ROOT
HETATM    1  C9  UNL     1      -1.863  13.085  19.088  1.00  0.00     0.018 C 
HETATM    2  C10 UNL     1      -3.395  13.325  19.087  1.00  0.00     0.010 C 
HETATM    3  C11 UNL     1      -3.982  12.418  17.983  1.00  0.00     0.011 C 
HETATM    4  C12 UNL     1      -2.925  11.308  17.770  1.00  0.00    -0.032 C 
HETATM    5  C13 UNL     1      -3.074  10.326  18.980  1.00  0.00     0.016 C 
HETATM    6  C14 UNL     1      -1.641  12.174  17.865  1.00  0.00     0.002 C 
HETATM    7  C15 UNL     1      -0.372  11.337  17.828  1.00  0.00     0.006 C 
HETATM    8  C16 UNL     1      -0.324  10.505  16.535  1.00  0.00     0.006 C 
HETATM    9  C17 UNL     1      -1.604   9.653  16.306  1.00  0.00     0.003 C 
HETATM   10  C18 UNL     1      -1.495   8.598  15.123  1.00  0.00    -0.035 C 
HETATM   11  C19 UNL     1      -1.139   9.256  13.771  1.00  0.00     0.016 C 
HETATM   12  C20 UNL     1      -0.320   7.611  15.458  1.00  0.00     0.017 C 
HETATM   13  C21 UNL     1      -0.511   6.169  15.001  1.00  0.00     0.080 C 
HETATM   14  C22 UNL     1      -1.429   6.059  13.810  1.00  0.00     0.135 C 
HETATM   15  O1  UNL     1      -1.066   5.471  12.791  1.00  0.00    -0.297 OA
HETATM   16  C23 UNL     1      -2.844   6.627  13.975  1.00  0.00     0.017 C 
HETATM   17  C24 UNL     1      -3.731   5.458  14.455  1.00  0.00     0.023 C 
HETATM   18  C25 UNL     1      -3.375   7.072  12.599  1.00  0.00     0.023 C 
HETATM   19  C26 UNL     1      -2.828   7.763  15.062  1.00  0.00     0.009 C 
HETATM   20  C27 UNL     1      -4.086   8.653  15.031  1.00  0.00     0.007 C 
HETATM   21  C28 UNL     1      -4.151   9.595  16.236  1.00  0.00     0.011 C 
HETATM   22  C29 UNL     1      -2.924  10.532  16.366  1.00  0.00    -0.032 C 
HETATM   23  C30 UNL     1      -2.998  11.546  15.187  1.00  0.00     0.016 C 
ENDROOT
BRANCH   1  24
HETATM   24  C2  UNL     1      -1.007  14.350  19.131  1.00  0.00    -0.084 C 
HETATM   25  C1  UNL     1      -1.329  15.381  18.325  1.00  0.00     0.014 C 
BRANCH  24  26
HETATM   26  C3  UNL     1       0.184  14.368  20.084  1.00  0.00     0.037 C 
BRANCH  26  27
HETATM   27  C4  UNL     1       1.327  13.350  19.882  1.00  0.00     0.031 C 
BRANCH  27  28
HETATM   28  C5  UNL     1       2.063  13.012  21.154  1.00  0.00    -0.024 C 
HETATM   29  C6  UNL     1       2.388  11.788  21.613  1.00  0.00    -0.091 C 
HETATM   30  C7  UNL     1       3.143  11.631  22.908  1.00  0.00     0.042 C 
HETATM   31  C8  UNL     1       2.049  10.488  20.937  1.00  0.00     0.042 C 
ENDBRANCH  27  28
ENDBRANCH  26  27
ENDBRANCH  24  26
ENDBRANCH   1  24
TORSDOF 4
ENDMDL
MODEL 8
REMARK minimizedAffinity -6.40794945
REMARK CNNscore 0.316946626
REMARK CNNaffinity 5.61790991
REMARK  4 active torsions:
REMARK  status: ('A' for Active; 'I' for Inactive)
REMARK    1  A    between atoms: C2_2  and  C3_3 
REMARK    2  A    between atoms: C2_2  and  C9_9 
REMARK    3  A    between atoms: C3_3  and  C4_4 
REMARK    4  A    between atoms: C4_4  and  C5_5 
ROOT
HETATM    1  C9  UNL     1       6.080  11.558  15.926  1.00  0.00     0.018 C 
HETATM    2  C10 UNL     1       7.440  11.632  15.187  1.00  0.00     0.010 C 
HETATM    3  C11 UNL     1       7.317  10.720  13.946  1.00  0.00     0.011 C 
HETATM    4  C12 UNL     1       5.797  10.598  13.685  1.00  0.00    -0.032 C 
HETATM    5  C13 UNL     1       5.358  11.948  13.025  1.00  0.00     0.016 C 
HETATM    6  C14 UNL     1       5.309  10.470  15.153  1.00  0.00     0.002 C 
HETATM    7  C15 UNL     1       3.792  10.466  15.263  1.00  0.00     0.006 C 
HETATM    8  C16 UNL     1       3.204   9.311  14.434  1.00  0.00     0.006 C 
HETATM    9  C17 UNL     1       3.694   9.304  12.958  1.00  0.00     0.003 C 
HETATM   10  C18 UNL     1       2.926   8.286  12.010  1.00  0.00    -0.035 C 
HETATM   11  C19 UNL     1       2.999   6.830  12.520  1.00  0.00     0.016 C 
HETATM   12  C20 UNL     1       1.405   8.677  12.006  1.00  0.00     0.017 C 
HETATM   13  C21 UNL     1       0.663   8.454  10.692  1.00  0.00     0.080 C 
HETATM   14  C22 UNL     1       1.285   7.363   9.858  1.00  0.00     0.135 C 
HETATM   15  O1  UNL     1       0.605   6.419   9.455  1.00  0.00    -0.297 OA
HETATM   16  C23 UNL     1       2.757   7.544   9.472  1.00  0.00     0.017 C 
HETATM   17  C24 UNL     1       2.765   8.255   8.102  1.00  0.00     0.023 C 
HETATM   18  C25 UNL     1       3.404   6.159   9.275  1.00  0.00     0.023 C 
HETATM   19  C26 UNL     1       3.473   8.447  10.542  1.00  0.00     0.009 C 
HETATM   20  C27 UNL     1       5.010   8.375  10.470  1.00  0.00     0.007 C 
HETATM   21  C28 UNL     1       5.676   9.428  11.360  1.00  0.00     0.011 C 
HETATM   22  C29 UNL     1       5.277   9.329  12.854  1.00  0.00    -0.032 C 
HETATM   23  C30 UNL     1       5.913   8.021  13.409  1.00  0.00     0.016 C 
ENDROOT
BRANCH   1  24
HETATM   24  C2  UNL     1       6.173  11.350  17.438  1.00  0.00    -0.084 C 
HETATM   25  C1  UNL     1       7.249  10.716  17.943  1.00  0.00     0.014 C 
BRANCH  24  26
HETATM   26  C3  UNL     1       5.022  11.866  18.296  1.00  0.00     0.037 C 
BRANCH  26  27
HETATM   27  C4  UNL     1       5.109  11.735  19.831  1.00  0.00     0.031 C 
BRANCH  27  28
HETATM   28  C5  UNL     1       4.125  10.748  20.408  1.00  0.00    -0.024 C 
HETATM   29  C6  UNL     1       3.972  10.402  21.701  1.00  0.00    -0.091 C 
HETATM   30  C7  UNL     1       2.922   9.400  22.107  1.00  0.00     0.042 C 
HETATM   31  C8  UNL     1       4.791  10.933  22.845  1.00  0.00     0.042 C 
ENDBRANCH  27  28
ENDBRANCH  26  27
ENDBRANCH  24  26
ENDBRANCH   1  24
TORSDOF 4
ENDMDL
MODEL 9
REMARK minimizedAffinity -6.96556997
REMARK CNNscore 0.291176915
REMARK CNNaffinity 5.78663111
REMARK  4 active torsions:
REMARK  status: ('A' for Active; 'I' for Inactive)
REMARK    1  A    between atoms: C2_2  and  C3_3 
REMARK    2  A    between atoms: C2_2  and  C9_9 
REMARK    3  A    between atoms: C3_3  and  C4_4 
REMARK    4  A    between atoms: C4_4  and  C5_5 
ROOT
HETATM    1  C9  UNL     1       2.333   7.101  10.603  1.00  0.00     0.018 C 
HETATM    2  C10 UNL     1       2.895   7.589   9.243  1.00  0.00     0.010 C 
HETATM    3  C11 UNL     1       4.108   8.490   9.566  1.00  0.00     0.011 C 
HETATM    4  C12 UNL     1       4.556   8.068  10.985  1.00  0.00    -0.032 C 
HETATM    5  C13 UNL     1       5.314   6.709  10.818  1.00  0.00     0.016 C 
HETATM    6  C14 UNL     1       3.159   7.890  11.637  1.00  0.00     0.002 C 
HETATM    7  C15 UNL     1       3.243   7.330  13.049  1.00  0.00     0.006 C 
HETATM    8  C16 UNL     1       4.099   8.252  13.934  1.00  0.00     0.006 C 
HETATM    9  C17 UNL     1       5.499   8.557  13.331  1.00  0.00     0.003 C 
HETATM   10  C18 UNL     1       6.500   9.296  14.318  1.00  0.00    -0.035 C 
HETATM   11  C19 UNL     1       5.933  10.633  14.847  1.00  0.00     0.016 C 
HETATM   12  C20 UNL     1       6.712   8.377  15.574  1.00  0.00     0.017 C 
HETATM   13  C21 UNL     1       8.101   8.419  16.203  1.00  0.00     0.080 C 
HETATM   14  C22 UNL     1       8.809   9.725  15.949  1.00  0.00     0.135 C 
HETATM   15  O1  UNL     1       9.261  10.385  16.885  1.00  0.00    -0.297 OA
HETATM   16  C23 UNL     1       9.010  10.127  14.483  1.00  0.00     0.017 C 
HETATM   17  C24 UNL     1      10.393   9.581  14.067  1.00  0.00     0.023 C 
HETATM   18  C25 UNL     1       9.074  11.663  14.383  1.00  0.00     0.023 C 
HETATM   19  C26 UNL     1       7.891   9.466  13.600  1.00  0.00     0.009 C 
HETATM   20  C27 UNL     1       7.763  10.101  12.202  1.00  0.00     0.007 C 
HETATM   21  C28 UNL     1       6.834   9.296  11.289  1.00  0.00     0.011 C 
HETATM   22  C29 UNL     1       5.401   9.122  11.851  1.00  0.00    -0.032 C 
HETATM   23  C30 UNL     1       4.723  10.523  11.810  1.00  0.00     0.016 C 
ENDROOT
BRANCH   1  24
HETATM   24  C2  UNL     1       0.815   7.206  10.753  1.00  0.00    -0.084 C 
HETATM   25  C1  UNL     1       0.201   8.346  10.381  1.00  0.00     0.014 C 
BRANCH  24  26
HETATM   26  C3  UNL     1       0.076   6.006  11.337  1.00  0.00     0.037 C 
BRANCH  26  27
HETATM   27  C4  UNL     1      -1.000   6.236  12.418  1.00  0.00     0.031 C 
BRANCH  27  28
HETATM   28  C5  UNL     1      -2.195   5.325  12.282  1.00  0.00    -0.024 C 
HETATM   29  C6  UNL     1      -3.096   5.006  13.231  1.00  0.00    -0.091 C 
HETATM   30  C7  UNL     1      -4.245   4.082  12.917  1.00  0.00     0.042 C 
HETATM   31  C8  UNL     1      -3.069   5.492  14.654  1.00  0.00     0.042 C 
ENDBRANCH  27  28
ENDBRANCH  26  27
ENDBRANCH  24  26
ENDBRANCH   1  24
TORSDOF 4
ENDMDL
