MODEL 1
REMARK minimizedAffinity -7.96834421
REMARK CNNscore 0.694866598
REMARK CNNaffinity 6.27493906
REMARK  8 active torsions:
REMARK  status: ('A' for Active; 'I' for Inactive)
REMARK    1  A    between atoms: C2_2  and  C30_35 
REMARK    2  A    between atoms: C3_3  and  C4_4 
REMARK    3  A    between atoms: C4_4  and  O1_5 
REMARK    4  A    between atoms: C4_4  and  C5_6 
REMARK    5  A    between atoms: C5_6  and  C6_7 
REMARK    6  A    between atoms: C6_7  and  C8_9 
REMARK    7  A    between atoms: C29_33  and  O5_34 
REMARK    8  A    between atoms: C30_35  and  O7_37 
ROOT
HETATM    1  C8  UNL     1       3.256  12.842  20.152  1.00  0.00     0.006 C 
HETATM    2  C9  UNL     1       4.288  11.925  19.444  1.00  0.00     0.085 C 
HETATM    3  C10 UNL     1       3.521  11.393  18.250  1.00  0.00     0.140 C 
HETATM    4  O2  UNL     1       4.022  10.670  17.396  1.00  0.00    -0.297 OA
HETATM    5  C11 UNL     1       2.086  11.936  18.209  1.00  0.00     0.051 C 
HETATM    6  C12 UNL     1       2.206  13.184  17.286  1.00  0.00     0.029 C 
HETATM    7  C13 UNL     1       0.897  11.136  17.699  1.00  0.00    -0.024 C 
HETATM    8  C14 UNL     1      -0.364  11.542  18.008  1.00  0.00     0.003 C 
HETATM    9  C15 UNL     1      -0.532  12.650  19.042  1.00  0.00     0.157 C 
HETATM   10  O3  UNL     1      -1.627  13.183  19.226  1.00  0.00    -0.293 OA
HETATM   11  C16 UNL     1       0.660  13.128  19.873  1.00  0.00     0.094 C 
HETATM   12  C17 UNL     1       1.883  12.218  19.742  1.00  0.00    -0.015 C 
HETATM   13  C18 UNL     1       1.607  10.919  20.558  1.00  0.00     0.018 C 
HETATM   14  C19 UNL     1      -1.637  10.925  17.378  1.00  0.00    -0.008 C 
HETATM   15  C20 UNL     1      -2.314  10.083  18.484  1.00  0.00     0.021 C 
HETATM   16  C21 UNL     1      -2.636  12.029  16.898  1.00  0.00     0.022 C 
HETATM   17  C22 UNL     1      -3.499  11.678  15.689  1.00  0.00     0.080 C 
HETATM   18  C23 UNL     1      -3.712  10.192  15.557  1.00  0.00     0.135 C 
HETATM   19  O4  UNL     1      -4.845   9.719  15.491  1.00  0.00    -0.297 OA
HETATM   20  C24 UNL     1      -2.450   9.335  15.416  1.00  0.00     0.018 C 
HETATM   21  C25 UNL     1      -2.723   7.918  15.956  1.00  0.00     0.023 C 
HETATM   22  C26 UNL     1      -2.175   9.205  13.902  1.00  0.00     0.023 C 
HETATM   23  C27 UNL     1      -1.252  10.074  16.109  1.00  0.00     0.016 C 
HETATM   24  C28 UNL     1      -0.066   9.155  16.408  1.00  0.00     0.043 C 
HETATM   25  C29 UNL     1       1.175   9.952  16.807  1.00  0.00     0.149 C 
ENDROOT
BRANCH   1  26
HETATM   26  C6  UNL     1       3.638  13.169  21.632  1.00  0.00    -0.011 C 
HETATM   27  C7  UNL     1       2.471  13.376  22.603  1.00  0.00     0.010 C 
BRANCH  26  28
HETATM   28  C5  UNL     1       4.657  14.335  21.702  1.00  0.00     0.040 C 
BRANCH  28  29
HETATM   29  C4  UNL     1       5.460  14.511  23.006  1.00  0.00     0.142 C 
BRANCH  29  30
HETATM   30  C3  UNL     1       6.851  13.947  22.981  1.00  0.00     0.018 C 
HETATM   31  C2  UNL     1       7.192  12.644  23.071  1.00  0.00     0.010 C 
HETATM   32  C1  UNL     1       6.239  11.492  23.184  1.00  0.00     0.055 C 
BRANCH  31  33
HETATM   33  C30 UNL     1       8.645  12.340  23.036  1.00  0.00     0.171 C 
HETATM   34  O6  UNL     1       9.544  13.115  22.759  1.00  0.00    -0.646 OA
BRANCH  33  35
HETATM   35  O7  UNL     1       8.907  11.059  23.347  1.00  0.00    -0.773 OA
HETATM   36  H42 UNL     1       9.883  11.002  23.289  1.00  0.00     0.167 HD
ENDBRANCH  33  35
ENDBRANCH  31  33
ENDBRANCH  29  30
BRANCH  29  37
HETATM   37  O1  UNL     1       5.513  15.887  23.367  1.00  0.00    -0.392 OA
HETATM   38  H6  UNL     1       6.215  16.317  22.852  1.00  0.00     0.210 HD
ENDBRANCH  29  37
ENDBRANCH  28  29
ENDBRANCH  26  28
ENDBRANCH   1  26
BRANCH  25  39
HETATM   39  O5  UNL     1       2.007   9.036  17.510  1.00  0.00    -0.391 OA
HETATM   40  H41 UNL     1       2.930   9.241  17.245  1.00  0.00     0.210 HD
ENDBRANCH  25  39
TORSDOF 8
ENDMDL
MODEL 2
REMARK minimizedAffinity -7.6694417
REMARK CNNscore 0.635678172
REMARK CNNaffinity 6.17378616
REMARK  8 active torsions:
REMARK  status: ('A' for Active; 'I' for Inactive)
REMARK    1  A    between atoms: C2_2  and  C30_35 
REMARK    2  A    between atoms: C3_3  and  C4_4 
REMARK    3  A    between atoms: C4_4  and  O1_5 
REMARK    4  A    between atoms: C4_4  and  C5_6 
REMARK    5  A    between atoms: C5_6  and  C6_7 
REMARK    6  A    between atoms: C6_7  and  C8_9 
REMARK    7  A    between atoms: C29_33  and  O5_34 
REMARK    8  A    between atoms: C30_35  and  O7_37 
ROOT
HETATM    1  C8  UNL     1       5.595  12.658  22.732  1.00  0.00     0.006 C 
HETATM    2  C9  UNL     1       6.509  11.568  23.350  1.00  0.00     0.085 C 
HETATM    3  C10 UNL     1       7.897  11.982  22.903  1.00  0.00     0.140 C 
HETATM    4  O2  UNL     1       8.918  11.396  23.249  1.00  0.00    -0.297 OA
HETATM    5  C11 UNL     1       7.862  13.255  22.047  1.00  0.00     0.051 C 
HETATM    6  C12 UNL     1       8.108  14.388  23.087  1.00  0.00     0.029 C 
HETATM    7  C13 UNL     1       8.814  13.518  20.891  1.00  0.00    -0.024 C 
HETATM    8  C14 UNL     1       8.510  14.481  19.980  1.00  0.00     0.003 C 
HETATM    9  C15 UNL     1       7.118  15.102  20.025  1.00  0.00     0.157 C 
HETATM   10  O3  UNL     1       6.848  16.098  19.353  1.00  0.00    -0.293 OA
HETATM   11  C16 UNL     1       6.025  14.503  20.911  1.00  0.00     0.094 C 
HETATM   12  C17 UNL     1       6.401  13.133  21.479  1.00  0.00    -0.015 C 
HETATM   13  C18 UNL     1       6.292  12.087  20.329  1.00  0.00     0.018 C 
HETATM   14  C19 UNL     1       9.497  14.966  18.890  1.00  0.00    -0.008 C 
HETATM   15  C20 UNL     1       8.973  14.415  17.543  1.00  0.00     0.021 C 
HETATM   16  C21 UNL     1       9.548  16.528  18.811  1.00  0.00     0.022 C 
HETATM   17  C22 UNL     1      10.880  17.138  18.383  1.00  0.00     0.080 C 
HETATM   18  C23 UNL     1      11.687  16.195  17.529  1.00  0.00     0.135 C 
HETATM   19  O4  UNL     1      12.092  16.537  16.419  1.00  0.00    -0.297 OA
HETATM   20  C24 UNL     1      12.044  14.845  18.157  1.00  0.00     0.018 C 
HETATM   21  C25 UNL     1      12.232  13.790  17.050  1.00  0.00     0.023 C 
HETATM   22  C26 UNL     1      13.411  15.031  18.851  1.00  0.00     0.023 C 
HETATM   23  C27 UNL     1      10.956  14.477  19.227  1.00  0.00     0.016 C 
HETATM   24  C28 UNL     1      10.959  12.995  19.609  1.00  0.00     0.043 C 
HETATM   25  C29 UNL     1      10.101  12.732  20.845  1.00  0.00     0.149 C 
ENDROOT
BRANCH   1  26
HETATM   26  C6  UNL     1       4.091  12.237  22.669  1.00  0.00    -0.011 C 
HETATM   27  C7  UNL     1       3.091  13.190  23.331  1.00  0.00     0.010 C 
BRANCH  26  28
HETATM   28  C5  UNL     1       3.898  10.777  23.153  1.00  0.00     0.040 C 
BRANCH  28  29
HETATM   29  C4  UNL     1       2.835   9.917  22.442  1.00  0.00     0.142 C 
BRANCH  29  30
HETATM   30  C3  UNL     1       2.937   9.883  20.945  1.00  0.00     0.018 C 
HETATM   31  C2  UNL     1       2.138  10.529  20.070  1.00  0.00     0.010 C 
HETATM   32  C1  UNL     1       1.003  11.441  20.425  1.00  0.00     0.055 C 
BRANCH  31  33
HETATM   33  C30 UNL     1       2.436  10.323  18.630  1.00  0.00     0.171 C 
HETATM   34  O6  UNL     1       1.761   9.698  17.830  1.00  0.00    -0.646 OA
BRANCH  33  35
HETATM   35  O7  UNL     1       3.584  10.912  18.255  1.00  0.00    -0.773 OA
HETATM   36  H42 UNL     1       3.652  10.702  17.301  1.00  0.00     0.167 HD
ENDBRANCH  33  35
ENDBRANCH  31  33
ENDBRANCH  29  30
BRANCH  29  37
HETATM   37  O1  UNL     1       2.860   8.588  22.950  1.00  0.00    -0.392 OA
HETATM   38  H6  UNL     1       3.577   8.101  22.512  1.00  0.00     0.210 HD
ENDBRANCH  29  37
ENDBRANCH  28  29
ENDBRANCH  26  28
ENDBRANCH   1  26
BRANCH  25  39
HETATM   39  O5  UNL     1       9.788  11.344  20.803  1.00  0.00    -0.391 OA
HETATM   40  H41 UNL     1       9.821  11.025  21.731  1.00  0.00     0.210 HD
ENDBRANCH  25  39
TORSDOF 8
ENDMDL
MODEL 3
REMARK minimizedAffinity -8.00128269
REMARK CNNscore 0.597561121
REMARK CNNaffinity 6.70043325
REMARK  8 active torsions:
REMARK  status: ('A' for Active; 'I' for Inactive)
REMARK    1  A    between atoms: C2_2  and  C30_35 
REMARK    2  A    between atoms: C3_3  and  C4_4 
REMARK    3  A    between atoms: C4_4  and  O1_5 
REMARK    4  A    between atoms: C4_4  and  C5_6 
REMARK    5  A    between atoms: C5_6  and  C6_7 
REMARK    6  A    between atoms: C6_7  and  C8_9 
REMARK    7  A    between atoms: C29_33  and  O5_34 
REMARK    8  A    between atoms: C30_35  and  O7_37 
ROOT
HETATM    1  C8  UNL     1       1.025   8.260  13.363  1.00  0.00     0.006 C 
HETATM    2  C9  UNL     1       1.003   7.741  14.824  1.00  0.00     0.085 C 
HETATM    3  C10 UNL     1       2.356   8.161  15.364  1.00  0.00     0.140 C 
HETATM    4  O2  UNL     1       2.700   7.984  16.527  1.00  0.00    -0.297 OA
HETATM    5  C11 UNL     1       3.186   8.897  14.304  1.00  0.00     0.051 C 
HETATM    6  C12 UNL     1       2.865  10.396  14.581  1.00  0.00     0.029 C 
HETATM    7  C13 UNL     1       4.700   8.793  14.199  1.00  0.00    -0.024 C 
HETATM    8  C14 UNL     1       5.319   9.184  13.053  1.00  0.00     0.003 C 
HETATM    9  C15 UNL     1       4.454   9.496  11.836  1.00  0.00     0.157 C 
HETATM   10  O3  UNL     1       4.937  10.027  10.836  1.00  0.00    -0.293 OA
HETATM   11  C16 UNL     1       2.962   9.160  11.834  1.00  0.00     0.094 C 
HETATM   12  C17 UNL     1       2.547   8.274  13.010  1.00  0.00    -0.015 C 
HETATM   13  C18 UNL     1       3.057   6.828  12.729  1.00  0.00     0.018 C 
HETATM   14  C19 UNL     1       6.856   9.311  12.914  1.00  0.00    -0.008 C 
HETATM   15  C20 UNL     1       7.317   8.138  12.018  1.00  0.00     0.021 C 
HETATM   16  C21 UNL     1       7.264  10.659  12.234  1.00  0.00     0.022 C 
HETATM   17  C22 UNL     1       8.605  11.250  12.660  1.00  0.00     0.080 C 
HETATM   18  C23 UNL     1       9.563  10.192  13.144  1.00  0.00     0.135 C 
HETATM   19  O4  UNL     1      10.683  10.080  12.649  1.00  0.00    -0.297 OA
HETATM   20  C24 UNL     1       9.097   9.347  14.333  1.00  0.00     0.018 C 
HETATM   21  C25 UNL     1       9.780   7.967  14.288  1.00  0.00     0.023 C 
HETATM   22  C26 UNL     1       9.597  10.066  15.605  1.00  0.00     0.023 C 
HETATM   23  C27 UNL     1       7.529   9.295  14.339  1.00  0.00     0.016 C 
HETATM   24  C28 UNL     1       6.963   8.161  15.196  1.00  0.00     0.043 C 
HETATM   25  C29 UNL     1       5.459   8.317  15.412  1.00  0.00     0.149 C 
ENDROOT
BRANCH   1  26
HETATM   26  C6  UNL     1      -0.056   7.588  12.455  1.00  0.00    -0.011 C 
HETATM   27  C7  UNL     1      -0.453   8.355  11.190  1.00  0.00     0.010 C 
BRANCH  26  28
HETATM   28  C5  UNL     1      -1.297   7.164  13.282  1.00  0.00     0.040 C 
BRANCH  28  29
HETATM   29  C4  UNL     1      -1.527   5.658  13.515  1.00  0.00     0.142 C 
BRANCH  29  30
HETATM   30  C3  UNL     1      -1.701   4.838  12.270  1.00  0.00     0.018 C 
HETATM   31  C2  UNL     1      -2.856   4.312  11.809  1.00  0.00     0.010 C 
HETATM   32  C1  UNL     1      -4.207   4.471  12.438  1.00  0.00     0.055 C 
BRANCH  31  33
HETATM   33  C30 UNL     1      -2.765   3.522  10.554  1.00  0.00     0.171 C 
HETATM   34  O6  UNL     1      -1.783   2.937  10.133  1.00  0.00    -0.646 OA
BRANCH  33  35
HETATM   35  O7  UNL     1      -3.924   3.508   9.875  1.00  0.00    -0.773 OA
HETATM   36  H42 UNL     1      -3.724   2.960   9.088  1.00  0.00     0.167 HD
ENDBRANCH  33  35
ENDBRANCH  31  33
ENDBRANCH  29  30
BRANCH  29  37
HETATM   37  O1  UNL     1      -0.468   5.115  14.296  1.00  0.00    -0.392 OA
HETATM   38  H6  UNL     1       0.286   4.931  13.713  1.00  0.00     0.210 HD
ENDBRANCH  29  37
ENDBRANCH  28  29
ENDBRANCH  26  28
ENDBRANCH   1  26
BRANCH  25  39
HETATM   39  O5  UNL     1       4.989   7.021  15.767  1.00  0.00    -0.391 OA
HETATM   40  H41 UNL     1       4.302   7.155  16.455  1.00  0.00     0.210 HD
ENDBRANCH  25  39
TORSDOF 8
ENDMDL
MODEL 4
REMARK minimizedAffinity -9.21657658
REMARK CNNscore 0.510733247
REMARK CNNaffinity 6.56804228
REMARK  8 active torsions:
REMARK  status: ('A' for Active; 'I' for Inactive)
REMARK    1  A    between atoms: C2_2  and  C30_35 
REMARK    2  A    between atoms: C3_3  and  C4_4 
REMARK    3  A    between atoms: C4_4  and  O1_5 
REMARK    4  A    between atoms: C4_4  and  C5_6 
REMARK    5  A    between atoms: C5_6  and  C6_7 
REMARK    6  A    between atoms: C6_7  and  C8_9 
REMARK    7  A    between atoms: C29_33  and  O5_34 
REMARK    8  A    between atoms: C30_35  and  O7_37 
ROOT
HETATM    1  C8  UNL     1      -6.369   7.078  14.773  1.00  0.00     0.006 C 
HETATM    2  C9  UNL     1      -6.175   8.428  15.510  1.00  0.00     0.085 C 
HETATM    3  C10 UNL     1      -4.846   8.928  14.981  1.00  0.00     0.140 C 
HETATM    4  O2  UNL     1      -4.367  10.015  15.283  1.00  0.00    -0.297 OA
HETATM    5  C11 UNL     1      -4.231   7.946  13.974  1.00  0.00     0.051 C 
HETATM    6  C12 UNL     1      -4.723   8.494  12.602  1.00  0.00     0.029 C 
HETATM    7  C13 UNL     1      -2.735   7.712  13.833  1.00  0.00    -0.024 C 
HETATM    8  C14 UNL     1      -2.291   6.604  13.181  1.00  0.00     0.003 C 
HETATM    9  C15 UNL     1      -3.306   5.526  12.817  1.00  0.00     0.157 C 
HETATM   10  O3  UNL     1      -3.000   4.595  12.071  1.00  0.00    -0.293 OA
HETATM   11  C16 UNL     1      -4.731   5.579  13.368  1.00  0.00     0.094 C 
HETATM   12  C17 UNL     1      -4.904   6.618  14.477  1.00  0.00    -0.015 C 
HETATM   13  C18 UNL     1      -4.234   6.061  15.770  1.00  0.00     0.018 C 
HETATM   14  C19 UNL     1      -0.806   6.373  12.806  1.00  0.00    -0.008 C 
HETATM   15  C20 UNL     1      -0.281   5.261  13.743  1.00  0.00     0.021 C 
HETATM   16  C21 UNL     1      -0.653   5.899  11.323  1.00  0.00     0.022 C 
HETATM   17  C22 UNL     1       0.631   6.316  10.611  1.00  0.00     0.080 C 
HETATM   18  C23 UNL     1       1.766   6.543  11.576  1.00  0.00     0.135 C 
HETATM   19  O4  UNL     1       2.837   5.953  11.442  1.00  0.00    -0.297 OA
HETATM   20  C24 UNL     1       1.539   7.605  12.656  1.00  0.00     0.018 C 
HETATM   21  C25 UNL     1       2.394   7.277  13.895  1.00  0.00     0.023 C 
HETATM   22  C26 UNL     1       2.060   8.938  12.077  1.00  0.00     0.023 C 
HETATM   23  C27 UNL     1      -0.000   7.720  12.942  1.00  0.00     0.016 C 
HETATM   24  C28 UNL     1      -0.320   8.415  14.266  1.00  0.00     0.043 C 
HETATM   25  C29 UNL     1      -1.803   8.767  14.373  1.00  0.00     0.149 C 
ENDROOT
BRANCH   1  26
HETATM   26  C6  UNL     1      -7.432   6.154  15.450  1.00  0.00    -0.011 C 
HETATM   27  C7  UNL     1      -7.386   4.671  15.068  1.00  0.00     0.010 C 
BRANCH  26  28
HETATM   28  C5  UNL     1      -8.860   6.740  15.299  1.00  0.00     0.040 C 
BRANCH  28  29
HETATM   29  C4  UNL     1      -9.632   6.429  14.002  1.00  0.00     0.142 C 
BRANCH  29  30
HETATM   30  C3  UNL     1     -10.537   7.524  13.518  1.00  0.00     0.018 C 
HETATM   31  C2  UNL     1     -11.886   7.528  13.556  1.00  0.00     0.010 C 
HETATM   32  C1  UNL     1     -12.752   6.443  14.123  1.00  0.00     0.055 C 
BRANCH  31  33
HETATM   33  C30 UNL     1     -12.558   8.730  13.000  1.00  0.00     0.171 C 
HETATM   34  O6  UNL     1     -13.709   9.076  13.199  1.00  0.00    -0.646 OA
BRANCH  33  35
HETATM   35  O7  UNL     1     -11.746   9.448  12.206  1.00  0.00    -0.773 OA
HETATM   36  H42 UNL     1     -12.307  10.198  11.918  1.00  0.00     0.167 HD
ENDBRANCH  33  35
ENDBRANCH  31  33
ENDBRANCH  29  30
BRANCH  29  37
HETATM   37  O1  UNL     1      -8.725   6.072  12.965  1.00  0.00    -0.392 OA
HETATM   38  H6  UNL     1      -8.359   6.883  12.577  1.00  0.00     0.210 HD
ENDBRANCH  29  37
ENDBRANCH  28  29
ENDBRANCH  26  28
ENDBRANCH   1  26
BRANCH  25  39
HETATM   39  O5  UNL     1      -2.056   8.934  15.763  1.00  0.00    -0.391 OA
HETATM   40  H41 UNL     1      -2.683   9.685  15.842  1.00  0.00     0.210 HD
ENDBRANCH  25  39
TORSDOF 8
ENDMDL
MODEL 5
REMARK minimizedAffinity -9.00394821
REMARK CNNscore 0.479845792
REMARK CNNaffinity 6.64725637
REMARK  8 active torsions:
REMARK  status: ('A' for Active; 'I' for Inactive)
REMARK    1  A    between atoms: C2_2  and  C30_35 
REMARK    2  A    between atoms: C3_3  and  C4_4 
REMARK    3  A    between atoms: C4_4  and  O1_5 
REMARK    4  A    between atoms: C4_4  and  C5_6 
REMARK    5  A    between atoms: C5_6  and  C6_7 
REMARK    6  A    between atoms: C6_7  and  C8_9 
REMARK    7  A    between atoms: C29_33  and  O5_34 
REMARK    8  A    between atoms: C30_35  and  O7_37 
ROOT
HETATM    1  C8  UNL     1       0.474   5.948  12.954  1.00  0.00     0.006 C 
HETATM    2  C9  UNL     1       0.935   6.885  14.100  1.00  0.00     0.085 C 
HETATM    3  C10 UNL     1      -0.302   7.013  14.966  1.00  0.00     0.140 C 
HETATM    4  O2  UNL     1      -0.323   7.634  16.023  1.00  0.00    -0.297 OA
HETATM    5  C11 UNL     1      -1.478   6.207  14.397  1.00  0.00     0.051 C 
HETATM    6  C12 UNL     1      -1.372   4.847  15.148  1.00  0.00     0.029 C 
HETATM    7  C13 UNL     1      -2.930   6.647  14.506  1.00  0.00    -0.024 C 
HETATM    8  C14 UNL     1      -3.864   6.077  13.698  1.00  0.00     0.003 C 
HETATM    9  C15 UNL     1      -3.383   5.185  12.558  1.00  0.00     0.157 C 
HETATM   10  O3  UNL     1      -4.177   4.500  11.913  1.00  0.00    -0.293 OA
HETATM   11  C16 UNL     1      -1.899   5.119  12.193  1.00  0.00     0.094 C 
HETATM   12  C17 UNL     1      -1.066   6.202  12.880  1.00  0.00    -0.015 C 
HETATM   13  C18 UNL     1      -1.363   7.560  12.175  1.00  0.00     0.018 C 
HETATM   14  C19 UNL     1      -5.387   6.300  13.864  1.00  0.00    -0.008 C 
HETATM   15  C20 UNL     1      -5.833   7.200  12.687  1.00  0.00     0.021 C 
HETATM   16  C21 UNL     1      -6.179   4.953  13.799  1.00  0.00     0.022 C 
HETATM   17  C22 UNL     1      -7.463   4.885  14.621  1.00  0.00     0.080 C 
HETATM   18  C23 UNL     1      -8.074   6.246  14.832  1.00  0.00     0.135 C 
HETATM   19  O4  UNL     1      -9.241   6.470  14.517  1.00  0.00    -0.297 OA
HETATM   20  C24 UNL     1      -7.196   7.283  15.538  1.00  0.00     0.018 C 
HETATM   21  C25 UNL     1      -7.613   8.701  15.101  1.00  0.00     0.023 C 
HETATM   22  C26 UNL     1      -7.498   7.160  17.047  1.00  0.00     0.023 C 
HETATM   23  C27 UNL     1      -5.687   6.940  15.272  1.00  0.00     0.016 C 
HETATM   24  C28 UNL     1      -4.742   8.110  15.552  1.00  0.00     0.043 C 
HETATM   25  C29 UNL     1      -3.282   7.662  15.565  1.00  0.00     0.149 C 
ENDROOT
BRANCH   1  26
HETATM   26  C6  UNL     1       1.409   6.000  11.702  1.00  0.00    -0.011 C 
HETATM   27  C7  UNL     1       1.678   4.666  11.000  1.00  0.00     0.010 C 
BRANCH  26  28
HETATM   28  C5  UNL     1       2.724   6.758  12.018  1.00  0.00     0.040 C 
BRANCH  28  29
HETATM   29  C4  UNL     1       3.675   7.069  10.845  1.00  0.00     0.142 C 
BRANCH  29  30
HETATM   30  C3  UNL     1       3.290   6.456   9.530  1.00  0.00     0.018 C 
HETATM   31  C2  UNL     1       2.825   7.110   8.444  1.00  0.00     0.010 C 
HETATM   32  C1  UNL     1       2.631   8.591   8.326  1.00  0.00     0.055 C 
BRANCH  31  33
HETATM   33  C30 UNL     1       2.499   6.273   7.261  1.00  0.00     0.171 C 
HETATM   34  O6  UNL     1       1.853   6.614   6.286  1.00  0.00    -0.646 OA
BRANCH  33  35
HETATM   35  O7  UNL     1       3.001   5.031   7.360  1.00  0.00    -0.773 OA
HETATM   36  H42 UNL     1       2.719   4.600   6.526  1.00  0.00     0.167 HD
ENDBRANCH  33  35
ENDBRANCH  31  33
ENDBRANCH  29  30
BRANCH  29  37
HETATM   37  O1  UNL     1       3.816   8.476  10.688  1.00  0.00    -0.392 OA
HETATM   38  H6  UNL     1       3.055   8.812  10.188  1.00  0.00     0.210 HD
ENDBRANCH  29  37
ENDBRANCH  28  29
ENDBRANCH  26  28
ENDBRANCH   1  26
BRANCH  25  39
HETATM   39  O5  UNL     1      -2.518   8.841  15.341  1.00  0.00    -0.391 OA
HETATM   40  H41 UNL     1      -1.722   8.768  15.911  1.00  0.00     0.210 HD
ENDBRANCH  25  39
TORSDOF 8
ENDMDL
MODEL 6
REMARK minimizedAffinity -8.4609251
REMARK CNNscore 0.474103034
REMARK CNNaffinity 6.72218943
REMARK  8 active torsions:
REMARK  status: ('A' for Active; 'I' for Inactive)
REMARK    1  A    between atoms: C2_2  and  C30_35 
REMARK    2  A    between atoms: C3_3  and  C4_4 
REMARK    3  A    between atoms: C4_4  and  O1_5 
REMARK    4  A    between atoms: C4_4  and  C5_6 
REMARK    5  A    between atoms: C5_6  and  C6_7 
REMARK    6  A    between atoms: C6_7  and  C8_9 
REMARK    7  A    between atoms: C29_33  and  O5_34 
REMARK    8  A    between atoms: C30_35  and  O7_37 
ROOT
HETATM    1  C8  UNL     1      -6.904   6.938  15.091  1.00  0.00     0.006 C 
HETATM    2  C9  UNL     1      -7.031   5.494  14.540  1.00  0.00     0.085 C 
HETATM    3  C10 UNL     1      -5.602   5.127  14.191  1.00  0.00     0.140 C 
HETATM    4  O2  UNL     1      -5.274   4.020  13.778  1.00  0.00    -0.297 OA
HETATM    5  C11 UNL     1      -4.630   6.274  14.497  1.00  0.00     0.051 C 
HETATM    6  C12 UNL     1      -4.125   5.937  15.931  1.00  0.00     0.029 C 
HETATM    7  C13 UNL     1      -3.394   6.574  13.664  1.00  0.00    -0.024 C 
HETATM    8  C14 UNL     1      -2.785   7.784  13.782  1.00  0.00     0.003 C 
HETATM    9  C15 UNL     1      -3.498   8.875  14.574  1.00  0.00     0.157 C 
HETATM   10  O3  UNL     1      -2.920   9.922  14.871  1.00  0.00    -0.293 OA
HETATM   11  C16 UNL     1      -4.948   8.691  15.024  1.00  0.00     0.094 C 
HETATM   12  C17 UNL     1      -5.626   7.484  14.374  1.00  0.00    -0.015 C 
HETATM   13  C18 UNL     1      -5.944   7.848  12.892  1.00  0.00     0.018 C 
HETATM   14  C19 UNL     1      -1.416   8.117  13.140  1.00  0.00    -0.008 C 
HETATM   15  C20 UNL     1      -1.702   9.082  11.965  1.00  0.00     0.021 C 
HETATM   16  C21 UNL     1      -0.460   8.826  14.155  1.00  0.00     0.022 C 
HETATM   17  C22 UNL     1       1.033   8.567  13.968  1.00  0.00     0.080 C 
HETATM   18  C23 UNL     1       1.375   8.224  12.541  1.00  0.00     0.135 C 
HETATM   19  O4  UNL     1       2.228   8.861  11.925  1.00  0.00    -0.297 OA
HETATM   20  C24 UNL     1       0.674   6.997  11.950  1.00  0.00     0.018 C 
HETATM   21  C25 UNL     1       0.563   7.149  10.421  1.00  0.00     0.023 C 
HETATM   22  C26 UNL     1       1.596   5.790  12.226  1.00  0.00     0.023 C 
HETATM   23  C27 UNL     1      -0.698   6.791  12.683  1.00  0.00     0.016 C 
HETATM   24  C28 UNL     1      -1.664   5.885  11.918  1.00  0.00     0.043 C 
HETATM   25  C29 UNL     1      -2.855   5.475  12.782  1.00  0.00     0.149 C 
ENDROOT
BRANCH   1  26
HETATM   26  C6  UNL     1      -8.263   7.710  15.115  1.00  0.00    -0.011 C 
HETATM   27  C7  UNL     1      -8.750   8.184  16.488  1.00  0.00     0.010 C 
BRANCH  26  28
HETATM   28  C5  UNL     1      -9.364   6.926  14.355  1.00  0.00     0.040 C 
BRANCH  28  29
HETATM   29  C4  UNL     1     -10.834   7.226  14.709  1.00  0.00     0.142 C 
BRANCH  29  30
HETATM   30  C3  UNL     1     -11.451   8.372  13.961  1.00  0.00     0.018 C 
HETATM   31  C2  UNL     1     -12.557   8.326  13.188  1.00  0.00     0.010 C 
HETATM   32  C1  UNL     1     -13.412   7.118  12.949  1.00  0.00     0.055 C 
BRANCH  31  33
HETATM   33  C30 UNL     1     -12.961   9.599  12.539  1.00  0.00     0.171 C 
HETATM   34  O6  UNL     1     -13.869  10.335  12.884  1.00  0.00    -0.646 OA
BRANCH  33  35
HETATM   35  O7  UNL     1     -12.201   9.891  11.470  1.00  0.00    -0.773 OA
HETATM   36  H42 UNL     1     -12.569  10.741  11.150  1.00  0.00     0.167 HD
ENDBRANCH  33  35
ENDBRANCH  31  33
ENDBRANCH  29  30
BRANCH  29  37
HETATM   37  O1  UNL     1     -11.630   6.060  14.528  1.00  0.00    -0.392 OA
HETATM   38  H6  UNL     1     -11.851   5.977  13.586  1.00  0.00     0.210 HD
ENDBRANCH  29  37
ENDBRANCH  28  29
ENDBRANCH  26  28
ENDBRANCH   1  26
BRANCH  25  39
HETATM   39  O5  UNL     1      -3.872   5.081  11.868  1.00  0.00    -0.391 OA
HETATM   40  H41 UNL     1      -4.323   4.308  12.272  1.00  0.00     0.210 HD
ENDBRANCH  25  39
TORSDOF 8
ENDMDL
MODEL 7
REMARK minimizedAffinity -9.04202938
REMARK CNNscore 0.385145813
REMARK CNNaffinity 6.54679871
REMARK  8 active torsions:
REMARK  status: ('A' for Active; 'I' for Inactive)
REMARK    1  A    between atoms: C2_2  and  C30_35 
REMARK    2  A    between atoms: C3_3  and  C4_4 
REMARK    3  A    between atoms: C4_4  and  O1_5 
REMARK    4  A    between atoms: C4_4  and  C5_6 
REMARK    5  A    between atoms: C5_6  and  C6_7 
REMARK    6  A    between atoms: C6_7  and  C8_9 
REMARK    7  A    between atoms: C29_33  and  O5_34 
REMARK    8  A    between atoms: C30_35  and  O7_37 
ROOT
HETATM    1  C8  UNL     1      -2.189   8.181  14.217  1.00  0.00     0.006 C 
HETATM    2  C9  UNL     1      -1.931   8.080  15.742  1.00  0.00     0.085 C 
HETATM    3  C10 UNL     1      -0.466   8.445  15.873  1.00  0.00     0.140 C 
HETATM    4  O2  UNL     1       0.110   8.543  16.952  1.00  0.00    -0.297 OA
HETATM    5  C11 UNL     1       0.167   8.753  14.509  1.00  0.00     0.051 C 
HETATM    6  C12 UNL     1       0.027  10.299  14.394  1.00  0.00     0.029 C 
HETATM    7  C13 UNL     1       1.609   8.423  14.157  1.00  0.00    -0.024 C 
HETATM    8  C14 UNL     1       1.992   8.406  12.852  1.00  0.00     0.003 C 
HETATM    9  C15 UNL     1       0.908   8.493  11.782  1.00  0.00     0.157 C 
HETATM   10  O3  UNL     1       1.201   8.666  10.599  1.00  0.00    -0.293 OA
HETATM   11  C16 UNL     1      -0.570   8.370  12.157  1.00  0.00     0.094 C 
HETATM   12  C17 UNL     1      -0.783   7.896  13.595  1.00  0.00    -0.015 C 
HETATM   13  C18 UNL     1      -0.457   6.373  13.656  1.00  0.00     0.018 C 
HETATM   14  C19 UNL     1       3.466   8.285  12.397  1.00  0.00    -0.008 C 
HETATM   15  C20 UNL     1       3.632   6.864  11.809  1.00  0.00     0.021 C 
HETATM   16  C21 UNL     1       3.817   9.334  11.290  1.00  0.00     0.022 C 
HETATM   17  C22 UNL     1       5.259   9.833  11.267  1.00  0.00     0.080 C 
HETATM   18  C23 UNL     1       6.217   8.826  11.849  1.00  0.00     0.135 C 
HETATM   19  O4  UNL     1       7.191   8.436  11.207  1.00  0.00    -0.297 OA
HETATM   20  C24 UNL     1       5.959   8.401  13.297  1.00  0.00     0.018 C 
HETATM   21  C25 UNL     1       6.510   6.980  13.527  1.00  0.00     0.023 C 
HETATM   22  C26 UNL     1       6.777   9.361  14.189  1.00  0.00     0.023 C 
HETATM   23  C27 UNL     1       4.430   8.562  13.612  1.00  0.00     0.016 C 
HETATM   24  C28 UNL     1       3.981   7.786  14.851  1.00  0.00     0.043 C 
HETATM   25  C29 UNL     1       2.576   8.193  15.291  1.00  0.00     0.149 C 
ENDROOT
BRANCH   1  26
HETATM   26  C6  UNL     1      -3.488   7.440  13.762  1.00  0.00    -0.011 C 
HETATM   27  C7  UNL     1      -4.551   8.297  13.067  1.00  0.00     0.010 C 
BRANCH  26  28
HETATM   28  C5  UNL     1      -4.092   6.607  14.922  1.00  0.00     0.040 C 
BRANCH  28  29
HETATM   29  C4  UNL     1      -5.614   6.360  14.915  1.00  0.00     0.142 C 
BRANCH  29  30
HETATM   30  C3  UNL     1      -6.062   5.159  14.134  1.00  0.00     0.018 C 
HETATM   31  C2  UNL     1      -7.220   5.031  13.451  1.00  0.00     0.010 C 
HETATM   32  C1  UNL     1      -8.279   6.082  13.311  1.00  0.00     0.055 C 
BRANCH  31  33
HETATM   33  C30 UNL     1      -7.440   3.731  12.766  1.00  0.00     0.171 C 
HETATM   34  O6  UNL     1      -6.636   3.127  12.078  1.00  0.00    -0.646 OA
BRANCH  33  35
HETATM   35  O7  UNL     1      -8.676   3.247  12.975  1.00  0.00    -0.773 OA
HETATM   36  H42 UNL     1      -8.680   2.402  12.478  1.00  0.00     0.167 HD
ENDBRANCH  33  35
ENDBRANCH  31  33
ENDBRANCH  29  30
BRANCH  29  37
HETATM   37  O1  UNL     1      -6.102   6.267  16.248  1.00  0.00    -0.392 OA
HETATM   38  H6  UNL     1      -5.936   5.369  16.579  1.00  0.00     0.210 HD
ENDBRANCH  29  37
ENDBRANCH  28  29
ENDBRANCH  26  28
ENDBRANCH   1  26
BRANCH  25  39
HETATM   39  O5  UNL     1       2.099   7.115  16.088  1.00  0.00    -0.391 OA
HETATM   40  H41 UNL     1       1.590   7.519  16.824  1.00  0.00     0.210 HD
ENDBRANCH  25  39
TORSDOF 8
ENDMDL
MODEL 8
REMARK minimizedAffinity -7.55084705
REMARK CNNscore 0.354163259
REMARK CNNaffinity 5.78504801
REMARK  8 active torsions:
REMARK  status: ('A' for Active; 'I' for Inactive)
REMARK    1  A    between atoms: C2_2  and  C30_35 
REMARK    2  A    between atoms: C3_3  and  C4_4 
REMARK    3  A    between atoms: C4_4  and  O1_5 
REMARK    4  A    between atoms: C4_4  and  C5_6 
REMARK    5  A    between atoms: C5_6  and  C6_7 
REMARK    6  A    between atoms: C6_7  and  C8_9 
REMARK    7  A    between atoms: C29_33  and  O5_34 
REMARK    8  A    between atoms: C30_35  and  O7_37 
ROOT
HETATM    1  C8  UNL     1     -16.898   3.648  14.827  1.00  0.00     0.006 C 
HETATM    2  C9  UNL     1     -17.204   3.662  13.307  1.00  0.00     0.085 C 
HETATM    3  C10 UNL     1     -17.424   2.198  12.981  1.00  0.00     0.140 C 
HETATM    4  O2  UNL     1     -17.756   1.799  11.871  1.00  0.00    -0.297 OA
HETATM    5  C11 UNL     1     -17.262   1.311  14.223  1.00  0.00     0.051 C 
HETATM    6  C12 UNL     1     -18.719   1.176  14.755  1.00  0.00     0.029 C 
HETATM    7  C13 UNL     1     -16.687  -0.097  14.181  1.00  0.00    -0.024 C 
HETATM    8  C14 UNL     1     -16.260  -0.679  15.333  1.00  0.00     0.003 C 
HETATM    9  C15 UNL     1     -16.163   0.186  16.585  1.00  0.00     0.157 C 
HETATM   10  O3  UNL     1     -15.962  -0.320  17.690  1.00  0.00    -0.293 OA
HETATM   11  C16 UNL     1     -16.317   1.705  16.497  1.00  0.00     0.094 C 
HETATM   12  C17 UNL     1     -16.295   2.225  15.059  1.00  0.00    -0.015 C 
HETATM   13  C18 UNL     1     -14.824   2.165  14.546  1.00  0.00     0.018 C 
HETATM   14  C19 UNL     1     -15.851  -2.169  15.436  1.00  0.00    -0.008 C 
HETATM   15  C20 UNL     1     -14.313  -2.195  15.594  1.00  0.00     0.021 C 
HETATM   16  C21 UNL     1     -16.500  -2.861  16.680  1.00  0.00     0.022 C 
HETATM   17  C22 UNL     1     -16.807  -4.350  16.539  1.00  0.00     0.080 C 
HETATM   18  C23 UNL     1     -15.904  -5.023  15.538  1.00  0.00     0.135 C 
HETATM   19  O4  UNL     1     -15.242  -6.012  15.850  1.00  0.00    -0.297 OA
HETATM   20  C24 UNL     1     -15.936  -4.467  14.112  1.00  0.00     0.018 C 
HETATM   21  C25 UNL     1     -14.585  -4.735  13.420  1.00  0.00     0.023 C 
HETATM   22  C26 UNL     1     -17.010  -5.273  13.350  1.00  0.00     0.023 C 
HETATM   23  C27 UNL     1     -16.350  -2.954  14.164  1.00  0.00     0.016 C 
HETATM   24  C28 UNL     1     -16.009  -2.189  12.884  1.00  0.00     0.043 C 
HETATM   25  C29 UNL     1     -16.678  -0.816  12.855  1.00  0.00     0.149 C 
ENDROOT
BRANCH   1  26
HETATM   26  C6  UNL     1     -16.210   4.959  15.329  1.00  0.00    -0.011 C 
HETATM   27  C7  UNL     1     -16.987   5.781  16.363  1.00  0.00     0.010 C 
BRANCH  26  28
HETATM   28  C5  UNL     1     -15.737   5.833  14.139  1.00  0.00     0.040 C 
BRANCH  28  29
HETATM   29  C4  UNL     1     -14.269   6.302  14.129  1.00  0.00     0.142 C 
BRANCH  29  30
HETATM   30  C3  UNL     1     -14.026   7.628  13.469  1.00  0.00     0.018 C 
HETATM   31  C2  UNL     1     -12.844   8.093  13.013  1.00  0.00     0.010 C 
HETATM   32  C1  UNL     1     -11.538   7.359  13.047  1.00  0.00     0.055 C 
BRANCH  31  33
HETATM   33  C30 UNL     1     -12.860   9.450  12.408  1.00  0.00     0.171 C 
HETATM   34  O6  UNL     1     -13.645  10.348  12.658  1.00  0.00    -0.646 OA
BRANCH  33  35
HETATM   35  O7  UNL     1     -11.882   9.617  11.501  1.00  0.00    -0.773 OA
HETATM   36  H42 UNL     1     -12.008  10.538  11.193  1.00  0.00     0.167 HD
ENDBRANCH  33  35
ENDBRANCH  31  33
ENDBRANCH  29  30
BRANCH  29  37
HETATM   37  O1  UNL     1     -13.755   6.332  15.456  1.00  0.00    -0.392 OA
HETATM   38  H6  UNL     1     -14.037   7.158  15.881  1.00  0.00     0.210 HD
ENDBRANCH  29  37
ENDBRANCH  28  29
ENDBRANCH  26  28
ENDBRANCH   1  26
BRANCH  25  39
HETATM   39  O5  UNL     1     -15.929  -0.046  11.922  1.00  0.00    -0.391 OA
HETATM   40  H41 UNL     1     -16.579   0.504  11.431  1.00  0.00     0.210 HD
ENDBRANCH  25  39
TORSDOF 8
ENDMDL
MODEL 9
REMARK minimizedAffinity -7.28590727
REMARK CNNscore 0.333284497
REMARK CNNaffinity 5.76440573
REMARK  8 active torsions:
REMARK  status: ('A' for Active; 'I' for Inactive)
REMARK    1  A    between atoms: C2_2  and  C30_35 
REMARK    2  A    between atoms: C3_3  and  C4_4 
REMARK    3  A    between atoms: C4_4  and  O1_5 
REMARK    4  A    between atoms: C4_4  and  C5_6 
REMARK    5  A    between atoms: C5_6  and  C6_7 
REMARK    6  A    between atoms: C6_7  and  C8_9 
REMARK    7  A    between atoms: C29_33  and  O5_34 
REMARK    8  A    between atoms: C30_35  and  O7_37 
ROOT
HETATM    1  C8  UNL     1      -1.550  11.754  15.895  1.00  0.00     0.006 C 
HETATM    2  C9  UNL     1      -2.142  13.145  16.241  1.00  0.00     0.085 C 
HETATM    3  C10 UNL     1      -1.099  13.751  17.158  1.00  0.00     0.140 C 
HETATM    4  O2  UNL     1      -1.174  14.891  17.603  1.00  0.00    -0.297 OA
HETATM    5  C11 UNL     1       0.081  12.796  17.384  1.00  0.00     0.051 C 
HETATM    6  C12 UNL     1       1.108  13.239  16.301  1.00  0.00     0.029 C 
HETATM    7  C13 UNL     1       0.850  12.704  18.693  1.00  0.00    -0.024 C 
HETATM    8  C14 UNL     1       1.637  11.620  18.931  1.00  0.00     0.003 C 
HETATM    9  C15 UNL     1       1.540  10.435  17.978  1.00  0.00     0.157 C 
HETATM   10  O3  UNL     1       2.351   9.510  18.032  1.00  0.00    -0.293 OA
HETATM   11  C16 UNL     1       0.431  10.369  16.926  1.00  0.00     0.094 C 
HETATM   12  C17 UNL     1      -0.652  11.429  17.133  1.00  0.00    -0.015 C 
HETATM   13  C18 UNL     1      -1.530  10.990  18.345  1.00  0.00     0.018 C 
HETATM   14  C19 UNL     1       2.613  11.521  20.130  1.00  0.00    -0.008 C 
HETATM   15  C20 UNL     1       1.998  10.503  21.118  1.00  0.00     0.021 C 
HETATM   16  C21 UNL     1       4.022  11.008  19.686  1.00  0.00     0.022 C 
HETATM   17  C22 UNL     1       5.212  11.520  20.493  1.00  0.00     0.080 C 
HETATM   18  C23 UNL     1       4.823  11.894  21.900  1.00  0.00     0.135 C 
HETATM   19  O4  UNL     1       5.406  11.407  22.867  1.00  0.00    -0.297 OA
HETATM   20  C24 UNL     1       3.743  12.970  22.044  1.00  0.00     0.018 C 
HETATM   21  C25 UNL     1       2.991  12.776  23.375  1.00  0.00     0.023 C 
HETATM   22  C26 UNL     1       4.480  14.325  22.126  1.00  0.00     0.023 C 
HETATM   23  C27 UNL     1       2.825  12.945  20.771  1.00  0.00     0.016 C 
HETATM   24  C28 UNL     1       1.486  13.656  20.975  1.00  0.00     0.043 C 
HETATM   25  C29 UNL     1       0.753  13.865  19.651  1.00  0.00     0.149 C 
ENDROOT
BRANCH   1  26
HETATM   26  C6  UNL     1      -2.610  10.757  15.325  1.00  0.00    -0.011 C 
HETATM   27  C7  UNL     1      -3.992  10.784  15.986  1.00  0.00     0.010 C 
BRANCH  26  28
HETATM   28  C5  UNL     1      -2.040   9.318  15.247  1.00  0.00     0.040 C 
BRANCH  28  29
HETATM   29  C4  UNL     1      -2.940   8.160  15.722  1.00  0.00     0.142 C 
BRANCH  29  30
HETATM   30  C3  UNL     1      -3.061   7.010  14.765  1.00  0.00     0.018 C 
HETATM   31  C2  UNL     1      -3.902   6.926  13.712  1.00  0.00     0.010 C 
HETATM   32  C1  UNL     1      -4.865   7.985  13.270  1.00  0.00     0.055 C 
BRANCH  31  33
HETATM   33  C30 UNL     1      -3.841   5.671  12.920  1.00  0.00     0.171 C 
HETATM   34  O6  UNL     1      -4.767   4.914  12.686  1.00  0.00    -0.646 OA
BRANCH  33  35
HETATM   35  O7  UNL     1      -2.605   5.418  12.457  1.00  0.00    -0.773 OA
HETATM   36  H42 UNL     1      -2.711   4.580  11.960  1.00  0.00     0.167 HD
ENDBRANCH  33  35
ENDBRANCH  31  33
ENDBRANCH  29  30
BRANCH  29  37
HETATM   37  O1  UNL     1      -2.496   7.680  16.986  1.00  0.00    -0.392 OA
HETATM   38  H6  UNL     1      -1.752   7.072  16.844  1.00  0.00     0.210 HD
ENDBRANCH  29  37
ENDBRANCH  28  29
ENDBRANCH  26  28
ENDBRANCH   1  26
BRANCH  25  39
HETATM   39  O5  UNL     1      -0.613  14.060  19.998  1.00  0.00    -0.391 OA
HETATM   40  H41 UNL     1      -0.957  14.749  19.389  1.00  0.00     0.210 HD
ENDBRANCH  25  39
TORSDOF 8
ENDMDL
