MODEL 1
REMARK minimizedAffinity -7.00627232
REMARK CNNscore 0.623436391
REMARK CNNaffinity 6.77031708
REMARK  8 active torsions:
REMARK  status: ('A' for Active; 'I' for Inactive)
REMARK    1  A    between atoms: N1_2  and  C2_3 
REMARK    2  A    between atoms: C2_3  and  C3_4 
REMARK    3  A    between atoms: C5_6  and  O1_7 
REMARK    4  A    between atoms: C20_22  and  N2_23 
REMARK    5  A    between atoms: C20_22  and  C21_24 
REMARK    6  A    between atoms: C21_24  and  C22_25 
REMARK    7  A    between atoms: C22_25  and  O2_26 
REMARK    8  A    between atoms: C27_31  and  C29_33 
ROOT
HETATM    1  C3  UNL     1      -0.298  52.661 -11.239  1.00  0.00    -0.021 A 
HETATM    2  C4  UNL     1      -1.568  52.822 -11.824  1.00  0.00     0.045 A 
HETATM    3  C5  UNL     1      -2.445  53.777 -11.352  1.00  0.00     0.066 A 
HETATM    4  C6  UNL     1      -2.081  54.603 -10.302  1.00  0.00     0.045 A 
HETATM    5  C7  UNL     1      -0.812  54.494  -9.674  1.00  0.00    -0.037 A 
HETATM    6  C8  UNL     1       0.100  53.498 -10.149  1.00  0.00    -0.042 A 
HETATM    7  C9  UNL     1       1.473  53.282  -9.529  1.00  0.00     0.044 C 
HETATM    8  C10 UNL     1       2.688  54.058 -10.104  1.00  0.00    -0.010 C 
HETATM    9  C11 UNL     1       2.360  55.370 -10.834  1.00  0.00     0.005 C 
HETATM   10  C12 UNL     1       3.447  56.419 -10.691  1.00  0.00     0.001 C 
HETATM   11  C13 UNL     1       3.623  56.729  -9.213  1.00  0.00     0.007 C 
HETATM   12  C14 UNL     1       4.177  55.519  -8.436  1.00  0.00     0.022 C 
HETATM   13  C15 UNL     1       3.854  54.146  -9.078  1.00  0.00     0.012 C 
HETATM   14  C16 UNL     1       4.000  55.630  -6.869  1.00  0.00     0.082 C 
HETATM   15  C17 UNL     1       5.258  55.033  -6.176  1.00  0.00     0.040 C 
HETATM   16  C18 UNL     1       5.204  55.262  -4.664  1.00  0.00     0.013 C 
HETATM   17  C19 UNL     1       3.900  56.042  -4.320  1.00  0.00     0.060 C 
HETATM   18  C20 UNL     1       2.681  55.099  -4.701  1.00  0.00     0.180 C 
HETATM   19  C23 UNL     1       2.724  54.933  -6.264  1.00  0.00     0.139 C 
HETATM   20  C24 UNL     1       1.490  55.336  -6.966  1.00  0.00    -0.096 C 
HETATM   21  C25 UNL     1       0.527  55.474  -7.672  1.00  0.00    -0.101 C 
HETATM   22  C26 UNL     1      -0.591  55.575  -8.610  1.00  0.00     0.133 C 
HETATM   23  C27 UNL     1       3.933  57.378  -5.157  1.00  0.00     0.068 C 
HETATM   24  C28 UNL     1       2.675  58.240  -4.963  1.00  0.00     0.047 C 
HETATM   25  O3  UNL     1       3.985  57.048  -6.557  1.00  0.00    -0.367 OA
ENDROOT
BRANCH  18  26
HETATM   26  N2  UNL     1       2.965  53.775  -4.066  1.00  0.00     0.090 N 
HETATM   27  H27 UNL     1       3.031  53.905  -3.054  1.00  0.00     0.313 HD
HETATM   28  H28 UNL     1       2.134  53.178  -4.151  1.00  0.00     0.313 HD
ENDBRANCH  18  26
BRANCH  18  29
HETATM   29  C21 UNL     1       1.320  55.560  -4.074  1.00  0.00     0.069 C 
BRANCH  29  30
HETATM   30  C22 UNL     1       0.642  56.805  -4.671  1.00  0.00     0.166 C 
BRANCH  30  31
HETATM   31  O2  UNL     1      -0.776  56.692  -4.608  1.00  0.00    -0.401 OA
HETATM   32  H33 UNL     1      -1.140  57.544  -4.908  1.00  0.00     0.209 HD
ENDBRANCH  30  31
ENDBRANCH  29  30
ENDBRANCH  18  29
BRANCH  23  33
HETATM   33  C29 UNL     1       5.210  58.238  -4.868  1.00  0.00     0.020 C 
HETATM   34  C30 UNL     1       6.371  58.053  -5.854  1.00  0.00     0.007 C 
HETATM   35  C31 UNL     1       7.650  58.333  -5.060  1.00  0.00     0.000 C 
HETATM   36  C32 UNL     1       7.199  58.789  -3.678  1.00  0.00     0.000 C 
HETATM   37  C33 UNL     1       5.862  58.089  -3.483  1.00  0.00     0.007 C 
ENDBRANCH  23  33
BRANCH   3  38
HETATM   38  O1  UNL     1      -3.661  53.882 -11.959  1.00  0.00    -0.361 OA
HETATM   39  H8  UNL     1      -4.157  54.605 -11.540  1.00  0.00     0.217 HD
ENDBRANCH   3  38
BRANCH   1  40
HETATM   40  C2  UNL     1       0.593  51.597 -11.865  1.00  0.00     0.308 C 
BRANCH  40  41
HETATM   41  N1  UNL     1       1.405  52.164 -12.939  1.00  0.00     0.083 N 
HETATM   42  C1  UNL     1       1.106  51.536 -14.215  1.00  0.00     0.307 C 
HETATM   43  H4  UNL     1       1.223  53.166 -12.994  1.00  0.00     0.315 HD
ENDBRANCH  40  41
ENDBRANCH   1  40
TORSDOF 8
ENDMDL
MODEL 2
REMARK minimizedAffinity -7.19558907
REMARK CNNscore 0.457859159
REMARK CNNaffinity 6.81639099
REMARK  8 active torsions:
REMARK  status: ('A' for Active; 'I' for Inactive)
REMARK    1  A    between atoms: N1_2  and  C2_3 
REMARK    2  A    between atoms: C2_3  and  C3_4 
REMARK    3  A    between atoms: C5_6  and  O1_7 
REMARK    4  A    between atoms: C20_22  and  N2_23 
REMARK    5  A    between atoms: C20_22  and  C21_24 
REMARK    6  A    between atoms: C21_24  and  C22_25 
REMARK    7  A    between atoms: C22_25  and  O2_26 
REMARK    8  A    between atoms: C27_31  and  C29_33 
ROOT
HETATM    1  C3  UNL     1      -2.571  51.649 -11.150  1.00  0.00    -0.021 A 
HETATM    2  C4  UNL     1      -3.662  50.905 -10.663  1.00  0.00     0.045 A 
HETATM    3  C5  UNL     1      -3.622  50.336  -9.406  1.00  0.00     0.066 A 
HETATM    4  C6  UNL     1      -2.510  50.503  -8.598  1.00  0.00     0.045 A 
HETATM    5  C7  UNL     1      -1.380  51.246  -9.030  1.00  0.00    -0.037 A 
HETATM    6  C8  UNL     1      -1.407  51.830 -10.337  1.00  0.00    -0.042 A 
HETATM    7  C9  UNL     1      -0.239  52.623 -10.904  1.00  0.00     0.044 C 
HETATM    8  C10 UNL     1      -0.196  54.160 -10.685  1.00  0.00    -0.010 C 
HETATM    9  C11 UNL     1      -0.980  54.684  -9.472  1.00  0.00     0.005 C 
HETATM   10  C12 UNL     1      -0.349  55.913  -8.843  1.00  0.00     0.001 C 
HETATM   11  C13 UNL     1       1.053  55.552  -8.383  1.00  0.00     0.007 C 
HETATM   12  C14 UNL     1       1.981  55.232  -9.571  1.00  0.00     0.022 C 
HETATM   13  C15 UNL     1       1.244  54.724 -10.837  1.00  0.00     0.012 C 
HETATM   14  C16 UNL     1       3.302  54.466  -9.163  1.00  0.00     0.082 C 
HETATM   15  C17 UNL     1       4.479  54.992 -10.034  1.00  0.00     0.040 C 
HETATM   16  C18 UNL     1       5.809  54.396  -9.565  1.00  0.00     0.013 C 
HETATM   17  C19 UNL     1       5.540  53.463  -8.347  1.00  0.00     0.060 C 
HETATM   18  C20 UNL     1       4.639  52.265  -8.869  1.00  0.00     0.180 C 
HETATM   19  C23 UNL     1       3.260  52.897  -9.283  1.00  0.00     0.139 C 
HETATM   20  C24 UNL     1       2.084  52.323  -8.602  1.00  0.00    -0.096 C 
HETATM   21  C25 UNL     1       1.022  51.876  -8.259  1.00  0.00    -0.101 C 
HETATM   22  C26 UNL     1      -0.317  51.384  -7.934  1.00  0.00     0.133 C 
HETATM   23  C27 UNL     1       4.824  54.341  -7.250  1.00  0.00     0.068 C 
HETATM   24  C28 UNL     1       4.443  53.540  -5.994  1.00  0.00     0.047 C 
HETATM   25  O3  UNL     1       3.593  54.851  -7.793  1.00  0.00    -0.367 OA
ENDROOT
BRANCH  18  26
HETATM   26  N2  UNL     1       5.318  51.738 -10.095  1.00  0.00     0.090 N 
HETATM   27  H27 UNL     1       6.252  51.415  -9.837  1.00  0.00     0.313 HD
HETATM   28  H28 UNL     1       4.860  50.865 -10.381  1.00  0.00     0.313 HD
ENDBRANCH  18  26
BRANCH  18  29
HETATM   29  C21 UNL     1       4.594  51.047  -7.883  1.00  0.00     0.069 C 
BRANCH  29  30
HETATM   30  C22 UNL     1       4.795  49.641  -8.475  1.00  0.00     0.166 C 
BRANCH  30  31
HETATM   31  O2  UNL     1       6.179  49.313  -8.550  1.00  0.00    -0.401 OA
HETATM   32  H33 UNL     1       6.233  48.385  -8.837  1.00  0.00     0.209 HD
ENDBRANCH  30  31
ENDBRANCH  29  30
ENDBRANCH  18  29
BRANCH  23  33
HETATM   33  C29 UNL     1       5.667  55.595  -6.838  1.00  0.00     0.020 C 
HETATM   34  C30 UNL     1       6.524  55.432  -5.574  1.00  0.00     0.007 C 
HETATM   35  C31 UNL     1       6.639  56.829  -4.958  1.00  0.00     0.000 C 
HETATM   36  C32 UNL     1       5.958  57.780  -5.933  1.00  0.00     0.000 C 
HETATM   37  C33 UNL     1       4.908  56.913  -6.613  1.00  0.00     0.007 C 
ENDBRANCH  23  33
BRANCH   3  38
HETATM   38  O1  UNL     1      -4.709  49.626  -8.992  1.00  0.00    -0.361 OA
HETATM   39  H8  UNL     1      -4.549  49.309  -8.088  1.00  0.00     0.217 HD
ENDBRANCH   3  38
BRANCH   1  40
HETATM   40  C2  UNL     1      -2.743  52.252 -12.536  1.00  0.00     0.308 C 
BRANCH  40  41
HETATM   41  N1  UNL     1      -3.837  53.221 -12.550  1.00  0.00     0.083 N 
HETATM   42  C1  UNL     1      -3.931  53.929 -11.285  1.00  0.00     0.307 C 
HETATM   43  H4  UNL     1      -3.678  53.884 -13.308  1.00  0.00     0.315 HD
ENDBRANCH  40  41
ENDBRANCH   1  40
TORSDOF 8
ENDMDL
MODEL 3
REMARK minimizedAffinity -7.89254379
REMARK CNNscore 0.317527562
REMARK CNNaffinity 6.97111368
REMARK  8 active torsions:
REMARK  status: ('A' for Active; 'I' for Inactive)
REMARK    1  A    between atoms: N1_2  and  C2_3 
REMARK    2  A    between atoms: C2_3  and  C3_4 
REMARK    3  A    between atoms: C5_6  and  O1_7 
REMARK    4  A    between atoms: C20_22  and  N2_23 
REMARK    5  A    between atoms: C20_22  and  C21_24 
REMARK    6  A    between atoms: C21_24  and  C22_25 
REMARK    7  A    between atoms: C22_25  and  O2_26 
REMARK    8  A    between atoms: C27_31  and  C29_33 
ROOT
HETATM    1  C3  UNL     1      -6.876  45.246 -17.393  1.00  0.00    -0.021 A 
HETATM    2  C4  UNL     1      -7.175  43.874 -17.301  1.00  0.00     0.045 A 
HETATM    3  C5  UNL     1      -7.026  43.045 -18.395  1.00  0.00     0.066 A 
HETATM    4  C6  UNL     1      -6.564  43.551 -19.598  1.00  0.00     0.045 A 
HETATM    5  C7  UNL     1      -6.240  44.924 -19.753  1.00  0.00    -0.037 A 
HETATM    6  C8  UNL     1      -6.403  45.795 -18.628  1.00  0.00    -0.042 A 
HETATM    7  C9  UNL     1      -6.109  47.286 -18.696  1.00  0.00     0.044 C 
HETATM    8  C10 UNL     1      -4.685  47.789 -18.337  1.00  0.00    -0.010 C 
HETATM    9  C11 UNL     1      -3.553  46.762 -18.498  1.00  0.00     0.005 C 
HETATM   10  C12 UNL     1      -2.232  47.391 -18.901  1.00  0.00     0.001 C 
HETATM   11  C13 UNL     1      -2.424  48.100 -20.231  1.00  0.00     0.007 C 
HETATM   12  C14 UNL     1      -3.380  49.302 -20.108  1.00  0.00     0.022 C 
HETATM   13  C15 UNL     1      -4.398  49.190 -18.945  1.00  0.00     0.012 C 
HETATM   14  C16 UNL     1      -3.937  49.821 -21.493  1.00  0.00     0.082 C 
HETATM   15  C17 UNL     1      -4.027  51.373 -21.450  1.00  0.00     0.040 C 
HETATM   16  C18 UNL     1      -4.410  51.932 -22.823  1.00  0.00     0.013 C 
HETATM   17  C19 UNL     1      -4.566  50.748 -23.822  1.00  0.00     0.060 C 
HETATM   18  C20 UNL     1      -5.784  49.867 -23.311  1.00  0.00     0.180 C 
HETATM   19  C23 UNL     1      -5.339  49.256 -21.932  1.00  0.00     0.139 C 
HETATM   20  C24 UNL     1      -5.387  47.783 -21.861  1.00  0.00    -0.096 C 
HETATM   21  C25 UNL     1      -5.508  46.620 -21.584  1.00  0.00    -0.101 C 
HETATM   22  C26 UNL     1      -5.653  45.235 -21.135  1.00  0.00     0.133 C 
HETATM   23  C27 UNL     1      -3.196  49.966 -23.822  1.00  0.00     0.068 C 
HETATM   24  C28 UNL     1      -3.212  48.726 -24.729  1.00  0.00     0.047 C 
HETATM   25  O3  UNL     1      -2.934  49.489 -22.489  1.00  0.00    -0.367 OA
ENDROOT
BRANCH  18  26
HETATM   26  N2  UNL     1      -6.915  50.818 -23.076  1.00  0.00     0.090 N 
HETATM   27  H27 UNL     1      -7.138  51.284 -23.958  1.00  0.00     0.313 HD
HETATM   28  H28 UNL     1      -7.772  50.281 -22.895  1.00  0.00     0.313 HD
ENDBRANCH  18  26
BRANCH  18  29
HETATM   29  C21 UNL     1      -6.322  48.865 -24.391  1.00  0.00     0.069 C 
BRANCH  29  30
HETATM   30  C22 UNL     1      -7.836  48.589 -24.418  1.00  0.00     0.166 C 
BRANCH  30  31
HETATM   31  O2  UNL     1      -8.529  49.625 -25.108  1.00  0.00    -0.401 OA
HETATM   32  H33 UNL     1      -9.459  49.344 -25.174  1.00  0.00     0.209 HD
ENDBRANCH  30  31
ENDBRANCH  29  30
ENDBRANCH  18  29
BRANCH  23  33
HETATM   33  C29 UNL     1      -1.982  50.880 -24.201  1.00  0.00     0.020 C 
HETATM   34  C30 UNL     1      -0.947  51.102 -23.089  1.00  0.00     0.007 C 
HETATM   35  C31 UNL     1      -0.334  52.481 -23.350  1.00  0.00     0.000 C 
HETATM   36  C32 UNL     1      -0.933  52.969 -24.662  1.00  0.00     0.000 C 
HETATM   37  C33 UNL     1      -2.297  52.296 -24.712  1.00  0.00     0.007 C 
ENDBRANCH  23  33
BRANCH   3  38
HETATM   38  O1  UNL     1      -7.334  41.726 -18.243  1.00  0.00    -0.361 OA
HETATM   39  H8  UNL     1      -7.159  41.266 -19.080  1.00  0.00     0.217 HD
ENDBRANCH   3  38
BRANCH   1  40
HETATM   40  C2  UNL     1      -7.051  46.052 -16.115  1.00  0.00     0.308 C 
BRANCH  40  41
HETATM   41  N1  UNL     1      -8.003  45.402 -15.215  1.00  0.00     0.083 N 
HETATM   42  C1  UNL     1      -8.988  46.347 -14.719  1.00  0.00     0.307 C 
HETATM   43  H4  UNL     1      -8.468  44.648 -15.720  1.00  0.00     0.315 HD
ENDBRANCH  40  41
ENDBRANCH   1  40
TORSDOF 8
ENDMDL
MODEL 4
REMARK minimizedAffinity -8.25248909
REMARK CNNscore 0.308927953
REMARK CNNaffinity 6.14968491
REMARK  8 active torsions:
REMARK  status: ('A' for Active; 'I' for Inactive)
REMARK    1  A    between atoms: N1_2  and  C2_3 
REMARK    2  A    between atoms: C2_3  and  C3_4 
REMARK    3  A    between atoms: C5_6  and  O1_7 
REMARK    4  A    between atoms: C20_22  and  N2_23 
REMARK    5  A    between atoms: C20_22  and  C21_24 
REMARK    6  A    between atoms: C21_24  and  C22_25 
REMARK    7  A    between atoms: C22_25  and  O2_26 
REMARK    8  A    between atoms: C27_31  and  C29_33 
ROOT
HETATM    1  C3  UNL     1      -6.689  47.664 -34.286  1.00  0.00    -0.021 A 
HETATM    2  C4  UNL     1      -5.409  48.078 -34.702  1.00  0.00     0.045 A 
HETATM    3  C5  UNL     1      -4.378  48.201 -33.793  1.00  0.00     0.066 A 
HETATM    4  C6  UNL     1      -4.585  47.904 -32.456  1.00  0.00     0.045 A 
HETATM    5  C7  UNL     1      -5.850  47.477 -31.976  1.00  0.00    -0.037 A 
HETATM    6  C8  UNL     1      -6.929  47.357 -32.909  1.00  0.00    -0.042 A 
HETATM    7  C9  UNL     1      -8.330  46.932 -32.492  1.00  0.00     0.044 C 
HETATM    8  C10 UNL     1      -8.699  45.424 -32.525  1.00  0.00    -0.010 C 
HETATM    9  C11 UNL     1      -7.521  44.444 -32.413  1.00  0.00     0.005 C 
HETATM   10  C12 UNL     1      -7.884  43.156 -31.698  1.00  0.00     0.001 C 
HETATM   11  C13 UNL     1      -8.350  43.502 -30.294  1.00  0.00     0.007 C 
HETATM   12  C14 UNL     1      -9.669  44.298 -30.307  1.00  0.00     0.022 C 
HETATM   13  C15 UNL     1      -9.912  45.108 -31.605  1.00  0.00     0.012 C 
HETATM   14  C16 UNL     1      -9.988  45.030 -28.942  1.00  0.00     0.082 C 
HETATM   15  C17 UNL     1     -11.519  44.956 -28.678  1.00  0.00     0.040 C 
HETATM   16  C18 UNL     1     -11.857  45.511 -27.291  1.00  0.00     0.013 C 
HETATM   17  C19 UNL     1     -10.537  45.954 -26.593  1.00  0.00     0.060 C 
HETATM   18  C20 UNL     1      -9.936  47.148 -27.448  1.00  0.00     0.180 C 
HETATM   19  C23 UNL     1      -9.541  46.535 -28.842  1.00  0.00     0.139 C 
HETATM   20  C24 UNL     1      -8.126  46.717 -29.221  1.00  0.00    -0.096 C 
HETATM   21  C25 UNL     1      -7.061  46.904 -29.747  1.00  0.00    -0.101 C 
HETATM   22  C26 UNL     1      -5.816  47.107 -30.488  1.00  0.00     0.133 C 
HETATM   23  C27 UNL     1      -9.596  44.689 -26.551  1.00  0.00     0.068 C 
HETATM   24  C28 UNL     1      -8.221  44.983 -25.931  1.00  0.00     0.047 C 
HETATM   25  O3  UNL     1      -9.347  44.251 -27.899  1.00  0.00    -0.367 OA
ENDROOT
BRANCH  18  26
HETATM   26  N2  UNL     1     -11.054  48.122 -27.647  1.00  0.00     0.090 N 
HETATM   27  H27 UNL     1     -11.373  48.445 -26.731  1.00  0.00     0.313 HD
HETATM   28  H28 UNL     1     -10.678  48.983 -28.060  1.00  0.00     0.313 HD
ENDBRANCH  18  26
BRANCH  18  29
HETATM   29  C21 UNL     1      -8.829  47.960 -26.690  1.00  0.00     0.069 C 
BRANCH  29  30
HETATM   30  C22 UNL     1      -9.279  48.880 -25.542  1.00  0.00     0.166 C 
BRANCH  30  31
HETATM   31  O2  UNL     1      -9.668  50.158 -26.037  1.00  0.00    -0.401 OA
HETATM   32  H33 UNL     1     -10.029  50.653 -25.281  1.00  0.00     0.209 HD
ENDBRANCH  30  31
ENDBRANCH  29  30
ENDBRANCH  18  29
BRANCH  23  33
HETATM   33  C29 UNL     1     -10.256  43.472 -25.816  1.00  0.00     0.020 C 
HETATM   34  C30 UNL     1      -9.681  43.144 -24.431  1.00  0.00     0.007 C 
HETATM   35  C31 UNL     1      -9.877  41.638 -24.237  1.00  0.00     0.000 C 
HETATM   36  C32 UNL     1     -10.662  41.153 -25.449  1.00  0.00     0.000 C 
HETATM   37  C33 UNL     1     -10.262  42.122 -26.552  1.00  0.00     0.007 C 
ENDBRANCH  23  33
BRANCH   3  38
HETATM   38  O1  UNL     1      -3.163  48.608 -34.258  1.00  0.00    -0.361 OA
HETATM   39  H8  UNL     1      -2.536  48.625 -33.517  1.00  0.00     0.217 HD
ENDBRANCH   3  38
BRANCH   1  40
HETATM   40  C2  UNL     1      -7.736  47.536 -35.383  1.00  0.00     0.308 C 
BRANCH  40  41
HETATM   41  N1  UNL     1      -7.245  48.098 -36.639  1.00  0.00     0.083 N 
HETATM   42  C1  UNL     1      -8.127  47.768 -37.745  1.00  0.00     0.307 C 
HETATM   43  H4  UNL     1      -7.176  49.111 -36.540  1.00  0.00     0.315 HD
ENDBRANCH  40  41
ENDBRANCH   1  40
TORSDOF 8
ENDMDL
MODEL 5
REMARK minimizedAffinity -8.17272091
REMARK CNNscore 0.294769555
REMARK CNNaffinity 6.11143684
REMARK  8 active torsions:
REMARK  status: ('A' for Active; 'I' for Inactive)
REMARK    1  A    between atoms: N1_2  and  C2_3 
REMARK    2  A    between atoms: C2_3  and  C3_4 
REMARK    3  A    between atoms: C5_6  and  O1_7 
REMARK    4  A    between atoms: C20_22  and  N2_23 
REMARK    5  A    between atoms: C20_22  and  C21_24 
REMARK    6  A    between atoms: C21_24  and  C22_25 
REMARK    7  A    between atoms: C22_25  and  O2_26 
REMARK    8  A    between atoms: C27_31  and  C29_33 
ROOT
HETATM    1  C3  UNL     1      -7.030  47.399 -33.324  1.00  0.00    -0.021 A 
HETATM    2  C4  UNL     1      -5.631  47.402 -33.480  1.00  0.00     0.045 A 
HETATM    3  C5  UNL     1      -4.803  47.105 -32.417  1.00  0.00     0.066 A 
HETATM    4  C6  UNL     1      -5.339  46.784 -31.181  1.00  0.00     0.045 A 
HETATM    5  C7  UNL     1      -6.741  46.758 -30.962  1.00  0.00    -0.037 A 
HETATM    6  C8  UNL     1      -7.608  47.076 -32.056  1.00  0.00    -0.042 A 
HETATM    7  C9  UNL     1      -9.124  47.102 -31.919  1.00  0.00     0.044 C 
HETATM    8  C10 UNL     1      -9.928  45.807 -32.216  1.00  0.00    -0.010 C 
HETATM    9  C11 UNL     1      -9.153  44.489 -32.063  1.00  0.00     0.005 C 
HETATM   10  C12 UNL     1     -10.024  43.337 -31.596  1.00  0.00     0.001 C 
HETATM   11  C13 UNL     1     -10.616  43.701 -30.244  1.00  0.00     0.007 C 
HETATM   12  C14 UNL     1     -11.598  44.884 -30.348  1.00  0.00     0.022 C 
HETATM   13  C15 UNL     1     -11.329  45.832 -31.544  1.00  0.00     0.012 C 
HETATM   14  C16 UNL     1     -11.927  45.566 -28.960  1.00  0.00     0.082 C 
HETATM   15  C17 UNL     1     -13.426  45.978 -28.944  1.00  0.00     0.040 C 
HETATM   16  C18 UNL     1     -13.831  46.498 -27.562  1.00  0.00     0.013 C 
HETATM   17  C19 UNL     1     -12.596  46.424 -26.616  1.00  0.00     0.060 C 
HETATM   18  C20 UNL     1     -11.505  47.420 -27.197  1.00  0.00     0.180 C 
HETATM   19  C23 UNL     1     -11.063  46.828 -28.586  1.00  0.00     0.139 C 
HETATM   20  C24 UNL     1      -9.616  46.566 -28.717  1.00  0.00    -0.096 C 
HETATM   21  C25 UNL     1      -8.467  46.435 -29.044  1.00  0.00    -0.101 C 
HETATM   22  C26 UNL     1      -7.104  46.277 -29.552  1.00  0.00     0.133 C 
HETATM   23  C27 UNL     1     -12.117  44.921 -26.607  1.00  0.00     0.068 C 
HETATM   24  C28 UNL     1     -10.861  44.695 -25.750  1.00  0.00     0.047 C 
HETATM   25  O3  UNL     1     -11.765  44.537 -27.949  1.00  0.00    -0.367 OA
ENDROOT
BRANCH  18  26
HETATM   26  N2  UNL     1     -12.210  48.720 -27.428  1.00  0.00     0.090 N 
HETATM   27  H27 UNL     1     -12.579  49.053 -26.535  1.00  0.00     0.313 HD
HETATM   28  H28 UNL     1     -11.515  49.441 -27.656  1.00  0.00     0.313 HD
ENDBRANCH  18  26
BRANCH  18  29
HETATM   29  C21 UNL     1     -10.365  47.759 -26.175  1.00  0.00     0.069 C 
BRANCH  29  30
HETATM   30  C22 UNL     1      -9.510  49.008 -26.447  1.00  0.00     0.166 C 
BRANCH  30  31
HETATM   31  O2  UNL     1     -10.121  50.172 -25.897  1.00  0.00    -0.401 OA
HETATM   32  H33 UNL     1      -9.490  50.904 -26.017  1.00  0.00     0.209 HD
ENDBRANCH  30  31
ENDBRANCH  29  30
ENDBRANCH  18  29
BRANCH  23  33
HETATM   33  C29 UNL     1     -13.246  43.933 -26.156  1.00  0.00     0.020 C 
HETATM   34  C30 UNL     1     -13.745  42.960 -27.234  1.00  0.00     0.007 C 
HETATM   35  C31 UNL     1     -15.205  42.658 -26.888  1.00  0.00     0.000 C 
HETATM   36  C32 UNL     1     -15.481  43.358 -25.563  1.00  0.00     0.000 C 
HETATM   37  C33 UNL     1     -14.531  44.547 -25.576  1.00  0.00     0.007 C 
ENDBRANCH  23  33
BRANCH   3  38
HETATM   38  O1  UNL     1      -3.456  47.128 -32.630  1.00  0.00    -0.361 OA
HETATM   39  H8  UNL     1      -3.006  46.877 -31.807  1.00  0.00     0.217 HD
ENDBRANCH   3  38
BRANCH   1  40
HETATM   40  C2  UNL     1      -7.839  47.711 -34.574  1.00  0.00     0.308 C 
BRANCH  40  41
HETATM   41  N1  UNL     1      -6.976  47.768 -35.753  1.00  0.00     0.083 N 
HETATM   42  C1  UNL     1      -7.756  47.792 -36.978  1.00  0.00     0.307 C 
HETATM   43  H4  UNL     1      -6.395  48.604 -35.694  1.00  0.00     0.315 HD
ENDBRANCH  40  41
ENDBRANCH   1  40
TORSDOF 8
ENDMDL
MODEL 6
REMARK minimizedAffinity -7.52246904
REMARK CNNscore 0.264787227
REMARK CNNaffinity 6.47049904
REMARK  8 active torsions:
REMARK  status: ('A' for Active; 'I' for Inactive)
REMARK    1  A    between atoms: N1_2  and  C2_3 
REMARK    2  A    between atoms: C2_3  and  C3_4 
REMARK    3  A    between atoms: C5_6  and  O1_7 
REMARK    4  A    between atoms: C20_22  and  N2_23 
REMARK    5  A    between atoms: C20_22  and  C21_24 
REMARK    6  A    between atoms: C21_24  and  C22_25 
REMARK    7  A    between atoms: C22_25  and  O2_26 
REMARK    8  A    between atoms: C27_31  and  C29_33 
ROOT
HETATM    1  C3  UNL     1      -9.769  46.322 -20.742  1.00  0.00    -0.021 A 
HETATM    2  C4  UNL     1     -11.058  46.619 -20.263  1.00  0.00     0.045 A 
HETATM    3  C5  UNL     1     -11.258  47.648 -19.365  1.00  0.00     0.066 A 
HETATM    4  C6  UNL     1     -10.189  48.416 -18.933  1.00  0.00     0.045 A 
HETATM    5  C7  UNL     1      -8.866  48.170 -19.383  1.00  0.00    -0.037 A 
HETATM    6  C8  UNL     1      -8.647  47.097 -20.305  1.00  0.00    -0.042 A 
HETATM    7  C9  UNL     1      -7.265  46.736 -20.829  1.00  0.00     0.044 C 
HETATM    8  C10 UNL     1      -6.760  47.397 -22.139  1.00  0.00    -0.010 C 
HETATM    9  C11 UNL     1      -7.401  48.747 -22.497  1.00  0.00     0.005 C 
HETATM   10  C12 UNL     1      -6.453  49.681 -23.227  1.00  0.00     0.001 C 
HETATM   11  C13 UNL     1      -5.255  49.946 -22.330  1.00  0.00     0.007 C 
HETATM   12  C14 UNL     1      -4.415  48.674 -22.105  1.00  0.00     0.022 C 
HETATM   13  C15 UNL     1      -5.210  47.351 -22.248  1.00  0.00     0.012 C 
HETATM   14  C16 UNL     1      -3.416  48.775 -20.884  1.00  0.00     0.082 C 
HETATM   15  C17 UNL     1      -2.094  48.044 -21.253  1.00  0.00     0.040 C 
HETATM   16  C18 UNL     1      -1.038  48.251 -20.164  1.00  0.00     0.013 C 
HETATM   17  C19 UNL     1      -1.641  49.150 -19.044  1.00  0.00     0.060 C 
HETATM   18  C20 UNL     1      -2.842  48.340 -18.394  1.00  0.00     0.180 C 
HETATM   19  C23 UNL     1      -3.936  48.197 -19.515  1.00  0.00     0.139 C 
HETATM   20  C24 UNL     1      -5.264  48.732 -19.157  1.00  0.00    -0.096 C 
HETATM   21  C25 UNL     1      -6.427  48.978 -18.980  1.00  0.00    -0.101 C 
HETATM   22  C26 UNL     1      -7.867  49.206 -18.854  1.00  0.00     0.133 C 
HETATM   23  C27 UNL     1      -2.104  50.491 -19.734  1.00  0.00     0.068 C 
HETATM   24  C28 UNL     1      -2.774  51.469 -18.757  1.00  0.00     0.047 C 
HETATM   25  O3  UNL     1      -3.089  50.181 -20.737  1.00  0.00    -0.367 OA
ENDROOT
BRANCH  18  26
HETATM   26  N2  UNL     1      -2.300  46.982 -18.071  1.00  0.00     0.090 N 
HETATM   27  H27 UNL     1      -1.525  47.088 -17.414  1.00  0.00     0.313 HD
HETATM   28  H28 UNL     1      -2.991  46.472 -17.507  1.00  0.00     0.313 HD
ENDBRANCH  18  26
BRANCH  18  29
HETATM   29  C21 UNL     1      -3.309  48.921 -17.015  1.00  0.00     0.069 C 
BRANCH  29  30
HETATM   30  C22 UNL     1      -2.229  49.214 -15.959  1.00  0.00     0.166 C 
BRANCH  30  31
HETATM   31  O2  UNL     1      -2.798  49.831 -14.808  1.00  0.00    -0.401 OA
HETATM   32  H33 UNL     1      -2.087  49.899 -14.146  1.00  0.00     0.209 HD
ENDBRANCH  30  31
ENDBRANCH  29  30
ENDBRANCH  18  29
BRANCH  23  33
HETATM   33  C29 UNL     1      -0.935  51.215 -20.485  1.00  0.00     0.020 C 
HETATM   34  C30 UNL     1      -0.361  52.452 -19.781  1.00  0.00     0.007 C 
HETATM   35  C31 UNL     1       0.156  53.370 -20.892  1.00  0.00     0.000 C 
HETATM   36  C32 UNL     1      -0.016  52.598 -22.194  1.00  0.00     0.000 C 
HETATM   37  C33 UNL     1      -1.207  51.690 -21.922  1.00  0.00     0.007 C 
ENDBRANCH  23  33
BRANCH   3  38
HETATM   38  O1  UNL     1     -12.531  47.884 -18.937  1.00  0.00    -0.361 OA
HETATM   39  H8  UNL     1     -12.520  48.644 -18.333  1.00  0.00     0.217 HD
ENDBRANCH   3  38
BRANCH   1  40
HETATM   40  C2  UNL     1      -9.678  45.187 -21.750  1.00  0.00     0.308 C 
BRANCH  40  41
HETATM   41  N1  UNL     1     -10.024  45.653 -23.092  1.00  0.00     0.083 N 
HETATM   42  C1  UNL     1     -10.960  44.751 -23.739  1.00  0.00     0.307 C 
HETATM   43  H4  UNL     1     -10.432  46.585 -23.020  1.00  0.00     0.315 HD
ENDBRANCH  40  41
ENDBRANCH   1  40
TORSDOF 8
ENDMDL
MODEL 7
REMARK minimizedAffinity -8.11048794
REMARK CNNscore 0.235932752
REMARK CNNaffinity 6.78476381
REMARK  8 active torsions:
REMARK  status: ('A' for Active; 'I' for Inactive)
REMARK    1  A    between atoms: N1_2  and  C2_3 
REMARK    2  A    between atoms: C2_3  and  C3_4 
REMARK    3  A    between atoms: C5_6  and  O1_7 
REMARK    4  A    between atoms: C20_22  and  N2_23 
REMARK    5  A    between atoms: C20_22  and  C21_24 
REMARK    6  A    between atoms: C21_24  and  C22_25 
REMARK    7  A    between atoms: C22_25  and  O2_26 
REMARK    8  A    between atoms: C27_31  and  C29_33 
ROOT
HETATM    1  C3  UNL     1       0.122  52.203 -20.353  1.00  0.00    -0.021 A 
HETATM    2  C4  UNL     1       0.758  52.687 -19.194  1.00  0.00     0.045 A 
HETATM    3  C5  UNL     1       0.227  52.441 -17.944  1.00  0.00     0.066 A 
HETATM    4  C6  UNL     1      -0.934  51.698 -17.812  1.00  0.00     0.045 A 
HETATM    5  C7  UNL     1      -1.618  51.178 -18.941  1.00  0.00    -0.037 A 
HETATM    6  C8  UNL     1      -1.082  51.438 -20.243  1.00  0.00    -0.042 A 
HETATM    7  C9  UNL     1      -1.752  50.948 -21.518  1.00  0.00     0.044 C 
HETATM    8  C10 UNL     1      -1.347  49.565 -22.097  1.00  0.00    -0.010 C 
HETATM    9  C11 UNL     1      -0.761  48.564 -21.089  1.00  0.00     0.005 C 
HETATM   10  C12 UNL     1      -1.094  47.121 -21.421  1.00  0.00     0.001 C 
HETATM   11  C13 UNL     1      -2.605  46.965 -21.423  1.00  0.00     0.007 C 
HETATM   12  C14 UNL     1      -3.263  47.765 -22.564  1.00  0.00     0.022 C 
HETATM   13  C15 UNL     1      -2.443  48.991 -23.038  1.00  0.00     0.012 C 
HETATM   14  C16 UNL     1      -4.819  47.978 -22.381  1.00  0.00     0.082 C 
HETATM   15  C17 UNL     1      -5.508  47.875 -23.772  1.00  0.00     0.040 C 
HETATM   16  C18 UNL     1      -7.031  47.916 -23.626  1.00  0.00     0.013 C 
HETATM   17  C19 UNL     1      -7.388  48.031 -22.115  1.00  0.00     0.060 C 
HETATM   18  C20 UNL     1      -6.825  49.426 -21.609  1.00  0.00     0.180 C 
HETATM   19  C23 UNL     1      -5.259  49.332 -21.710  1.00  0.00     0.139 C 
HETATM   20  C24 UNL     1      -4.539  49.582 -20.446  1.00  0.00    -0.096 C 
HETATM   21  C25 UNL     1      -3.799  49.900 -19.554  1.00  0.00    -0.101 C 
HETATM   22  C26 UNL     1      -2.816  50.304 -18.549  1.00  0.00     0.133 C 
HETATM   23  C27 UNL     1      -6.721  46.797 -21.393  1.00  0.00     0.068 C 
HETATM   24  C28 UNL     1      -6.942  46.799 -19.872  1.00  0.00     0.047 C 
HETATM   25  O3  UNL     1      -5.297  46.856 -21.595  1.00  0.00    -0.367 OA
ENDROOT
BRANCH  18  26
HETATM   26  N2  UNL     1      -7.313  50.450 -22.585  1.00  0.00     0.090 N 
HETATM   27  H27 UNL     1      -8.335  50.440 -22.586  1.00  0.00     0.313 HD
HETATM   28  H28 UNL     1      -7.108  51.387 -22.218  1.00  0.00     0.313 HD
ENDBRANCH  18  26
BRANCH  18  29
HETATM   29  C21 UNL     1      -7.422  49.874 -20.230  1.00  0.00     0.069 C 
BRANCH  29  30
HETATM   30  C22 UNL     1      -8.080  48.795 -19.352  1.00  0.00     0.166 C 
BRANCH  30  31
HETATM   31  O2  UNL     1      -9.006  49.377 -18.439  1.00  0.00    -0.401 OA
HETATM   32  H33 UNL     1      -9.454  48.642 -17.986  1.00  0.00     0.209 HD
ENDBRANCH  30  31
ENDBRANCH  29  30
ENDBRANCH  18  29
BRANCH  23  33
HETATM   33  C29 UNL     1      -7.187  45.426 -21.991  1.00  0.00     0.020 C 
HETATM   34  C30 UNL     1      -8.578  44.949 -21.551  1.00  0.00     0.007 C 
HETATM   35  C31 UNL     1      -8.534  43.419 -21.594  1.00  0.00     0.000 C 
HETATM   36  C32 UNL     1      -7.173  43.050 -22.170  1.00  0.00     0.000 C 
HETATM   37  C33 UNL     1      -6.277  44.209 -21.755  1.00  0.00     0.007 C 
ENDBRANCH  23  33
BRANCH   3  38
HETATM   38  O1  UNL     1       0.888  52.939 -16.860  1.00  0.00    -0.361 OA
HETATM   39  H8  UNL     1       0.415  52.668 -16.056  1.00  0.00     0.217 HD
ENDBRANCH   3  38
BRANCH   1  40
HETATM   40  C2  UNL     1       0.817  52.513 -21.671  1.00  0.00     0.308 C 
BRANCH  40  41
HETATM   41  N1  UNL     1      -0.050  53.301 -22.544  1.00  0.00     0.083 N 
HETATM   42  C1  UNL     1       0.582  53.551 -23.828  1.00  0.00     0.307 C 
HETATM   43  H4  UNL     1      -0.925  52.795 -22.680  1.00  0.00     0.315 HD
ENDBRANCH  40  41
ENDBRANCH   1  40
TORSDOF 8
ENDMDL
MODEL 8
REMARK minimizedAffinity -7.58189487
REMARK CNNscore 0.225676462
REMARK CNNaffinity 6.12176085
REMARK  8 active torsions:
REMARK  status: ('A' for Active; 'I' for Inactive)
REMARK    1  A    between atoms: N1_2  and  C2_3 
REMARK    2  A    between atoms: C2_3  and  C3_4 
REMARK    3  A    between atoms: C5_6  and  O1_7 
REMARK    4  A    between atoms: C20_22  and  N2_23 
REMARK    5  A    between atoms: C20_22  and  C21_24 
REMARK    6  A    between atoms: C21_24  and  C22_25 
REMARK    7  A    between atoms: C22_25  and  O2_26 
REMARK    8  A    between atoms: C27_31  and  C29_33 
ROOT
HETATM    1  C3  UNL     1      -5.345  46.350 -31.944  1.00  0.00    -0.021 A 
HETATM    2  C4  UNL     1      -4.537  45.450 -32.664  1.00  0.00     0.045 A 
HETATM    3  C5  UNL     1      -4.722  44.087 -32.547  1.00  0.00     0.066 A 
HETATM    4  C6  UNL     1      -5.720  43.585 -31.728  1.00  0.00     0.045 A 
HETATM    5  C7  UNL     1      -6.571  44.440 -30.981  1.00  0.00    -0.037 A 
HETATM    6  C8  UNL     1      -6.379  45.855 -31.087  1.00  0.00    -0.042 A 
HETATM    7  C9  UNL     1      -7.220  46.857 -30.309  1.00  0.00     0.044 C 
HETATM    8  C10 UNL     1      -8.516  47.415 -30.957  1.00  0.00    -0.010 C 
HETATM    9  C11 UNL     1      -9.156  46.532 -32.039  1.00  0.00     0.005 C 
HETATM   10  C12 UNL     1     -10.669  46.648 -32.083  1.00  0.00     0.001 C 
HETATM   11  C13 UNL     1     -11.222  46.223 -30.733  1.00  0.00     0.007 C 
HETATM   12  C14 UNL     1     -10.813  47.199 -29.613  1.00  0.00     0.022 C 
HETATM   13  C15 UNL     1      -9.499  47.973 -29.891  1.00  0.00     0.012 C 
HETATM   14  C16 UNL     1     -10.999  46.614 -28.156  1.00  0.00     0.082 C 
HETATM   15  C17 UNL     1     -11.494  47.751 -27.217  1.00  0.00     0.040 C 
HETATM   16  C18 UNL     1     -11.841  47.197 -25.832  1.00  0.00     0.013 C 
HETATM   17  C19 UNL     1     -11.596  45.660 -25.830  1.00  0.00     0.060 C 
HETATM   18  C20 UNL     1     -10.041  45.436 -26.055  1.00  0.00     0.180 C 
HETATM   19  C23 UNL     1      -9.726  45.955 -27.506  1.00  0.00     0.139 C 
HETATM   20  C24 UNL     1      -9.102  44.960 -28.399  1.00  0.00    -0.096 C 
HETATM   21  C25 UNL     1      -8.464  44.332 -29.201  1.00  0.00    -0.101 C 
HETATM   22  C26 UNL     1      -7.663  43.669 -30.230  1.00  0.00     0.133 C 
HETATM   23  C27 UNL     1     -12.480  45.055 -26.988  1.00  0.00     0.068 C 
HETATM   24  C28 UNL     1     -12.305  43.536 -27.148  1.00  0.00     0.047 C 
HETATM   25  O3  UNL     1     -12.074  45.643 -28.238  1.00  0.00    -0.367 OA
ENDROOT
BRANCH  18  26
HETATM   26  N2  UNL     1      -9.347  46.318 -25.064  1.00  0.00     0.090 N 
HETATM   27  H27 UNL     1      -9.630  46.038 -24.123  1.00  0.00     0.313 HD
HETATM   28  H28 UNL     1      -8.345  46.095 -25.063  1.00  0.00     0.313 HD
ENDBRANCH  18  26
BRANCH  18  29
HETATM   29  C21 UNL     1      -9.563  43.986 -25.701  1.00  0.00     0.069 C 
BRANCH  29  30
HETATM   30  C22 UNL     1      -8.145  43.819 -25.128  1.00  0.00     0.166 C 
BRANCH  30  31
HETATM   31  O2  UNL     1      -7.746  42.452 -25.147  1.00  0.00    -0.401 OA
HETATM   32  H33 UNL     1      -6.814  42.428 -24.866  1.00  0.00     0.209 HD
ENDBRANCH  30  31
ENDBRANCH  29  30
ENDBRANCH  18  29
BRANCH  23  33
HETATM   33  C29 UNL     1     -14.001  45.395 -26.825  1.00  0.00     0.020 C 
HETATM   34  C30 UNL     1     -14.707  44.719 -25.640  1.00  0.00     0.007 C 
HETATM   35  C31 UNL     1     -16.171  44.557 -26.057  1.00  0.00     0.000 C 
HETATM   36  C32 UNL     1     -16.306  45.245 -27.409  1.00  0.00     0.000 C 
HETATM   37  C33 UNL     1     -14.920  45.111 -28.024  1.00  0.00     0.007 C 
ENDBRANCH  23  33
BRANCH   3  38
HETATM   38  O1  UNL     1      -3.906  43.268 -33.268  1.00  0.00    -0.361 OA
HETATM   39  H8  UNL     1      -4.167  42.347 -33.106  1.00  0.00     0.217 HD
ENDBRANCH   3  38
BRANCH   1  40
HETATM   40  C2  UNL     1      -5.067  47.827 -32.178  1.00  0.00     0.308 C 
BRANCH  40  41
HETATM   41  N1  UNL     1      -4.050  48.008 -33.212  1.00  0.00     0.083 N 
HETATM   42  C1  UNL     1      -4.625  48.557 -34.428  1.00  0.00     0.307 C 
HETATM   43  H4  UNL     1      -3.328  48.635 -32.855  1.00  0.00     0.315 HD
ENDBRANCH  40  41
ENDBRANCH   1  40
TORSDOF 8
ENDMDL
MODEL 9
REMARK minimizedAffinity -7.79470348
REMARK CNNscore 0.218816325
REMARK CNNaffinity 6.10832596
REMARK  8 active torsions:
REMARK  status: ('A' for Active; 'I' for Inactive)
REMARK    1  A    between atoms: N1_2  and  C2_3 
REMARK    2  A    between atoms: C2_3  and  C3_4 
REMARK    3  A    between atoms: C5_6  and  O1_7 
REMARK    4  A    between atoms: C20_22  and  N2_23 
REMARK    5  A    between atoms: C20_22  and  C21_24 
REMARK    6  A    between atoms: C21_24  and  C22_25 
REMARK    7  A    between atoms: C22_25  and  O2_26 
REMARK    8  A    between atoms: C27_31  and  C29_33 
ROOT
HETATM    1  C3  UNL     1      -6.952  46.016 -29.684  1.00  0.00    -0.021 A 
HETATM    2  C4  UNL     1      -6.467  47.331 -29.551  1.00  0.00     0.045 A 
HETATM    3  C5  UNL     1      -5.446  47.791 -30.357  1.00  0.00     0.066 A 
HETATM    4  C6  UNL     1      -4.892  46.967 -31.323  1.00  0.00     0.045 A 
HETATM    5  C7  UNL     1      -5.340  45.634 -31.510  1.00  0.00    -0.037 A 
HETATM    6  C8  UNL     1      -6.391  45.143 -30.670  1.00  0.00    -0.042 A 
HETATM    7  C9  UNL     1      -6.926  43.722 -30.773  1.00  0.00     0.044 C 
HETATM    8  C10 UNL     1      -8.126  43.437 -31.716  1.00  0.00    -0.010 C 
HETATM    9  C11 UNL     1      -8.316  44.427 -32.875  1.00  0.00     0.005 C 
HETATM   10  C12 UNL     1      -8.895  43.782 -34.121  1.00  0.00     0.001 C 
HETATM   11  C13 UNL     1      -7.944  42.689 -34.580  1.00  0.00     0.007 C 
HETATM   12  C14 UNL     1      -7.870  41.530 -33.568  1.00  0.00     0.022 C 
HETATM   13  C15 UNL     1      -8.205  41.935 -32.110  1.00  0.00     0.012 C 
HETATM   14  C16 UNL     1      -6.623  40.580 -33.773  1.00  0.00     0.082 C 
HETATM   15  C17 UNL     1      -7.056  39.113 -33.487  1.00  0.00     0.040 C 
HETATM   16  C18 UNL     1      -5.925  38.139 -33.827  1.00  0.00     0.013 C 
HETATM   17  C19 UNL     1      -4.710  38.948 -34.369  1.00  0.00     0.060 C 
HETATM   18  C20 UNL     1      -4.200  39.872 -33.183  1.00  0.00     0.180 C 
HETATM   19  C23 UNL     1      -5.355  40.901 -32.899  1.00  0.00     0.139 C 
HETATM   20  C24 UNL     1      -4.960  42.320 -32.999  1.00  0.00    -0.096 C 
HETATM   21  C25 UNL     1      -4.779  43.503 -32.891  1.00  0.00    -0.101 C 
HETATM   22  C26 UNL     1      -4.656  44.948 -32.699  1.00  0.00     0.133 C 
HETATM   23  C27 UNL     1      -5.228  39.769 -35.613  1.00  0.00     0.068 C 
HETATM   24  C28 UNL     1      -4.145  40.668 -36.232  1.00  0.00     0.047 C 
HETATM   25  O3  UNL     1      -6.284  40.647 -35.183  1.00  0.00    -0.367 OA
ENDROOT
BRANCH  18  26
HETATM   26  N2  UNL     1      -4.047  38.976 -31.995  1.00  0.00     0.090 N 
HETATM   27  H27 UNL     1      -3.364  38.249 -32.220  1.00  0.00     0.313 HD
HETATM   28  H28 UNL     1      -3.572  39.492 -31.245  1.00  0.00     0.313 HD
ENDBRANCH  18  26
BRANCH  18  29
HETATM   29  C21 UNL     1      -2.768  40.461 -33.426  1.00  0.00     0.069 C 
BRANCH  29  30
HETATM   30  C22 UNL     1      -1.561  39.590 -33.037  1.00  0.00     0.166 C 
BRANCH  30  31
HETATM   31  O2  UNL     1      -1.161  38.760 -34.123  1.00  0.00    -0.401 OA
HETATM   32  H33 UNL     1      -0.342  38.311 -33.847  1.00  0.00     0.209 HD
ENDBRANCH  30  31
ENDBRANCH  29  30
ENDBRANCH  18  29
BRANCH  23  33
HETATM   33  C29 UNL     1      -5.849  38.854 -36.722  1.00  0.00     0.020 C 
HETATM   34  C30 UNL     1      -4.843  38.182 -37.667  1.00  0.00     0.007 C 
HETATM   35  C31 UNL     1      -5.574  37.994 -38.999  1.00  0.00     0.000 C 
HETATM   36  C32 UNL     1      -7.009  38.446 -38.763  1.00  0.00     0.000 C 
HETATM   37  C33 UNL     1      -6.885  39.491 -37.664  1.00  0.00     0.007 C 
ENDBRANCH  23  33
BRANCH   3  38
HETATM   38  O1  UNL     1      -5.019  49.074 -30.177  1.00  0.00    -0.361 OA
HETATM   39  H8  UNL     1      -4.321  49.263 -30.825  1.00  0.00     0.217 HD
ENDBRANCH   3  38
BRANCH   1  40
HETATM   40  C2  UNL     1      -8.099  45.633 -28.762  1.00  0.00     0.308 C 
BRANCH  40  41
HETATM   41  N1  UNL     1      -9.214  46.569 -28.900  1.00  0.00     0.083 N 
HETATM   42  C1  UNL     1     -10.070  46.208 -30.017  1.00  0.00     0.307 C 
HETATM   43  H4  UNL     1      -9.753  46.567 -28.035  1.00  0.00     0.315 HD
ENDBRANCH  40  41
ENDBRANCH   1  40
TORSDOF 8
ENDMDL
