MODEL 1
REMARK minimizedAffinity -9.35857296
REMARK CNNscore 0.445156008
REMARK CNNaffinity 7.71241999
REMARK  12 active torsions:
REMARK  status: ('A' for Active; 'I' for Inactive)
REMARK    1  A    between atoms: C3_3  and  O1_4 
REMARK    2  A    between atoms: N1_14  and  O2_16 
REMARK    3  A    between atoms: O2_16  and  C13_17 
REMARK    4  A    between atoms: C13_17  and  C14_18 
REMARK       I    between atoms: C14_18  and  N2_20 
REMARK    5  A    between atoms: N2_20  and  C15_21 
REMARK    6  A    between atoms: C15_21  and  C16_22 
REMARK    7  A    between atoms: C15_21  and  C26_36 
REMARK       I    between atoms: C16_22  and  N3_24 
REMARK    8  A    between atoms: N3_24  and  C17_25 
REMARK    9  A    between atoms: C17_25  and  C18_26 
REMARK   10  A    between atoms: C17_25  and  C25_33 
REMARK   11  A    between atoms: C18_26  and  C19_27 
REMARK   12  A    between atoms: C25_33  and  O6_35 
ROOT
HETATM    1  C1  UNL     1     -14.273   9.196  15.678  1.00  0.00     0.015 C 
HETATM    2  C2  UNL     1     -13.482   8.994  14.798  1.00  0.00    -0.078 C 
HETATM    3  C3  UNL     1     -12.515   8.749  13.705  1.00  0.00     0.128 C 
HETATM    4  C4  UNL     1     -11.530   9.923  13.602  1.00  0.00     0.052 C 
HETATM    5  C5  UNL     1     -10.317   9.538  14.461  1.00  0.00     0.010 C 
HETATM    6  C6  UNL     1     -10.574   8.106  14.974  1.00  0.00     0.002 C 
HETATM    7  C7  UNL     1      -9.341   7.211  15.270  1.00  0.00    -0.004 C 
HETATM    8  C8  UNL     1      -8.176   7.997  15.914  1.00  0.00     0.010 C 
HETATM    9  C9  UNL     1      -7.010   8.253  14.967  1.00  0.00     0.035 C 
HETATM   10  C10 UNL     1      -6.475   6.999  14.324  1.00  0.00    -0.069 C 
HETATM   11  C11 UNL     1      -5.212   6.989  13.852  1.00  0.00     0.030 C 
HETATM   12  C12 UNL     1      -4.633   5.797  13.159  1.00  0.00     0.032 C 
HETATM   13  N1  UNL     1      -3.424   5.700  12.694  1.00  0.00    -0.271 N 
ATOM     14  H1  UNL     1      -3.059   4.871  12.224  1.00  0.00     0.194 HD
HETATM   15  C29 UNL     1      -5.520   4.577  12.988  1.00  0.00     0.060 C 
HETATM   16  C30 UNL     1      -6.992   4.970  12.958  1.00  0.00     0.020 C 
HETATM   17  C31 UNL     1      -7.416   5.807  14.199  1.00  0.00    -0.016 C 
HETATM   18  C32 UNL     1      -7.260   4.896  15.451  1.00  0.00     0.020 C 
HETATM   19  C33 UNL     1      -8.917   6.271  14.097  1.00  0.00     0.002 C 
HETATM   20  C34 UNL     1      -9.331   6.886  12.752  1.00  0.00     0.007 C 
HETATM   21  C35 UNL     1     -10.845   7.104  12.636  1.00  0.00     0.014 C 
HETATM   22  C36 UNL     1     -11.572   7.525  13.948  1.00  0.00     0.003 C 
HETATM   23  C37 UNL     1     -12.332   6.303  14.503  1.00  0.00     0.020 C 
ENDROOT
BRANCH   3  24
HETATM   24  O1  UNL     1     -13.248   8.624  12.494  1.00  0.00    -0.377 OA
HETATM   25  H2  UNL     1     -13.927   7.947  12.642  1.00  0.00     0.211 HD
ENDBRANCH   3  24
BRANCH  13  26
HETATM   26  O2  UNL     1      -2.679   6.867  12.914  1.00  0.00    -0.271 OA
BRANCH  26  27
HETATM   27  C13 UNL     1      -1.334   6.503  13.197  1.00  0.00     0.303 C 
BRANCH  27  28
HETATM   28  C14 UNL     1      -0.612   6.150  11.904  1.00  0.00     0.244 C 
HETATM   29  O3  UNL     1      -0.814   5.105  11.292  1.00  0.00    -0.271 OA
HETATM   30  N2  UNL     1       0.335   7.077  11.512  1.00  0.00    -0.346 N 
HETATM   31  H16 UNL     1       0.656   7.704  12.242  1.00  0.00     0.163 HD
BRANCH  30  32
HETATM   32  C15 UNL     1       1.297   6.757  10.462  1.00  0.00     0.180 C 
BRANCH  32  33
HETATM   33  C16 UNL     1       2.589   7.515  10.844  1.00  0.00     0.241 C 
HETATM   34  O4  UNL     1       2.611   8.379  11.720  1.00  0.00    -0.271 OA
HETATM   35  N3  UNL     1       3.705   7.149  10.123  1.00  0.00    -0.345 N 
HETATM   36  H18 UNL     1       3.562   6.675   9.239  1.00  0.00     0.163 HD
BRANCH  35  37
HETATM   37  C17 UNL     1       4.994   7.824  10.323  1.00  0.00     0.186 C 
BRANCH  37  38
HETATM   38  C18 UNL     1       4.822   9.011  11.280  1.00  0.00     0.074 C 
BRANCH  38  39
HETATM   39  C19 UNL     1       6.123   9.668  11.673  1.00  0.00    -0.056 A 
HETATM   40  C20 UNL     1       6.909  10.315  10.708  1.00  0.00     0.007 A 
HETATM   41  C21 UNL     1       8.118  10.912  11.065  1.00  0.00     0.001 A 
HETATM   42  C22 UNL     1       8.555  10.866  12.387  1.00  0.00     0.000 A 
HETATM   43  C23 UNL     1       7.782  10.227  13.354  1.00  0.00     0.001 A 
HETATM   44  C24 UNL     1       6.570   9.630  13.001  1.00  0.00     0.007 A 
ENDBRANCH  38  39
ENDBRANCH  37  38
BRANCH  37  45
HETATM   45  C25 UNL     1       5.965   6.810  10.926  1.00  0.00     0.163 C 
HETATM   46  O5  UNL     1       7.178   6.940  11.003  1.00  0.00    -0.648 OA
BRANCH  45  47
HETATM   47  O6  UNL     1       5.366   5.694  11.383  1.00  0.00    -0.775 OA
HETATM   48  H27 UNL     1       6.088   5.150  11.757  1.00  0.00     0.167 HD
ENDBRANCH  45  47
ENDBRANCH  37  45
ENDBRANCH  35  37
ENDBRANCH  32  33
BRANCH  32  49
HETATM   49  C26 UNL     1       0.770   7.195   9.079  1.00  0.00     0.009 C 
HETATM   50  C27 UNL     1       0.399   8.680   9.045  1.00  0.00     0.012 C 
HETATM   51  C28 UNL     1       1.807   6.915   7.984  1.00  0.00     0.012 C 
ENDBRANCH  32  49
ENDBRANCH  30  32
ENDBRANCH  27  28
ENDBRANCH  26  27
ENDBRANCH  13  26
TORSDOF 12
ENDMDL
MODEL 2
REMARK minimizedAffinity -9.01675892
REMARK CNNscore 0.432850927
REMARK CNNaffinity 7.48476219
REMARK  12 active torsions:
REMARK  status: ('A' for Active; 'I' for Inactive)
REMARK    1  A    between atoms: C3_3  and  O1_4 
REMARK    2  A    between atoms: N1_14  and  O2_16 
REMARK    3  A    between atoms: O2_16  and  C13_17 
REMARK    4  A    between atoms: C13_17  and  C14_18 
REMARK       I    between atoms: C14_18  and  N2_20 
REMARK    5  A    between atoms: N2_20  and  C15_21 
REMARK    6  A    between atoms: C15_21  and  C16_22 
REMARK    7  A    between atoms: C15_21  and  C26_36 
REMARK       I    between atoms: C16_22  and  N3_24 
REMARK    8  A    between atoms: N3_24  and  C17_25 
REMARK    9  A    between atoms: C17_25  and  C18_26 
REMARK   10  A    between atoms: C17_25  and  C25_33 
REMARK   11  A    between atoms: C18_26  and  C19_27 
REMARK   12  A    between atoms: C25_33  and  O6_35 
ROOT
HETATM    1  C1  UNL     1     -14.862   9.125  15.325  1.00  0.00     0.015 C 
HETATM    2  C2  UNL     1     -14.027   8.883  14.496  1.00  0.00    -0.078 C 
HETATM    3  C3  UNL     1     -13.007   8.587  13.466  1.00  0.00     0.128 C 
HETATM    4  C4  UNL     1     -12.114   9.816  13.243  1.00  0.00     0.052 C 
HETATM    5  C5  UNL     1     -10.905   9.639  14.173  1.00  0.00     0.010 C 
HETATM    6  C6  UNL     1     -11.067   8.263  14.852  1.00  0.00     0.002 C 
HETATM    7  C7  UNL     1      -9.779   7.514  15.287  1.00  0.00    -0.004 C 
HETATM    8  C8  UNL     1      -8.701   8.465  15.857  1.00  0.00     0.010 C 
HETATM    9  C9  UNL     1      -7.527   8.699  14.915  1.00  0.00     0.035 C 
HETATM   10  C10 UNL     1      -6.874   7.424  14.445  1.00  0.00    -0.069 C 
HETATM   11  C11 UNL     1      -5.599   7.460  14.010  1.00  0.00     0.030 C 
HETATM   12  C12 UNL     1      -4.905   6.244  13.483  1.00  0.00     0.032 C 
HETATM   13  N1  UNL     1      -3.677   6.191  13.064  1.00  0.00    -0.271 N 
ATOM     14  H1  UNL     1      -3.232   5.344  12.710  1.00  0.00     0.194 HD
HETATM   15  C29 UNL     1      -5.688   4.944  13.443  1.00  0.00     0.060 C 
HETATM   16  C30 UNL     1      -7.184   5.209  13.328  1.00  0.00     0.020 C 
HETATM   17  C31 UNL     1      -7.714   6.152  14.445  1.00  0.00    -0.016 C 
HETATM   18  C32 UNL     1      -7.531   5.415  15.804  1.00  0.00     0.020 C 
HETATM   19  C33 UNL     1      -9.243   6.477  14.249  1.00  0.00     0.002 C 
HETATM   20  C34 UNL     1      -9.656   6.889  12.830  1.00  0.00     0.007 C 
HETATM   21  C35 UNL     1     -11.178   6.967  12.650  1.00  0.00     0.014 C 
HETATM   22  C36 UNL     1     -11.981   7.482  13.882  1.00  0.00     0.003 C 
HETATM   23  C37 UNL     1     -12.661   6.279  14.565  1.00  0.00     0.020 C 
ENDROOT
BRANCH   3  24
HETATM   24  O1  UNL     1     -13.686   8.257  12.262  1.00  0.00    -0.377 OA
HETATM   25  H2  UNL     1     -14.315   7.549  12.475  1.00  0.00     0.211 HD
ENDBRANCH   3  24
BRANCH  13  26
HETATM   26  O2  UNL     1      -3.033   7.433  13.156  1.00  0.00    -0.271 OA
BRANCH  26  27
HETATM   27  C13 UNL     1      -2.620   7.633  14.503  1.00  0.00     0.303 C 
BRANCH  27  28
HETATM   28  C14 UNL     1      -2.452   9.121  14.774  1.00  0.00     0.244 C 
HETATM   29  O3  UNL     1      -2.280   9.946  13.881  1.00  0.00    -0.271 OA
HETATM   30  N2  UNL     1      -2.448   9.457  16.114  1.00  0.00    -0.346 N 
HETATM   31  H16 UNL     1      -2.254   8.692  16.752  1.00  0.00     0.163 HD
BRANCH  30  32
HETATM   32  C15 UNL     1      -2.022  10.785  16.546  1.00  0.00     0.180 C 
BRANCH  32  33
HETATM   33  C16 UNL     1      -0.933  10.540  17.616  1.00  0.00     0.241 C 
HETATM   34  O4  UNL     1      -1.019   9.638  18.448  1.00  0.00    -0.271 OA
HETATM   35  N3  UNL     1       0.132  11.412  17.562  1.00  0.00    -0.345 N 
HETATM   36  H18 UNL     1      -0.000  12.290  17.073  1.00  0.00     0.163 HD
BRANCH  35  37
HETATM   37  C17 UNL     1       1.215  11.351  18.552  1.00  0.00     0.186 C 
BRANCH  37  38
HETATM   38  C18 UNL     1       0.674  10.837  19.892  1.00  0.00     0.074 C 
BRANCH  38  39
HETATM   39  C19 UNL     1       1.701  10.823  20.998  1.00  0.00    -0.056 A 
HETATM   40  C20 UNL     1       2.296  12.018  21.426  1.00  0.00     0.007 A 
HETATM   41  C21 UNL     1       3.255  12.007  22.439  1.00  0.00     0.001 A 
HETATM   42  C22 UNL     1       3.631  10.803  23.031  1.00  0.00     0.000 A 
HETATM   43  C23 UNL     1       3.046   9.610  22.613  1.00  0.00     0.001 A 
HETATM   44  C24 UNL     1       2.083   9.617  21.601  1.00  0.00     0.007 A 
ENDBRANCH  38  39
ENDBRANCH  37  38
BRANCH  37  45
HETATM   45  C25 UNL     1       2.280  10.391  18.022  1.00  0.00     0.163 C 
HETATM   46  O5  UNL     1       3.477  10.625  17.941  1.00  0.00    -0.648 OA
BRANCH  45  47
HETATM   47  O6  UNL     1       1.785   9.206  17.617  1.00  0.00    -0.775 OA
HETATM   48  H27 UNL     1       2.564   8.688  17.328  1.00  0.00     0.167 HD
ENDBRANCH  45  47
ENDBRANCH  37  45
ENDBRANCH  35  37
ENDBRANCH  32  33
BRANCH  32  49
HETATM   49  C26 UNL     1      -3.211  11.586  17.120  1.00  0.00     0.009 C 
HETATM   50  C27 UNL     1      -3.039  11.887  18.610  1.00  0.00     0.012 C 
HETATM   51  C28 UNL     1      -3.399  12.906  16.363  1.00  0.00     0.012 C 
ENDBRANCH  32  49
ENDBRANCH  30  32
ENDBRANCH  27  28
ENDBRANCH  26  27
ENDBRANCH  13  26
TORSDOF 12
ENDMDL
MODEL 3
REMARK minimizedAffinity -9.83578682
REMARK CNNscore 0.402087152
REMARK CNNaffinity 7.74728775
REMARK  12 active torsions:
REMARK  status: ('A' for Active; 'I' for Inactive)
REMARK    1  A    between atoms: C3_3  and  O1_4 
REMARK    2  A    between atoms: N1_14  and  O2_16 
REMARK    3  A    between atoms: O2_16  and  C13_17 
REMARK    4  A    between atoms: C13_17  and  C14_18 
REMARK       I    between atoms: C14_18  and  N2_20 
REMARK    5  A    between atoms: N2_20  and  C15_21 
REMARK    6  A    between atoms: C15_21  and  C16_22 
REMARK    7  A    between atoms: C15_21  and  C26_36 
REMARK       I    between atoms: C16_22  and  N3_24 
REMARK    8  A    between atoms: N3_24  and  C17_25 
REMARK    9  A    between atoms: C17_25  and  C18_26 
REMARK   10  A    between atoms: C17_25  and  C25_33 
REMARK   11  A    between atoms: C18_26  and  C19_27 
REMARK   12  A    between atoms: C25_33  and  O6_35 
ROOT
HETATM    1  C1  UNL     1     -14.124   9.266  15.763  1.00  0.00     0.015 C 
HETATM    2  C2  UNL     1     -13.368   9.041  14.857  1.00  0.00    -0.078 C 
HETATM    3  C3  UNL     1     -12.444   8.770  13.734  1.00  0.00     0.128 C 
HETATM    4  C4  UNL     1     -11.331   9.828  13.702  1.00  0.00     0.052 C 
HETATM    5  C5  UNL     1     -10.164   9.243  14.511  1.00  0.00     0.010 C 
HETATM    6  C6  UNL     1     -10.581   7.815  14.920  1.00  0.00     0.002 C 
HETATM    7  C7  UNL     1      -9.457   6.766  15.130  1.00  0.00    -0.004 C 
HETATM    8  C8  UNL     1      -8.204   7.362  15.810  1.00  0.00     0.010 C 
HETATM    9  C9  UNL     1      -7.024   7.554  14.866  1.00  0.00     0.035 C 
HETATM   10  C10 UNL     1      -6.642   6.298  14.124  1.00  0.00    -0.069 C 
HETATM   11  C11 UNL     1      -5.393   6.180  13.633  1.00  0.00     0.030 C 
HETATM   12  C12 UNL     1      -4.960   4.984  12.844  1.00  0.00     0.032 C 
HETATM   13  N1  UNL     1      -3.774   4.785  12.354  1.00  0.00    -0.271 N 
ATOM     14  H1  UNL     1      -3.510   3.957  11.818  1.00  0.00     0.194 HD
HETATM   15  C29 UNL     1      -5.983   3.891  12.598  1.00  0.00     0.060 C 
HETATM   16  C30 UNL     1      -7.400   4.451  12.621  1.00  0.00     0.020 C 
HETATM   17  C31 UNL     1      -7.715   5.235  13.927  1.00  0.00    -0.016 C 
HETATM   18  C32 UNL     1      -7.656   4.220  15.105  1.00  0.00     0.020 C 
HETATM   19  C33 UNL     1      -9.154   5.874  13.883  1.00  0.00     0.002 C 
HETATM   20  C34 UNL     1      -9.504   6.632  12.595  1.00  0.00     0.007 C 
HETATM   21  C35 UNL     1     -10.983   7.030  12.520  1.00  0.00     0.014 C 
HETATM   22  C36 UNL     1     -11.647   7.431  13.871  1.00  0.00     0.003 C 
HETATM   23  C37 UNL     1     -12.538   6.266  14.346  1.00  0.00     0.020 C 
ENDROOT
BRANCH   3  24
HETATM   24  O1  UNL     1     -13.195   8.821  12.529  1.00  0.00    -0.377 OA
HETATM   25  H2  UNL     1     -13.947   8.217  12.637  1.00  0.00     0.211 HD
ENDBRANCH   3  24
BRANCH  13  26
HETATM   26  O2  UNL     1      -2.898   5.839  12.647  1.00  0.00    -0.271 OA
BRANCH  26  27
HETATM   27  C13 UNL     1      -1.804   5.327  13.399  1.00  0.00     0.303 C 
BRANCH  27  28
HETATM   28  C14 UNL     1      -0.510   5.515  12.621  1.00  0.00     0.244 C 
HETATM   29  O3  UNL     1       0.169   4.573  12.220  1.00  0.00    -0.271 OA
HETATM   30  N2  UNL     1      -0.132   6.834  12.457  1.00  0.00    -0.346 N 
HETATM   31  H16 UNL     1      -0.560   7.491  13.101  1.00  0.00     0.163 HD
BRANCH  30  32
HETATM   32  C15 UNL     1       1.208   7.169  11.985  1.00  0.00     0.180 C 
BRANCH  32  33
HETATM   33  C16 UNL     1       1.901   7.869  13.177  1.00  0.00     0.241 C 
HETATM   34  O4  UNL     1       1.967   9.094  13.273  1.00  0.00    -0.271 OA
HETATM   35  N3  UNL     1       2.436   7.013  14.114  1.00  0.00    -0.345 N 
HETATM   36  H18 UNL     1       2.615   6.056  13.833  1.00  0.00     0.163 HD
BRANCH  35  37
HETATM   37  C17 UNL     1       3.184   7.524  15.272  1.00  0.00     0.186 C 
BRANCH  37  38
HETATM   38  C18 UNL     1       4.019   8.743  14.860  1.00  0.00     0.074 C 
BRANCH  38  39
HETATM   39  C19 UNL     1       5.471   8.426  14.599  1.00  0.00    -0.056 A 
HETATM   40  C20 UNL     1       5.840   7.683  13.469  1.00  0.00     0.007 A 
HETATM   41  C21 UNL     1       7.180   7.377  13.231  1.00  0.00     0.001 A 
HETATM   42  C22 UNL     1       8.163   7.805  14.121  1.00  0.00     0.000 A 
HETATM   43  C23 UNL     1       7.806   8.543  15.248  1.00  0.00     0.001 A 
HETATM   44  C24 UNL     1       6.466   8.855  15.488  1.00  0.00     0.007 A 
ENDBRANCH  38  39
ENDBRANCH  37  38
BRANCH  37  45
HETATM   45  C25 UNL     1       2.171   7.927  16.342  1.00  0.00     0.163 C 
HETATM   46  O5  UNL     1       2.277   8.876  17.106  1.00  0.00    -0.648 OA
BRANCH  45  47
HETATM   47  O6  UNL     1       1.097   7.117  16.402  1.00  0.00    -0.775 OA
HETATM   48  H27 UNL     1       0.528   7.497  17.102  1.00  0.00     0.167 HD
ENDBRANCH  45  47
ENDBRANCH  37  45
ENDBRANCH  35  37
ENDBRANCH  32  33
BRANCH  32  49
HETATM   49  C26 UNL     1       1.142   8.090  10.748  1.00  0.00     0.009 C 
HETATM   50  C27 UNL     1       1.548   7.363   9.464  1.00  0.00     0.012 C 
HETATM   51  C28 UNL     1      -0.268   8.667  10.569  1.00  0.00     0.012 C 
ENDBRANCH  32  49
ENDBRANCH  30  32
ENDBRANCH  27  28
ENDBRANCH  26  27
ENDBRANCH  13  26
TORSDOF 12
ENDMDL
MODEL 4
REMARK minimizedAffinity -8.13164043
REMARK CNNscore 0.353692591
REMARK CNNaffinity 6.78209305
REMARK  12 active torsions:
REMARK  status: ('A' for Active; 'I' for Inactive)
REMARK    1  A    between atoms: C3_3  and  O1_4 
REMARK    2  A    between atoms: N1_14  and  O2_16 
REMARK    3  A    between atoms: O2_16  and  C13_17 
REMARK    4  A    between atoms: C13_17  and  C14_18 
REMARK       I    between atoms: C14_18  and  N2_20 
REMARK    5  A    between atoms: N2_20  and  C15_21 
REMARK    6  A    between atoms: C15_21  and  C16_22 
REMARK    7  A    between atoms: C15_21  and  C26_36 
REMARK       I    between atoms: C16_22  and  N3_24 
REMARK    8  A    between atoms: N3_24  and  C17_25 
REMARK    9  A    between atoms: C17_25  and  C18_26 
REMARK   10  A    between atoms: C17_25  and  C25_33 
REMARK   11  A    between atoms: C18_26  and  C19_27 
REMARK   12  A    between atoms: C25_33  and  O6_35 
ROOT
HETATM    1  C1  UNL     1      -8.569   5.126  11.743  1.00  0.00     0.015 C 
HETATM    2  C2  UNL     1      -7.774   5.104  12.642  1.00  0.00    -0.078 C 
HETATM    3  C3  UNL     1      -6.798   5.066  13.754  1.00  0.00     0.128 C 
HETATM    4  C4  UNL     1      -5.411   4.674  13.223  1.00  0.00     0.052 C 
HETATM    5  C5  UNL     1      -4.682   5.991  12.923  1.00  0.00     0.010 C 
HETATM    6  C6  UNL     1      -5.620   7.130  13.374  1.00  0.00     0.002 C 
HETATM    7  C7  UNL     1      -4.972   8.464  13.829  1.00  0.00    -0.004 C 
HETATM    8  C8  UNL     1      -3.745   8.853  12.973  1.00  0.00     0.010 C 
HETATM    9  C9  UNL     1      -2.412   8.657  13.685  1.00  0.00     0.035 C 
HETATM   10  C10 UNL     1      -2.337   9.359  15.018  1.00  0.00    -0.069 C 
HETATM   11  C11 UNL     1      -1.129   9.665  15.532  1.00  0.00     0.030 C 
HETATM   12  C12 UNL     1      -0.979  10.316  16.871  1.00  0.00     0.032 C 
HETATM   13  N1  UNL     1       0.143  10.659  17.427  1.00  0.00    -0.271 N 
ATOM     14  H1  UNL     1       0.212  11.102  18.344  1.00  0.00     0.194 HD
HETATM   15  C29 UNL     1      -2.242  10.622  17.655  1.00  0.00     0.060 C 
HETATM   16  C30 UNL     1      -3.368   9.669  17.273  1.00  0.00     0.020 C 
HETATM   17  C31 UNL     1      -3.645   9.649  15.743  1.00  0.00    -0.016 C 
HETATM   18  C32 UNL     1      -4.152  11.065  15.342  1.00  0.00     0.020 C 
HETATM   19  C33 UNL     1      -4.752   8.593  15.371  1.00  0.00     0.002 C 
HETATM   20  C34 UNL     1      -4.579   7.202  15.997  1.00  0.00     0.007 C 
HETATM   21  C35 UNL     1      -5.799   6.296  15.785  1.00  0.00     0.014 C 
HETATM   22  C36 UNL     1      -6.535   6.456  14.421  1.00  0.00     0.003 C 
HETATM   23  C37 UNL     1      -7.836   7.250  14.654  1.00  0.00     0.020 C 
ENDROOT
BRANCH   3  24
HETATM   24  O1  UNL     1      -7.247   4.101  14.696  1.00  0.00    -0.377 OA
HETATM   25  H2  UNL     1      -8.163   4.328  14.921  1.00  0.00     0.211 HD
ENDBRANCH   3  24
BRANCH  13  26
HETATM   26  O2  UNL     1       1.248  10.352  16.622  1.00  0.00    -0.271 OA
BRANCH  26  27
HETATM   27  C13 UNL     1       2.321   9.936  17.458  1.00  0.00     0.303 C 
BRANCH  27  28
HETATM   28  C14 UNL     1       2.488  10.918  18.609  1.00  0.00     0.244 C 
HETATM   29  O3  UNL     1       2.278  12.122  18.493  1.00  0.00    -0.271 OA
HETATM   30  N2  UNL     1       2.956  10.349  19.778  1.00  0.00    -0.346 N 
HETATM   31  H16 UNL     1       3.411   9.448  19.670  1.00  0.00     0.163 HD
BRANCH  30  32
HETATM   32  C15 UNL     1       3.430  11.187  20.874  1.00  0.00     0.180 C 
BRANCH  32  33
HETATM   33  C16 UNL     1       4.930  11.429  20.588  1.00  0.00     0.241 C 
HETATM   34  O4  UNL     1       5.576  10.719  19.819  1.00  0.00    -0.271 OA
HETATM   35  N3  UNL     1       5.479  12.497  21.264  1.00  0.00    -0.345 N 
HETATM   36  H18 UNL     1       4.993  12.836  22.086  1.00  0.00     0.163 HD
BRANCH  35  37
HETATM   37  C17 UNL     1       6.909  12.815  21.148  1.00  0.00     0.186 C 
BRANCH  37  38
HETATM   38  C18 UNL     1       7.097  14.328  20.974  1.00  0.00     0.074 C 
BRANCH  38  39
HETATM   39  C19 UNL     1       6.650  15.137  22.167  1.00  0.00    -0.056 A 
HETATM   40  C20 UNL     1       5.296  15.176  22.529  1.00  0.00     0.007 A 
HETATM   41  C21 UNL     1       4.878  15.934  23.622  1.00  0.00     0.001 A 
HETATM   42  C22 UNL     1       5.806  16.662  24.364  1.00  0.00     0.000 A 
HETATM   43  C23 UNL     1       7.155  16.630  24.013  1.00  0.00     0.001 A 
HETATM   44  C24 UNL     1       7.578  15.870  22.920  1.00  0.00     0.007 A 
ENDBRANCH  38  39
ENDBRANCH  37  38
BRANCH  37  45
HETATM   45  C25 UNL     1       7.597  12.352  22.432  1.00  0.00     0.163 C 
HETATM   46  O5  UNL     1       7.034  11.995  23.456  1.00  0.00    -0.648 OA
BRANCH  45  47
HETATM   47  O6  UNL     1       8.942  12.376  22.361  1.00  0.00    -0.775 OA
HETATM   48  H27 UNL     1       9.250  12.040  23.228  1.00  0.00     0.167 HD
ENDBRANCH  45  47
ENDBRANCH  37  45
ENDBRANCH  35  37
ENDBRANCH  32  33
BRANCH  32  49
HETATM   49  C26 UNL     1       3.218  10.488  22.235  1.00  0.00     0.009 C 
HETATM   50  C27 UNL     1       2.583   9.104  22.080  1.00  0.00     0.012 C 
HETATM   51  C28 UNL     1       4.545  10.346  22.991  1.00  0.00     0.012 C 
ENDBRANCH  32  49
ENDBRANCH  30  32
ENDBRANCH  27  28
ENDBRANCH  26  27
ENDBRANCH  13  26
TORSDOF 12
ENDMDL
MODEL 5
REMARK minimizedAffinity -9.12361145
REMARK CNNscore 0.291864842
REMARK CNNaffinity 6.88537931
REMARK  12 active torsions:
REMARK  status: ('A' for Active; 'I' for Inactive)
REMARK    1  A    between atoms: C3_3  and  O1_4 
REMARK    2  A    between atoms: N1_14  and  O2_16 
REMARK    3  A    between atoms: O2_16  and  C13_17 
REMARK    4  A    between atoms: C13_17  and  C14_18 
REMARK       I    between atoms: C14_18  and  N2_20 
REMARK    5  A    between atoms: N2_20  and  C15_21 
REMARK    6  A    between atoms: C15_21  and  C16_22 
REMARK    7  A    between atoms: C15_21  and  C26_36 
REMARK       I    between atoms: C16_22  and  N3_24 
REMARK    8  A    between atoms: N3_24  and  C17_25 
REMARK    9  A    between atoms: C17_25  and  C18_26 
REMARK   10  A    between atoms: C17_25  and  C25_33 
REMARK   11  A    between atoms: C18_26  and  C19_27 
REMARK   12  A    between atoms: C25_33  and  O6_35 
ROOT
HETATM    1  C1  UNL     1       4.372   6.524  11.050  1.00  0.00     0.015 C 
HETATM    2  C2  UNL     1       3.241   6.860  10.832  1.00  0.00    -0.078 C 
HETATM    3  C3  UNL     1       1.849   7.279  10.550  1.00  0.00     0.128 C 
HETATM    4  C4  UNL     1       0.993   6.053  10.200  1.00  0.00     0.052 C 
HETATM    5  C5  UNL     1       0.353   5.589  11.516  1.00  0.00     0.010 C 
HETATM    6  C6  UNL     1       0.770   6.610  12.595  1.00  0.00     0.002 C 
HETATM    7  C7  UNL     1      -0.189   6.827  13.796  1.00  0.00    -0.004 C 
HETATM    8  C8  UNL     1      -0.846   5.513  14.278  1.00  0.00     0.010 C 
HETATM    9  C9  UNL     1      -2.316   5.387  13.899  1.00  0.00     0.035 C 
HETATM   10  C10 UNL     1      -3.152   6.560  14.345  1.00  0.00    -0.069 C 
HETATM   11  C11 UNL     1      -4.481   6.399  14.500  1.00  0.00     0.030 C 
HETATM   12  C12 UNL     1      -5.377   7.531  14.892  1.00  0.00     0.032 C 
HETATM   13  N1  UNL     1      -6.660   7.455  15.080  1.00  0.00    -0.271 N 
ATOM     14  H1  UNL     1      -7.245   8.248  15.347  1.00  0.00     0.194 HD
HETATM   15  C29 UNL     1      -4.744   8.893  15.107  1.00  0.00     0.060 C 
HETATM   16  C30 UNL     1      -3.467   9.039  14.290  1.00  0.00     0.020 C 
HETATM   17  C31 UNL     1      -2.448   7.895  14.557  1.00  0.00    -0.016 C 
HETATM   18  C32 UNL     1      -1.999   8.009  16.043  1.00  0.00     0.020 C 
HETATM   19  C33 UNL     1      -1.178   8.025  13.635  1.00  0.00     0.002 C 
HETATM   20  C34 UNL     1      -1.462   8.279  12.148  1.00  0.00     0.007 C 
HETATM   21  C35 UNL     1      -0.198   8.623  11.350  1.00  0.00     0.014 C 
HETATM   22  C36 UNL     1       1.102   7.883  11.785  1.00  0.00     0.003 C 
HETATM   23  C37 UNL     1       1.985   8.865  12.580  1.00  0.00     0.020 C 
ENDROOT
BRANCH   3  24
HETATM   24  O1  UNL     1       1.877   8.180   9.452  1.00  0.00    -0.377 OA
HETATM   25  H2  UNL     1       2.511   8.880   9.676  1.00  0.00     0.211 HD
ENDBRANCH   3  24
BRANCH  13  26
HETATM   26  O2  UNL     1      -7.148   6.157  14.874  1.00  0.00    -0.271 OA
BRANCH  26  27
HETATM   27  C13 UNL     1      -8.104   5.864  15.887  1.00  0.00     0.303 C 
BRANCH  27  28
HETATM   28  C14 UNL     1      -9.116   6.997  15.985  1.00  0.00     0.244 C 
HETATM   29  O3  UNL     1      -9.273   7.663  17.005  1.00  0.00    -0.271 OA
HETATM   30  N2  UNL     1      -9.885   7.171  14.851  1.00  0.00    -0.346 N 
HETATM   31  H16 UNL     1      -9.914   6.376  14.220  1.00  0.00     0.163 HD
BRANCH  30  32
HETATM   32  C15 UNL     1     -11.074   8.017  14.883  1.00  0.00     0.180 C 
BRANCH  32  33
HETATM   33  C16 UNL     1     -12.121   7.288  14.010  1.00  0.00     0.241 C 
HETATM   34  O4  UNL     1     -12.059   7.273  12.781  1.00  0.00    -0.271 OA
HETATM   35  N3  UNL     1     -13.124   6.663  14.718  1.00  0.00    -0.345 N 
HETATM   36  H18 UNL     1     -13.286   6.962  15.673  1.00  0.00     0.163 HD
BRANCH  35  37
HETATM   37  C17 UNL     1     -14.230   5.983  14.030  1.00  0.00     0.186 C 
BRANCH  37  38
HETATM   38  C18 UNL     1     -15.105   5.241  15.049  1.00  0.00     0.074 C 
BRANCH  38  39
HETATM   39  C19 UNL     1     -15.641   3.924  14.545  1.00  0.00    -0.056 A 
HETATM   40  C20 UNL     1     -16.864   3.872  13.861  1.00  0.00     0.007 A 
HETATM   41  C21 UNL     1     -17.369   2.655  13.406  1.00  0.00     0.001 A 
HETATM   42  C22 UNL     1     -16.660   1.477  13.631  1.00  0.00     0.000 A 
HETATM   43  C23 UNL     1     -15.443   1.516  14.309  1.00  0.00     0.001 A 
HETATM   44  C24 UNL     1     -14.933   2.734  14.764  1.00  0.00     0.007 A 
ENDBRANCH  38  39
ENDBRANCH  37  38
BRANCH  37  45
HETATM   45  C25 UNL     1     -15.060   7.046  13.312  1.00  0.00     0.163 C 
HETATM   46  O5  UNL     1     -15.288   7.085  12.112  1.00  0.00    -0.648 OA
BRANCH  45  47
HETATM   47  O6  UNL     1     -15.542   7.999  14.133  1.00  0.00    -0.775 OA
HETATM   48  H27 UNL     1     -16.065   8.593  13.556  1.00  0.00     0.167 HD
ENDBRANCH  45  47
ENDBRANCH  37  45
ENDBRANCH  35  37
ENDBRANCH  32  33
BRANCH  32  49
HETATM   49  C26 UNL     1     -10.762   9.427  14.334  1.00  0.00     0.009 C 
HETATM   50  C27 UNL     1     -11.967  10.365  14.434  1.00  0.00     0.012 C 
HETATM   51  C28 UNL     1      -9.578  10.055  15.080  1.00  0.00     0.012 C 
ENDBRANCH  32  49
ENDBRANCH  30  32
ENDBRANCH  27  28
ENDBRANCH  26  27
ENDBRANCH  13  26
TORSDOF 12
ENDMDL
MODEL 6
REMARK minimizedAffinity -8.07225227
REMARK CNNscore 0.205679655
REMARK CNNaffinity 6.99302816
REMARK  12 active torsions:
REMARK  status: ('A' for Active; 'I' for Inactive)
REMARK    1  A    between atoms: C3_3  and  O1_4 
REMARK    2  A    between atoms: N1_14  and  O2_16 
REMARK    3  A    between atoms: O2_16  and  C13_17 
REMARK    4  A    between atoms: C13_17  and  C14_18 
REMARK       I    between atoms: C14_18  and  N2_20 
REMARK    5  A    between atoms: N2_20  and  C15_21 
REMARK    6  A    between atoms: C15_21  and  C16_22 
REMARK    7  A    between atoms: C15_21  and  C26_36 
REMARK       I    between atoms: C16_22  and  N3_24 
REMARK    8  A    between atoms: N3_24  and  C17_25 
REMARK    9  A    between atoms: C17_25  and  C18_26 
REMARK   10  A    between atoms: C17_25  and  C25_33 
REMARK   11  A    between atoms: C18_26  and  C19_27 
REMARK   12  A    between atoms: C25_33  and  O6_35 
ROOT
HETATM    1  C1  UNL     1       1.339   7.185  12.570  1.00  0.00     0.015 C 
HETATM    2  C2  UNL     1       0.609   7.155  13.523  1.00  0.00    -0.078 C 
HETATM    3  C3  UNL     1      -0.280   7.117  14.706  1.00  0.00     0.128 C 
HETATM    4  C4  UNL     1      -0.709   8.542  15.087  1.00  0.00     0.052 C 
HETATM    5  C5  UNL     1      -2.043   8.791  14.369  1.00  0.00     0.010 C 
HETATM    6  C6  UNL     1      -2.417   7.474  13.658  1.00  0.00     0.002 C 
HETATM    7  C7  UNL     1      -3.923   7.174  13.435  1.00  0.00    -0.004 C 
HETATM    8  C8  UNL     1      -4.733   8.437  13.062  1.00  0.00     0.010 C 
HETATM    9  C9  UNL     1      -5.618   8.954  14.189  1.00  0.00     0.035 C 
HETATM   10  C10 UNL     1      -6.549   7.908  14.748  1.00  0.00    -0.069 C 
HETATM   11  C11 UNL     1      -7.668   8.299  15.389  1.00  0.00     0.030 C 
HETATM   12  C12 UNL     1      -8.610   7.317  16.010  1.00  0.00     0.032 C 
HETATM   13  N1  UNL     1      -9.715   7.610  16.627  1.00  0.00    -0.271 N 
ATOM     14  H1  UNL     1     -10.337   6.915  17.042  1.00  0.00     0.194 HD
HETATM   15  C29 UNL     1      -8.266   5.843  15.907  1.00  0.00     0.060 C 
HETATM   16  C30 UNL     1      -6.762   5.640  15.774  1.00  0.00     0.020 C 
HETATM   17  C31 UNL     1      -6.148   6.446  14.594  1.00  0.00    -0.016 C 
HETATM   18  C32 UNL     1      -6.756   5.881  13.278  1.00  0.00     0.020 C 
HETATM   19  C33 UNL     1      -4.583   6.284  14.537  1.00  0.00     0.002 C 
HETATM   20  C34 UNL     1      -3.848   6.466  15.873  1.00  0.00     0.007 C 
HETATM   21  C35 UNL     1      -2.367   6.073  15.797  1.00  0.00     0.014 C 
HETATM   22  C36 UNL     1      -1.646   6.398  14.455  1.00  0.00     0.003 C 
HETATM   23  C37 UNL     1      -1.481   5.090  13.656  1.00  0.00     0.020 C 
ENDROOT
BRANCH   3  24
HETATM   24  O1  UNL     1       0.443   6.526  15.777  1.00  0.00    -0.377 OA
HETATM   25  H2  UNL     1       0.785   5.676  15.455  1.00  0.00     0.211 HD
ENDBRANCH   3  24
BRANCH  13  26
HETATM   26  O2  UNL     1      -9.954   8.991  16.656  1.00  0.00    -0.271 OA
BRANCH  26  27
HETATM   27  C13 UNL     1     -11.250   9.240  16.125  1.00  0.00     0.303 C 
BRANCH  27  28
HETATM   28  C14 UNL     1     -12.102   9.960  17.161  1.00  0.00     0.244 C 
HETATM   29  O3  UNL     1     -12.616  11.057  16.955  1.00  0.00    -0.271 OA
HETATM   30  N2  UNL     1     -12.198   9.304  18.373  1.00  0.00    -0.346 N 
HETATM   31  H16 UNL     1     -11.480   8.607  18.546  1.00  0.00     0.163 HD
BRANCH  30  32
HETATM   32  C15 UNL     1     -12.737   9.984  19.545  1.00  0.00     0.180 C 
BRANCH  32  33
HETATM   33  C16 UNL     1     -11.532  10.193  20.491  1.00  0.00     0.241 C 
HETATM   34  O4  UNL     1     -10.912   9.252  20.985  1.00  0.00    -0.271 OA
HETATM   35  N3  UNL     1     -11.215  11.511  20.735  1.00  0.00    -0.345 N 
HETATM   36  H18 UNL     1     -11.927  12.210  20.556  1.00  0.00     0.163 HD
BRANCH  35  37
HETATM   37  C17 UNL     1     -10.136  11.873  21.665  1.00  0.00     0.186 C 
BRANCH  37  38
HETATM   38  C18 UNL     1      -9.592  13.266  21.320  1.00  0.00     0.074 C 
BRANCH  38  39
HETATM   39  C19 UNL     1      -8.087  13.325  21.231  1.00  0.00    -0.056 A 
HETATM   40  C20 UNL     1      -7.301  13.127  22.375  1.00  0.00     0.007 A 
HETATM   41  C21 UNL     1      -5.910  13.195  22.299  1.00  0.00     0.001 A 
HETATM   42  C22 UNL     1      -5.290  13.463  21.080  1.00  0.00     0.000 A 
HETATM   43  C23 UNL     1      -6.061  13.661  19.937  1.00  0.00     0.001 A 
HETATM   44  C24 UNL     1      -7.454  13.592  20.009  1.00  0.00     0.007 A 
ENDBRANCH  38  39
ENDBRANCH  37  38
BRANCH  37  45
HETATM   45  C25 UNL     1     -10.718  11.880  23.078  1.00  0.00     0.163 C 
HETATM   46  O5  UNL     1     -11.291  12.820  23.611  1.00  0.00    -0.648 OA
BRANCH  45  47
HETATM   47  O6  UNL     1     -10.539  10.722  23.741  1.00  0.00    -0.775 OA
HETATM   48  H27 UNL     1     -10.972  10.854  24.609  1.00  0.00     0.167 HD
ENDBRANCH  45  47
ENDBRANCH  37  45
ENDBRANCH  35  37
ENDBRANCH  32  33
BRANCH  32  49
HETATM   49  C26 UNL     1     -13.843   9.138  20.214  1.00  0.00     0.009 C 
HETATM   50  C27 UNL     1     -14.364   9.782  21.501  1.00  0.00     0.012 C 
HETATM   51  C28 UNL     1     -15.019   8.918  19.255  1.00  0.00     0.012 C 
ENDBRANCH  32  49
ENDBRANCH  30  32
ENDBRANCH  27  28
ENDBRANCH  26  27
ENDBRANCH  13  26
TORSDOF 12
ENDMDL
MODEL 7
REMARK minimizedAffinity -9.97806549
REMARK CNNscore 0.19160454
REMARK CNNaffinity 6.83497286
REMARK  12 active torsions:
REMARK  status: ('A' for Active; 'I' for Inactive)
REMARK    1  A    between atoms: C3_3  and  O1_4 
REMARK    2  A    between atoms: N1_14  and  O2_16 
REMARK    3  A    between atoms: O2_16  and  C13_17 
REMARK    4  A    between atoms: C13_17  and  C14_18 
REMARK       I    between atoms: C14_18  and  N2_20 
REMARK    5  A    between atoms: N2_20  and  C15_21 
REMARK    6  A    between atoms: C15_21  and  C16_22 
REMARK    7  A    between atoms: C15_21  and  C26_36 
REMARK       I    between atoms: C16_22  and  N3_24 
REMARK    8  A    between atoms: N3_24  and  C17_25 
REMARK    9  A    between atoms: C17_25  and  C18_26 
REMARK   10  A    between atoms: C17_25  and  C25_33 
REMARK   11  A    between atoms: C18_26  and  C19_27 
REMARK   12  A    between atoms: C25_33  and  O6_35 
ROOT
HETATM    1  C1  UNL     1       5.786   7.021  10.918  1.00  0.00     0.015 C 
HETATM    2  C2  UNL     1       4.658   7.132  10.520  1.00  0.00    -0.078 C 
HETATM    3  C3  UNL     1       3.273   7.272  10.018  1.00  0.00     0.128 C 
HETATM    4  C4  UNL     1       2.733   5.903   9.578  1.00  0.00     0.052 C 
HETATM    5  C5  UNL     1       1.997   5.324  10.794  1.00  0.00     0.010 C 
HETATM    6  C6  UNL     1       2.039   6.405  11.894  1.00  0.00     0.002 C 
HETATM    7  C7  UNL     1       0.883   6.430  12.928  1.00  0.00    -0.004 C 
HETATM    8  C8  UNL     1       0.423   5.014  13.342  1.00  0.00     0.010 C 
HETATM    9  C9  UNL     1      -0.919   4.605  12.748  1.00  0.00     0.035 C 
HETATM   10  C10 UNL     1      -2.024   5.593  13.028  1.00  0.00    -0.069 C 
HETATM   11  C11 UNL     1      -3.304   5.177  12.984  1.00  0.00     0.030 C 
HETATM   12  C12 UNL     1      -4.451   6.114  13.202  1.00  0.00     0.032 C 
HETATM   13  N1  UNL     1      -5.709   5.790  13.195  1.00  0.00    -0.271 N 
ATOM     14  H1  UNL     1      -6.469   6.454  13.346  1.00  0.00     0.194 HD
HETATM   15  C29 UNL     1      -4.132   7.573  13.471  1.00  0.00     0.060 C 
HETATM   16  C30 UNL     1      -2.795   7.964  12.853  1.00  0.00     0.020 C 
HETATM   17  C31 UNL     1      -1.630   7.039  13.306  1.00  0.00    -0.016 C 
HETATM   18  C32 UNL     1      -1.447   7.237  14.838  1.00  0.00     0.020 C 
HETATM   19  C33 UNL     1      -0.281   7.414  12.584  1.00  0.00     0.002 C 
HETATM   20  C34 UNL     1      -0.375   7.610  11.064  1.00  0.00     0.007 C 
HETATM   21  C35 UNL     1       0.908   8.193  10.458  1.00  0.00     0.014 C 
HETATM   22  C36 UNL     1       2.242   7.719  11.107  1.00  0.00     0.003 C 
HETATM   23  C37 UNL     1       2.786   8.853  11.998  1.00  0.00     0.020 C 
ENDROOT
BRANCH   3  24
HETATM   24  O1  UNL     1       3.297   8.163   8.911  1.00  0.00    -0.377 OA
HETATM   25  H2  UNL     1       3.743   8.972   9.208  1.00  0.00     0.211 HD
ENDBRANCH   3  24
BRANCH  13  26
HETATM   26  O2  UNL     1      -5.901   4.422  12.955  1.00  0.00    -0.271 OA
BRANCH  26  27
HETATM   27  C13 UNL     1      -7.275   4.113  13.157  1.00  0.00     0.303 C 
BRANCH  27  28
HETATM   28  C14 UNL     1      -8.065   5.394  13.380  1.00  0.00     0.244 C 
HETATM   29  O3  UNL     1      -8.110   6.301  12.553  1.00  0.00    -0.271 OA
HETATM   30  N2  UNL     1      -8.675   5.478  14.617  1.00  0.00    -0.346 N 
HETATM   31  H16 UNL     1      -8.302   4.856  15.327  1.00  0.00     0.163 HD
BRANCH  30  32
HETATM   32  C15 UNL     1      -9.229   6.743  15.088  1.00  0.00     0.180 C 
BRANCH  32  33
HETATM   33  C16 UNL     1     -10.511   6.967  14.253  1.00  0.00     0.241 C 
HETATM   34  O4  UNL     1     -10.476   7.320  13.075  1.00  0.00    -0.271 OA
HETATM   35  N3  UNL     1     -11.687   6.745  14.935  1.00  0.00    -0.345 N 
HETATM   36  H18 UNL     1     -11.656   6.759  15.948  1.00  0.00     0.163 HD
BRANCH  35  37
HETATM   37  C17 UNL     1     -12.990   6.979  14.298  1.00  0.00     0.186 C 
BRANCH  37  38
HETATM   38  C18 UNL     1     -14.111   6.395  15.168  1.00  0.00     0.074 C 
BRANCH  38  39
HETATM   39  C19 UNL     1     -15.243   5.788  14.375  1.00  0.00    -0.056 A 
HETATM   40  C20 UNL     1     -15.855   6.517  13.345  1.00  0.00     0.007 A 
HETATM   41  C21 UNL     1     -16.909   5.964  12.618  1.00  0.00     0.001 A 
HETATM   42  C22 UNL     1     -17.366   4.682  12.916  1.00  0.00     0.000 A 
HETATM   43  C23 UNL     1     -16.765   3.949  13.937  1.00  0.00     0.001 A 
HETATM   44  C24 UNL     1     -15.706   4.498  14.665  1.00  0.00     0.007 A 
ENDBRANCH  38  39
ENDBRANCH  37  38
BRANCH  37  45
HETATM   45  C25 UNL     1     -13.178   8.488  14.156  1.00  0.00     0.163 C 
HETATM   46  O5  UNL     1     -12.978   9.142  13.143  1.00  0.00    -0.648 OA
BRANCH  45  47
HETATM   47  O6  UNL     1     -13.591   9.090  15.289  1.00  0.00    -0.775 OA
HETATM   48  H27 UNL     1     -13.691  10.035  15.055  1.00  0.00     0.167 HD
ENDBRANCH  45  47
ENDBRANCH  37  45
ENDBRANCH  35  37
ENDBRANCH  32  33
BRANCH  32  49
HETATM   49  C26 UNL     1      -8.218   7.894  14.894  1.00  0.00     0.009 C 
HETATM   50  C27 UNL     1      -8.834   9.261  15.200  1.00  0.00     0.012 C 
HETATM   51  C28 UNL     1      -6.983   7.694  15.782  1.00  0.00     0.012 C 
ENDBRANCH  32  49
ENDBRANCH  30  32
ENDBRANCH  27  28
ENDBRANCH  26  27
ENDBRANCH  13  26
TORSDOF 12
ENDMDL
MODEL 8
REMARK minimizedAffinity -8.77404404
REMARK CNNscore 0.16173543
REMARK CNNaffinity 7.16448927
REMARK  12 active torsions:
REMARK  status: ('A' for Active; 'I' for Inactive)
REMARK    1  A    between atoms: C3_3  and  O1_4 
REMARK    2  A    between atoms: N1_14  and  O2_16 
REMARK    3  A    between atoms: O2_16  and  C13_17 
REMARK    4  A    between atoms: C13_17  and  C14_18 
REMARK       I    between atoms: C14_18  and  N2_20 
REMARK    5  A    between atoms: N2_20  and  C15_21 
REMARK    6  A    between atoms: C15_21  and  C16_22 
REMARK    7  A    between atoms: C15_21  and  C26_36 
REMARK       I    between atoms: C16_22  and  N3_24 
REMARK    8  A    between atoms: N3_24  and  C17_25 
REMARK    9  A    between atoms: C17_25  and  C18_26 
REMARK   10  A    between atoms: C17_25  and  C25_33 
REMARK   11  A    between atoms: C18_26  and  C19_27 
REMARK   12  A    between atoms: C25_33  and  O6_35 
ROOT
HETATM    1  C1  UNL     1      -1.278   1.437  11.135  1.00  0.00     0.015 C 
HETATM    2  C2  UNL     1      -1.777   2.530  11.133  1.00  0.00    -0.078 C 
HETATM    3  C3  UNL     1      -2.381   3.880  11.124  1.00  0.00     0.128 C 
HETATM    4  C4  UNL     1      -3.485   3.954  10.058  1.00  0.00     0.052 C 
HETATM    5  C5  UNL     1      -4.797   3.615  10.780  1.00  0.00     0.010 C 
HETATM    6  C6  UNL     1      -4.450   3.442  12.273  1.00  0.00     0.002 C 
HETATM    7  C7  UNL     1      -5.555   3.759  13.315  1.00  0.00    -0.004 C 
HETATM    8  C8  UNL     1      -6.957   3.300  12.854  1.00  0.00     0.010 C 
HETATM    9  C9  UNL     1      -7.870   4.443  12.427  1.00  0.00     0.035 C 
HETATM   10  C10 UNL     1      -8.013   5.517  13.475  1.00  0.00    -0.069 C 
HETATM   11  C11 UNL     1      -9.096   6.319  13.450  1.00  0.00     0.030 C 
HETATM   12  C12 UNL     1      -9.278   7.436  14.428  1.00  0.00     0.032 C 
HETATM   13  N1  UNL     1     -10.297   8.240  14.484  1.00  0.00    -0.271 N 
ATOM     14  H1  UNL     1     -10.392   8.995  15.164  1.00  0.00     0.194 HD
HETATM   15  C29 UNL     1      -8.191   7.655  15.465  1.00  0.00     0.060 C 
HETATM   16  C30 UNL     1      -6.844   7.153  14.959  1.00  0.00     0.020 C 
HETATM   17  C31 UNL     1      -6.890   5.670  14.495  1.00  0.00    -0.016 C 
HETATM   18  C32 UNL     1      -7.209   4.800  15.745  1.00  0.00     0.020 C 
HETATM   19  C33 UNL     1      -5.508   5.208  13.897  1.00  0.00     0.002 C 
HETATM   20  C34 UNL     1      -4.873   6.166  12.880  1.00  0.00     0.007 C 
HETATM   21  C35 UNL     1      -3.435   5.777  12.512  1.00  0.00     0.014 C 
HETATM   22  C36 UNL     1      -3.143   4.249  12.440  1.00  0.00     0.003 C 
HETATM   23  C37 UNL     1      -2.361   3.836  13.703  1.00  0.00     0.020 C 
ENDROOT
BRANCH   3  24
HETATM   24  O1  UNL     1      -1.355   4.816  10.824  1.00  0.00    -0.377 OA
HETATM   25  H2  UNL     1      -0.634   4.660  11.456  1.00  0.00     0.211 HD
ENDBRANCH   3  24
BRANCH  13  26
HETATM   26  O2  UNL     1     -11.253   7.949  13.500  1.00  0.00    -0.271 OA
BRANCH  26  27
HETATM   27  C13 UNL     1     -12.115   6.930  13.990  1.00  0.00     0.303 C 
BRANCH  27  28
HETATM   28  C14 UNL     1     -13.519   7.488  14.176  1.00  0.00     0.244 C 
HETATM   29  O3  UNL     1     -14.201   7.259  15.172  1.00  0.00    -0.271 OA
HETATM   30  N2  UNL     1     -13.986   8.221  13.102  1.00  0.00    -0.346 N 
HETATM   31  H16 UNL     1     -13.501   8.063  12.225  1.00  0.00     0.163 HD
BRANCH  30  32
HETATM   32  C15 UNL     1     -15.396   8.583  13.006  1.00  0.00     0.180 C 
BRANCH  32  33
HETATM   33  C16 UNL     1     -16.109   7.321  12.467  1.00  0.00     0.241 C 
HETATM   34  O4  UNL     1     -15.965   6.928  11.310  1.00  0.00    -0.271 OA
HETATM   35  N3  UNL     1     -16.915   6.681  13.382  1.00  0.00    -0.345 N 
HETATM   36  H18 UNL     1     -17.224   7.208  14.191  1.00  0.00     0.163 HD
BRANCH  35  37
HETATM   37  C17 UNL     1     -17.710   5.505  13.003  1.00  0.00     0.186 C 
BRANCH  37  38
HETATM   38  C18 UNL     1     -17.826   4.544  14.193  1.00  0.00     0.074 C 
BRANCH  38  39
HETATM   39  C19 UNL     1     -17.021   3.278  14.032  1.00  0.00    -0.056 A 
HETATM   40  C20 UNL     1     -15.928   3.022  14.872  1.00  0.00     0.007 A 
HETATM   41  C21 UNL     1     -15.174   1.859  14.718  1.00  0.00     0.001 A 
HETATM   42  C22 UNL     1     -15.502   0.942  13.722  1.00  0.00     0.000 A 
HETATM   43  C23 UNL     1     -16.586   1.186  12.881  1.00  0.00     0.001 A 
HETATM   44  C24 UNL     1     -17.346   2.348  13.035  1.00  0.00     0.007 A 
ENDBRANCH  38  39
ENDBRANCH  37  38
BRANCH  37  45
HETATM   45  C25 UNL     1     -19.100   5.992  12.594  1.00  0.00     0.163 C 
HETATM   46  O5  UNL     1     -19.366   7.094  12.137  1.00  0.00    -0.648 OA
BRANCH  45  47
HETATM   47  O6  UNL     1     -20.071   5.079  12.791  1.00  0.00    -0.775 OA
HETATM   48  H27 UNL     1     -20.892   5.506  12.471  1.00  0.00     0.167 HD
ENDBRANCH  45  47
ENDBRANCH  37  45
ENDBRANCH  35  37
ENDBRANCH  32  33
BRANCH  32  49
HETATM   49  C26 UNL     1     -15.593   9.791  12.065  1.00  0.00     0.009 C 
HETATM   50  C27 UNL     1     -17.036  10.300  12.072  1.00  0.00     0.012 C 
HETATM   51  C28 UNL     1     -14.656  10.943  12.449  1.00  0.00     0.012 C 
ENDBRANCH  32  49
ENDBRANCH  30  32
ENDBRANCH  27  28
ENDBRANCH  26  27
ENDBRANCH  13  26
TORSDOF 12
ENDMDL
MODEL 9
REMARK minimizedAffinity -10.0555391
REMARK CNNscore 0.157304883
REMARK CNNaffinity 7.38446617
REMARK  12 active torsions:
REMARK  status: ('A' for Active; 'I' for Inactive)
REMARK    1  A    between atoms: C3_3  and  O1_4 
REMARK    2  A    between atoms: N1_14  and  O2_16 
REMARK    3  A    between atoms: O2_16  and  C13_17 
REMARK    4  A    between atoms: C13_17  and  C14_18 
REMARK       I    between atoms: C14_18  and  N2_20 
REMARK    5  A    between atoms: N2_20  and  C15_21 
REMARK    6  A    between atoms: C15_21  and  C16_22 
REMARK    7  A    between atoms: C15_21  and  C26_36 
REMARK       I    between atoms: C16_22  and  N3_24 
REMARK    8  A    between atoms: N3_24  and  C17_25 
REMARK    9  A    between atoms: C17_25  and  C18_26 
REMARK   10  A    between atoms: C17_25  and  C25_33 
REMARK   11  A    between atoms: C18_26  and  C19_27 
REMARK   12  A    between atoms: C25_33  and  O6_35 
ROOT
HETATM    1  C1  UNL     1     -13.985   9.392  15.726  1.00  0.00     0.015 C 
HETATM    2  C2  UNL     1     -13.232   9.147  14.823  1.00  0.00    -0.078 C 
HETATM    3  C3  UNL     1     -12.312   8.851  13.702  1.00  0.00     0.128 C 
HETATM    4  C4  UNL     1     -11.209   9.918  13.632  1.00  0.00     0.052 C 
HETATM    5  C5  UNL     1     -10.032   9.368  14.451  1.00  0.00     0.010 C 
HETATM    6  C6  UNL     1     -10.433   7.949  14.906  1.00  0.00     0.002 C 
HETATM    7  C7  UNL     1      -9.298   6.917  15.140  1.00  0.00    -0.004 C 
HETATM    8  C8  UNL     1      -8.047   7.545  15.795  1.00  0.00     0.010 C 
HETATM    9  C9  UNL     1      -6.875   7.719  14.838  1.00  0.00     0.035 C 
HETATM   10  C10 UNL     1      -6.485   6.446  14.131  1.00  0.00    -0.069 C 
HETATM   11  C11 UNL     1      -5.237   6.324  13.637  1.00  0.00     0.030 C 
HETATM   12  C12 UNL     1      -4.798   5.110  12.881  1.00  0.00     0.032 C 
HETATM   13  N1  UNL     1      -3.613   4.907  12.390  1.00  0.00    -0.271 N 
ATOM     14  H1  UNL     1      -3.344   4.066  11.878  1.00  0.00     0.194 HD
HETATM   15  C29 UNL     1      -5.812   4.000  12.674  1.00  0.00     0.060 C 
HETATM   16  C30 UNL     1      -7.234   4.547  12.689  1.00  0.00     0.020 C 
HETATM   17  C31 UNL     1      -7.549   5.367  13.973  1.00  0.00    -0.016 C 
HETATM   18  C32 UNL     1      -7.474   4.388  15.180  1.00  0.00     0.020 C 
HETATM   19  C33 UNL     1      -8.994   5.991  13.918  1.00  0.00     0.002 C 
HETATM   20  C34 UNL     1      -9.358   6.707  12.610  1.00  0.00     0.007 C 
HETATM   21  C35 UNL     1     -10.842   7.089  12.532  1.00  0.00     0.014 C 
HETATM   22  C36 UNL     1     -11.502   7.524  13.874  1.00  0.00     0.003 C 
HETATM   23  C37 UNL     1     -12.379   6.365  14.390  1.00  0.00     0.020 C 
ENDROOT
BRANCH   3  24
HETATM   24  O1  UNL     1     -13.071   8.859  12.501  1.00  0.00    -0.377 OA
HETATM   25  H2  UNL     1     -13.816   8.251  12.631  1.00  0.00     0.211 HD
ENDBRANCH   3  24
BRANCH  13  26
HETATM   26  O2  UNL     1      -2.745   5.977  12.647  1.00  0.00    -0.271 OA
BRANCH  26  27
HETATM   27  C13 UNL     1      -2.044   5.716  13.857  1.00  0.00     0.303 C 
BRANCH  27  28
HETATM   28  C14 UNL     1      -0.685   6.402  13.824  1.00  0.00     0.244 C 
HETATM   29  O3  UNL     1       0.362   5.819  14.096  1.00  0.00    -0.271 OA
HETATM   30  N2  UNL     1      -0.735   7.749  13.523  1.00  0.00    -0.346 N 
HETATM   31  H16 UNL     1      -1.640   8.189  13.654  1.00  0.00     0.163 HD
BRANCH  30  32
HETATM   32  C15 UNL     1       0.434   8.599  13.724  1.00  0.00     0.180 C 
BRANCH  32  33
HETATM   33  C16 UNL     1       1.653   7.702  13.411  1.00  0.00     0.241 C 
HETATM   34  O4  UNL     1       2.448   7.344  14.279  1.00  0.00    -0.271 OA
HETATM   35  N3  UNL     1       1.777   7.341  12.087  1.00  0.00    -0.345 N 
HETATM   36  H18 UNL     1       1.289   7.900  11.397  1.00  0.00     0.163 HD
BRANCH  35  37
HETATM   37  C17 UNL     1       2.920   6.545  11.619  1.00  0.00     0.186 C 
BRANCH  37  38
HETATM   38  C18 UNL     1       2.481   5.612  10.484  1.00  0.00     0.074 C 
BRANCH  38  39
HETATM   39  C19 UNL     1       2.085   6.337   9.220  1.00  0.00    -0.056 A 
HETATM   40  C20 UNL     1       1.127   7.361   9.263  1.00  0.00     0.007 A 
HETATM   41  C21 UNL     1       0.749   8.024   8.095  1.00  0.00     0.001 A 
HETATM   42  C22 UNL     1       1.320   7.669   6.875  1.00  0.00     0.000 A 
HETATM   43  C23 UNL     1       2.273   6.653   6.822  1.00  0.00     0.001 A 
HETATM   44  C24 UNL     1       2.656   5.989   7.989  1.00  0.00     0.007 A 
ENDBRANCH  38  39
ENDBRANCH  37  38
BRANCH  37  45
HETATM   45  C25 UNL     1       3.988   7.512  11.110  1.00  0.00     0.163 C 
HETATM   46  O5  UNL     1       4.042   8.710  11.352  1.00  0.00    -0.648 OA
BRANCH  45  47
HETATM   47  O6  UNL     1       4.913   6.930  10.323  1.00  0.00    -0.775 OA
HETATM   48  H27 UNL     1       5.538   7.646  10.090  1.00  0.00     0.167 HD
ENDBRANCH  45  47
ENDBRANCH  37  45
ENDBRANCH  35  37
ENDBRANCH  32  33
BRANCH  32  49
HETATM   49  C26 UNL     1       0.483   9.137  15.170  1.00  0.00     0.009 C 
HETATM   50  C27 UNL     1       0.393  10.664  15.221  1.00  0.00     0.012 C 
HETATM   51  C28 UNL     1      -0.652   8.543  16.014  1.00  0.00     0.012 C 
ENDBRANCH  32  49
ENDBRANCH  30  32
ENDBRANCH  27  28
ENDBRANCH  26  27
ENDBRANCH  13  26
TORSDOF 12
ENDMDL
