MODEL 1
REMARK minimizedAffinity -7.47451687
REMARK CNNscore 0.462288469
REMARK CNNaffinity 7.43230963
REMARK  11 active torsions:
REMARK  status: ('A' for Active; 'I' for Inactive)
REMARK    1  A    between atoms: C13_13  and  S1_14 
REMARK    2  A    between atoms: C22_26  and  C23_27 
REMARK    3  A    between atoms: C23_27  and  O4_28 
REMARK    4  A    between atoms: C29_34  and  O5_35 
REMARK    5  A    between atoms: C41_48  and  C42_49 
REMARK    6  A    between atoms: C41_48  and  N1_60 
REMARK    7  A    between atoms: C42_49  and  C43_50 
REMARK    8  A    between atoms: C43_50  and  C44_51 
REMARK    9  A    between atoms: C43_50  and  C45_53 
REMARK   10  A    between atoms: C44_51  and  O7_52 
REMARK   11  A    between atoms: C45_53  and  C46_54 
REMARK       I    between atoms: C52_62  and  N2_63 
REMARK       I    between atoms: C52_62  and  N3_64 
ROOT
HETATM    1  C1  UNL     1       4.060   9.356  22.277  1.00  0.00     0.010 C 
HETATM    2  C2  UNL     1       4.432  10.653  23.014  1.00  0.00    -0.010 C 
HETATM    3  C3  UNL     1       3.185  11.508  23.302  1.00  0.00     0.009 C 
HETATM    4  C4  UNL     1       2.741  12.446  22.166  1.00  0.00     0.039 C 
HETATM    5  C5  UNL     1       3.587  12.421  20.924  1.00  0.00    -0.049 C 
HETATM    6  C6  UNL     1       3.055  12.887  19.706  1.00  0.00     0.044 C 
HETATM    7  C7  UNL     1       3.807  12.828  18.532  1.00  0.00     0.073 C 
HETATM    8  C8  UNL     1       5.031  12.167  18.540  1.00  0.00     0.037 C 
HETATM    9  C9  UNL     1       5.589  11.761  19.753  1.00  0.00     0.011 C 
HETATM   10  C10 UNL     1       4.905  11.937  20.961  1.00  0.00    -0.047 C 
HETATM   11  C11 UNL     1       5.527  11.476  22.265  1.00  0.00     0.024 C 
HETATM   12  C12 UNL     1       6.032  12.614  23.206  1.00  0.00     0.033 C 
HETATM   13  C13 UNL     1       7.396  13.351  23.013  1.00  0.00     0.140 C 
HETATM   14  C14 UNL     1       7.277  14.847  22.550  1.00  0.00     0.050 C 
HETATM   15  C15 UNL     1       7.578  15.799  23.721  1.00  0.00    -0.013 C 
HETATM   16  C16 UNL     1       8.654  16.616  23.730  1.00  0.00    -0.050 C 
HETATM   17  C17 UNL     1       9.634  16.511  22.598  1.00  0.00     0.043 C 
HETATM   18  C18 UNL     1       8.785  16.672  21.343  1.00  0.00     0.013 C 
HETATM   19  C19 UNL     1       7.942  18.000  21.359  1.00  0.00     0.038 C 
HETATM   20  C20 UNL     1       8.413  19.114  22.338  1.00  0.00     0.123 C 
HETATM   21  C21 UNL     1       7.795  20.479  21.940  1.00  0.00     0.039 C 
HETATM   22  C22 UNL     1       8.480  21.706  22.622  1.00  0.00     0.023 C 
HETATM   23  C24 UNL     1       7.727  22.234  23.869  1.00  0.00     0.101 C 
HETATM   24  C25 UNL     1       7.778  21.309  25.006  1.00  0.00    -0.101 C 
HETATM   25  C26 UNL     1       7.815  20.413  25.805  1.00  0.00    -0.066 C 
HETATM   26  C27 UNL     1       7.863  19.184  26.547  1.00  0.00     0.029 A 
HETATM   27  C28 UNL     1       7.483  19.206  27.894  1.00  0.00     0.057 A 
HETATM   28  C29 UNL     1       7.548  18.041  28.649  1.00  0.00     0.067 A 
HETATM   29  C30 UNL     1       8.011  16.861  28.088  1.00  0.00     0.037 A 
HETATM   30  C31 UNL     1       8.390  16.832  26.743  1.00  0.00     0.014 A 
HETATM   31  C32 UNL     1       8.286  17.978  25.928  1.00  0.00    -0.006 A 
HETATM   32  C33 UNL     1       8.734  17.932  24.463  1.00  0.00     0.185 C 
HETATM   33  O6  UNL     1       7.940  18.830  23.663  1.00  0.00    -0.371 OA
HETATM   34  C34 UNL     1       7.952  15.343  21.198  1.00  0.00     0.102 A 
HETATM   35  C35 UNL     1       7.008  15.415  20.002  1.00  0.00     0.081 A 
HETATM   36  C36 UNL     1       5.687  15.866  20.104  1.00  0.00     0.006 C 
HETATM   37  C37 UNL     1       4.798  15.715  19.040  1.00  0.00     0.010 C 
HETATM   38  C38 UNL     1       5.202  15.111  17.838  1.00  0.00    -0.003 C 
HETATM   39  C39 UNL     1       6.573  14.855  17.672  1.00  0.00     0.010 C 
HETATM   40  C40 UNL     1       7.458  14.985  18.749  1.00  0.00     0.006 C 
HETATM   41  C41 UNL     1       4.099  14.583  16.864  1.00  0.00     0.171 C 
HETATM   42  O8  UNL     1       3.311  13.465  17.422  1.00  0.00    -0.316 OA
HETATM   43 NA1  UNL     1       5.616  15.362  20.235  1.00  0.00    -0.223 Na
ENDROOT
BRANCH  41  44
HETATM   44  C42 UNL     1       4.707  14.012  15.532  1.00  0.00     0.074 C 
BRANCH  44  45
HETATM   45  C43 UNL     1       3.737  13.306  14.537  1.00  0.00     0.018 C 
BRANCH  45  46
HETATM   46  C44 UNL     1       3.951  11.782  14.640  1.00  0.00     0.169 C 
BRANCH  46  47
HETATM   47  O7  UNL     1       4.489  11.261  13.430  1.00  0.00    -0.400 OA
HETATM   48  H47 UNL     1       4.486  10.291  13.511  1.00  0.00     0.209 HD
ENDBRANCH  46  47
ENDBRANCH  45  46
BRANCH  45  49
HETATM   49  C45 UNL     1       3.918  13.807  13.088  1.00  0.00     0.045 C 
BRANCH  49  50
HETATM   50  C46 UNL     1       2.756  14.596  12.522  1.00  0.00    -0.058 A 
HETATM   51  C47 UNL     1       1.616  14.853  13.297  1.00  0.00     0.007 A 
HETATM   52  C48 UNL     1       0.559  15.598  12.774  1.00  0.00     0.001 A 
HETATM   53  C49 UNL     1       0.631  16.100  11.476  1.00  0.00     0.000 A 
HETATM   54  C50 UNL     1       1.761  15.853  10.697  1.00  0.00     0.001 A 
HETATM   55  C51 UNL     1       2.817  15.104  11.217  1.00  0.00     0.007 A 
ENDBRANCH  49  50
ENDBRANCH  45  49
ENDBRANCH  44  45
ENDBRANCH  41  44
BRANCH  41  56
HETATM   56  N1  UNL     1       3.342  15.785  16.426  1.00  0.00    -0.336 N 
HETATM   57  C52 UNL     1       2.099  15.929  16.658  1.00  0.00     0.124 C 
HETATM   58  N2  UNL     1       1.191  15.093  17.221  1.00  0.00    -0.279 NA
HETATM   59  N3  UNL     1       1.491  17.061  16.231  1.00  0.00    -0.279 NA
HETATM   60  H55 UNL     1       0.598  14.716  16.489  1.00  0.00     0.126 HD
HETATM   61  H56 UNL     1       0.541  15.594  17.812  1.00  0.00     0.126 HD
HETATM   62  H57 UNL     1       2.211  17.679  15.855  1.00  0.00     0.126 HD
HETATM   63  H58 UNL     1       0.989  17.552  16.961  1.00  0.00     0.126 HD
ATOM     64  H1  UNL     1       3.836  16.520  15.921  1.00  0.00     0.165 HD
ENDBRANCH  41  56
BRANCH  13  65
HETATM   65  S1  UNL     1       8.733  12.348  22.396  1.00  0.00     0.106 S 
HETATM   66  O1  UNL     1       8.709  11.163  23.247  1.00  0.00    -0.595 OA
HETATM   67  O2  UNL     1       8.340  12.084  21.012  1.00  0.00    -0.595 OA
HETATM   68  O3  UNL     1       9.929  13.168  22.536  1.00  0.00    -0.595 OA
ENDBRANCH  13  65
BRANCH  22  69
HETATM   69  C23 UNL     1       8.604  22.841  21.583  1.00  0.00     0.169 C 
BRANCH  69  70
HETATM   70  O4  UNL     1       7.944  22.514  20.368  1.00  0.00    -0.400 OA
HETATM   71  H29 UNL     1       8.537  21.954  19.840  1.00  0.00     0.209 HD
ENDBRANCH  69  70
ENDBRANCH  22  69
BRANCH  28  72
HETATM   72  O5  UNL     1       7.163  18.019  29.956  1.00  0.00    -0.361 OA
HETATM   73  H33 UNL     1       6.764  18.876  30.174  1.00  0.00     0.217 HD
ENDBRANCH  28  72
TORSDOF 11
ENDMDL
MODEL 2
REMARK minimizedAffinity -7.72725391
REMARK CNNscore 0.458234578
REMARK CNNaffinity 7.48567438
REMARK  11 active torsions:
REMARK  status: ('A' for Active; 'I' for Inactive)
REMARK    1  A    between atoms: C13_13  and  S1_14 
REMARK    2  A    between atoms: C22_26  and  C23_27 
REMARK    3  A    between atoms: C23_27  and  O4_28 
REMARK    4  A    between atoms: C29_34  and  O5_35 
REMARK    5  A    between atoms: C41_48  and  C42_49 
REMARK    6  A    between atoms: C41_48  and  N1_60 
REMARK    7  A    between atoms: C42_49  and  C43_50 
REMARK    8  A    between atoms: C43_50  and  C44_51 
REMARK    9  A    between atoms: C43_50  and  C45_53 
REMARK   10  A    between atoms: C44_51  and  O7_52 
REMARK   11  A    between atoms: C45_53  and  C46_54 
REMARK       I    between atoms: C52_62  and  N2_63 
REMARK       I    between atoms: C52_62  and  N3_64 
ROOT
HETATM    1  C1  UNL     1       4.027   9.290  22.543  1.00  0.00     0.010 C 
HETATM    2  C2  UNL     1       4.385  10.663  23.134  1.00  0.00    -0.010 C 
HETATM    3  C3  UNL     1       3.136  11.554  23.268  1.00  0.00     0.009 C 
HETATM    4  C4  UNL     1       2.747  12.352  22.011  1.00  0.00     0.039 C 
HETATM    5  C5  UNL     1       3.641  12.174  20.816  1.00  0.00    -0.049 C 
HETATM    6  C6  UNL     1       3.162  12.495  19.531  1.00  0.00     0.044 C 
HETATM    7  C7  UNL     1       3.959  12.291  18.404  1.00  0.00     0.073 C 
HETATM    8  C8  UNL     1       5.174  11.628  18.539  1.00  0.00     0.037 C 
HETATM    9  C9  UNL     1       5.680  11.367  19.813  1.00  0.00     0.011 C 
HETATM   10  C10 UNL     1       4.951  11.690  20.963  1.00  0.00    -0.047 C 
HETATM   11  C11 UNL     1       5.517  11.384  22.338  1.00  0.00     0.024 C 
HETATM   12  C12 UNL     1       5.997  12.624  23.155  1.00  0.00     0.033 C 
HETATM   13  C13 UNL     1       7.376  13.323  22.931  1.00  0.00     0.140 C 
HETATM   14  C14 UNL     1       7.291  14.754  22.289  1.00  0.00     0.050 C 
HETATM   15  C15 UNL     1       7.557  15.837  23.349  1.00  0.00    -0.013 C 
HETATM   16  C16 UNL     1       8.640  16.643  23.303  1.00  0.00    -0.050 C 
HETATM   17  C17 UNL     1       9.663  16.397  22.232  1.00  0.00     0.043 C 
HETATM   18  C18 UNL     1       8.865  16.412  20.933  1.00  0.00     0.013 C 
HETATM   19  C19 UNL     1       8.037  17.738  20.757  1.00  0.00     0.038 C 
HETATM   20  C20 UNL     1       8.482  18.958  21.615  1.00  0.00     0.123 C 
HETATM   21  C21 UNL     1       7.895  20.270  21.033  1.00  0.00     0.039 C 
HETATM   22  C22 UNL     1       8.566  21.565  21.590  1.00  0.00     0.023 C 
HETATM   23  C24 UNL     1       7.770  22.243  22.734  1.00  0.00     0.101 C 
HETATM   24  C25 UNL     1       7.767  21.460  23.975  1.00  0.00    -0.101 C 
HETATM   25  C26 UNL     1       7.763  20.665  24.876  1.00  0.00    -0.066 C 
HETATM   26  C27 UNL     1       7.768  19.534  25.760  1.00  0.00     0.029 A 
HETATM   27  C28 UNL     1       7.337  19.720  27.079  1.00  0.00     0.057 A 
HETATM   28  C29 UNL     1       7.359  18.652  27.969  1.00  0.00     0.067 A 
HETATM   29  C30 UNL     1       7.830  17.411  27.571  1.00  0.00     0.037 A 
HETATM   30  C31 UNL     1       8.262  17.219  26.256  1.00  0.00     0.014 A 
HETATM   31  C32 UNL     1       8.202  18.260  25.307  1.00  0.00    -0.006 A 
HETATM   32  C33 UNL     1       8.707  18.036  23.877  1.00  0.00     0.185 C 
HETATM   33  O6  UNL     1       7.954  18.837  22.944  1.00  0.00    -0.371 OA
HETATM   34  C34 UNL     1       8.024  15.081  20.915  1.00  0.00     0.102 A 
HETATM   35  C35 UNL     1       7.128  15.015  19.682  1.00  0.00     0.081 A 
HETATM   36  C36 UNL     1       5.809  15.483  19.677  1.00  0.00     0.006 C 
HETATM   37  C37 UNL     1       4.961  15.212  18.603  1.00  0.00     0.010 C 
HETATM   38  C38 UNL     1       5.405  14.466  17.499  1.00  0.00    -0.003 C 
HETATM   39  C39 UNL     1       6.778  14.183  17.420  1.00  0.00     0.010 C 
HETATM   40  C40 UNL     1       7.622  14.435  18.508  1.00  0.00     0.006 C 
HETATM   41  C41 UNL     1       4.335  13.832  16.551  1.00  0.00     0.171 C 
HETATM   42  O8  UNL     1       3.514  12.794  17.207  1.00  0.00    -0.316 OA
HETATM   43 NA1  UNL     1       5.728  14.999  19.864  1.00  0.00    -0.223 Na
ENDROOT
BRANCH  41  44
HETATM   44  C42 UNL     1       4.988  13.102  15.323  1.00  0.00     0.074 C 
BRANCH  44  45
HETATM   45  C43 UNL     1       4.369  11.743  14.874  1.00  0.00     0.018 C 
BRANCH  45  46
HETATM   46  C44 UNL     1       5.375  10.618  15.188  1.00  0.00     0.169 C 
BRANCH  46  47
HETATM   47  O7  UNL     1       4.720   9.499  15.776  1.00  0.00    -0.400 OA
HETATM   48  H47 UNL     1       5.415   8.880  16.061  1.00  0.00     0.209 HD
ENDBRANCH  46  47
ENDBRANCH  45  46
BRANCH  45  49
HETATM   49  C45 UNL     1       3.969  11.747  13.383  1.00  0.00     0.045 C 
BRANCH  49  50
HETATM   50  C46 UNL     1       4.948  11.071  12.445  1.00  0.00    -0.058 A 
HETATM   51  C47 UNL     1       6.148  11.699  12.084  1.00  0.00     0.007 A 
HETATM   52  C48 UNL     1       7.053  11.060  11.237  1.00  0.00     0.001 A 
HETATM   53  C49 UNL     1       6.773   9.785  10.746  1.00  0.00     0.000 A 
HETATM   54  C50 UNL     1       5.583   9.150  11.101  1.00  0.00     0.001 A 
HETATM   55  C51 UNL     1       4.675   9.790  11.945  1.00  0.00     0.007 A 
ENDBRANCH  49  50
ENDBRANCH  45  49
ENDBRANCH  44  45
ENDBRANCH  41  44
BRANCH  41  56
HETATM   56  N1  UNL     1       3.609  14.978  15.943  1.00  0.00    -0.336 N 
HETATM   57  C52 UNL     1       2.396  14.893  15.566  1.00  0.00     0.124 C 
HETATM   58  N2  UNL     1       1.543  13.839  15.526  1.00  0.00    -0.279 NA
HETATM   59  N3  UNL     1       1.810  15.990  15.031  1.00  0.00    -0.279 NA
HETATM   60  H55 UNL     1       1.442  13.538  14.562  1.00  0.00     0.126 HD
HETATM   61  H56 UNL     1       0.605  14.111  15.786  1.00  0.00     0.126 HD
HETATM   62  H57 UNL     1       2.465  16.768  15.119  1.00  0.00     0.126 HD
HETATM   63  H58 UNL     1       0.939  16.245  15.481  1.00  0.00     0.126 HD
ATOM     64  H1  UNL     1       4.100  15.864  15.824  1.00  0.00     0.165 HD
ENDBRANCH  41  56
BRANCH  13  65
HETATM   65  S1  UNL     1       8.724  12.246  22.492  1.00  0.00     0.106 S 
HETATM   66  O1  UNL     1       8.492  11.942  21.084  1.00  0.00    -0.595 OA
HETATM   67  O2  UNL     1       9.905  13.077  22.725  1.00  0.00    -0.595 OA
HETATM   68  O3  UNL     1       8.611  11.099  23.383  1.00  0.00    -0.595 OA
ENDBRANCH  13  65
BRANCH  22  69
HETATM   69  C23 UNL     1       8.743  22.566  20.429  1.00  0.00     0.169 C 
BRANCH  69  70
HETATM   70  O4  UNL     1       7.542  23.276  20.161  1.00  0.00    -0.400 OA
HETATM   71  H29 UNL     1       6.976  22.718  19.603  1.00  0.00     0.209 HD
ENDBRANCH  69  70
ENDBRANCH  22  69
BRANCH  28  72
HETATM   72  O5  UNL     1       6.924  18.790  29.252  1.00  0.00    -0.361 OA
HETATM   73  H33 UNL     1       6.526  19.669  29.351  1.00  0.00     0.217 HD
ENDBRANCH  28  72
TORSDOF 11
ENDMDL
MODEL 3
REMARK minimizedAffinity -7.55901861
REMARK CNNscore 0.233726069
REMARK CNNaffinity 6.9048562
REMARK  11 active torsions:
REMARK  status: ('A' for Active; 'I' for Inactive)
REMARK    1  A    between atoms: C13_13  and  S1_14 
REMARK    2  A    between atoms: C22_26  and  C23_27 
REMARK    3  A    between atoms: C23_27  and  O4_28 
REMARK    4  A    between atoms: C29_34  and  O5_35 
REMARK    5  A    between atoms: C41_48  and  C42_49 
REMARK    6  A    between atoms: C41_48  and  N1_60 
REMARK    7  A    between atoms: C42_49  and  C43_50 
REMARK    8  A    between atoms: C43_50  and  C44_51 
REMARK    9  A    between atoms: C43_50  and  C45_53 
REMARK   10  A    between atoms: C44_51  and  O7_52 
REMARK   11  A    between atoms: C45_53  and  C46_54 
REMARK       I    between atoms: C52_62  and  N2_63 
REMARK       I    between atoms: C52_62  and  N3_64 
ROOT
HETATM    1  C1  UNL     1       4.009   9.227  22.464  1.00  0.00     0.010 C 
HETATM    2  C2  UNL     1       4.381  10.566  23.123  1.00  0.00    -0.010 C 
HETATM    3  C3  UNL     1       3.131  11.428  23.376  1.00  0.00     0.009 C 
HETATM    4  C4  UNL     1       2.669  12.298  22.194  1.00  0.00     0.039 C 
HETATM    5  C5  UNL     1       3.502  12.208  20.946  1.00  0.00    -0.049 C 
HETATM    6  C6  UNL     1       2.954  12.603  19.710  1.00  0.00     0.044 C 
HETATM    7  C7  UNL     1       3.694  12.482  18.533  1.00  0.00     0.073 C 
HETATM    8  C8  UNL     1       4.922  11.830  18.564  1.00  0.00     0.037 C 
HETATM    9  C9  UNL     1       5.496  11.497  19.792  1.00  0.00     0.011 C 
HETATM   10  C10 UNL     1       4.823  11.736  20.996  1.00  0.00    -0.047 C 
HETATM   11  C11 UNL     1       5.462  11.352  22.317  1.00  0.00     0.024 C 
HETATM   12  C12 UNL     1       5.970  12.545  23.187  1.00  0.00     0.033 C 
HETATM   13  C13 UNL     1       7.327  13.277  22.938  1.00  0.00     0.140 C 
HETATM   14  C14 UNL     1       7.192  14.744  22.394  1.00  0.00     0.050 C 
HETATM   15  C15 UNL     1       7.500  15.763  23.506  1.00  0.00    -0.013 C 
HETATM   16  C16 UNL     1       8.569  16.586  23.457  1.00  0.00    -0.050 C 
HETATM   17  C17 UNL     1       9.539  16.423  22.322  1.00  0.00     0.043 C 
HETATM   18  C18 UNL     1       8.676  16.508  21.069  1.00  0.00     0.013 C 
HETATM   19  C19 UNL     1       7.824  17.830  21.020  1.00  0.00     0.038 C 
HETATM   20  C20 UNL     1       8.298  19.000  21.931  1.00  0.00     0.123 C 
HETATM   21  C21 UNL     1       7.666  20.337  21.464  1.00  0.00     0.039 C 
HETATM   22  C22 UNL     1       8.350  21.605  22.068  1.00  0.00     0.023 C 
HETATM   23  C24 UNL     1       7.606  22.197  23.291  1.00  0.00     0.101 C 
HETATM   24  C25 UNL     1       7.676  21.337  24.478  1.00  0.00    -0.101 C 
HETATM   25  C26 UNL     1       7.727  20.487  25.326  1.00  0.00    -0.066 C 
HETATM   26  C27 UNL     1       7.791  19.302  26.135  1.00  0.00     0.029 A 
HETATM   27  C28 UNL     1       7.426  19.398  27.483  1.00  0.00     0.057 A 
HETATM   28  C29 UNL     1       7.506  18.277  28.301  1.00  0.00     0.067 A 
HETATM   29  C30 UNL     1       7.971  17.071  27.801  1.00  0.00     0.037 A 
HETATM   30  C31 UNL     1       8.337  16.968  26.457  1.00  0.00     0.014 A 
HETATM   31  C32 UNL     1       8.216  18.067  25.580  1.00  0.00    -0.006 A 
HETATM   32  C33 UNL     1       8.649  17.941  24.115  1.00  0.00     0.185 C 
HETATM   33  O6  UNL     1       7.840  18.788  23.274  1.00  0.00    -0.371 OA
HETATM   34  C34 UNL     1       7.850  15.168  21.009  1.00  0.00     0.102 A 
HETATM   35  C35 UNL     1       6.893  15.167  19.820  1.00  0.00     0.081 A 
HETATM   36  C36 UNL     1       5.570  15.615  19.912  1.00  0.00     0.006 C 
HETATM   37  C37 UNL     1       4.671  15.399  18.868  1.00  0.00     0.010 C 
HETATM   38  C38 UNL     1       5.066  14.731  17.697  1.00  0.00    -0.003 C 
HETATM   39  C39 UNL     1       6.437  14.475  17.531  1.00  0.00     0.010 C 
HETATM   40  C40 UNL     1       7.332  14.670  18.589  1.00  0.00     0.006 C 
HETATM   41  C41 UNL     1       3.956  14.142  16.766  1.00  0.00     0.171 C 
HETATM   42  O8  UNL     1       3.182  13.053  17.394  1.00  0.00    -0.316 OA
HETATM   43 NA1  UNL     1       5.504  15.119  20.072  1.00  0.00    -0.223 Na
ENDROOT
BRANCH  41  44
HETATM   44  C42 UNL     1       4.554  13.501  15.462  1.00  0.00     0.074 C 
BRANCH  44  45
HETATM   45  C43 UNL     1       3.750  12.350  14.786  1.00  0.00     0.018 C 
BRANCH  45  46
HETATM   46  C44 UNL     1       3.978  12.420  13.263  1.00  0.00     0.169 C 
BRANCH  46  47
HETATM   47  O7  UNL     1       3.097  13.361  12.659  1.00  0.00    -0.400 OA
HETATM   48  H47 UNL     1       3.202  13.272  11.695  1.00  0.00     0.209 HD
ENDBRANCH  46  47
ENDBRANCH  45  46
BRANCH  45  49
HETATM   49  C45 UNL     1       2.247  12.401  15.137  1.00  0.00     0.045 C 
BRANCH  49  50
HETATM   50  C46 UNL     1       1.579  11.057  15.337  1.00  0.00    -0.058 A 
HETATM   51  C47 UNL     1       2.256  10.005  15.969  1.00  0.00     0.007 A 
HETATM   52  C48 UNL     1       1.625   8.777  16.168  1.00  0.00     0.001 A 
HETATM   53  C49 UNL     1       0.310   8.588  15.745  1.00  0.00     0.000 A 
HETATM   54  C50 UNL     1      -0.373   9.629  15.117  1.00  0.00     0.001 A 
HETATM   55  C51 UNL     1       0.257  10.856  14.914  1.00  0.00     0.007 A 
ENDBRANCH  49  50
ENDBRANCH  45  49
ENDBRANCH  44  45
ENDBRANCH  41  44
BRANCH  41  56
HETATM   56  N1  UNL     1       3.187  15.313  16.270  1.00  0.00    -0.336 N 
HETATM   57  C52 UNL     1       3.622  16.072  15.345  1.00  0.00     0.124 C 
HETATM   58  N2  UNL     1       4.808  16.091  14.687  1.00  0.00    -0.279 NA
HETATM   59  N3  UNL     1       2.851  17.111  14.947  1.00  0.00    -0.279 NA
HETATM   60  H55 UNL     1       5.360  16.869  15.032  1.00  0.00     0.126 HD
HETATM   61  H56 UNL     1       4.686  16.308  13.707  1.00  0.00     0.126 HD
HETATM   62  H57 UNL     1       1.955  17.038  15.431  1.00  0.00     0.126 HD
HETATM   63  H58 UNL     1       2.681  17.132  13.949  1.00  0.00     0.126 HD
ATOM     64  H1  UNL     1       2.277  15.516  16.684  1.00  0.00     0.165 HD
ENDBRANCH  41  56
BRANCH  13  65
HETATM   65  S1  UNL     1       8.663  12.250  22.364  1.00  0.00     0.106 S 
HETATM   66  O1  UNL     1       8.315  11.957  20.978  1.00  0.00    -0.595 OA
HETATM   67  O2  UNL     1       9.834  13.117  22.504  1.00  0.00    -0.595 OA
HETATM   68  O3  UNL     1       8.666  11.089  23.244  1.00  0.00    -0.595 OA
ENDBRANCH  13  65
BRANCH  22  69
HETATM   69  C23 UNL     1       8.456  22.680  20.965  1.00  0.00     0.169 C 
BRANCH  69  70
HETATM   70  O4  UNL     1       9.131  23.840  21.428  1.00  0.00    -0.400 OA
HETATM   71  H29 UNL     1       8.495  24.390  21.914  1.00  0.00     0.209 HD
ENDBRANCH  69  70
ENDBRANCH  22  69
BRANCH  28  72
HETATM   72  O5  UNL     1       7.136  18.327  29.611  1.00  0.00    -0.361 OA
HETATM   73  H33 UNL     1       6.733  19.192  29.785  1.00  0.00     0.217 HD
ENDBRANCH  28  72
TORSDOF 11
ENDMDL
MODEL 4
REMARK minimizedAffinity -10.0918121
REMARK CNNscore 0.221955031
REMARK CNNaffinity 7.46737432
REMARK  11 active torsions:
REMARK  status: ('A' for Active; 'I' for Inactive)
REMARK    1  A    between atoms: C13_13  and  S1_14 
REMARK    2  A    between atoms: C22_26  and  C23_27 
REMARK    3  A    between atoms: C23_27  and  O4_28 
REMARK    4  A    between atoms: C29_34  and  O5_35 
REMARK    5  A    between atoms: C41_48  and  C42_49 
REMARK    6  A    between atoms: C41_48  and  N1_60 
REMARK    7  A    between atoms: C42_49  and  C43_50 
REMARK    8  A    between atoms: C43_50  and  C44_51 
REMARK    9  A    between atoms: C43_50  and  C45_53 
REMARK   10  A    between atoms: C44_51  and  O7_52 
REMARK   11  A    between atoms: C45_53  and  C46_54 
REMARK       I    between atoms: C52_62  and  N2_63 
REMARK       I    between atoms: C52_62  and  N3_64 
ROOT
HETATM    1  C1  UNL     1       2.866  14.112  18.746  1.00  0.00     0.010 C 
HETATM    2  C2  UNL     1       1.687  14.280  19.719  1.00  0.00    -0.010 C 
HETATM    3  C3  UNL     1       1.589  13.087  20.686  1.00  0.00     0.009 C 
HETATM    4  C4  UNL     1       0.805  11.868  20.167  1.00  0.00     0.039 C 
HETATM    5  C5  UNL     1       0.222  12.001  18.788  1.00  0.00    -0.049 C 
HETATM    6  C6  UNL     1      -0.125  10.845  18.062  1.00  0.00     0.044 C 
HETATM    7  C7  UNL     1      -0.623  10.944  16.762  1.00  0.00     0.073 C 
HETATM    8  C8  UNL     1      -0.633  12.182  16.129  1.00  0.00     0.037 C 
HETATM    9  C9  UNL     1      -0.351  13.335  16.863  1.00  0.00     0.011 C 
HETATM   10  C10 UNL     1       0.019  13.264  18.211  1.00  0.00    -0.047 C 
HETATM   11  C11 UNL     1       0.334  14.532  18.984  1.00  0.00     0.024 C 
HETATM   12  C12 UNL     1      -0.738  14.957  20.036  1.00  0.00     0.033 C 
HETATM   13  C13 UNL     1      -2.056  15.712  19.668  1.00  0.00     0.140 C 
HETATM   14  C14 UNL     1      -3.367  14.862  19.825  1.00  0.00     0.050 C 
HETATM   15  C15 UNL     1      -4.143  15.295  21.081  1.00  0.00    -0.013 C 
HETATM   16  C16 UNL     1      -5.360  15.877  21.014  1.00  0.00    -0.050 C 
HETATM   17  C17 UNL     1      -5.920  16.198  19.658  1.00  0.00     0.043 C 
HETATM   18  C18 UNL     1      -5.858  14.878  18.899  1.00  0.00     0.013 C 
HETATM   19  C19 UNL     1      -6.602  13.718  19.658  1.00  0.00     0.038 C 
HETATM   20  C20 UNL     1      -7.630  14.143  20.747  1.00  0.00     0.123 C 
HETATM   21  C21 UNL     1      -8.581  12.964  21.081  1.00  0.00     0.039 C 
HETATM   22  C22 UNL     1      -9.856  13.386  21.877  1.00  0.00     0.023 C 
HETATM   23  C24 UNL     1      -9.752  13.149  23.404  1.00  0.00     0.101 C 
HETATM   24  C25 UNL     1      -8.791  14.044  24.061  1.00  0.00    -0.101 C 
HETATM   25  C26 UNL     1      -7.905  14.762  24.436  1.00  0.00    -0.066 C 
HETATM   26  C27 UNL     1      -6.745  15.584  24.640  1.00  0.00     0.029 A 
HETATM   27  C28 UNL     1      -6.365  15.880  25.955  1.00  0.00     0.057 A 
HETATM   28  C29 UNL     1      -5.266  16.699  26.187  1.00  0.00     0.067 A 
HETATM   29  C30 UNL     1      -4.558  17.248  25.130  1.00  0.00     0.037 A 
HETATM   30  C31 UNL     1      -4.932  16.955  23.816  1.00  0.00     0.014 A 
HETATM   31  C32 UNL     1      -6.005  16.084  23.537  1.00  0.00    -0.006 A 
HETATM   32  C33 UNL     1      -6.416  15.799  22.088  1.00  0.00     0.185 C 
HETATM   33  O6  UNL     1      -6.944  14.463  21.966  1.00  0.00    -0.371 OA
HETATM   34  C34 UNL     1      -4.337  14.616  18.588  1.00  0.00     0.102 A 
HETATM   35  C35 UNL     1      -4.144  13.278  17.881  1.00  0.00     0.081 A 
HETATM   36  C36 UNL     1      -3.888  12.087  18.570  1.00  0.00     0.006 C 
HETATM   37  C37 UNL     1      -3.507  10.934  17.882  1.00  0.00     0.010 C 
HETATM   38  C38 UNL     1      -3.373  10.935  16.484  1.00  0.00    -0.003 C 
HETATM   39  C39 UNL     1      -3.831  12.067  15.791  1.00  0.00     0.010 C 
HETATM   40  C40 UNL     1      -4.190  13.229  16.483  1.00  0.00     0.006 C 
HETATM   41  C41 UNL     1      -2.549   9.786  15.815  1.00  0.00     0.171 C 
HETATM   42  O8  UNL     1      -1.118   9.804  16.178  1.00  0.00    -0.316 OA
HETATM   43 NA1  UNL     1      -3.398  12.271  18.532  1.00  0.00    -0.223 Na
ENDROOT
BRANCH  41  44
HETATM   44  C42 UNL     1      -2.561   9.882  14.247  1.00  0.00     0.074 C 
BRANCH  44  45
HETATM   45  C43 UNL     1      -2.822   8.572  13.443  1.00  0.00     0.018 C 
BRANCH  45  46
HETATM   46  C44 UNL     1      -1.868   8.541  12.233  1.00  0.00     0.169 C 
BRANCH  46  47
HETATM   47  O7  UNL     1      -1.008   9.675  12.234  1.00  0.00    -0.400 OA
HETATM   48  H47 UNL     1      -0.520   9.663  11.391  1.00  0.00     0.209 HD
ENDBRANCH  46  47
ENDBRANCH  45  46
BRANCH  45  49
HETATM   49  C45 UNL     1      -4.297   8.438  13.006  1.00  0.00     0.045 C 
BRANCH  49  50
HETATM   50  C46 UNL     1      -4.909   7.065  13.194  1.00  0.00    -0.058 A 
HETATM   51  C47 UNL     1      -4.165   5.905  12.938  1.00  0.00     0.007 A 
HETATM   52  C48 UNL     1      -4.731   4.646  13.134  1.00  0.00     0.001 A 
HETATM   53  C49 UNL     1      -6.041   4.530  13.593  1.00  0.00     0.000 A 
HETATM   54  C50 UNL     1      -6.790   5.677  13.854  1.00  0.00     0.001 A 
HETATM   55  C51 UNL     1      -6.228   6.938  13.654  1.00  0.00     0.007 A 
ENDBRANCH  49  50
ENDBRANCH  45  49
ENDBRANCH  44  45
ENDBRANCH  41  44
BRANCH  41  56
HETATM   56  N1  UNL     1      -3.299   8.535  16.104  1.00  0.00    -0.336 N 
HETATM   57  C52 UNL     1      -2.722   7.407  16.222  1.00  0.00     0.124 C 
HETATM   58  N2  UNL     1      -1.427   7.042  16.048  1.00  0.00    -0.279 NA
HETATM   59  N3  UNL     1      -3.482   6.320  16.495  1.00  0.00    -0.279 NA
HETATM   60  H55 UNL     1      -1.346   6.538  15.170  1.00  0.00     0.126 HD
HETATM   61  H56 UNL     1      -1.138   6.360  16.736  1.00  0.00     0.126 HD
HETATM   62  H57 UNL     1      -4.437   6.641  16.661  1.00  0.00     0.126 HD
HETATM   63  H58 UNL     1      -3.168   5.799  17.304  1.00  0.00     0.126 HD
ATOM     64  H1  UNL     1      -4.312   8.583  16.212  1.00  0.00     0.165 HD
ENDBRANCH  41  56
BRANCH  13  65
HETATM   65  S1  UNL     1      -1.926  16.882  18.332  1.00  0.00     0.106 S 
HETATM   66  O1  UNL     1      -3.039  17.799  18.554  1.00  0.00    -0.595 OA
HETATM   67  O2  UNL     1      -0.613  17.491  18.547  1.00  0.00    -0.595 OA
HETATM   68  O3  UNL     1      -2.029  16.092  17.112  1.00  0.00    -0.595 OA
ENDBRANCH  13  65
BRANCH  22  69
HETATM   69  C23 UNL     1     -11.065  12.603  21.321  1.00  0.00     0.169 C 
BRANCH  69  70
HETATM   70  O4  UNL     1     -10.684  11.730  20.267  1.00  0.00    -0.400 OA
HETATM   71  H29 UNL     1     -10.632  12.248  19.446  1.00  0.00     0.209 HD
ENDBRANCH  69  70
ENDBRANCH  22  69
BRANCH  28  72
HETATM   72  O5  UNL     1      -4.852  16.988  27.453  1.00  0.00    -0.361 OA
HETATM   73  H33 UNL     1      -5.367  16.452  28.076  1.00  0.00     0.217 HD
ENDBRANCH  28  72
TORSDOF 11
ENDMDL
MODEL 5
REMARK minimizedAffinity -8.42614079
REMARK CNNscore 0.164753437
REMARK CNNaffinity 6.45642424
REMARK  11 active torsions:
REMARK  status: ('A' for Active; 'I' for Inactive)
REMARK    1  A    between atoms: C13_13  and  S1_14 
REMARK    2  A    between atoms: C22_26  and  C23_27 
REMARK    3  A    between atoms: C23_27  and  O4_28 
REMARK    4  A    between atoms: C29_34  and  O5_35 
REMARK    5  A    between atoms: C41_48  and  C42_49 
REMARK    6  A    between atoms: C41_48  and  N1_60 
REMARK    7  A    between atoms: C42_49  and  C43_50 
REMARK    8  A    between atoms: C43_50  and  C44_51 
REMARK    9  A    between atoms: C43_50  and  C45_53 
REMARK   10  A    between atoms: C44_51  and  O7_52 
REMARK   11  A    between atoms: C45_53  and  C46_54 
REMARK       I    between atoms: C52_62  and  N2_63 
REMARK       I    between atoms: C52_62  and  N3_64 
ROOT
HETATM    1  C1  UNL     1       6.059  17.856  23.806  1.00  0.00     0.010 C 
HETATM    2  C2  UNL     1       7.219  17.482  22.869  1.00  0.00    -0.010 C 
HETATM    3  C3  UNL     1       7.259  18.403  21.637  1.00  0.00     0.009 C 
HETATM    4  C4  UNL     1       6.358  17.985  20.461  1.00  0.00     0.039 C 
HETATM    5  C5  UNL     1       5.565  16.724  20.657  1.00  0.00    -0.049 C 
HETATM    6  C6  UNL     1       4.425  16.485  19.865  1.00  0.00     0.044 C 
HETATM    7  C7  UNL     1       3.646  15.344  20.063  1.00  0.00     0.073 C 
HETATM    8  C8  UNL     1       3.915  14.517  21.148  1.00  0.00     0.037 C 
HETATM    9  C9  UNL     1       5.078  14.713  21.895  1.00  0.00     0.011 C 
HETATM   10  C10 UNL     1       5.945  15.777  21.621  1.00  0.00    -0.047 C 
HETATM   11  C11 UNL     1       7.196  15.977  22.456  1.00  0.00     0.024 C 
HETATM   12  C12 UNL     1       8.540  15.630  21.741  1.00  0.00     0.033 C 
HETATM   13  C13 UNL     1       9.082  14.174  21.585  1.00  0.00     0.140 C 
HETATM   14  C14 UNL     1       9.057  13.616  20.117  1.00  0.00     0.050 C 
HETATM   15  C15 UNL     1      10.476  13.600  19.521  1.00  0.00    -0.013 C 
HETATM   16  C16 UNL     1      11.113  12.453  19.204  1.00  0.00    -0.050 C 
HETATM   17  C17 UNL     1      10.443  11.152  19.539  1.00  0.00     0.043 C 
HETATM   18  C18 UNL     1       9.066  11.255  18.896  1.00  0.00     0.013 C 
HETATM   19  C19 UNL     1       9.149  11.572  17.357  1.00  0.00     0.038 C 
HETATM   20  C20 UNL     1      10.508  11.279  16.656  1.00  0.00     0.123 C 
HETATM   21  C21 UNL     1      10.319  11.209  15.119  1.00  0.00     0.039 C 
HETATM   22  C22 UNL     1      11.525  10.568  14.361  1.00  0.00     0.023 C 
HETATM   23  C24 UNL     1      12.501  11.602  13.745  1.00  0.00     0.101 C 
HETATM   24  C25 UNL     1      13.261  12.347  14.755  1.00  0.00    -0.101 C 
HETATM   25  C26 UNL     1      13.726  12.945  15.688  1.00  0.00    -0.066 C 
HETATM   26  C27 UNL     1      14.048  13.607  16.921  1.00  0.00     0.029 A 
HETATM   27  C28 UNL     1      15.106  14.523  16.925  1.00  0.00     0.057 A 
HETATM   28  C29 UNL     1      15.464  15.158  18.109  1.00  0.00     0.067 A 
HETATM   29  C30 UNL     1      14.801  14.873  19.292  1.00  0.00     0.037 A 
HETATM   30  C31 UNL     1      13.744  13.959  19.294  1.00  0.00     0.014 A 
HETATM   31  C32 UNL     1      13.312  13.336  18.105  1.00  0.00    -0.006 A 
HETATM   32  C33 UNL     1      12.168  12.317  18.134  1.00  0.00     0.185 C 
HETATM   33  O6  UNL     1      11.424  12.356  16.899  1.00  0.00    -0.371 OA
HETATM   34  C34 UNL     1       8.251  12.292  19.757  1.00  0.00     0.102 A 
HETATM   35  C35 UNL     1       6.866  12.529  19.164  1.00  0.00     0.081 A 
HETATM   36  C36 UNL     1       6.599  13.551  18.245  1.00  0.00     0.006 C 
HETATM   37  C37 UNL     1       5.287  13.867  17.894  1.00  0.00     0.010 C 
HETATM   38  C38 UNL     1       4.200  13.171  18.447  1.00  0.00    -0.003 C 
HETATM   39  C39 UNL     1       4.484  12.020  19.199  1.00  0.00     0.010 C 
HETATM   40  C40 UNL     1       5.800  11.719  19.570  1.00  0.00     0.006 C 
HETATM   41  C41 UNL     1       2.780  13.822  18.366  1.00  0.00     0.171 C 
HETATM   42  O8  UNL     1       2.664  15.072  19.144  1.00  0.00    -0.316 OA
HETATM   43 NA1  UNL     1       6.544  13.821  18.693  1.00  0.00    -0.223 Na
ENDROOT
BRANCH  41  44
HETATM   44  C42 UNL     1       1.663  12.886  18.953  1.00  0.00     0.074 C 
BRANCH  44  45
HETATM   45  C43 UNL     1       1.970  11.360  19.041  1.00  0.00     0.018 C 
BRANCH  45  46
HETATM   46  C44 UNL     1       1.575  10.702  17.704  1.00  0.00     0.169 C 
BRANCH  46  47
HETATM   47  O7  UNL     1       2.262   9.469  17.522  1.00  0.00    -0.400 OA
HETATM   48  H47 UNL     1       2.067   9.166  16.617  1.00  0.00     0.209 HD
ENDBRANCH  46  47
ENDBRANCH  45  46
BRANCH  45  49
HETATM   49  C45 UNL     1       1.258  10.689  20.236  1.00  0.00     0.045 C 
BRANCH  49  50
HETATM   50  C46 UNL     1       2.139  10.383  21.429  1.00  0.00    -0.058 A 
HETATM   51  C47 UNL     1       2.740  11.415  22.162  1.00  0.00     0.007 A 
HETATM   52  C48 UNL     1       3.533  11.124  23.273  1.00  0.00     0.001 A 
HETATM   53  C49 UNL     1       3.728   9.802  23.668  1.00  0.00     0.000 A 
HETATM   54  C50 UNL     1       3.132   8.767  22.947  1.00  0.00     0.001 A 
HETATM   55  C51 UNL     1       2.343   9.056  21.834  1.00  0.00     0.007 A 
ENDBRANCH  49  50
ENDBRANCH  45  49
ENDBRANCH  44  45
ENDBRANCH  41  44
BRANCH  41  56
HETATM   56  N1  UNL     1       2.457  13.901  16.917  1.00  0.00    -0.336 N 
HETATM   57  C52 UNL     1       1.675  14.784  16.440  1.00  0.00     0.124 C 
HETATM   58  N2  UNL     1       0.925  15.737  17.048  1.00  0.00    -0.279 NA
HETATM   59  N3  UNL     1       1.444  14.788  15.106  1.00  0.00    -0.279 NA
HETATM   60  H55 UNL     1      -0.048  15.446  17.031  1.00  0.00     0.126 HD
HETATM   61  H56 UNL     1       0.920  16.599  16.520  1.00  0.00     0.126 HD
HETATM   62  H57 UNL     1       2.056  14.090  14.681  1.00  0.00     0.126 HD
HETATM   63  H58 UNL     1       1.618  15.684  14.667  1.00  0.00     0.126 HD
ATOM     64  H1  UNL     1       2.878  13.223  16.282  1.00  0.00     0.165 HD
ENDBRANCH  41  56
BRANCH  13  65
HETATM   65  S1  UNL     1       8.743  13.075  22.944  1.00  0.00     0.106 S 
HETATM   66  O1  UNL     1       7.325  12.761  22.801  1.00  0.00    -0.595 OA
HETATM   67  O2  UNL     1       9.624  11.937  22.682  1.00  0.00    -0.595 OA
HETATM   68  O3  UNL     1       9.075  13.828  24.146  1.00  0.00    -0.595 OA
ENDBRANCH  13  65
BRANCH  22  69
HETATM   69  C23 UNL     1      10.976   9.656  13.244  1.00  0.00     0.169 C 
BRANCH  69  70
HETATM   70  O4  UNL     1      10.523  10.409  12.127  1.00  0.00    -0.400 OA
HETATM   71  H29 UNL     1       9.626  10.729  12.318  1.00  0.00     0.209 HD
ENDBRANCH  69  70
ENDBRANCH  22  69
BRANCH  28  72
HETATM   72  O5  UNL     1      16.472  16.074  18.146  1.00  0.00    -0.361 OA
HETATM   73  H33 UNL     1      16.764  16.249  17.237  1.00  0.00     0.217 HD
ENDBRANCH  28  72
TORSDOF 11
ENDMDL
MODEL 6
REMARK minimizedAffinity -8.01302242
REMARK CNNscore 0.121793635
REMARK CNNaffinity 6.82496643
REMARK  11 active torsions:
REMARK  status: ('A' for Active; 'I' for Inactive)
REMARK    1  A    between atoms: C13_13  and  S1_14 
REMARK    2  A    between atoms: C22_26  and  C23_27 
REMARK    3  A    between atoms: C23_27  and  O4_28 
REMARK    4  A    between atoms: C29_34  and  O5_35 
REMARK    5  A    between atoms: C41_48  and  C42_49 
REMARK    6  A    between atoms: C41_48  and  N1_60 
REMARK    7  A    between atoms: C42_49  and  C43_50 
REMARK    8  A    between atoms: C43_50  and  C44_51 
REMARK    9  A    between atoms: C43_50  and  C45_53 
REMARK   10  A    between atoms: C44_51  and  O7_52 
REMARK   11  A    between atoms: C45_53  and  C46_54 
REMARK       I    between atoms: C52_62  and  N2_63 
REMARK       I    between atoms: C52_62  and  N3_64 
ROOT
HETATM    1  C1  UNL     1       4.932  12.444  21.051  1.00  0.00     0.010 C 
HETATM    2  C2  UNL     1       3.478  12.784  21.419  1.00  0.00    -0.010 C 
HETATM    3  C3  UNL     1       2.759  11.567  22.029  1.00  0.00     0.009 C 
HETATM    4  C4  UNL     1       2.129  10.589  21.021  1.00  0.00     0.039 C 
HETATM    5  C5  UNL     1       2.281  10.952  19.570  1.00  0.00    -0.049 C 
HETATM    6  C6  UNL     1       2.137   9.958  18.582  1.00  0.00     0.044 C 
HETATM    7  C7  UNL     1       2.322  10.263  17.233  1.00  0.00     0.073 C 
HETATM    8  C8  UNL     1       2.798  11.521  16.879  1.00  0.00     0.037 C 
HETATM    9  C9  UNL     1       2.881  12.526  17.844  1.00  0.00     0.011 C 
HETATM   10  C10 UNL     1       2.566  12.271  19.184  1.00  0.00    -0.047 C 
HETATM   11  C11 UNL     1       2.677  13.376  20.218  1.00  0.00     0.024 C 
HETATM   12  C12 UNL     1       1.320  13.938  20.746  1.00  0.00     0.033 C 
HETATM   13  C13 UNL     1       0.458  14.984  19.968  1.00  0.00     0.140 C 
HETATM   14  C14 UNL     1      -0.889  14.424  19.386  1.00  0.00     0.050 C 
HETATM   15  C15 UNL     1      -2.083  14.913  20.226  1.00  0.00    -0.013 C 
HETATM   16  C16 UNL     1      -3.023  15.746  19.729  1.00  0.00    -0.050 C 
HETATM   17  C17 UNL     1      -2.832  16.285  18.341  1.00  0.00     0.043 C 
HETATM   18  C18 UNL     1      -2.629  15.046  17.476  1.00  0.00     0.013 C 
HETATM   19  C19 UNL     1      -3.810  14.016  17.623  1.00  0.00     0.038 C 
HETATM   20  C20 UNL     1      -5.147  14.564  18.203  1.00  0.00     0.123 C 
HETATM   21  C21 UNL     1      -6.312  13.594  17.881  1.00  0.00     0.039 C 
HETATM   22  C22 UNL     1      -7.729  14.215  18.092  1.00  0.00     0.023 C 
HETATM   23  C24 UNL     1      -8.384  13.842  19.446  1.00  0.00     0.101 C 
HETATM   24  C25 UNL     1      -7.713  14.456  20.598  1.00  0.00    -0.101 C 
HETATM   25  C26 UNL     1      -7.003  14.936  21.440  1.00  0.00    -0.066 C 
HETATM   26  C27 UNL     1      -5.960  15.472  22.269  1.00  0.00     0.029 A 
HETATM   27  C28 UNL     1      -6.194  15.575  23.645  1.00  0.00     0.057 A 
HETATM   28  C29 UNL     1      -5.217  16.118  24.472  1.00  0.00     0.067 A 
HETATM   29  C30 UNL     1      -4.024  16.584  23.943  1.00  0.00     0.037 A 
HETATM   30  C31 UNL     1      -3.785  16.483  22.570  1.00  0.00     0.014 A 
HETATM   31  C32 UNL     1      -4.725  15.887  21.705  1.00  0.00    -0.006 A 
HETATM   32  C33 UNL     1      -4.455  15.812  20.198  1.00  0.00     0.185 C 
HETATM   33  O6  UNL     1      -5.065  14.633  19.634  1.00  0.00    -0.371 OA
HETATM   34  C34 UNL     1      -1.198  14.490  17.827  1.00  0.00     0.102 A 
HETATM   35  C35 UNL     1      -0.908  13.202  17.063  1.00  0.00     0.081 A 
HETATM   36  C36 UNL     1      -1.189  11.933  17.583  1.00  0.00     0.006 C 
HETATM   37  C37 UNL     1      -0.715  10.784  16.950  1.00  0.00     0.010 C 
HETATM   38  C38 UNL     1       0.052  10.865  15.777  1.00  0.00    -0.003 C 
HETATM   39  C39 UNL     1       0.149  12.121  15.154  1.00  0.00     0.010 C 
HETATM   40  C40 UNL     1      -0.307  13.274  15.803  1.00  0.00     0.006 C 
HETATM   41  C41 UNL     1       0.903   9.623  15.356  1.00  0.00     0.171 C 
HETATM   42  O8  UNL     1       1.986   9.306  16.309  1.00  0.00    -0.316 OA
HETATM   43 NA1  UNL     1      -0.715  12.011  17.797  1.00  0.00    -0.223 Na
ENDROOT
BRANCH  41  44
HETATM   44  C42 UNL     1       1.636   9.843  13.984  1.00  0.00     0.074 C 
BRANCH  44  45
HETATM   45  C43 UNL     1       3.147   9.467  13.901  1.00  0.00     0.018 C 
BRANCH  45  46
HETATM   46  C44 UNL     1       3.932  10.699  13.407  1.00  0.00     0.169 C 
BRANCH  46  47
HETATM   47  O7  UNL     1       3.049  11.762  13.066  1.00  0.00    -0.400 OA
HETATM   48  H47 UNL     1       3.588  12.458  12.651  1.00  0.00     0.209 HD
ENDBRANCH  46  47
ENDBRANCH  45  46
BRANCH  45  49
HETATM   49  C45 UNL     1       3.396   8.238  13.001  1.00  0.00     0.045 C 
BRANCH  49  50
HETATM   50  C46 UNL     1       2.194   7.750  12.219  1.00  0.00    -0.058 A 
HETATM   51  C47 UNL     1       1.709   8.473  11.121  1.00  0.00     0.007 A 
HETATM   52  C48 UNL     1       0.614   8.005  10.394  1.00  0.00     0.001 A 
HETATM   53  C49 UNL     1      -0.003   6.807  10.750  1.00  0.00     0.000 A 
HETATM   54  C50 UNL     1       0.473   6.078  11.839  1.00  0.00     0.001 A 
HETATM   55  C51 UNL     1       1.565   6.547  12.570  1.00  0.00     0.007 A 
ENDBRANCH  49  50
ENDBRANCH  45  49
ENDBRANCH  44  45
ENDBRANCH  41  44
BRANCH  41  56
HETATM   56  N1  UNL     1      -0.077   8.543  15.070  1.00  0.00    -0.336 N 
HETATM   57  C52 UNL     1      -0.034   7.412  15.653  1.00  0.00     0.124 C 
HETATM   58  N2  UNL     1       0.861   6.890  16.527  1.00  0.00    -0.279 NA
HETATM   59  N3  UNL     1      -0.974   6.489  15.339  1.00  0.00    -0.279 NA
HETATM   60  H55 UNL     1       1.433   6.208  16.039  1.00  0.00     0.126 HD
HETATM   61  H56 UNL     1       0.405   6.342  17.244  1.00  0.00     0.126 HD
HETATM   62  H57 UNL     1      -1.650   6.933  14.715  1.00  0.00     0.126 HD
HETATM   63  H58 UNL     1      -1.466   6.121  16.143  1.00  0.00     0.126 HD
ATOM     64  H1  UNL     1      -0.812   8.714  14.383  1.00  0.00     0.165 HD
ENDBRANCH  41  56
BRANCH  13  65
HETATM   65  S1  UNL     1       1.373  16.200  19.043  1.00  0.00     0.106 S 
HETATM   66  O1  UNL     1       0.431  17.303  18.881  1.00  0.00    -0.595 OA
HETATM   67  O2  UNL     1       2.497  16.514  19.925  1.00  0.00    -0.595 OA
HETATM   68  O3  UNL     1       1.750  15.541  17.800  1.00  0.00    -0.595 OA
ENDBRANCH  13  65
BRANCH  22  69
HETATM   69  C23 UNL     1      -8.646  13.755  16.938  1.00  0.00     0.169 C 
BRANCH  69  70
HETATM   70  O4  UNL     1      -7.917  13.067  15.932  1.00  0.00    -0.400 OA
HETATM   71  H29 UNL     1      -7.502  13.725  15.351  1.00  0.00     0.209 HD
ENDBRANCH  69  70
ENDBRANCH  22  69
BRANCH  28  72
HETATM   72  O5  UNL     1      -5.399  16.212  25.819  1.00  0.00    -0.361 OA
HETATM   73  H33 UNL     1      -6.221  15.751  26.052  1.00  0.00     0.217 HD
ENDBRANCH  28  72
TORSDOF 11
ENDMDL
MODEL 7
REMARK minimizedAffinity -8.43545341
REMARK CNNscore 0.121429123
REMARK CNNaffinity 6.42767906
REMARK  11 active torsions:
REMARK  status: ('A' for Active; 'I' for Inactive)
REMARK    1  A    between atoms: C13_13  and  S1_14 
REMARK    2  A    between atoms: C22_26  and  C23_27 
REMARK    3  A    between atoms: C23_27  and  O4_28 
REMARK    4  A    between atoms: C29_34  and  O5_35 
REMARK    5  A    between atoms: C41_48  and  C42_49 
REMARK    6  A    between atoms: C41_48  and  N1_60 
REMARK    7  A    between atoms: C42_49  and  C43_50 
REMARK    8  A    between atoms: C43_50  and  C44_51 
REMARK    9  A    between atoms: C43_50  and  C45_53 
REMARK   10  A    between atoms: C44_51  and  O7_52 
REMARK   11  A    between atoms: C45_53  and  C46_54 
REMARK       I    between atoms: C52_62  and  N2_63 
REMARK       I    between atoms: C52_62  and  N3_64 
ROOT
HETATM    1  C1  UNL     1      -4.905  13.019  19.637  1.00  0.00     0.010 C 
HETATM    2  C2  UNL     1      -4.733  13.626  18.235  1.00  0.00    -0.010 C 
HETATM    3  C3  UNL     1      -5.016  12.583  17.138  1.00  0.00     0.009 C 
HETATM    4  C4  UNL     1      -3.827  11.689  16.745  1.00  0.00     0.039 C 
HETATM    5  C5  UNL     1      -2.537  11.954  17.469  1.00  0.00    -0.049 C 
HETATM    6  C6  UNL     1      -1.541  10.958  17.511  1.00  0.00     0.044 C 
HETATM    7  C7  UNL     1      -0.357  11.165  18.218  1.00  0.00     0.073 C 
HETATM    8  C8  UNL     1      -0.225  12.302  19.009  1.00  0.00     0.037 C 
HETATM    9  C9  UNL     1      -1.178  13.318  18.921  1.00  0.00     0.011 C 
HETATM   10  C10 UNL     1      -2.309  13.183  18.107  1.00  0.00    -0.047 C 
HETATM   11  C11 UNL     1      -3.338  14.297  18.039  1.00  0.00     0.024 C 
HETATM   12  C12 UNL     1      -3.354  15.112  16.708  1.00  0.00     0.033 C 
HETATM   13  C13 UNL     1      -2.342  16.258  16.386  1.00  0.00     0.140 C 
HETATM   14  C14 UNL     1      -1.302  15.920  15.259  1.00  0.00     0.050 C 
HETATM   15  C15 UNL     1      -1.666  16.649  13.953  1.00  0.00    -0.013 C 
HETATM   16  C16 UNL     1      -0.883  17.611  13.420  1.00  0.00    -0.050 C 
HETATM   17  C17 UNL     1       0.331  18.046  14.189  1.00  0.00     0.043 C 
HETATM   18  C18 UNL     1       1.092  16.754  14.460  1.00  0.00     0.013 C 
HETATM   19  C19 UNL     1       1.403  15.956  13.140  1.00  0.00     0.038 C 
HETATM   20  C20 UNL     1       1.331  16.757  11.807  1.00  0.00     0.123 C 
HETATM   21  C21 UNL     1       2.072  15.994  10.679  1.00  0.00     0.039 C 
HETATM   22  C22 UNL     1       2.371  16.865   9.417  1.00  0.00     0.023 C 
HETATM   23  C24 UNL     1       1.353  16.674   8.266  1.00  0.00     0.101 C 
HETATM   24  C25 UNL     1       0.023  17.211   8.579  1.00  0.00    -0.101 C 
HETATM   25  C26 UNL     1      -1.028  17.595   9.015  1.00  0.00    -0.066 C 
HETATM   26  C27 UNL     1      -2.189  17.974   9.771  1.00  0.00     0.029 A 
HETATM   27  C28 UNL     1      -3.391  18.179   9.083  1.00  0.00     0.057 A 
HETATM   28  C29 UNL     1      -4.525  18.577   9.780  1.00  0.00     0.067 A 
HETATM   29  C30 UNL     1      -4.472  18.801  11.147  1.00  0.00     0.037 A 
HETATM   30  C31 UNL     1      -3.275  18.598  11.839  1.00  0.00     0.014 A 
HETATM   31  C32 UNL     1      -2.117  18.140  11.179  1.00  0.00    -0.006 A 
HETATM   32  C33 UNL     1      -0.807  17.950  11.952  1.00  0.00     0.185 C 
HETATM   33  O6  UNL     1      -0.034  16.874  11.383  1.00  0.00    -0.371 OA
HETATM   34  C34 UNL     1       0.262  15.970  15.545  1.00  0.00     0.102 A 
HETATM   35  C35 UNL     1       0.899  14.617  15.851  1.00  0.00     0.081 A 
HETATM   36  C36 UNL     1       0.543  13.442  15.179  1.00  0.00     0.006 C 
HETATM   37  C37 UNL     1       0.989  12.201  15.631  1.00  0.00     0.010 C 
HETATM   38  C38 UNL     1       1.806  12.093  16.768  1.00  0.00    -0.003 C 
HETATM   39  C39 UNL     1       2.324  13.282  17.307  1.00  0.00     0.010 C 
HETATM   40  C40 UNL     1       1.857  14.526  16.867  1.00  0.00     0.006 C 
HETATM   41  C41 UNL     1       1.920  10.702  17.474  1.00  0.00     0.171 C 
HETATM   42  O8  UNL     1       0.648  10.242  18.068  1.00  0.00    -0.316 OA
HETATM   43 NA1  UNL     1       0.172  13.445  15.550  1.00  0.00    -0.223 Na
ENDROOT
BRANCH  41  44
HETATM   44  C42 UNL     1       2.931  10.728  18.676  1.00  0.00     0.074 C 
BRANCH  44  45
HETATM   45  C43 UNL     1       3.185  12.095  19.381  1.00  0.00     0.018 C 
BRANCH  45  46
HETATM   46  C44 UNL     1       4.706  12.297  19.527  1.00  0.00     0.169 C 
BRANCH  46  47
HETATM   47  O7  UNL     1       4.994  13.405  20.372  1.00  0.00    -0.400 OA
HETATM   48  H47 UNL     1       5.954  13.556  20.327  1.00  0.00     0.209 HD
ENDBRANCH  46  47
ENDBRANCH  45  46
BRANCH  45  49
HETATM   49  C45 UNL     1       2.466  12.192  20.744  1.00  0.00     0.045 C 
BRANCH  49  50
HETATM   50  C46 UNL     1       2.619  10.987  21.648  1.00  0.00    -0.058 A 
HETATM   51  C47 UNL     1       3.430  11.043  22.790  1.00  0.00     0.007 A 
HETATM   52  C48 UNL     1       3.547   9.934  23.628  1.00  0.00     0.001 A 
HETATM   53  C49 UNL     1       2.852   8.761  23.339  1.00  0.00     0.000 A 
HETATM   54  C50 UNL     1       2.041   8.695  22.207  1.00  0.00     0.001 A 
HETATM   55  C51 UNL     1       1.925   9.801  21.365  1.00  0.00     0.007 A 
ENDBRANCH  49  50
ENDBRANCH  45  49
ENDBRANCH  44  45
ENDBRANCH  41  44
BRANCH  41  56
HETATM   56  N1  UNL     1       2.563   9.801  16.483  1.00  0.00    -0.336 N 
HETATM   57  C52 UNL     1       2.029   8.708  16.108  1.00  0.00     0.124 C 
HETATM   58  N2  UNL     1       0.901   8.077  16.519  1.00  0.00    -0.279 NA
HETATM   59  N3  UNL     1       2.680   7.953  15.192  1.00  0.00    -0.279 NA
HETATM   60  H55 UNL     1       1.164   7.282  17.094  1.00  0.00     0.126 HD
HETATM   61  H56 UNL     1       0.409   7.652  15.744  1.00  0.00     0.126 HD
HETATM   62  H57 UNL     1       3.496   8.480  14.877  1.00  0.00     0.126 HD
HETATM   63  H58 UNL     1       2.116   7.715  14.387  1.00  0.00     0.126 HD
ATOM     64  H1  UNL     1       3.465  10.068  16.088  1.00  0.00     0.165 HD
ENDBRANCH  41  56
BRANCH  13  65
HETATM   65  S1  UNL     1      -1.836  17.251  17.774  1.00  0.00     0.106 S 
HETATM   66  O1  UNL     1      -0.771  16.473  18.398  1.00  0.00    -0.595 OA
HETATM   67  O2  UNL     1      -1.368  18.488  17.148  1.00  0.00    -0.595 OA
HETATM   68  O3  UNL     1      -3.028  17.407  18.596  1.00  0.00    -0.595 OA
ENDBRANCH  13  65
BRANCH  22  69
HETATM   69  C23 UNL     1       3.788  16.523   8.908  1.00  0.00     0.169 C 
BRANCH  69  70
HETATM   70  O4  UNL     1       3.775  16.144   7.539  1.00  0.00    -0.400 OA
HETATM   71  H29 UNL     1       3.521  15.208   7.484  1.00  0.00     0.209 HD
ENDBRANCH  69  70
ENDBRANCH  22  69
BRANCH  28  72
HETATM   72  O5  UNL     1      -5.718  18.761   9.148  1.00  0.00    -0.361 OA
HETATM   73  H33 UNL     1      -5.630  18.464   8.229  1.00  0.00     0.217 HD
ENDBRANCH  28  72
TORSDOF 11
ENDMDL
MODEL 8
REMARK minimizedAffinity -7.93278265
REMARK CNNscore 0.0964956358
REMARK CNNaffinity 6.75377512
REMARK  11 active torsions:
REMARK  status: ('A' for Active; 'I' for Inactive)
REMARK    1  A    between atoms: C13_13  and  S1_14 
REMARK    2  A    between atoms: C22_26  and  C23_27 
REMARK    3  A    between atoms: C23_27  and  O4_28 
REMARK    4  A    between atoms: C29_34  and  O5_35 
REMARK    5  A    between atoms: C41_48  and  C42_49 
REMARK    6  A    between atoms: C41_48  and  N1_60 
REMARK    7  A    between atoms: C42_49  and  C43_50 
REMARK    8  A    between atoms: C43_50  and  C44_51 
REMARK    9  A    between atoms: C43_50  and  C45_53 
REMARK   10  A    between atoms: C44_51  and  O7_52 
REMARK   11  A    between atoms: C45_53  and  C46_54 
REMARK       I    between atoms: C52_62  and  N2_63 
REMARK       I    between atoms: C52_62  and  N3_64 
ROOT
HETATM    1  C1  UNL     1     -18.948  13.960  20.890  1.00  0.00     0.010 C 
HETATM    2  C2  UNL     1     -18.358  13.000  19.844  1.00  0.00    -0.010 C 
HETATM    3  C3  UNL     1     -18.407  11.542  20.335  1.00  0.00     0.009 C 
HETATM    4  C4  UNL     1     -17.224  11.093  21.211  1.00  0.00     0.039 C 
HETATM    5  C5  UNL     1     -16.163  12.127  21.464  1.00  0.00    -0.049 C 
HETATM    6  C6  UNL     1     -15.291  11.980  22.561  1.00  0.00     0.044 C 
HETATM    7  C7  UNL     1     -14.331  12.953  22.842  1.00  0.00     0.073 C 
HETATM    8  C8  UNL     1     -14.337  14.144  22.123  1.00  0.00     0.037 C 
HETATM    9  C9  UNL     1     -15.154  14.267  20.999  1.00  0.00     0.011 C 
HETATM   10  C10 UNL     1     -16.029  13.241  20.621  1.00  0.00    -0.047 C 
HETATM   11  C11 UNL     1     -16.917  13.405  19.402  1.00  0.00     0.024 C 
HETATM   12  C12 UNL     1     -16.513  12.551  18.160  1.00  0.00     0.033 C 
HETATM   13  C13 UNL     1     -15.371  12.953  17.172  1.00  0.00     0.140 C 
HETATM   14  C14 UNL     1     -14.092  12.046  17.240  1.00  0.00     0.050 C 
HETATM   15  C15 UNL     1     -14.034  11.102  16.025  1.00  0.00    -0.013 C 
HETATM   16  C16 UNL     1     -13.068  11.192  15.085  1.00  0.00    -0.050 C 
HETATM   17  C17 UNL     1     -12.080  12.318  15.188  1.00  0.00     0.043 C 
HETATM   18  C18 UNL     1     -11.517  12.203  16.599  1.00  0.00     0.013 C 
HETATM   19  C19 UNL     1     -10.918  10.777  16.887  1.00  0.00     0.038 C 
HETATM   20  C20 UNL     1     -10.567   9.903  15.647  1.00  0.00     0.123 C 
HETATM   21  C21 UNL     1      -9.605   8.756  16.050  1.00  0.00     0.039 C 
HETATM   22  C22 UNL     1      -8.913   8.056  14.838  1.00  0.00     0.023 C 
HETATM   23  C24 UNL     1      -9.591   6.732  14.406  1.00  0.00     0.101 C 
HETATM   24  C25 UNL     1     -10.914   6.935  13.802  1.00  0.00    -0.101 C 
HETATM   25  C26 UNL     1     -12.013   7.245  13.432  1.00  0.00    -0.066 C 
HETATM   26  C27 UNL     1     -13.305   7.814  13.166  1.00  0.00     0.029 A 
HETATM   27  C28 UNL     1     -14.257   7.021  12.514  1.00  0.00     0.057 A 
HETATM   28  C29 UNL     1     -15.507   7.551  12.213  1.00  0.00     0.067 A 
HETATM   29  C30 UNL     1     -15.810   8.866  12.529  1.00  0.00     0.037 A 
HETATM   30  C31 UNL     1     -14.864   9.662  13.180  1.00  0.00     0.014 A 
HETATM   31  C32 UNL     1     -13.606   9.146  13.553  1.00  0.00    -0.006 A 
HETATM   32  C33 UNL     1     -12.572  10.044  14.242  1.00  0.00     0.185 C 
HETATM   33  O6  UNL     1     -11.754   9.273  15.145  1.00  0.00    -0.371 OA
HETATM   34  C34 UNL     1     -12.664  12.665  17.573  1.00  0.00     0.102 A 
HETATM   35  C35 UNL     1     -12.234  12.529  19.031  1.00  0.00     0.081 A 
HETATM   36  C36 UNL     1     -12.478  11.377  19.789  1.00  0.00     0.006 C 
HETATM   37  C37 UNL     1     -12.262  11.374  21.167  1.00  0.00     0.010 C 
HETATM   38  C38 UNL     1     -11.795  12.519  21.831  1.00  0.00    -0.003 C 
HETATM   39  C39 UNL     1     -11.358  13.593  21.038  1.00  0.00     0.010 C 
HETATM   40  C40 UNL     1     -11.597  13.604  19.659  1.00  0.00     0.006 C 
HETATM   41  C41 UNL     1     -11.978  12.607  23.382  1.00  0.00     0.171 C 
HETATM   42  O8  UNL     1     -13.392  12.667  23.802  1.00  0.00    -0.316 OA
HETATM   43 NA1  UNL     1     -12.935  11.626  19.861  1.00  0.00    -0.223 Na
ENDROOT
BRANCH  41  44
HETATM   44  C42 UNL     1     -11.331  13.906  23.983  1.00  0.00     0.074 C 
BRANCH  44  45
HETATM   45  C43 UNL     1      -9.789  13.910  24.211  1.00  0.00     0.018 C 
BRANCH  45  46
HETATM   46  C44 UNL     1      -9.222  15.253  23.707  1.00  0.00     0.169 C 
BRANCH  46  47
HETATM   47  O7  UNL     1      -8.628  15.985  24.773  1.00  0.00    -0.400 OA
HETATM   48  H47 UNL     1      -8.401  16.865  24.422  1.00  0.00     0.209 HD
ENDBRANCH  46  47
ENDBRANCH  45  46
BRANCH  45  49
HETATM   49  C45 UNL     1      -9.094  12.711  23.530  1.00  0.00     0.045 C 
BRANCH  49  50
HETATM   50  C46 UNL     1      -7.971  13.064  22.578  1.00  0.00    -0.058 A 
HETATM   51  C47 UNL     1      -8.215  13.219  21.206  1.00  0.00     0.007 A 
HETATM   52  C48 UNL     1      -7.178  13.564  20.339  1.00  0.00     0.001 A 
HETATM   53  C49 UNL     1      -5.890  13.767  20.832  1.00  0.00     0.000 A 
HETATM   54  C50 UNL     1      -5.638  13.618  22.196  1.00  0.00     0.001 A 
HETATM   55  C51 UNL     1      -6.672  13.267  23.063  1.00  0.00     0.007 A 
ENDBRANCH  49  50
ENDBRANCH  45  49
ENDBRANCH  44  45
ENDBRANCH  41  44
BRANCH  41  56
HETATM   56  N1  UNL     1     -11.156  11.504  23.945  1.00  0.00    -0.336 N 
HETATM   57  C52 UNL     1     -11.670  10.523  24.573  1.00  0.00     0.124 C 
HETATM   58  N2  UNL     1     -12.950  10.273  24.948  1.00  0.00    -0.279 NA
HETATM   59  N3  UNL     1     -10.847   9.557  25.045  1.00  0.00    -0.279 NA
HETATM   60  H55 UNL     1     -13.034  10.435  25.947  1.00  0.00     0.126 HD
HETATM   61  H56 UNL     1     -13.181   9.294  24.850  1.00  0.00     0.126 HD
HETATM   62  H57 UNL     1      -9.905   9.757  24.706  1.00  0.00     0.126 HD
HETATM   63  H58 UNL     1     -11.107   8.624  24.751  1.00  0.00     0.126 HD
ATOM     64  H1  UNL     1     -10.144  11.533  23.824  1.00  0.00     0.165 HD
ENDBRANCH  41  56
BRANCH  13  65
HETATM   65  S1  UNL     1     -15.191  14.699  16.872  1.00  0.00     0.106 S 
HETATM   66  O1  UNL     1     -14.390  15.171  17.997  1.00  0.00    -0.595 OA
HETATM   67  O2  UNL     1     -14.487  14.748  15.590  1.00  0.00    -0.595 OA
HETATM   68  O3  UNL     1     -16.547  15.229  16.834  1.00  0.00    -0.595 OA
ENDBRANCH  13  65
BRANCH  22  69
HETATM   69  C23 UNL     1      -7.439   7.777  15.206  1.00  0.00     0.169 C 
BRANCH  69  70
HETATM   70  O4  UNL     1      -6.594   8.859  14.841  1.00  0.00    -0.400 OA
HETATM   71  H29 UNL     1      -6.383   8.776  13.897  1.00  0.00     0.209 HD
ENDBRANCH  69  70
ENDBRANCH  22  69
BRANCH  28  72
HETATM   72  O5  UNL     1     -16.467   6.802  11.602  1.00  0.00    -0.361 OA
HETATM   73  H33 UNL     1     -16.154   5.885  11.546  1.00  0.00     0.217 HD
ENDBRANCH  28  72
TORSDOF 11
ENDMDL
MODEL 9
REMARK minimizedAffinity -9.16256046
REMARK CNNscore 0.0922596604
REMARK CNNaffinity 7.30445433
REMARK  11 active torsions:
REMARK  status: ('A' for Active; 'I' for Inactive)
REMARK    1  A    between atoms: C13_13  and  S1_14 
REMARK    2  A    between atoms: C22_26  and  C23_27 
REMARK    3  A    between atoms: C23_27  and  O4_28 
REMARK    4  A    between atoms: C29_34  and  O5_35 
REMARK    5  A    between atoms: C41_48  and  C42_49 
REMARK    6  A    between atoms: C41_48  and  N1_60 
REMARK    7  A    between atoms: C42_49  and  C43_50 
REMARK    8  A    between atoms: C43_50  and  C44_51 
REMARK    9  A    between atoms: C43_50  and  C45_53 
REMARK   10  A    between atoms: C44_51  and  O7_52 
REMARK   11  A    between atoms: C45_53  and  C46_54 
REMARK       I    between atoms: C52_62  and  N2_63 
REMARK       I    between atoms: C52_62  and  N3_64 
ROOT
HETATM    1  C1  UNL     1       5.304  17.223  11.963  1.00  0.00     0.010 C 
HETATM    2  C2  UNL     1       5.120  17.025  13.476  1.00  0.00    -0.010 C 
HETATM    3  C3  UNL     1       6.476  16.857  14.185  1.00  0.00     0.009 C 
HETATM    4  C4  UNL     1       7.045  15.427  14.208  1.00  0.00     0.039 C 
HETATM    5  C5  UNL     1       6.200  14.373  13.550  1.00  0.00    -0.049 C 
HETATM    6  C6  UNL     1       6.789  13.161  13.139  1.00  0.00     0.044 C 
HETATM    7  C7  UNL     1       6.032  12.189  12.483  1.00  0.00     0.073 C 
HETATM    8  C8  UNL     1       4.728  12.484  12.102  1.00  0.00     0.037 C 
HETATM    9  C9  UNL     1       4.121  13.654  12.562  1.00  0.00     0.011 C 
HETATM   10  C10 UNL     1       4.827  14.579  13.339  1.00  0.00    -0.047 C 
HETATM   11  C11 UNL     1       4.150  15.851  13.815  1.00  0.00     0.024 C 
HETATM   12  C12 UNL     1       3.814  15.899  15.339  1.00  0.00     0.033 C 
HETATM   13  C13 UNL     1       2.566  15.200  15.969  1.00  0.00     0.140 C 
HETATM   14  C14 UNL     1       2.895  13.960  16.874  1.00  0.00     0.050 C 
HETATM   15  C15 UNL     1       2.734  14.319  18.362  1.00  0.00    -0.013 C 
HETATM   16  C16 UNL     1       1.785  13.759  19.142  1.00  0.00    -0.050 C 
HETATM   17  C17 UNL     1       0.796  12.829  18.501  1.00  0.00     0.043 C 
HETATM   18  C18 UNL     1       1.655  11.793  17.787  1.00  0.00     0.013 C 
HETATM   19  C19 UNL     1       2.678  11.095  18.758  1.00  0.00     0.038 C 
HETATM   20  C20 UNL     1       2.371  11.192  20.282  1.00  0.00     0.123 C 
HETATM   21  C21 UNL     1       3.175  10.120  21.063  1.00  0.00     0.039 C 
HETATM   22  C22 UNL     1       2.672   9.893  22.524  1.00  0.00     0.023 C 
HETATM   23  C24 UNL     1       3.496  10.649  23.597  1.00  0.00     0.101 C 
HETATM   24  C25 UNL     1       3.318  12.105  23.539  1.00  0.00    -0.101 C 
HETATM   25  C26 UNL     1       3.158  13.271  23.302  1.00  0.00    -0.066 C 
HETATM   26  C27 UNL     1       2.939  14.586  22.767  1.00  0.00     0.029 A 
HETATM   27  C28 UNL     1       3.322  15.689  23.540  1.00  0.00     0.057 A 
HETATM   28  C29 UNL     1       3.095  16.975  23.065  1.00  0.00     0.067 A 
HETATM   29  C30 UNL     1       2.469  17.178  21.845  1.00  0.00     0.037 A 
HETATM   30  C31 UNL     1       2.085  16.082  21.069  1.00  0.00     0.014 A 
HETATM   31  C32 UNL     1       2.347  14.761  21.488  1.00  0.00    -0.006 A 
HETATM   32  C33 UNL     1       1.893  13.571  20.635  1.00  0.00     0.185 C 
HETATM   33  O6  UNL     1       2.804  12.464  20.785  1.00  0.00    -0.371 OA
HETATM   34  C34 UNL     1       2.292  12.524  16.546  1.00  0.00     0.102 A 
HETATM   35  C35 UNL     1       3.233  11.595  15.786  1.00  0.00     0.081 A 
HETATM   36  C36 UNL     1       4.605  11.520  16.054  1.00  0.00     0.006 C 
HETATM   37  C37 UNL     1       5.460  10.823  15.200  1.00  0.00     0.010 C 
HETATM   38  C38 UNL     1       4.972  10.177  14.053  1.00  0.00    -0.003 C 
HETATM   39  C39 UNL     1       3.578  10.082  13.909  1.00  0.00     0.010 C 
HETATM   40  C40 UNL     1       2.724  10.801  14.752  1.00  0.00     0.006 C 
HETATM   41  C41 UNL     1       5.986   9.792  12.927  1.00  0.00     0.171 C 
HETATM   42  O8  UNL     1       6.610  10.961  12.276  1.00  0.00    -0.316 OA
HETATM   43 NA1  UNL     1       4.604  11.927  15.721  1.00  0.00    -0.223 Na
ENDROOT
BRANCH  41  44
HETATM   44  C42 UNL     1       5.300   9.005  11.753  1.00  0.00     0.074 C 
BRANCH  44  45
HETATM   45  C43 UNL     1       5.269   7.449  11.844  1.00  0.00     0.018 C 
BRANCH  45  46
HETATM   46  C44 UNL     1       6.312   6.879  10.862  1.00  0.00     0.169 C 
BRANCH  46  47
HETATM   47  O7  UNL     1       7.237   7.884  10.463  1.00  0.00    -0.400 OA
HETATM   48  H47 UNL     1       7.788   7.501   9.758  1.00  0.00     0.209 HD
ENDBRANCH  46  47
ENDBRANCH  45  46
BRANCH  45  49
HETATM   49  C45 UNL     1       3.862   6.875  11.573  1.00  0.00     0.045 C 
BRANCH  49  50
HETATM   50  C46 UNL     1       3.404   6.929  10.131  1.00  0.00    -0.058 A 
HETATM   51  C47 UNL     1       3.202   5.752   9.396  1.00  0.00     0.007 A 
HETATM   52  C48 UNL     1       2.759   5.812   8.074  1.00  0.00     0.001 A 
HETATM   53  C49 UNL     1       2.507   7.044   7.474  1.00  0.00     0.000 A 
HETATM   54  C50 UNL     1       2.702   8.221   8.197  1.00  0.00     0.001 A 
HETATM   55  C51 UNL     1       3.149   8.164   9.517  1.00  0.00     0.007 A 
ENDBRANCH  49  50
ENDBRANCH  45  49
ENDBRANCH  44  45
ENDBRANCH  41  44
BRANCH  41  56
HETATM   56  N1  UNL     1       6.904   8.795  13.538  1.00  0.00    -0.336 N 
HETATM   57  C52 UNL     1       6.493   7.885  14.328  1.00  0.00     0.124 C 
HETATM   58  N2  UNL     1       5.266   7.643  14.853  1.00  0.00    -0.279 NA
HETATM   59  N3  UNL     1       7.397   7.012  14.832  1.00  0.00    -0.279 NA
HETATM   60  H55 UNL     1       5.267   7.927  15.828  1.00  0.00     0.126 HD
HETATM   61  H56 UNL     1       5.069   6.653  14.898  1.00  0.00     0.126 HD
HETATM   62  H57 UNL     1       8.295   7.198  14.382  1.00  0.00     0.126 HD
HETATM   63  H58 UNL     1       7.152   6.041  14.681  1.00  0.00     0.126 HD
ATOM     64  H1  UNL     1       7.899   8.841  13.317  1.00  0.00     0.165 HD
ENDBRANCH  41  56
BRANCH  13  65
HETATM   65  S1  UNL     1       1.100  15.183  14.959  1.00  0.00     0.106 S 
HETATM   66  O1  UNL     1       0.014  14.994  15.914  1.00  0.00    -0.595 OA
HETATM   67  O2  UNL     1       1.109  16.507  14.335  1.00  0.00    -0.595 OA
HETATM   68  O3  UNL     1       1.283  14.078  14.027  1.00  0.00    -0.595 OA
ENDBRANCH  13  65
BRANCH  22  69
HETATM   69  C23 UNL     1       2.706   8.380  22.827  1.00  0.00     0.169 C 
BRANCH  69  70
HETATM   70  O4  UNL     1       1.577   7.711  22.284  1.00  0.00    -0.400 OA
HETATM   71  H29 UNL     1       0.831   7.825  22.896  1.00  0.00     0.209 HD
ENDBRANCH  69  70
ENDBRANCH  22  69
BRANCH  28  72
HETATM   72  O5  UNL     1       3.477  18.072  23.778  1.00  0.00    -0.361 OA
HETATM   73  H33 UNL     1       3.994  17.778  24.544  1.00  0.00     0.217 HD
ENDBRANCH  28  72
TORSDOF 11
ENDMDL
