MODEL 1
REMARK minimizedAffinity -7.69232702
REMARK CNNscore 0.720432222
REMARK CNNaffinity 6.98744631
REMARK  6 active torsions:
REMARK  status: ('A' for Active; 'I' for Inactive)
REMARK    1  A    between atoms: C4_4  and  C5_5 
REMARK    2  A    between atoms: C5_5  and  C6_6 
REMARK    3  A    between atoms: C6_6  and  C7_7 
REMARK    4  A    between atoms: C7_7  and  C9_9 
REMARK    5  A    between atoms: C12_12  and  C13_13 
REMARK    6  A    between atoms: C13_13  and  O2_15 
ROOT
HETATM    1  C9  UNL     1      -2.027  52.785  -9.612  1.00  0.00    -0.001 C 
HETATM    2  C10 UNL     1      -1.842  51.666  -8.558  1.00  0.00     0.007 C 
HETATM    3  C11 UNL     1      -0.429  51.860  -7.960  1.00  0.00     0.026 C 
HETATM    4  C12 UNL     1       0.013  53.265  -8.436  1.00  0.00     0.076 C 
HETATM    5  C14 UNL     1       1.489  53.630  -8.467  1.00  0.00    -0.057 C 
HETATM    6  C15 UNL     1       1.966  54.537  -9.355  1.00  0.00    -0.067 C 
HETATM    7  C16 UNL     1       1.009  55.207 -10.366  1.00  0.00     0.036 C 
HETATM    8  C17 UNL     1      -0.426  54.649 -10.514  1.00  0.00     0.015 C 
HETATM    9  C18 UNL     1      -0.571  53.257  -9.894  1.00  0.00    -0.018 C 
HETATM   10  C19 UNL     1       0.165  52.267 -10.849  1.00  0.00     0.017 C 
HETATM   11  C20 UNL     1       3.485  54.892  -9.455  1.00  0.00    -0.015 C 
HETATM   12  C21 UNL     1       3.980  54.274 -10.793  1.00  0.00     0.020 C 
HETATM   13  C22 UNL     1       3.691  56.433  -9.533  1.00  0.00     0.021 C 
HETATM   14  C23 UNL     1       3.873  57.070  -8.169  1.00  0.00     0.080 C 
HETATM   15  C24 UNL     1       5.158  56.584  -7.539  1.00  0.00     0.135 C 
HETATM   16  O3  UNL     1       5.806  57.332  -6.802  1.00  0.00    -0.297 OA
HETATM   17  C25 UNL     1       5.613  55.151  -7.845  1.00  0.00     0.018 C 
HETATM   18  C26 UNL     1       6.705  55.211  -8.932  1.00  0.00     0.023 C 
HETATM   19  C27 UNL     1       6.301  54.586  -6.578  1.00  0.00     0.023 C 
HETATM   20  C28 UNL     1       4.379  54.269  -8.285  1.00  0.00     0.013 C 
HETATM   21  C29 UNL     1       3.529  53.861  -7.062  1.00  0.00     0.011 C 
HETATM   22  C30 UNL     1       2.361  52.975  -7.443  1.00  0.00     0.036 C 
ENDROOT
BRANCH   1  23
HETATM   23  C7  UNL     1      -2.963  52.465 -10.814  1.00  0.00    -0.014 C 
HETATM   24  C8  UNL     1      -4.179  53.406 -10.737  1.00  0.00     0.010 C 
BRANCH  23  25
HETATM   25  C6  UNL     1      -3.446  50.996 -10.907  1.00  0.00     0.008 C 
BRANCH  25  26
HETATM   26  C5  UNL     1      -4.804  50.723 -10.237  1.00  0.00     0.028 C 
BRANCH  26  27
HETATM   27  C4  UNL     1      -5.559  49.565 -10.827  1.00  0.00    -0.025 C 
HETATM   28  C2  UNL     1      -6.834  49.192 -10.596  1.00  0.00    -0.091 C 
HETATM   29  C1  UNL     1      -7.790  49.875  -9.657  1.00  0.00     0.042 C 
HETATM   30  C3  UNL     1      -7.414  47.989 -11.297  1.00  0.00     0.042 C 
ENDBRANCH  26  27
ENDBRANCH  25  26
ENDBRANCH  23  25
ENDBRANCH   1  23
BRANCH   4  31
HETATM   31  C13 UNL     1      -0.608  54.325  -7.474  1.00  0.00     0.153 C 
HETATM   32  O1  UNL     1      -0.556  55.543  -7.560  1.00  0.00    -0.649 OA
BRANCH  31  33
HETATM   33  O2  UNL     1      -1.205  53.793  -6.384  1.00  0.00    -0.776 OA
HETATM   34  H21 UNL     1      -1.480  54.581  -5.871  1.00  0.00     0.167 HD
ENDBRANCH  31  33
ENDBRANCH   4  31
TORSDOF 6
ENDMDL
MODEL 2
REMARK minimizedAffinity -7.48068619
REMARK CNNscore 0.665580869
REMARK CNNaffinity 6.05061865
REMARK  6 active torsions:
REMARK  status: ('A' for Active; 'I' for Inactive)
REMARK    1  A    between atoms: C4_4  and  C5_5 
REMARK    2  A    between atoms: C5_5  and  C6_6 
REMARK    3  A    between atoms: C6_6  and  C7_7 
REMARK    4  A    between atoms: C7_7  and  C9_9 
REMARK    5  A    between atoms: C12_12  and  C13_13 
REMARK    6  A    between atoms: C13_13  and  O2_15 
ROOT
HETATM    1  C9  UNL     1     -16.670  45.709 -26.597  1.00  0.00    -0.001 C 
HETATM    2  C10 UNL     1     -17.673  44.634 -27.081  1.00  0.00     0.007 C 
HETATM    3  C11 UNL     1     -18.450  44.168 -25.828  1.00  0.00     0.026 C 
HETATM    4  C12 UNL     1     -18.114  45.216 -24.740  1.00  0.00     0.076 C 
HETATM    5  C14 UNL     1     -18.285  44.871 -23.269  1.00  0.00    -0.057 C 
HETATM    6  C15 UNL     1     -17.516  45.457 -22.319  1.00  0.00    -0.067 C 
HETATM    7  C16 UNL     1     -16.435  46.483 -22.724  1.00  0.00     0.036 C 
HETATM    8  C17 UNL     1     -16.080  46.638 -24.223  1.00  0.00     0.015 C 
HETATM    9  C18 UNL     1     -16.597  45.467 -25.061  1.00  0.00    -0.018 C 
HETATM   10  C19 UNL     1     -15.684  44.246 -24.729  1.00  0.00     0.017 C 
HETATM   11  C20 UNL     1     -17.624  45.083 -20.805  1.00  0.00    -0.015 C 
HETATM   12  C21 UNL     1     -16.323  44.300 -20.466  1.00  0.00     0.020 C 
HETATM   13  C22 UNL     1     -17.660  46.362 -19.918  1.00  0.00     0.021 C 
HETATM   14  C23 UNL     1     -19.070  46.853 -19.655  1.00  0.00     0.080 C 
HETATM   15  C24 UNL     1     -19.824  45.840 -18.826  1.00  0.00     0.135 C 
HETATM   16  O3  UNL     1     -20.677  46.214 -18.017  1.00  0.00    -0.297 OA
HETATM   17  C25 UNL     1     -19.495  44.354 -19.029  1.00  0.00     0.018 C 
HETATM   18  C26 UNL     1     -18.556  43.906 -17.891  1.00  0.00     0.023 C 
HETATM   19  C27 UNL     1     -20.803  43.544 -18.848  1.00  0.00     0.023 C 
HETATM   20  C28 UNL     1     -18.857  44.127 -20.456  1.00  0.00     0.013 C 
HETATM   21  C29 UNL     1     -19.941  44.156 -21.555  1.00  0.00     0.011 C 
HETATM   22  C30 UNL     1     -19.369  43.895 -22.934  1.00  0.00     0.036 C 
ENDROOT
BRANCH   1  23
HETATM   23  C7  UNL     1     -15.345  45.843 -27.404  1.00  0.00    -0.014 C 
HETATM   24  C8  UNL     1     -15.207  44.601 -28.304  1.00  0.00     0.010 C 
BRANCH  23  25
HETATM   25  C6  UNL     1     -14.063  46.017 -26.554  1.00  0.00     0.008 C 
BRANCH  25  26
HETATM   26  C5  UNL     1     -13.317  47.343 -26.780  1.00  0.00     0.028 C 
BRANCH  26  27
HETATM   27  C4  UNL     1     -12.765  47.509 -28.169  1.00  0.00    -0.025 C 
HETATM   28  C2  UNL     1     -11.475  47.545 -28.558  1.00  0.00    -0.091 C 
HETATM   29  C1  UNL     1     -10.282  47.436 -27.648  1.00  0.00     0.042 C 
HETATM   30  C3  UNL     1     -11.123  47.718 -30.014  1.00  0.00     0.042 C 
ENDBRANCH  26  27
ENDBRANCH  25  26
ENDBRANCH  23  25
ENDBRANCH   1  23
BRANCH   4  31
HETATM   31  C13 UNL     1     -19.051  46.447 -24.940  1.00  0.00     0.153 C 
HETATM   32  O1  UNL     1     -18.790  47.629 -24.771  1.00  0.00    -0.649 OA
BRANCH  31  33
HETATM   33  O2  UNL     1     -20.320  46.121 -25.272  1.00  0.00    -0.776 OA
HETATM   34  H21 UNL     1     -20.775  46.989 -25.298  1.00  0.00     0.167 HD
ENDBRANCH  31  33
ENDBRANCH   4  31
TORSDOF 6
ENDMDL
MODEL 3
REMARK minimizedAffinity -8.02877617
REMARK CNNscore 0.611701727
REMARK CNNaffinity 6.86592865
REMARK  6 active torsions:
REMARK  status: ('A' for Active; 'I' for Inactive)
REMARK    1  A    between atoms: C4_4  and  C5_5 
REMARK    2  A    between atoms: C5_5  and  C6_6 
REMARK    3  A    between atoms: C6_6  and  C7_7 
REMARK    4  A    between atoms: C7_7  and  C9_9 
REMARK    5  A    between atoms: C12_12  and  C13_13 
REMARK    6  A    between atoms: C13_13  and  O2_15 
ROOT
HETATM    1  C9  UNL     1      -1.679  51.215 -21.590  1.00  0.00    -0.001 C 
HETATM    2  C10 UNL     1      -2.998  51.922 -21.987  1.00  0.00     0.007 C 
HETATM    3  C11 UNL     1      -4.146  51.055 -21.419  1.00  0.00     0.026 C 
HETATM    4  C12 UNL     1      -3.455  50.079 -20.436  1.00  0.00     0.076 C 
HETATM    5  C14 UNL     1      -4.142  48.780 -20.042  1.00  0.00    -0.057 C 
HETATM    6  C15 UNL     1      -3.420  47.686 -19.696  1.00  0.00    -0.067 C 
HETATM    7  C16 UNL     1      -1.877  47.740 -19.710  1.00  0.00     0.036 C 
HETATM    8  C17 UNL     1      -1.181  48.961 -20.359  1.00  0.00     0.015 C 
HETATM    9  C18 UNL     1      -2.138  49.771 -21.236  1.00  0.00    -0.018 C 
HETATM   10  C19 UNL     1      -2.381  48.927 -22.526  1.00  0.00     0.017 C 
HETATM   11  C20 UNL     1      -4.091  46.318 -19.343  1.00  0.00    -0.015 C 
HETATM   12  C21 UNL     1      -3.767  45.366 -20.530  1.00  0.00     0.020 C 
HETATM   13  C22 UNL     1      -3.465  45.709 -18.055  1.00  0.00     0.021 C 
HETATM   14  C23 UNL     1      -4.198  46.125 -16.794  1.00  0.00     0.080 C 
HETATM   15  C24 UNL     1      -5.598  45.556 -16.798  1.00  0.00     0.135 C 
HETATM   16  O3  UNL     1      -6.136  45.233 -15.736  1.00  0.00    -0.297 OA
HETATM   17  C25 UNL     1      -6.309  45.400 -18.149  1.00  0.00     0.018 C 
HETATM   18  C26 UNL     1      -6.200  43.926 -18.587  1.00  0.00     0.023 C 
HETATM   19  C27 UNL     1      -7.818  45.671 -17.931  1.00  0.00     0.023 C 
HETATM   20  C28 UNL     1      -5.683  46.387 -19.212  1.00  0.00     0.013 C 
HETATM   21  C29 UNL     1      -6.183  47.830 -18.984  1.00  0.00     0.011 C 
HETATM   22  C30 UNL     1      -5.637  48.797 -20.015  1.00  0.00     0.036 C 
ENDROOT
BRANCH   1  23
HETATM   23  C7  UNL     1      -0.467  51.409 -22.547  1.00  0.00    -0.014 C 
HETATM   24  C8  UNL     1       0.327  52.640 -22.069  1.00  0.00     0.010 C 
BRANCH  23  25
HETATM   25  C6  UNL     1      -0.822  51.568 -24.046  1.00  0.00     0.008 C 
BRANCH  25  26
HETATM   26  C5  UNL     1      -0.095  52.721 -24.760  1.00  0.00     0.028 C 
BRANCH  26  27
HETATM   27  C4  UNL     1       1.154  52.305 -25.485  1.00  0.00    -0.025 C 
HETATM   28  C2  UNL     1       1.306  52.019 -26.794  1.00  0.00    -0.091 C 
HETATM   29  C1  UNL     1       0.216  52.049 -27.829  1.00  0.00     0.042 C 
HETATM   30  C3  UNL     1       2.656  51.620 -27.334  1.00  0.00     0.042 C 
ENDBRANCH  26  27
ENDBRANCH  25  26
ENDBRANCH  23  25
ENDBRANCH   1  23
BRANCH   4  31
HETATM   31  C13 UNL     1      -3.253  50.815 -19.076  1.00  0.00     0.153 C 
HETATM   32  O1  UNL     1      -2.839  51.949 -18.887  1.00  0.00    -0.649 OA
BRANCH  31  33
HETATM   33  O2  UNL     1      -3.511  50.048 -17.994  1.00  0.00    -0.776 OA
HETATM   34  H21 UNL     1      -3.280  50.634 -17.243  1.00  0.00     0.167 HD
ENDBRANCH  31  33
ENDBRANCH   4  31
TORSDOF 6
ENDMDL
MODEL 4
REMARK minimizedAffinity -7.63155985
REMARK CNNscore 0.471036375
REMARK CNNaffinity 6.15412855
REMARK  6 active torsions:
REMARK  status: ('A' for Active; 'I' for Inactive)
REMARK    1  A    between atoms: C4_4  and  C5_5 
REMARK    2  A    between atoms: C5_5  and  C6_6 
REMARK    3  A    between atoms: C6_6  and  C7_7 
REMARK    4  A    between atoms: C7_7  and  C9_9 
REMARK    5  A    between atoms: C12_12  and  C13_13 
REMARK    6  A    between atoms: C13_13  and  O2_15 
ROOT
HETATM    1  C9  UNL     1      -7.517  47.923 -25.645  1.00  0.00    -0.001 C 
HETATM    2  C10 UNL     1      -7.530  47.800 -27.189  1.00  0.00     0.007 C 
HETATM    3  C11 UNL     1      -8.939  47.291 -27.573  1.00  0.00     0.026 C 
HETATM    4  C12 UNL     1      -9.786  47.462 -26.289  1.00  0.00     0.076 C 
HETATM    5  C14 UNL     1     -11.063  46.657 -26.104  1.00  0.00    -0.057 C 
HETATM    6  C15 UNL     1     -11.506  46.324 -24.867  1.00  0.00    -0.067 C 
HETATM    7  C16 UNL     1     -10.704  46.749 -23.617  1.00  0.00     0.036 C 
HETATM    8  C17 UNL     1      -9.283  47.331 -23.808  1.00  0.00     0.015 C 
HETATM    9  C18 UNL     1      -8.727  47.049 -25.205  1.00  0.00    -0.018 C 
HETATM   10  C19 UNL     1      -8.365  45.531 -25.241  1.00  0.00     0.017 C 
HETATM   11  C20 UNL     1     -12.781  45.447 -24.642  1.00  0.00    -0.015 C 
HETATM   12  C21 UNL     1     -12.266  44.071 -24.130  1.00  0.00     0.020 C 
HETATM   13  C22 UNL     1     -13.689  46.061 -23.537  1.00  0.00     0.021 C 
HETATM   14  C23 UNL     1     -14.729  47.012 -24.096  1.00  0.00     0.080 C 
HETATM   15  C24 UNL     1     -15.708  46.256 -24.963  1.00  0.00     0.135 C 
HETATM   16  O3  UNL     1     -16.887  46.614 -25.020  1.00  0.00    -0.297 OA
HETATM   17  C25 UNL     1     -15.186  45.050 -25.756  1.00  0.00     0.018 C 
HETATM   18  C26 UNL     1     -15.572  43.766 -24.995  1.00  0.00     0.023 C 
HETATM   19  C27 UNL     1     -15.949  44.995 -27.103  1.00  0.00     0.023 C 
HETATM   20  C28 UNL     1     -13.626  45.173 -25.971  1.00  0.00     0.013 C 
HETATM   21  C29 UNL     1     -13.302  46.192 -27.084  1.00  0.00     0.011 C 
HETATM   22  C30 UNL     1     -11.814  46.301 -27.348  1.00  0.00     0.036 C 
ENDROOT
BRANCH   1  23
HETATM   23  C7  UNL     1      -6.143  47.722 -24.941  1.00  0.00    -0.014 C 
HETATM   24  C8  UNL     1      -6.380  47.732 -23.419  1.00  0.00     0.010 C 
BRANCH  23  25
HETATM   25  C6  UNL     1      -5.051  48.758 -25.306  1.00  0.00     0.008 C 
BRANCH  25  26
HETATM   26  C5  UNL     1      -3.992  48.251 -26.301  1.00  0.00     0.028 C 
BRANCH  26  27
HETATM   27  C4  UNL     1      -2.647  48.905 -26.153  1.00  0.00    -0.025 C 
HETATM   28  C2  UNL     1      -2.203  50.045 -26.720  1.00  0.00    -0.091 C 
HETATM   29  C1  UNL     1      -2.988  50.919 -27.660  1.00  0.00     0.042 C 
HETATM   30  C3  UNL     1      -0.807  50.541 -26.441  1.00  0.00     0.042 C 
ENDBRANCH  26  27
ENDBRANCH  25  26
ENDBRANCH  23  25
ENDBRANCH   1  23
BRANCH   4  31
HETATM   31  C13 UNL     1     -10.272  48.943 -26.217  1.00  0.00     0.153 C 
HETATM   32  O1  UNL     1      -9.712  49.895 -25.694  1.00  0.00    -0.649 OA
BRANCH  31  33
HETATM   33  O2  UNL     1     -11.499  49.143 -26.745  1.00  0.00    -0.776 OA
HETATM   34  H21 UNL     1     -11.669  50.092 -26.565  1.00  0.00     0.167 HD
ENDBRANCH  31  33
ENDBRANCH   4  31
TORSDOF 6
ENDMDL
MODEL 5
REMARK minimizedAffinity -7.35484648
REMARK CNNscore 0.454211622
REMARK CNNaffinity 6.66094589
REMARK  6 active torsions:
REMARK  status: ('A' for Active; 'I' for Inactive)
REMARK    1  A    between atoms: C4_4  and  C5_5 
REMARK    2  A    between atoms: C5_5  and  C6_6 
REMARK    3  A    between atoms: C6_6  and  C7_7 
REMARK    4  A    between atoms: C7_7  and  C9_9 
REMARK    5  A    between atoms: C12_12  and  C13_13 
REMARK    6  A    between atoms: C13_13  and  O2_15 
ROOT
HETATM    1  C9  UNL     1      -2.029  53.020  -9.326  1.00  0.00    -0.001 C 
HETATM    2  C10 UNL     1      -1.876  51.950  -8.217  1.00  0.00     0.007 C 
HETATM    3  C11 UNL     1      -0.462  52.139  -7.622  1.00  0.00     0.026 C 
HETATM    4  C12 UNL     1       0.016  53.509  -8.163  1.00  0.00     0.076 C 
HETATM    5  C14 UNL     1       1.500  53.837  -8.203  1.00  0.00    -0.057 C 
HETATM    6  C15 UNL     1       2.002  54.688  -9.131  1.00  0.00    -0.067 C 
HETATM    7  C16 UNL     1       1.067  55.330 -10.179  1.00  0.00     0.036 C 
HETATM    8  C17 UNL     1      -0.381  54.799 -10.308  1.00  0.00     0.015 C 
HETATM    9  C18 UNL     1      -0.561  53.443  -9.622  1.00  0.00    -0.018 C 
HETATM   10  C19 UNL     1       0.155  52.390 -10.524  1.00  0.00     0.017 C 
HETATM   11  C20 UNL     1       3.530  55.003  -9.240  1.00  0.00    -0.015 C 
HETATM   12  C21 UNL     1       4.016  54.308 -10.543  1.00  0.00     0.020 C 
HETATM   13  C22 UNL     1       3.772  56.533  -9.391  1.00  0.00     0.021 C 
HETATM   14  C23 UNL     1       3.963  57.231  -8.059  1.00  0.00     0.080 C 
HETATM   15  C24 UNL     1       5.233  56.747  -7.399  1.00  0.00     0.135 C 
HETATM   16  O3  UNL     1       5.895  57.514  -6.696  1.00  0.00    -0.297 OA
HETATM   17  C25 UNL     1       5.656  55.290  -7.632  1.00  0.00     0.018 C 
HETATM   18  C26 UNL     1       6.754  55.271  -8.714  1.00  0.00     0.023 C 
HETATM   19  C27 UNL     1       6.325  54.771  -6.335  1.00  0.00     0.023 C 
HETATM   20  C28 UNL     1       4.403  54.416  -8.035  1.00  0.00     0.013 C 
HETATM   21  C29 UNL     1       3.539  54.089  -6.799  1.00  0.00     0.011 C 
HETATM   22  C30 UNL     1       2.352  53.212  -7.144  1.00  0.00     0.036 C 
ENDROOT
BRANCH   1  23
HETATM   23  C7  UNL     1      -2.967  52.663 -10.516  1.00  0.00    -0.014 C 
HETATM   24  C8  UNL     1      -3.915  53.854 -10.752  1.00  0.00     0.010 C 
BRANCH  23  25
HETATM   25  C6  UNL     1      -3.795  51.365 -10.344  1.00  0.00     0.008 C 
BRANCH  25  26
HETATM   26  C5  UNL     1      -3.470  50.256 -11.361  1.00  0.00     0.028 C 
BRANCH  26  27
HETATM   27  C4  UNL     1      -2.239  50.518 -12.183  1.00  0.00    -0.025 C 
HETATM   28  C2  UNL     1      -2.148  51.107 -13.392  1.00  0.00    -0.091 C 
HETATM   29  C1  UNL     1      -3.304  51.631 -14.199  1.00  0.00     0.042 C 
HETATM   30  C3  UNL     1      -0.806  51.280 -14.056  1.00  0.00     0.042 C 
ENDBRANCH  26  27
ENDBRANCH  25  26
ENDBRANCH  23  25
ENDBRANCH   1  23
BRANCH   4  31
HETATM   31  C13 UNL     1      -0.585  54.629  -7.257  1.00  0.00     0.153 C 
HETATM   32  O1  UNL     1      -0.562  55.837  -7.438  1.00  0.00    -0.649 OA
BRANCH  31  33
HETATM   33  O2  UNL     1      -1.123  54.172  -6.105  1.00  0.00    -0.776 OA
HETATM   34  H21 UNL     1      -1.391  54.992  -5.641  1.00  0.00     0.167 HD
ENDBRANCH  31  33
ENDBRANCH   4  31
TORSDOF 6
ENDMDL
MODEL 6
REMARK minimizedAffinity -7.78185177
REMARK CNNscore 0.419341117
REMARK CNNaffinity 5.82181978
REMARK  6 active torsions:
REMARK  status: ('A' for Active; 'I' for Inactive)
REMARK    1  A    between atoms: C4_4  and  C5_5 
REMARK    2  A    between atoms: C5_5  and  C6_6 
REMARK    3  A    between atoms: C6_6  and  C7_7 
REMARK    4  A    between atoms: C7_7  and  C9_9 
REMARK    5  A    between atoms: C12_12  and  C13_13 
REMARK    6  A    between atoms: C13_13  and  O2_15 
ROOT
HETATM    1  C9  UNL     1      -9.105  47.165 -29.008  1.00  0.00    -0.001 C 
HETATM    2  C10 UNL     1      -9.914  48.114 -29.927  1.00  0.00     0.007 C 
HETATM    3  C11 UNL     1     -11.394  47.685 -29.802  1.00  0.00     0.026 C 
HETATM    4  C12 UNL     1     -11.431  46.742 -28.574  1.00  0.00     0.076 C 
HETATM    5  C14 UNL     1     -12.574  45.754 -28.406  1.00  0.00    -0.057 C 
HETATM    6  C15 UNL     1     -12.394  44.584 -27.745  1.00  0.00    -0.067 C 
HETATM    7  C16 UNL     1     -11.009  44.230 -27.161  1.00  0.00     0.036 C 
HETATM    8  C17 UNL     1      -9.791  45.100 -27.555  1.00  0.00     0.015 C 
HETATM    9  C18 UNL     1     -10.078  45.972 -28.780  1.00  0.00    -0.018 C 
HETATM   10  C19 UNL     1     -10.091  45.016 -30.013  1.00  0.00     0.017 C 
HETATM   11  C20 UNL     1     -13.529  43.518 -27.605  1.00  0.00    -0.015 C 
HETATM   12  C21 UNL     1     -13.112  42.329 -28.516  1.00  0.00     0.020 C 
HETATM   13  C22 UNL     1     -13.620  42.993 -26.142  1.00  0.00     0.021 C 
HETATM   14  C23 UNL     1     -14.588  43.793 -25.292  1.00  0.00     0.080 C 
HETATM   15  C24 UNL     1     -15.997  43.615 -25.808  1.00  0.00     0.135 C 
HETATM   16  O3  UNL     1     -16.949  43.628 -25.023  1.00  0.00    -0.297 OA
HETATM   17  C25 UNL     1     -16.193  43.425 -27.318  1.00  0.00     0.018 C 
HETATM   18  C26 UNL     1     -16.392  41.921 -27.595  1.00  0.00     0.023 C 
HETATM   19  C27 UNL     1     -17.521  44.112 -27.720  1.00  0.00     0.023 C 
HETATM   20  C28 UNL     1     -14.961  44.021 -28.107  1.00  0.00     0.013 C 
HETATM   21  C29 UNL     1     -15.043  45.561 -28.173  1.00  0.00     0.011 C 
HETATM   22  C30 UNL     1     -13.900  46.164 -28.964  1.00  0.00     0.036 C 
ENDROOT
BRANCH   1  23
HETATM   23  C7  UNL     1      -7.635  46.873 -29.427  1.00  0.00    -0.014 C 
HETATM   24  C8  UNL     1      -7.227  45.515 -28.824  1.00  0.00     0.010 C 
BRANCH  23  25
HETATM   25  C6  UNL     1      -6.601  47.954 -29.024  1.00  0.00     0.008 C 
BRANCH  25  26
HETATM   26  C5  UNL     1      -6.004  47.777 -27.617  1.00  0.00     0.028 C 
BRANCH  26  27
HETATM   27  C4  UNL     1      -4.584  48.254 -27.488  1.00  0.00    -0.025 C 
HETATM   28  C2  UNL     1      -3.903  48.562 -26.367  1.00  0.00    -0.091 C 
HETATM   29  C1  UNL     1      -4.448  48.501 -24.966  1.00  0.00     0.042 C 
HETATM   30  C3  UNL     1      -2.469  49.023 -26.449  1.00  0.00     0.042 C 
ENDBRANCH  26  27
ENDBRANCH  25  26
ENDBRANCH  23  25
ENDBRANCH   1  23
BRANCH   4  31
HETATM   31  C13 UNL     1     -11.511  47.620 -27.287  1.00  0.00     0.153 C 
HETATM   32  O1  UNL     1     -11.050  47.379 -26.181  1.00  0.00    -0.649 OA
BRANCH  31  33
HETATM   33  O2  UNL     1     -12.252  48.741 -27.433  1.00  0.00    -0.776 OA
HETATM   34  H21 UNL     1     -12.247  49.132 -26.534  1.00  0.00     0.167 HD
ENDBRANCH  31  33
ENDBRANCH   4  31
TORSDOF 6
ENDMDL
MODEL 7
REMARK minimizedAffinity -7.14988613
REMARK CNNscore 0.406779557
REMARK CNNaffinity 6.39723921
REMARK  6 active torsions:
REMARK  status: ('A' for Active; 'I' for Inactive)
REMARK    1  A    between atoms: C4_4  and  C5_5 
REMARK    2  A    between atoms: C5_5  and  C6_6 
REMARK    3  A    between atoms: C6_6  and  C7_7 
REMARK    4  A    between atoms: C7_7  and  C9_9 
REMARK    5  A    between atoms: C12_12  and  C13_13 
REMARK    6  A    between atoms: C13_13  and  O2_15 
ROOT
HETATM    1  C9  UNL     1      -0.110  53.311 -11.341  1.00  0.00    -0.001 C 
HETATM    2  C10 UNL     1      -0.934  52.496 -10.314  1.00  0.00     0.007 C 
HETATM    3  C11 UNL     1      -0.480  52.972  -8.915  1.00  0.00     0.026 C 
HETATM    4  C12 UNL     1       0.328  54.266  -9.180  1.00  0.00     0.076 C 
HETATM    5  C14 UNL     1       1.324  54.768  -8.146  1.00  0.00    -0.057 C 
HETATM    6  C15 UNL     1       2.412  55.487  -8.516  1.00  0.00    -0.067 C 
HETATM    7  C16 UNL     1       2.664  55.796 -10.009  1.00  0.00     0.036 C 
HETATM    8  C17 UNL     1       1.808  55.070 -11.074  1.00  0.00     0.015 C 
HETATM    9  C18 UNL     1       1.078  53.855 -10.497  1.00  0.00    -0.018 C 
HETATM   10  C19 UNL     1       2.160  52.752 -10.274  1.00  0.00     0.017 C 
HETATM   11  C20 UNL     1       3.488  55.968  -7.488  1.00  0.00    -0.015 C 
HETATM   12  C21 UNL     1       4.755  55.109  -7.765  1.00  0.00     0.020 C 
HETATM   13  C22 UNL     1       3.857  57.460  -7.729  1.00  0.00     0.021 C 
HETATM   14  C23 UNL     1       2.999  58.414  -6.921  1.00  0.00     0.080 C 
HETATM   15  C24 UNL     1       3.268  58.228  -5.446  1.00  0.00     0.135 C 
HETATM   16  O3  UNL     1       3.199  59.192  -4.679  1.00  0.00    -0.297 OA
HETATM   17  C25 UNL     1       3.623  56.820  -4.950  1.00  0.00     0.018 C 
HETATM   18  C26 UNL     1       5.152  56.739  -4.772  1.00  0.00     0.023 C 
HETATM   19  C27 UNL     1       3.018  56.643  -3.536  1.00  0.00     0.023 C 
HETATM   20  C28 UNL     1       3.080  55.734  -5.961  1.00  0.00     0.013 C 
HETATM   21  C29 UNL     1       1.558  55.536  -5.791  1.00  0.00     0.011 C 
HETATM   22  C30 UNL     1       1.011  54.466  -6.715  1.00  0.00     0.036 C 
ENDROOT
BRANCH   1  23
HETATM   23  C7  UNL     1       0.185  52.620 -12.705  1.00  0.00    -0.014 C 
HETATM   24  C8  UNL     1      -1.155  52.155 -13.305  1.00  0.00     0.010 C 
BRANCH  23  25
HETATM   25  C6  UNL     1       1.172  51.428 -12.646  1.00  0.00     0.008 C 
BRANCH  25  26
HETATM   26  C5  UNL     1       2.329  51.502 -13.658  1.00  0.00     0.028 C 
BRANCH  26  27
HETATM   27  C4  UNL     1       1.908  51.895 -15.046  1.00  0.00    -0.025 C 
HETATM   28  C2  UNL     1       2.684  52.285 -16.077  1.00  0.00    -0.091 C 
HETATM   29  C1  UNL     1       4.181  52.423 -16.044  1.00  0.00     0.042 C 
HETATM   30  C3  UNL     1       2.063  52.639 -17.406  1.00  0.00     0.042 C 
ENDBRANCH  26  27
ENDBRANCH  25  26
ENDBRANCH  23  25
ENDBRANCH   1  23
BRANCH   4  31
HETATM   31  C13 UNL     1      -0.678  55.450  -9.326  1.00  0.00     0.153 C 
HETATM   32  O1  UNL     1      -0.952  56.311  -8.504  1.00  0.00    -0.649 OA
BRANCH  31  33
HETATM   33  O2  UNL     1      -1.364  55.445 -10.491  1.00  0.00    -0.776 OA
HETATM   34  H21 UNL     1      -1.979  56.202 -10.392  1.00  0.00     0.167 HD
ENDBRANCH  31  33
ENDBRANCH   4  31
TORSDOF 6
ENDMDL
MODEL 8
REMARK minimizedAffinity -8.1588707
REMARK CNNscore 0.329938114
REMARK CNNaffinity 6.54907465
REMARK  6 active torsions:
REMARK  status: ('A' for Active; 'I' for Inactive)
REMARK    1  A    between atoms: C4_4  and  C5_5 
REMARK    2  A    between atoms: C5_5  and  C6_6 
REMARK    3  A    between atoms: C6_6  and  C7_7 
REMARK    4  A    between atoms: C7_7  and  C9_9 
REMARK    5  A    between atoms: C12_12  and  C13_13 
REMARK    6  A    between atoms: C13_13  and  O2_15 
ROOT
HETATM    1  C9  UNL     1      -2.647  50.231 -22.283  1.00  0.00    -0.001 C 
HETATM    2  C10 UNL     1      -3.083  48.765 -22.525  1.00  0.00     0.007 C 
HETATM    3  C11 UNL     1      -3.072  48.073 -21.142  1.00  0.00     0.026 C 
HETATM    4  C12 UNL     1      -2.966  49.232 -20.121  1.00  0.00     0.076 C 
HETATM    5  C14 UNL     1      -2.457  48.963 -18.713  1.00  0.00    -0.057 C 
HETATM    6  C15 UNL     1      -1.818  49.927 -18.005  1.00  0.00    -0.067 C 
HETATM    7  C16 UNL     1      -1.585  51.320 -18.631  1.00  0.00     0.036 C 
HETATM    8  C17 UNL     1      -1.861  51.513 -20.142  1.00  0.00     0.015 C 
HETATM    9  C18 UNL     1      -1.971  50.178 -20.883  1.00  0.00    -0.018 C 
HETATM   10  C19 UNL     1      -0.523  49.604 -20.980  1.00  0.00     0.017 C 
HETATM   11  C20 UNL     1      -1.229  49.669 -16.580  1.00  0.00    -0.015 C 
HETATM   12  C21 UNL     1       0.316  49.667 -16.752  1.00  0.00     0.020 C 
HETATM   13  C22 UNL     1      -1.603  50.825 -15.607  1.00  0.00     0.021 C 
HETATM   14  C23 UNL     1      -2.898  50.568 -14.862  1.00  0.00     0.080 C 
HETATM   15  C24 UNL     1      -2.737  49.382 -13.939  1.00  0.00     0.135 C 
HETATM   16  O3  UNL     1      -3.347  49.345 -12.868  1.00  0.00    -0.297 OA
HETATM   17  C25 UNL     1      -1.803  48.247 -14.381  1.00  0.00     0.018 C 
HETATM   18  C26 UNL     1      -0.455  48.416 -13.652  1.00  0.00     0.023 C 
HETATM   19  C27 UNL     1      -2.399  46.911 -13.873  1.00  0.00     0.023 C 
HETATM   20  C28 UNL     1      -1.639  48.257 -15.952  1.00  0.00     0.013 C 
HETATM   21  C29 UNL     1      -2.884  47.656 -16.640  1.00  0.00     0.011 C 
HETATM   22  C30 UNL     1      -2.740  47.608 -18.147  1.00  0.00     0.036 C 
ENDROOT
BRANCH   1  23
HETATM   23  C7  UNL     1      -1.907  50.943 -23.453  1.00  0.00    -0.014 C 
HETATM   24  C8  UNL     1      -2.497  52.358 -23.602  1.00  0.00     0.010 C 
BRANCH  23  25
HETATM   25  C6  UNL     1      -1.961  50.210 -24.817  1.00  0.00     0.008 C 
BRANCH  25  26
HETATM   26  C5  UNL     1      -1.311  50.974 -25.983  1.00  0.00     0.028 C 
BRANCH  26  27
HETATM   27  C4  UNL     1       0.189  51.042 -25.914  1.00  0.00    -0.025 C 
HETATM   28  C2  UNL     1       1.055  51.422 -26.874  1.00  0.00    -0.091 C 
HETATM   29  C1  UNL     1       0.684  51.861 -28.264  1.00  0.00     0.042 C 
HETATM   30  C3  UNL     1       2.539  51.424 -26.604  1.00  0.00     0.042 C 
ENDBRANCH  26  27
ENDBRANCH  25  26
ENDBRANCH  23  25
ENDBRANCH   1  23
BRANCH   4  31
HETATM   31  C13 UNL     1      -4.396  49.813 -19.890  1.00  0.00     0.153 C 
HETATM   32  O1  UNL     1      -5.369  49.251 -19.411  1.00  0.00    -0.649 OA
BRANCH  31  33
HETATM   33  O2  UNL     1      -4.558  51.071 -20.356  1.00  0.00    -0.776 OA
HETATM   34  H21 UNL     1      -5.506  51.252 -20.188  1.00  0.00     0.167 HD
ENDBRANCH  31  33
ENDBRANCH   4  31
TORSDOF 6
ENDMDL
MODEL 9
REMARK minimizedAffinity -7.5089941
REMARK CNNscore 0.310278118
REMARK CNNaffinity 5.47666979
REMARK  6 active torsions:
REMARK  status: ('A' for Active; 'I' for Inactive)
REMARK    1  A    between atoms: C4_4  and  C5_5 
REMARK    2  A    between atoms: C5_5  and  C6_6 
REMARK    3  A    between atoms: C6_6  and  C7_7 
REMARK    4  A    between atoms: C7_7  and  C9_9 
REMARK    5  A    between atoms: C12_12  and  C13_13 
REMARK    6  A    between atoms: C13_13  and  O2_15 
ROOT
HETATM    1  C9  UNL     1      -8.889  47.331 -27.875  1.00  0.00    -0.001 C 
HETATM    2  C10 UNL     1      -9.452  48.168 -29.051  1.00  0.00     0.007 C 
HETATM    3  C11 UNL     1     -10.898  47.674 -29.284  1.00  0.00     0.026 C 
HETATM    4  C12 UNL     1     -11.233  46.823 -28.035  1.00  0.00     0.076 C 
HETATM    5  C14 UNL     1     -12.350  45.793 -28.091  1.00  0.00    -0.057 C 
HETATM    6  C15 UNL     1     -12.318  44.685 -27.309  1.00  0.00    -0.067 C 
HETATM    7  C16 UNL     1     -11.128  44.446 -26.353  1.00  0.00     0.036 C 
HETATM    8  C17 UNL     1      -9.876  45.346 -26.485  1.00  0.00     0.015 C 
HETATM    9  C18 UNL     1      -9.852  46.110 -27.811  1.00  0.00    -0.018 C 
HETATM   10  C19 UNL     1      -9.508  45.066 -28.919  1.00  0.00     0.017 C 
HETATM   11  C20 UNL     1     -13.418  43.576 -27.384  1.00  0.00    -0.015 C 
HETATM   12  C21 UNL     1     -12.738  42.346 -28.050  1.00  0.00     0.020 C 
HETATM   13  C22 UNL     1     -13.879  43.156 -25.958  1.00  0.00     0.021 C 
HETATM   14  C23 UNL     1     -15.062  43.966 -25.463  1.00  0.00     0.080 C 
HETATM   15  C24 UNL     1     -16.277  43.680 -26.314  1.00  0.00     0.135 C 
HETATM   16  O3  UNL     1     -17.403  43.702 -25.812  1.00  0.00    -0.297 OA
HETATM   17  C25 UNL     1     -16.058  43.369 -27.801  1.00  0.00     0.018 C 
HETATM   18  C26 UNL     1     -16.131  41.841 -27.993  1.00  0.00     0.023 C 
HETATM   19  C27 UNL     1     -17.250  43.957 -28.595  1.00  0.00     0.023 C 
HETATM   20  C28 UNL     1     -14.678  43.968 -28.286  1.00  0.00     0.013 C 
HETATM   21  C29 UNL     1     -14.785  45.493 -28.501  1.00  0.00     0.011 C 
HETATM   22  C30 UNL     1     -13.491  46.093 -29.010  1.00  0.00     0.036 C 
ENDROOT
BRANCH   1  23
HETATM   23  C7  UNL     1      -7.352  47.083 -27.866  1.00  0.00    -0.014 C 
HETATM   24  C8  UNL     1      -6.790  47.616 -26.534  1.00  0.00     0.010 C 
BRANCH  23  25
HETATM   25  C6  UNL     1      -6.572  47.709 -29.049  1.00  0.00     0.008 C 
BRANCH  25  26
HETATM   26  C5  UNL     1      -5.912  46.689 -29.993  1.00  0.00     0.028 C 
BRANCH  26  27
HETATM   27  C4  UNL     1      -5.223  47.305 -31.178  1.00  0.00    -0.025 C 
HETATM   28  C2  UNL     1      -4.647  46.685 -32.228  1.00  0.00    -0.091 C 
HETATM   29  C1  UNL     1      -4.563  45.197 -32.427  1.00  0.00     0.042 C 
HETATM   30  C3  UNL     1      -4.004  47.490 -33.329  1.00  0.00     0.042 C 
ENDBRANCH  26  27
ENDBRANCH  25  26
ENDBRANCH  23  25
ENDBRANCH   1  23
BRANCH   4  31
HETATM   31  C13 UNL     1     -11.679  47.788 -26.892  1.00  0.00     0.153 C 
HETATM   32  O1  UNL     1     -11.489  47.671 -25.691  1.00  0.00    -0.649 OA
BRANCH  31  33
HETATM   33  O2  UNL     1     -12.428  48.830 -27.316  1.00  0.00    -0.776 OA
HETATM   34  H21 UNL     1     -12.667  49.288 -26.483  1.00  0.00     0.167 HD
ENDBRANCH  31  33
ENDBRANCH   4  31
TORSDOF 6
ENDMDL
