MODEL 1
REMARK minimizedAffinity -7.41267872
REMARK CNNscore 0.757514179
REMARK CNNaffinity 6.98424578
REMARK  4 active torsions:
REMARK  status: ('A' for Active; 'I' for Inactive)
REMARK    1  A    between atoms: C2_2  and  C4_4 
REMARK    2  A    between atoms: C4_4  and  C5_5 
REMARK    3  A    between atoms: C5_5  and  O1_6 
REMARK    4  A    between atoms: C8_9  and  C9_10 
ROOT
HETATM    1  C9  UNL     1       4.401  55.174  -7.533  1.00  0.00     0.001 C 
HETATM    2  C10 UNL     1       4.006  56.660  -7.608  1.00  0.00     0.007 C 
HETATM    3  C11 UNL     1       3.770  56.976  -9.089  1.00  0.00     0.011 C 
HETATM    4  C12 UNL     1       3.752  55.621  -9.836  1.00  0.00    -0.032 C 
HETATM    5  C13 UNL     1       4.219  55.850 -11.297  1.00  0.00     0.016 C 
HETATM    6  C14 UNL     1       2.298  54.998  -9.925  1.00  0.00     0.004 C 
HETATM    7  C15 UNL     1       1.259  55.311  -8.829  1.00  0.00     0.007 C 
HETATM    8  C16 UNL     1      -0.166  54.866  -9.228  1.00  0.00     0.007 C 
HETATM    9  C17 UNL     1      -0.248  53.890 -10.434  1.00  0.00     0.010 C 
HETATM   10  C18 UNL     1      -1.647  53.227 -10.608  1.00  0.00     0.018 C 
HETATM   11  C19 UNL     1      -1.767  52.543 -11.983  1.00  0.00     0.023 C 
HETATM   12  C20 UNL     1      -2.777  54.272 -10.518  1.00  0.00     0.023 C 
HETATM   13  C21 UNL     1      -1.869  52.167  -9.523  1.00  0.00     0.135 C 
HETATM   14  O2  UNL     1      -2.998  51.821  -9.174  1.00  0.00    -0.297 OA
HETATM   15  C22 UNL     1      -0.659  51.560  -8.858  1.00  0.00     0.080 C 
HETATM   16  C23 UNL     1       0.519  51.500  -9.812  1.00  0.00     0.018 C 
HETATM   17  C24 UNL     1       0.900  52.869 -10.354  1.00  0.00    -0.026 A 
HETATM   18  C25 UNL     1       1.946  52.895 -11.453  1.00  0.00     0.021 A 
HETATM   19  C26 UNL     1       2.299  53.473 -10.106  1.00  0.00    -0.027 A 
HETATM   20  C27 UNL     1       3.261  52.722  -9.215  1.00  0.00     0.011 C 
HETATM   21  C28 UNL     1       4.670  53.279  -9.292  1.00  0.00     0.011 C 
HETATM   22  C29 UNL     1       4.789  54.786  -8.996  1.00  0.00    -0.032 C 
HETATM   23  C30 UNL     1       6.259  55.161  -9.313  1.00  0.00     0.016 C 
ENDROOT
BRANCH   1  24
HETATM   24  C8  UNL     1       5.352  54.788  -6.365  1.00  0.00     0.014 C 
HETATM   25  C7  UNL     1       5.502  55.993  -5.412  1.00  0.00     0.010 C 
HETATM   26  C6  UNL     1       6.655  55.772  -4.441  1.00  0.00     0.041 C 
HETATM   27  C4  UNL     1       8.009  55.566  -5.172  1.00  0.00     0.085 C 
HETATM   28  O3  UNL     1       7.773  55.199  -6.554  1.00  0.00    -0.377 OA
HETATM   29  C31 UNL     1       6.736  54.240  -6.750  1.00  0.00     0.174 C 
BRANCH  27  30
HETATM   30  C2  UNL     1       8.865  54.468  -4.454  1.00  0.00     0.014 C 
HETATM   31  C1  UNL     1       9.507  54.955  -3.148  1.00  0.00     0.012 C 
HETATM   32  C3  UNL     1       8.096  53.167  -4.189  1.00  0.00     0.012 C 
ENDBRANCH  27  30
BRANCH  27  33
HETATM   33  C5  UNL     1       8.782  56.912  -5.260  1.00  0.00     0.202 C 
BRANCH  33  34
HETATM   34  O1  UNL     1      10.050  56.726  -5.894  1.00  0.00    -0.398 OA
HETATM   35  H10 UNL     1      10.440  55.957  -5.432  1.00  0.00     0.209 HD
ENDBRANCH  33  34
ENDBRANCH  27  33
ENDBRANCH   1  24
TORSDOF 4
ENDMDL
MODEL 2
REMARK minimizedAffinity -7.39865875
REMARK CNNscore 0.707701385
REMARK CNNaffinity 6.70462942
REMARK  4 active torsions:
REMARK  status: ('A' for Active; 'I' for Inactive)
REMARK    1  A    between atoms: C2_2  and  C4_4 
REMARK    2  A    between atoms: C4_4  and  C5_5 
REMARK    3  A    between atoms: C5_5  and  O1_6 
REMARK    4  A    between atoms: C8_9  and  C9_10 
ROOT
HETATM    1  C9  UNL     1       2.648  54.544  -9.327  1.00  0.00     0.001 C 
HETATM    2  C10 UNL     1       3.264  53.134  -9.251  1.00  0.00     0.007 C 
HETATM    3  C11 UNL     1       4.784  53.324  -9.198  1.00  0.00     0.011 C 
HETATM    4  C12 UNL     1       5.037  54.831  -8.959  1.00  0.00    -0.032 C 
HETATM    5  C13 UNL     1       6.410  55.211  -9.572  1.00  0.00     0.016 C 
HETATM    6  C14 UNL     1       5.121  55.196  -7.420  1.00  0.00     0.004 C 
HETATM    7  C15 UNL     1       4.348  54.349  -6.386  1.00  0.00     0.007 C 
HETATM    8  C16 UNL     1       4.776  54.662  -4.935  1.00  0.00     0.007 C 
HETATM    9  C17 UNL     1       5.591  55.971  -4.746  1.00  0.00     0.010 C 
HETATM   10  C18 UNL     1       5.732  56.410  -3.258  1.00  0.00     0.018 C 
HETATM   11  C19 UNL     1       6.807  57.503  -3.105  1.00  0.00     0.023 C 
HETATM   12  C20 UNL     1       6.153  55.228  -2.364  1.00  0.00     0.023 C 
HETATM   13  C21 UNL     1       4.402  56.969  -2.742  1.00  0.00     0.135 C 
HETATM   14  O2  UNL     1       4.122  56.978  -1.543  1.00  0.00    -0.297 OA
HETATM   15  C22 UNL     1       3.409  57.497  -3.749  1.00  0.00     0.080 C 
HETATM   16  C23 UNL     1       4.113  58.083  -4.958  1.00  0.00     0.018 C 
HETATM   17  C24 UNL     1       5.017  57.075  -5.651  1.00  0.00    -0.026 A 
HETATM   18  C25 UNL     1       5.903  57.611  -6.761  1.00  0.00     0.021 A 
HETATM   19  C26 UNL     1       4.787  56.664  -7.122  1.00  0.00    -0.027 A 
HETATM   20  C27 UNL     1       3.571  57.203  -7.839  1.00  0.00     0.011 C 
HETATM   21  C28 UNL     1       3.627  56.952  -9.334  1.00  0.00     0.011 C 
HETATM   22  C29 UNL     1       3.831  55.479  -9.737  1.00  0.00    -0.032 C 
HETATM   23  C30 UNL     1       4.043  55.489 -11.272  1.00  0.00     0.016 C 
ENDROOT
BRANCH   1  24
HETATM   24  C8  UNL     1       1.297  54.647 -10.088  1.00  0.00     0.014 C 
HETATM   25  C7  UNL     1       0.221  55.219  -9.141  1.00  0.00     0.010 C 
HETATM   26  C6  UNL     1      -1.171  55.044  -9.736  1.00  0.00     0.041 C 
HETATM   27  C4  UNL     1      -1.512  53.554 -10.007  1.00  0.00     0.085 C 
HETATM   28  O3  UNL     1      -0.295  52.768 -10.045  1.00  0.00    -0.377 OA
HETATM   29  C31 UNL     1       0.782  53.365 -10.765  1.00  0.00     0.174 C 
BRANCH  27  30
HETATM   30  C2  UNL     1      -2.302  53.402 -11.351  1.00  0.00     0.014 C 
HETATM   31  C1  UNL     1      -2.129  52.025 -12.006  1.00  0.00     0.012 C 
HETATM   32  C3  UNL     1      -3.797  53.719 -11.222  1.00  0.00     0.012 C 
ENDBRANCH  27  30
BRANCH  27  33
HETATM   33  C5  UNL     1      -2.313  52.961  -8.814  1.00  0.00     0.202 C 
BRANCH  33  34
HETATM   34  O1  UNL     1      -1.533  52.991  -7.617  1.00  0.00    -0.398 OA
HETATM   35  H10 UNL     1      -0.673  52.606  -7.879  1.00  0.00     0.209 HD
ENDBRANCH  33  34
ENDBRANCH  27  33
ENDBRANCH   1  24
TORSDOF 4
ENDMDL
MODEL 3
REMARK minimizedAffinity -7.82011747
REMARK CNNscore 0.67176193
REMARK CNNaffinity 6.86558294
REMARK  4 active torsions:
REMARK  status: ('A' for Active; 'I' for Inactive)
REMARK    1  A    between atoms: C2_2  and  C4_4 
REMARK    2  A    between atoms: C4_4  and  C5_5 
REMARK    3  A    between atoms: C5_5  and  O1_6 
REMARK    4  A    between atoms: C8_9  and  C9_10 
ROOT
HETATM    1  C9  UNL     1       2.095  53.335  -9.419  1.00  0.00     0.001 C 
HETATM    2  C10 UNL     1       3.210  52.836 -10.356  1.00  0.00     0.007 C 
HETATM    3  C11 UNL     1       3.881  54.084 -10.940  1.00  0.00     0.011 C 
HETATM    4  C12 UNL     1       3.349  55.294 -10.135  1.00  0.00    -0.032 C 
HETATM    5  C13 UNL     1       3.388  56.553 -11.040  1.00  0.00     0.016 C 
HETATM    6  C14 UNL     1       4.247  55.624  -8.873  1.00  0.00     0.004 C 
HETATM    7  C15 UNL     1       5.040  54.498  -8.177  1.00  0.00     0.007 C 
HETATM    8  C16 UNL     1       6.073  55.046  -7.167  1.00  0.00     0.007 C 
HETATM    9  C17 UNL     1       5.887  56.534  -6.763  1.00  0.00     0.010 C 
HETATM   10  C18 UNL     1       6.737  56.958  -5.528  1.00  0.00     0.018 C 
HETATM   11  C19 UNL     1       6.770  58.491  -5.379  1.00  0.00     0.023 C 
HETATM   12  C20 UNL     1       8.197  56.481  -5.664  1.00  0.00     0.023 C 
HETATM   13  C21 UNL     1       6.142  56.364  -4.246  1.00  0.00     0.135 C 
HETATM   14  O2  UNL     1       6.824  56.181  -3.237  1.00  0.00    -0.297 OA
HETATM   15  C22 UNL     1       4.685  55.975  -4.248  1.00  0.00     0.080 C 
HETATM   16  C23 UNL     1       3.879  56.872  -5.169  1.00  0.00     0.018 C 
HETATM   17  C24 UNL     1       4.389  56.846  -6.601  1.00  0.00    -0.026 A 
HETATM   18  C25 UNL     1       3.767  57.844  -7.560  1.00  0.00     0.021 A 
HETATM   19  C26 UNL     1       3.492  56.376  -7.767  1.00  0.00    -0.027 A 
HETATM   20  C27 UNL     1       2.118  55.835  -7.448  1.00  0.00     0.011 C 
HETATM   21  C28 UNL     1       1.257  55.684  -8.688  1.00  0.00     0.011 C 
HETATM   22  C29 UNL     1       1.879  54.833  -9.810  1.00  0.00    -0.032 C 
HETATM   23  C30 UNL     1       0.924  54.972 -11.022  1.00  0.00     0.016 C 
ENDROOT
BRANCH   1  24
HETATM   24  C8  UNL     1       0.861  52.398  -9.284  1.00  0.00     0.014 C 
HETATM   25  C7  UNL     1       0.562  51.749 -10.651  1.00  0.00     0.010 C 
HETATM   26  C6  UNL     1      -0.807  51.080 -10.644  1.00  0.00     0.041 C 
HETATM   27  C4  UNL     1      -1.949  52.082 -10.327  1.00  0.00     0.085 C 
HETATM   28  O3  UNL     1      -1.406  53.268  -9.698  1.00  0.00    -0.377 OA
HETATM   29  C31 UNL     1      -0.419  53.017  -8.699  1.00  0.00     0.174 C 
BRANCH  27  30
HETATM   30  C2  UNL     1      -3.028  51.419  -9.405  1.00  0.00     0.014 C 
HETATM   31  C1  UNL     1      -4.325  51.063 -10.144  1.00  0.00     0.012 C 
HETATM   32  C3  UNL     1      -2.516  50.184  -8.653  1.00  0.00     0.012 C 
ENDBRANCH  27  30
BRANCH  27  33
HETATM   33  C5  UNL     1      -2.584  52.606 -11.646  1.00  0.00     0.202 C 
BRANCH  33  34
HETATM   34  O1  UNL     1      -1.615  52.633 -12.698  1.00  0.00    -0.398 OA
HETATM   35  H10 UNL     1      -0.843  53.085 -12.303  1.00  0.00     0.209 HD
ENDBRANCH  33  34
ENDBRANCH  27  33
ENDBRANCH   1  24
TORSDOF 4
ENDMDL
MODEL 4
REMARK minimizedAffinity -7.13954926
REMARK CNNscore 0.52156812
REMARK CNNaffinity 6.25617552
REMARK  4 active torsions:
REMARK  status: ('A' for Active; 'I' for Inactive)
REMARK    1  A    between atoms: C2_2  and  C4_4 
REMARK    2  A    between atoms: C4_4  and  C5_5 
REMARK    3  A    between atoms: C5_5  and  O1_6 
REMARK    4  A    between atoms: C8_9  and  C9_10 
ROOT
HETATM    1  C9  UNL     1       2.866  54.788  -9.073  1.00  0.00     0.001 C 
HETATM    2  C10 UNL     1       3.462  55.772 -10.097  1.00  0.00     0.007 C 
HETATM    3  C11 UNL     1       3.686  57.094  -9.354  1.00  0.00     0.011 C 
HETATM    4  C12 UNL     1       3.487  56.798  -7.848  1.00  0.00    -0.032 C 
HETATM    5  C13 UNL     1       3.003  58.092  -7.144  1.00  0.00     0.016 C 
HETATM    6  C14 UNL     1       4.834  56.376  -7.130  1.00  0.00     0.004 C 
HETATM    7  C15 UNL     1       5.947  55.672  -7.935  1.00  0.00     0.007 C 
HETATM    8  C16 UNL     1       7.280  55.604  -7.156  1.00  0.00     0.007 C 
HETATM    9  C17 UNL     1       7.180  55.898  -5.634  1.00  0.00     0.010 C 
HETATM   10  C18 UNL     1       8.465  55.519  -4.839  1.00  0.00     0.018 C 
HETATM   11  C19 UNL     1       8.438  56.127  -3.423  1.00  0.00     0.023 C 
HETATM   12  C20 UNL     1       9.732  56.049  -5.538  1.00  0.00     0.023 C 
HETATM   13  C21 UNL     1       8.576  53.996  -4.705  1.00  0.00     0.135 C 
HETATM   14  O2  UNL     1       9.657  53.437  -4.521  1.00  0.00    -0.297 OA
HETATM   15  C22 UNL     1       7.318  53.174  -4.832  1.00  0.00     0.080 C 
HETATM   16  C23 UNL     1       6.109  53.939  -4.328  1.00  0.00     0.018 C 
HETATM   17  C24 UNL     1       5.904  55.255  -5.064  1.00  0.00    -0.026 A 
HETATM   18  C25 UNL     1       4.832  56.178  -4.514  1.00  0.00     0.021 A 
HETATM   19  C26 UNL     1       4.613  55.539  -5.862  1.00  0.00    -0.027 A 
HETATM   20  C27 UNL     1       3.588  54.436  -5.993  1.00  0.00     0.011 C 
HETATM   21  C28 UNL     1       2.270  54.940  -6.548  1.00  0.00     0.011 C 
HETATM   22  C29 UNL     1       2.374  55.685  -7.891  1.00  0.00    -0.032 C 
HETATM   23  C30 UNL     1       0.960  56.259  -8.164  1.00  0.00     0.016 C 
ENDROOT
BRANCH   1  24
HETATM   24  C8  UNL     1       1.913  53.707  -9.656  1.00  0.00     0.014 C 
HETATM   25  C7  UNL     1       1.220  54.264 -10.918  1.00  0.00     0.010 C 
HETATM   26  C6  UNL     1       0.059  53.371 -11.336  1.00  0.00     0.041 C 
HETATM   27  C4  UNL     1      -1.011  53.237 -10.219  1.00  0.00     0.085 C 
HETATM   28  O3  UNL     1      -0.442  53.616  -8.941  1.00  0.00    -0.377 OA
HETATM   29  C31 UNL     1       0.869  53.111  -8.697  1.00  0.00     0.174 C 
BRANCH  27  30
HETATM   30  C2  UNL     1      -1.567  51.774 -10.157  1.00  0.00     0.014 C 
HETATM   31  C1  UNL     1      -2.900  51.662  -9.404  1.00  0.00     0.012 C 
HETATM   32  C3  UNL     1      -1.704  51.111 -11.533  1.00  0.00     0.012 C 
ENDBRANCH  27  30
BRANCH  27  33
HETATM   33  C5  UNL     1      -2.156  54.264 -10.447  1.00  0.00     0.202 C 
BRANCH  33  34
HETATM   34  O1  UNL     1      -1.635  55.593 -10.521  1.00  0.00    -0.398 OA
HETATM   35  H10 UNL     1      -1.050  55.667  -9.742  1.00  0.00     0.209 HD
ENDBRANCH  33  34
ENDBRANCH  27  33
ENDBRANCH   1  24
TORSDOF 4
ENDMDL
MODEL 5
REMARK minimizedAffinity -7.46006393
REMARK CNNscore 0.398737103
REMARK CNNaffinity 5.75537062
REMARK  4 active torsions:
REMARK  status: ('A' for Active; 'I' for Inactive)
REMARK    1  A    between atoms: C2_2  and  C4_4 
REMARK    2  A    between atoms: C4_4  and  C5_5 
REMARK    3  A    between atoms: C5_5  and  O1_6 
REMARK    4  A    between atoms: C8_9  and  C9_10 
ROOT
HETATM    1  C9  UNL     1       5.130  67.105 -36.550  1.00  0.00     0.001 C 
HETATM    2  C10 UNL     1       4.284  66.443 -37.653  1.00  0.00     0.007 C 
HETATM    3  C11 UNL     1       3.863  67.563 -38.612  1.00  0.00     0.011 C 
HETATM    4  C12 UNL     1       4.689  68.813 -38.227  1.00  0.00    -0.032 C 
HETATM    5  C13 UNL     1       3.884  70.082 -38.609  1.00  0.00     0.016 C 
HETATM    6  C14 UNL     1       6.060  68.901 -39.017  1.00  0.00     0.004 C 
HETATM    7  C15 UNL     1       6.755  67.609 -39.495  1.00  0.00     0.007 C 
HETATM    8  C16 UNL     1       7.905  67.895 -40.486  1.00  0.00     0.007 C 
HETATM    9  C17 UNL     1       8.390  69.370 -40.539  1.00  0.00     0.010 C 
HETATM   10  C18 UNL     1       9.735  69.559 -41.302  1.00  0.00     0.018 C 
HETATM   11  C19 UNL     1       9.993  71.048 -41.606  1.00  0.00     0.023 C 
HETATM   12  C20 UNL     1       9.722  68.814 -42.651  1.00  0.00     0.023 C 
HETATM   13  C21 UNL     1      10.902  69.032 -40.459  1.00  0.00     0.135 C 
HETATM   14  O2  UNL     1      11.962  68.672 -40.971  1.00  0.00    -0.297 OA
HETATM   15  C22 UNL     1      10.718  68.936 -38.965  1.00  0.00     0.080 C 
HETATM   16  C23 UNL     1       9.782  70.017 -38.457  1.00  0.00     0.018 C 
HETATM   17  C24 UNL     1       8.413  69.960 -39.118  1.00  0.00    -0.026 A 
HETATM   18  C25 UNL     1       7.466  71.106 -38.813  1.00  0.00     0.021 A 
HETATM   19  C26 UNL     1       7.129  69.732 -38.292  1.00  0.00    -0.027 A 
HETATM   20  C27 UNL     1       7.262  69.455 -36.813  1.00  0.00     0.011 C 
HETATM   21  C28 UNL     1       5.930  69.535 -36.091  1.00  0.00     0.011 C 
HETATM   22  C29 UNL     1       4.824  68.633 -36.669  1.00  0.00    -0.032 C 
HETATM   23  C30 UNL     1       3.530  69.015 -35.906  1.00  0.00     0.016 C 
ENDROOT
BRANCH   1  24
HETATM   24  C8  UNL     1       5.067  66.422 -35.155  1.00  0.00     0.014 C 
HETATM   25  C7  UNL     1       6.484  65.967 -34.746  1.00  0.00     0.010 C 
HETATM   26  C6  UNL     1       6.425  65.025 -33.549  1.00  0.00     0.041 C 
HETATM   27  C4  UNL     1       5.578  63.758 -33.840  1.00  0.00     0.085 C 
HETATM   28  O3  UNL     1       4.715  63.990 -34.981  1.00  0.00    -0.377 OA
HETATM   29  C31 UNL     1       4.070  65.262 -34.993  1.00  0.00     0.174 C 
BRANCH  27  30
HETATM   30  C2  UNL     1       4.729  63.359 -32.586  1.00  0.00     0.014 C 
HETATM   31  C1  UNL     1       4.124  64.564 -31.853  1.00  0.00     0.012 C 
HETATM   32  C3  UNL     1       3.621  62.343 -32.893  1.00  0.00     0.012 C 
ENDBRANCH  27  30
BRANCH  27  33
HETATM   33  C5  UNL     1       6.499  62.588 -34.289  1.00  0.00     0.202 C 
BRANCH  33  34
HETATM   34  O1  UNL     1       7.467  62.291 -33.280  1.00  0.00    -0.398 OA
HETATM   35  H10 UNL     1       7.847  63.161 -33.046  1.00  0.00     0.209 HD
ENDBRANCH  33  34
ENDBRANCH  27  33
ENDBRANCH   1  24
TORSDOF 4
ENDMDL
MODEL 6
REMARK minimizedAffinity -7.92876768
REMARK CNNscore 0.35992223
REMARK CNNaffinity 7.01513481
REMARK  4 active torsions:
REMARK  status: ('A' for Active; 'I' for Inactive)
REMARK    1  A    between atoms: C2_2  and  C4_4 
REMARK    2  A    between atoms: C4_4  and  C5_5 
REMARK    3  A    between atoms: C5_5  and  O1_6 
REMARK    4  A    between atoms: C8_9  and  C9_10 
ROOT
HETATM    1  C9  UNL     1      -0.683  51.526 -14.539  1.00  0.00     0.001 C 
HETATM    2  C10 UNL     1       0.785  51.957 -14.708  1.00  0.00     0.007 C 
HETATM    3  C11 UNL     1       1.509  50.786 -15.384  1.00  0.00     0.011 C 
HETATM    4  C12 UNL     1       0.415  49.800 -15.857  1.00  0.00    -0.032 C 
HETATM    5  C13 UNL     1       1.011  48.368 -15.886  1.00  0.00     0.016 C 
HETATM    6  C14 UNL     1      -0.080  50.105 -17.330  1.00  0.00     0.004 C 
HETATM    7  C15 UNL     1      -0.026  51.548 -17.876  1.00  0.00     0.007 C 
HETATM    8  C16 UNL     1      -0.266  51.607 -19.401  1.00  0.00     0.007 C 
HETATM    9  C17 UNL     1      -0.866  50.321 -20.033  1.00  0.00     0.010 C 
HETATM   10  C18 UNL     1      -1.379  50.521 -21.491  1.00  0.00     0.018 C 
HETATM   11  C19 UNL     1      -1.651  49.167 -22.172  1.00  0.00     0.023 C 
HETATM   12  C20 UNL     1      -0.340  51.265 -22.352  1.00  0.00     0.023 C 
HETATM   13  C21 UNL     1      -2.683  51.327 -21.487  1.00  0.00     0.135 C 
HETATM   14  O2  UNL     1      -3.050  51.973 -22.468  1.00  0.00    -0.297 OA
HETATM   15  C22 UNL     1      -3.514  51.337 -20.228  1.00  0.00     0.080 C 
HETATM   16  C23 UNL     1      -3.373  50.032 -19.467  1.00  0.00     0.018 C 
HETATM   17  C24 UNL     1      -1.930  49.729 -19.093  1.00  0.00    -0.026 A 
HETATM   18  C25 UNL     1      -1.660  48.362 -18.491  1.00  0.00     0.021 A 
HETATM   19  C26 UNL     1      -1.494  49.581 -17.619  1.00  0.00    -0.027 A 
HETATM   20  C27 UNL     1      -2.512  49.851 -16.535  1.00  0.00     0.011 C 
HETATM   21  C28 UNL     1      -2.032  49.396 -15.170  1.00  0.00     0.011 C 
HETATM   22  C29 UNL     1      -0.674  49.975 -14.733  1.00  0.00    -0.032 C 
HETATM   23  C30 UNL     1      -0.306  49.239 -13.420  1.00  0.00     0.016 C 
ENDROOT
BRANCH   1  24
HETATM   24  C8  UNL     1      -1.426  52.135 -13.316  1.00  0.00     0.014 C 
HETATM   25  C7  UNL     1      -0.435  52.288 -12.143  1.00  0.00     0.010 C 
HETATM   26  C6  UNL     1      -1.177  52.581 -10.844  1.00  0.00     0.041 C 
HETATM   27  C4  UNL     1      -2.186  51.459 -10.478  1.00  0.00     0.085 C 
HETATM   28  O3  UNL     1      -2.486  50.662 -11.651  1.00  0.00    -0.377 OA
HETATM   29  C31 UNL     1      -2.699  51.411 -12.846  1.00  0.00     0.174 C 
BRANCH  27  30
HETATM   30  C2  UNL     1      -3.500  52.069  -9.883  1.00  0.00     0.014 C 
HETATM   31  C1  UNL     1      -3.725  53.534 -10.280  1.00  0.00     0.012 C 
HETATM   32  C3  UNL     1      -4.758  51.254 -10.211  1.00  0.00     0.012 C 
ENDBRANCH  27  30
BRANCH  27  33
HETATM   33  C5  UNL     1      -1.535  50.453  -9.488  1.00  0.00     0.202 C 
BRANCH  33  34
HETATM   34  O1  UNL     1      -0.112  50.455  -9.629  1.00  0.00    -0.398 OA
HETATM   35  H10 UNL     1       0.036  50.372 -10.592  1.00  0.00     0.209 HD
ENDBRANCH  33  34
ENDBRANCH  27  33
ENDBRANCH   1  24
TORSDOF 4
ENDMDL
MODEL 7
REMARK minimizedAffinity -9.7187891
REMARK CNNscore 0.344604313
REMARK CNNaffinity 6.8424015
REMARK  4 active torsions:
REMARK  status: ('A' for Active; 'I' for Inactive)
REMARK    1  A    between atoms: C2_2  and  C4_4 
REMARK    2  A    between atoms: C4_4  and  C5_5 
REMARK    3  A    between atoms: C5_5  and  O1_6 
REMARK    4  A    between atoms: C8_9  and  C9_10 
ROOT
HETATM    1  C9  UNL     1      -2.228  50.966 -23.257  1.00  0.00     0.001 C 
HETATM    2  C10 UNL     1      -2.777  52.211 -22.536  1.00  0.00     0.007 C 
HETATM    3  C11 UNL     1      -4.304  52.085 -22.547  1.00  0.00     0.011 C 
HETATM    4  C12 UNL     1      -4.629  50.648 -23.019  1.00  0.00    -0.032 C 
HETATM    5  C13 UNL     1      -6.016  50.651 -23.713  1.00  0.00     0.016 C 
HETATM    6  C14 UNL     1      -4.737  49.624 -21.815  1.00  0.00     0.004 C 
HETATM    7  C15 UNL     1      -3.929  49.870 -20.523  1.00  0.00     0.007 C 
HETATM    8  C16 UNL     1      -4.377  48.948 -19.367  1.00  0.00     0.007 C 
HETATM    9  C17 UNL     1      -5.254  47.735 -19.782  1.00  0.00     0.010 C 
HETATM   10  C18 UNL     1      -5.423  46.670 -18.657  1.00  0.00     0.018 C 
HETATM   11  C19 UNL     1      -6.549  45.676 -19.001  1.00  0.00     0.023 C 
HETATM   12  C20 UNL     1      -5.791  47.330 -17.314  1.00  0.00     0.023 C 
HETATM   13  C21 UNL     1      -4.122  45.879 -18.477  1.00  0.00     0.135 C 
HETATM   14  O2  UNL     1      -3.849  45.311 -17.420  1.00  0.00    -0.297 OA
HETATM   15  C22 UNL     1      -3.152  45.827 -19.631  1.00  0.00     0.080 C 
HETATM   16  C23 UNL     1      -3.877  45.890 -20.962  1.00  0.00     0.018 C 
HETATM   17  C24 UNL     1      -4.730  47.142 -21.102  1.00  0.00    -0.026 A 
HETATM   18  C25 UNL     1      -5.635  47.212 -22.318  1.00  0.00     0.021 A 
HETATM   19  C26 UNL     1      -4.473  48.169 -22.226  1.00  0.00    -0.027 A 
HETATM   20  C27 UNL     1      -3.282  47.964 -23.133  1.00  0.00     0.011 C 
HETATM   21  C28 UNL     1      -3.320  48.874 -24.346  1.00  0.00     0.011 C 
HETATM   22  C29 UNL     1      -3.452  50.375 -24.028  1.00  0.00    -0.032 C 
HETATM   23  C30 UNL     1      -3.657  51.077 -25.394  1.00  0.00     0.016 C 
ENDROOT
BRANCH   1  24
HETATM   24  C8  UNL     1      -0.879  51.163 -24.005  1.00  0.00     0.014 C 
HETATM   25  C7  UNL     1      -0.356  52.591 -23.747  1.00  0.00     0.010 C 
HETATM   26  C6  UNL     1       0.783  52.930 -24.700  1.00  0.00     0.041 C 
HETATM   27  C4  UNL     1       0.351  52.839 -26.188  1.00  0.00     0.085 C 
HETATM   28  O3  UNL     1      -0.856  52.046 -26.305  1.00  0.00    -0.377 OA
HETATM   29  C31 UNL     1      -0.872  50.860 -25.513  1.00  0.00     0.174 C 
BRANCH  27  30
HETATM   30  C2  UNL     1       1.496  52.221 -27.060  1.00  0.00     0.014 C 
HETATM   31  C1  UNL     1       2.372  51.221 -26.294  1.00  0.00     0.012 C 
HETATM   32  C3  UNL     1       0.996  51.570 -28.356  1.00  0.00     0.012 C 
ENDBRANCH  27  30
BRANCH  27  33
HETATM   33  C5  UNL     1      -0.061  54.243 -26.714  1.00  0.00     0.202 C 
BRANCH  33  34
HETATM   34  O1  UNL     1       0.308  55.261 -25.781  1.00  0.00    -0.398 OA
HETATM   35  H10 UNL     1      -0.025  54.934 -24.922  1.00  0.00     0.209 HD
ENDBRANCH  33  34
ENDBRANCH  27  33
ENDBRANCH   1  24
TORSDOF 4
ENDMDL
MODEL 8
REMARK minimizedAffinity -7.06175661
REMARK CNNscore 0.290210813
REMARK CNNaffinity 6.29364252
REMARK  4 active torsions:
REMARK  status: ('A' for Active; 'I' for Inactive)
REMARK    1  A    between atoms: C2_2  and  C4_4 
REMARK    2  A    between atoms: C4_4  and  C5_5 
REMARK    3  A    between atoms: C5_5  and  O1_6 
REMARK    4  A    between atoms: C8_9  and  C9_10 
ROOT
HETATM    1  C9  UNL     1       3.110  56.006  -8.898  1.00  0.00     0.001 C 
HETATM    2  C10 UNL     1       3.657  56.219 -10.322  1.00  0.00     0.007 C 
HETATM    3  C11 UNL     1       4.033  54.834 -10.858  1.00  0.00     0.011 C 
HETATM    4  C12 UNL     1       3.450  53.799  -9.867  1.00  0.00    -0.032 C 
HETATM    5  C13 UNL     1       4.323  52.518  -9.909  1.00  0.00     0.016 C 
HETATM    6  C14 UNL     1       1.981  53.349 -10.254  1.00  0.00     0.004 C 
HETATM    7  C15 UNL     1       1.057  54.319 -11.021  1.00  0.00     0.007 C 
HETATM    8  C16 UNL     1      -0.208  53.617 -11.564  1.00  0.00     0.007 C 
HETATM    9  C17 UNL     1      -0.509  52.219 -10.956  1.00  0.00     0.010 C 
HETATM   10  C18 UNL     1      -1.936  51.687 -11.287  1.00  0.00     0.018 C 
HETATM   11  C19 UNL     1      -2.059  50.189 -10.950  1.00  0.00     0.023 C 
HETATM   12  C20 UNL     1      -2.257  51.846 -12.787  1.00  0.00     0.023 C 
HETATM   13  C21 UNL     1      -2.988  52.450 -10.475  1.00  0.00     0.135 C 
HETATM   14  O2  UNL     1      -4.159  52.535 -10.846  1.00  0.00    -0.297 OA
HETATM   15  C22 UNL     1      -2.552  53.132  -9.202  1.00  0.00     0.080 C 
HETATM   16  C23 UNL     1      -1.414  52.378  -8.538  1.00  0.00     0.018 C 
HETATM   17  C24 UNL     1      -0.204  52.232  -9.448  1.00  0.00    -0.026 A 
HETATM   18  C25 UNL     1       0.916  51.340  -8.946  1.00  0.00     0.021 A 
HETATM   19  C26 UNL     1       1.170  52.822  -9.062  1.00  0.00    -0.027 A 
HETATM   20  C27 UNL     1       1.272  53.649  -7.802  1.00  0.00     0.011 C 
HETATM   21  C28 UNL     1       2.711  53.916  -7.404  1.00  0.00     0.011 C 
HETATM   22  C29 UNL     1       3.576  54.568  -8.499  1.00  0.00    -0.032 C 
HETATM   23  C30 UNL     1       5.023  54.573  -7.944  1.00  0.00     0.016 C 
ENDROOT
BRANCH   1  24
HETATM   24  C8  UNL     1       3.338  57.182  -7.907  1.00  0.00     0.014 C 
HETATM   25  C7  UNL     1       4.770  57.101  -7.339  1.00  0.00     0.010 C 
HETATM   26  C6  UNL     1       4.931  58.032  -6.144  1.00  0.00     0.041 C 
HETATM   27  C4  UNL     1       3.940  57.695  -4.998  1.00  0.00     0.085 C 
HETATM   28  O3  UNL     1       2.845  56.896  -5.511  1.00  0.00    -0.377 OA
HETATM   29  C31 UNL     1       2.321  57.332  -6.763  1.00  0.00     0.174 C 
BRANCH  27  30
HETATM   30  C2  UNL     1       3.396  59.004  -4.333  1.00  0.00     0.014 C 
HETATM   31  C1  UNL     1       2.351  58.741  -3.240  1.00  0.00     0.012 C 
HETATM   32  C3  UNL     1       4.498  59.913  -3.775  1.00  0.00     0.012 C 
ENDBRANCH  27  30
BRANCH  27  33
HETATM   33  C5  UNL     1       4.626  56.775  -3.949  1.00  0.00     0.202 C 
BRANCH  33  34
HETATM   34  O1  UNL     1       5.789  56.155  -4.504  1.00  0.00    -0.398 OA
HETATM   35  H10 UNL     1       5.484  55.793  -5.359  1.00  0.00     0.209 HD
ENDBRANCH  33  34
ENDBRANCH  27  33
ENDBRANCH   1  24
TORSDOF 4
ENDMDL
MODEL 9
REMARK minimizedAffinity -6.95253801
REMARK CNNscore 0.262918591
REMARK CNNaffinity 6.0867362
REMARK  4 active torsions:
REMARK  status: ('A' for Active; 'I' for Inactive)
REMARK    1  A    between atoms: C2_2  and  C4_4 
REMARK    2  A    between atoms: C4_4  and  C5_5 
REMARK    3  A    between atoms: C5_5  and  O1_6 
REMARK    4  A    between atoms: C8_9  and  C9_10 
ROOT
HETATM    1  C9  UNL     1       2.062  51.957  -9.550  1.00  0.00     0.001 C 
HETATM    2  C10 UNL     1       2.342  50.903  -8.463  1.00  0.00     0.007 C 
HETATM    3  C11 UNL     1       3.857  50.908  -8.229  1.00  0.00     0.011 C 
HETATM    4  C12 UNL     1       4.418  52.146  -8.967  1.00  0.00    -0.032 C 
HETATM    5  C13 UNL     1       5.886  51.860  -9.378  1.00  0.00     0.016 C 
HETATM    6  C14 UNL     1       4.456  53.435  -8.047  1.00  0.00     0.004 C 
HETATM    7  C15 UNL     1       3.433  53.592  -6.902  1.00  0.00     0.007 C 
HETATM    8  C16 UNL     1       3.802  54.746  -5.942  1.00  0.00     0.007 C 
HETATM    9  C17 UNL     1       4.869  55.741  -6.472  1.00  0.00     0.010 C 
HETATM   10  C18 UNL     1       4.984  57.045  -5.627  1.00  0.00     0.018 C 
HETATM   11  C19 UNL     1       6.259  57.829  -5.991  1.00  0.00     0.023 C 
HETATM   12  C20 UNL     1       5.059  56.728  -4.120  1.00  0.00     0.023 C 
HETATM   13  C21 UNL     1       3.774  57.950  -5.881  1.00  0.00     0.135 C 
HETATM   14  O2  UNL     1       3.407  58.790  -5.059  1.00  0.00    -0.297 OA
HETATM   15  C22 UNL     1       3.008  57.774  -7.169  1.00  0.00     0.080 C 
HETATM   16  C23 UNL     1       3.919  57.316  -8.291  1.00  0.00     0.018 C 
HETATM   17  C24 UNL     1       4.630  56.011  -7.968  1.00  0.00    -0.026 A 
HETATM   18  C25 UNL     1       5.699  55.562  -8.948  1.00  0.00     0.021 A 
HETATM   19  C26 UNL     1       4.433  54.750  -8.839  1.00  0.00    -0.027 A 
HETATM   20  C27 UNL     1       3.429  54.802  -9.967  1.00  0.00     0.011 C 
HETATM   21  C28 UNL     1       3.549  53.610 -10.897  1.00  0.00     0.011 C 
HETATM   22  C29 UNL     1       3.453  52.236 -10.208  1.00  0.00    -0.032 C 
HETATM   23  C30 UNL     1       3.784  51.192 -11.303  1.00  0.00     0.016 C 
ENDROOT
BRANCH   1  24
HETATM   24  C8  UNL     1       0.833  51.674 -10.460  1.00  0.00     0.014 C 
HETATM   25  C7  UNL     1       0.289  53.009 -11.010  1.00  0.00     0.010 C 
HETATM   26  C6  UNL     1      -1.084  52.814 -11.640  1.00  0.00     0.041 C 
HETATM   27  C4  UNL     1      -2.121  52.252 -10.630  1.00  0.00     0.085 C 
HETATM   28  O3  UNL     1      -1.436  51.652  -9.502  1.00  0.00    -0.377 OA
HETATM   29  C31 UNL     1      -0.309  50.848  -9.845  1.00  0.00     0.174 C 
BRANCH  27  30
HETATM   30  C2  UNL     1      -3.057  51.204 -11.321  1.00  0.00     0.014 C 
HETATM   31  C1  UNL     1      -4.482  51.192 -10.751  1.00  0.00     0.012 C 
HETATM   32  C3  UNL     1      -3.121  51.352 -12.847  1.00  0.00     0.012 C 
ENDBRANCH  27  30
BRANCH  27  33
HETATM   33  C5  UNL     1      -2.943  53.413 -10.003  1.00  0.00     0.202 C 
BRANCH  33  34
HETATM   34  O1  UNL     1      -3.097  54.485 -10.937  1.00  0.00    -0.398 OA
HETATM   35  H10 UNL     1      -2.194  54.642 -11.276  1.00  0.00     0.209 HD
ENDBRANCH  33  34
ENDBRANCH  27  33
ENDBRANCH   1  24
TORSDOF 4
ENDMDL
