MODEL 1
REMARK minimizedAffinity -8.99103165
REMARK CNNscore 0.649130881
REMARK CNNaffinity 7.19096136
REMARK  8 active torsions:
REMARK  status: ('A' for Active; 'I' for Inactive)
REMARK    1  A    between atoms: O1_2  and  C2_3 
REMARK    2  A    between atoms: C2_3  and  C3_4 
REMARK    3  A    between atoms: C7_8  and  C8_9 
REMARK    4  A    between atoms: C8_9  and  C9_10 
REMARK    5  A    between atoms: C8_9  and  C10_12 
REMARK    6  A    between atoms: C9_10  and  O2_11 
REMARK    7  A    between atoms: C19_21  and  S1_22 
REMARK    8  A    between atoms: S1_22  and  O5_25 
ROOT
HETATM    1  C10 UNL     1      -3.329   6.438  13.364  1.00  0.00     0.003 C 
HETATM    2  C11 UNL     1      -2.773   5.022  13.536  1.00  0.00     0.006 C 
HETATM    3  C12 UNL     1      -1.790   4.862  12.370  1.00  0.00     0.006 C 
HETATM    4  C13 UNL     1      -1.571   6.280  11.780  1.00  0.00    -0.001 C 
HETATM    5  C14 UNL     1      -0.145   6.496  11.237  1.00  0.00    -0.001 C 
HETATM    6  C15 UNL     1      -0.144   7.476  10.051  1.00  0.00     0.033 C 
HETATM    7  C16 UNL     1       1.231   7.872   9.625  1.00  0.00    -0.022 C 
HETATM    8  C17 UNL     1       2.205   8.088  10.519  1.00  0.00    -0.066 C 
HETATM    9  C18 UNL     1       3.580   8.549  10.108  1.00  0.00     0.057 C 
HETATM   10  C19 UNL     1       4.648   7.538  10.533  1.00  0.00     0.132 C 
HETATM   11  C20 UNL     1       4.288   6.765  11.800  1.00  0.00     0.101 C 
HETATM   12  C21 UNL     1       3.314   7.541  12.662  1.00  0.00     0.141 C 
HETATM   13  O6  UNL     1       3.578   7.774  13.842  1.00  0.00    -0.297 OA
HETATM   14  C22 UNL     1       1.954   7.929  12.020  1.00  0.00     0.044 C 
HETATM   15  C23 UNL     1       1.521   9.294  12.579  1.00  0.00     0.029 C 
HETATM   16  C24 UNL     1       0.938   6.764  12.317  1.00  0.00     0.010 C 
HETATM   17  C25 UNL     1       0.379   6.737  13.747  1.00  0.00     0.007 C 
HETATM   18  C26 UNL     1      -0.959   7.442  13.973  1.00  0.00     0.010 C 
HETATM   19  C27 UNL     1      -2.063   7.240  12.899  1.00  0.00    -0.036 C 
HETATM   20  C28 UNL     1      -2.511   8.607  12.357  1.00  0.00     0.016 C 
ENDROOT
BRANCH   1  21
HETATM   21  C8  UNL     1      -4.314   6.969  14.465  1.00  0.00     0.044 C 
BRANCH  21  22
HETATM   22  C7  UNL     1      -5.798   6.826  13.979  1.00  0.00     0.142 C 
HETATM   23  C6  UNL     1      -6.273   5.401  13.695  1.00  0.00     0.067 C 
HETATM   24  C4  UNL     1      -7.760   5.386  13.445  1.00  0.00    -0.067 C 
HETATM   25  C3  UNL     1      -8.556   6.351  13.961  1.00  0.00     0.043 C 
HETATM   26  C5  UNL     1      -8.242   4.235  12.607  1.00  0.00     0.044 C 
HETATM   27  C29 UNL     1      -7.984   7.331  14.921  1.00  0.00     0.292 C 
HETATM   28  O7  UNL     1      -6.635   7.392  15.017  1.00  0.00    -0.311 OA
HETATM   29  O8  UNL     1      -8.700   8.025  15.633  1.00  0.00    -0.260 OA
BRANCH  25  30
HETATM   30  C2  UNL     1     -10.035   6.535  13.734  1.00  0.00     0.212 C 
BRANCH  30  31
HETATM   31  O1  UNL     1     -10.321   7.865  13.289  1.00  0.00    -0.391 OA
HETATM   32  C1  UNL     1     -11.707   8.162  13.391  1.00  0.00     0.201 C 
ENDBRANCH  30  31
ENDBRANCH  25  30
ENDBRANCH  21  22
BRANCH  21  33
HETATM   33  C9  UNL     1      -4.097   6.405  15.871  1.00  0.00     0.171 C 
BRANCH  33  34
HETATM   34  O2  UNL     1      -3.114   7.145  16.586  1.00  0.00    -0.400 OA
HETATM   35  H15 UNL     1      -2.249   6.959  16.176  1.00  0.00     0.209 HD
ENDBRANCH  33  34
ENDBRANCH  21  33
ENDBRANCH   1  21
BRANCH  10  36
HETATM   36  S1  UNL     1       6.218   8.397  10.697  1.00  0.00     0.099 S 
HETATM   37  O3  UNL     1       7.300   7.495  10.377  1.00  0.00    -0.601 OA
HETATM   38  O4  UNL     1       6.134   9.719  10.127  1.00  0.00    -0.601 OA
BRANCH  36  39
HETATM   39  O5  UNL     1       6.228   8.579  12.301  1.00  0.00    -0.295 OA
HETATM   40  H29 UNL     1       6.934   9.218  12.539  1.00  0.00     0.232 HD
ENDBRANCH  36  39
ENDBRANCH  10  36
TORSDOF 8
ENDMDL
MODEL 2
REMARK minimizedAffinity -9.03150463
REMARK CNNscore 0.61105597
REMARK CNNaffinity 6.89300299
REMARK  8 active torsions:
REMARK  status: ('A' for Active; 'I' for Inactive)
REMARK    1  A    between atoms: O1_2  and  C2_3 
REMARK    2  A    between atoms: C2_3  and  C3_4 
REMARK    3  A    between atoms: C7_8  and  C8_9 
REMARK    4  A    between atoms: C8_9  and  C9_10 
REMARK    5  A    between atoms: C8_9  and  C10_12 
REMARK    6  A    between atoms: C9_10  and  O2_11 
REMARK    7  A    between atoms: C19_21  and  S1_22 
REMARK    8  A    between atoms: S1_22  and  O5_25 
ROOT
HETATM    1  C10 UNL     1      -5.985   6.547  14.220  1.00  0.00     0.003 C 
HETATM    2  C11 UNL     1      -5.437   5.181  13.798  1.00  0.00     0.006 C 
HETATM    3  C12 UNL     1      -4.247   5.521  12.892  1.00  0.00     0.006 C 
HETATM    4  C13 UNL     1      -3.955   7.031  13.093  1.00  0.00    -0.001 C 
HETATM    5  C14 UNL     1      -2.458   7.378  12.982  1.00  0.00    -0.001 C 
HETATM    6  C15 UNL     1      -2.256   8.797  12.423  1.00  0.00     0.033 C 
HETATM    7  C16 UNL     1      -0.835   9.251  12.488  1.00  0.00    -0.022 C 
HETATM    8  C17 UNL     1      -0.054   8.955  13.536  1.00  0.00    -0.066 C 
HETATM    9  C18 UNL     1       1.362   9.460  13.645  1.00  0.00     0.057 C 
HETATM   10  C19 UNL     1       2.355   8.297  13.724  1.00  0.00     0.132 C 
HETATM   11  C20 UNL     1       1.780   7.047  14.387  1.00  0.00     0.101 C 
HETATM   12  C21 UNL     1       0.641   7.393  15.324  1.00  0.00     0.141 C 
HETATM   13  O6  UNL     1       0.670   7.026  16.499  1.00  0.00    -0.297 OA
HETATM   14  C22 UNL     1      -0.582   8.128  14.710  1.00  0.00     0.044 C 
HETATM   15  C23 UNL     1      -1.146   9.098  15.762  1.00  0.00     0.029 C 
HETATM   16  C24 UNL     1      -1.606   7.033  14.234  1.00  0.00     0.010 C 
HETATM   17  C25 UNL     1      -2.426   6.377  15.354  1.00  0.00     0.007 C 
HETATM   18  C26 UNL     1      -3.799   6.983  15.644  1.00  0.00     0.010 C 
HETATM   19  C27 UNL     1      -4.674   7.385  14.425  1.00  0.00    -0.036 C 
HETATM   20  C28 UNL     1      -5.044   8.873  14.525  1.00  0.00     0.016 C 
ENDROOT
BRANCH   1  21
HETATM   21  C8  UNL     1      -7.174   6.566  15.245  1.00  0.00     0.044 C 
BRANCH  21  22
HETATM   22  C7  UNL     1      -8.397   7.341  14.643  1.00  0.00     0.142 C 
HETATM   23  C6  UNL     1      -9.766   6.694  14.852  1.00  0.00     0.067 C 
HETATM   24  C4  UNL     1     -10.861   7.635  14.417  1.00  0.00    -0.067 C 
HETATM   25  C3  UNL     1     -10.659   8.972  14.410  1.00  0.00     0.043 C 
HETATM   26  C5  UNL     1     -12.142   6.960  14.015  1.00  0.00     0.044 C 
HETATM   27  C29 UNL     1      -9.410   9.523  15.001  1.00  0.00     0.292 C 
HETATM   28  O7  UNL     1      -8.408   8.651  15.259  1.00  0.00    -0.311 OA
HETATM   29  O8  UNL     1      -9.305  10.710  15.289  1.00  0.00    -0.260 OA
BRANCH  25  30
HETATM   30  C2  UNL     1     -11.606  10.039  13.922  1.00  0.00     0.212 C 
BRANCH  30  31
HETATM   31  O1  UNL     1     -12.094   9.728  12.613  1.00  0.00    -0.391 OA
HETATM   32  C1  UNL     1     -13.396  10.257  12.403  1.00  0.00     0.201 C 
ENDBRANCH  30  31
ENDBRANCH  25  30
ENDBRANCH  21  22
BRANCH  21  33
HETATM   33  C9  UNL     1      -7.566   5.205  15.825  1.00  0.00     0.171 C 
BRANCH  33  34
HETATM   34  O2  UNL     1      -7.931   4.285  14.803  1.00  0.00    -0.400 OA
HETATM   35  H15 UNL     1      -8.782   4.581  14.430  1.00  0.00     0.209 HD
ENDBRANCH  33  34
ENDBRANCH  21  33
ENDBRANCH   1  21
BRANCH  10  36
HETATM   36  S1  UNL     1       3.844   8.868  14.553  1.00  0.00     0.099 S 
HETATM   37  O3  UNL     1       4.916   8.993  13.593  1.00  0.00    -0.601 OA
HETATM   38  O4  UNL     1       3.530   9.922  15.486  1.00  0.00    -0.601 OA
BRANCH  36  39
HETATM   39  O5  UNL     1       4.156   7.547  15.426  1.00  0.00    -0.295 OA
HETATM   40  H29 UNL     1       4.836   7.771  16.098  1.00  0.00     0.232 HD
ENDBRANCH  36  39
ENDBRANCH  10  36
TORSDOF 8
ENDMDL
MODEL 3
REMARK minimizedAffinity -9.19045734
REMARK CNNscore 0.43392396
REMARK CNNaffinity 7.01900291
REMARK  8 active torsions:
REMARK  status: ('A' for Active; 'I' for Inactive)
REMARK    1  A    between atoms: O1_2  and  C2_3 
REMARK    2  A    between atoms: C2_3  and  C3_4 
REMARK    3  A    between atoms: C7_8  and  C8_9 
REMARK    4  A    between atoms: C8_9  and  C9_10 
REMARK    5  A    between atoms: C8_9  and  C10_12 
REMARK    6  A    between atoms: C9_10  and  O2_11 
REMARK    7  A    between atoms: C19_21  and  S1_22 
REMARK    8  A    between atoms: S1_22  and  O5_25 
ROOT
HETATM    1  C10 UNL     1      -5.675   6.622  14.498  1.00  0.00     0.003 C 
HETATM    2  C11 UNL     1      -5.963   7.356  13.186  1.00  0.00     0.006 C 
HETATM    3  C12 UNL     1      -4.758   8.289  13.009  1.00  0.00     0.006 C 
HETATM    4  C13 UNL     1      -3.685   7.822  14.027  1.00  0.00    -0.001 C 
HETATM    5  C14 UNL     1      -2.243   8.008  13.516  1.00  0.00    -0.001 C 
HETATM    6  C15 UNL     1      -1.274   8.293  14.677  1.00  0.00     0.033 C 
HETATM    7  C16 UNL     1       0.158   8.278  14.255  1.00  0.00    -0.022 C 
HETATM    8  C17 UNL     1       0.614   7.390  13.361  1.00  0.00    -0.066 C 
HETATM    9  C18 UNL     1       2.069   7.322  12.973  1.00  0.00     0.057 C 
HETATM   10  C19 UNL     1       2.250   7.571  11.473  1.00  0.00     0.132 C 
HETATM   11  C20 UNL     1       1.061   7.115  10.630  1.00  0.00     0.101 C 
HETATM   12  C21 UNL     1       0.277   6.022  11.327  1.00  0.00     0.141 C 
HETATM   13  O6  UNL     1       0.064   4.950  10.758  1.00  0.00    -0.297 OA
HETATM   14  C22 UNL     1      -0.317   6.356  12.723  1.00  0.00     0.044 C 
HETATM   15  C23 UNL     1      -0.280   5.085  13.586  1.00  0.00     0.029 C 
HETATM   16  C24 UNL     1      -1.761   6.938  12.500  1.00  0.00     0.010 C 
HETATM   17  C25 UNL     1      -2.840   5.895  12.171  1.00  0.00     0.007 C 
HETATM   18  C26 UNL     1      -3.655   5.359  13.348  1.00  0.00     0.010 C 
HETATM   19  C27 UNL     1      -4.126   6.383  14.416  1.00  0.00    -0.036 C 
HETATM   20  C28 UNL     1      -3.614   5.957  15.801  1.00  0.00     0.016 C 
ENDROOT
BRANCH   1  21
HETATM   21  C8  UNL     1      -6.684   5.502  14.938  1.00  0.00     0.044 C 
BRANCH  21  22
HETATM   22  C7  UNL     1      -8.127   6.098  15.078  1.00  0.00     0.142 C 
HETATM   23  C6  UNL     1      -8.230   7.434  15.813  1.00  0.00     0.067 C 
HETATM   24  C4  UNL     1      -9.627   7.992  15.691  1.00  0.00    -0.067 C 
HETATM   25  C3  UNL     1     -10.418   7.648  14.650  1.00  0.00     0.043 C 
HETATM   26  C5  UNL     1     -10.024   8.931  16.796  1.00  0.00     0.044 C 
HETATM   27  C29 UNL     1      -9.846   6.854  13.531  1.00  0.00     0.292 C 
HETATM   28  O7  UNL     1      -8.643   6.270  13.736  1.00  0.00    -0.311 OA
HETATM   29  O8  UNL     1     -10.414   6.768  12.448  1.00  0.00    -0.260 OA
BRANCH  25  30
HETATM   30  C2  UNL     1     -11.858   8.037  14.427  1.00  0.00     0.212 C 
BRANCH  30  31
HETATM   31  O1  UNL     1     -12.573   6.990  13.762  1.00  0.00    -0.391 OA
HETATM   32  C1  UNL     1     -13.457   6.318  14.649  1.00  0.00     0.201 C 
ENDBRANCH  30  31
ENDBRANCH  25  30
ENDBRANCH  21  22
BRANCH  21  33
HETATM   33  C9  UNL     1      -6.654   4.221  14.101  1.00  0.00     0.171 C 
BRANCH  33  34
HETATM   34  O2  UNL     1      -7.924   3.580  14.080  1.00  0.00    -0.400 OA
HETATM   35  H15 UNL     1      -8.086   3.216  14.970  1.00  0.00     0.209 HD
ENDBRANCH  33  34
ENDBRANCH  21  33
ENDBRANCH   1  21
BRANCH  10  36
HETATM   36  S1  UNL     1       3.781   6.794  10.942  1.00  0.00     0.099 S 
HETATM   37  O3  UNL     1       4.121   7.248   9.613  1.00  0.00    -0.601 OA
HETATM   38  O4  UNL     1       4.745   6.791  12.016  1.00  0.00    -0.601 OA
BRANCH  36  39
HETATM   39  O5  UNL     1       3.245   5.280  10.791  1.00  0.00    -0.295 OA
HETATM   40  H29 UNL     1       4.018   4.682  10.700  1.00  0.00     0.232 HD
ENDBRANCH  36  39
ENDBRANCH  10  36
TORSDOF 8
ENDMDL
MODEL 4
REMARK minimizedAffinity -7.80154181
REMARK CNNscore 0.422582865
REMARK CNNaffinity 6.0244503
REMARK  8 active torsions:
REMARK  status: ('A' for Active; 'I' for Inactive)
REMARK    1  A    between atoms: O1_2  and  C2_3 
REMARK    2  A    between atoms: C2_3  and  C3_4 
REMARK    3  A    between atoms: C7_8  and  C8_9 
REMARK    4  A    between atoms: C8_9  and  C9_10 
REMARK    5  A    between atoms: C8_9  and  C10_12 
REMARK    6  A    between atoms: C9_10  and  O2_11 
REMARK    7  A    between atoms: C19_21  and  S1_22 
REMARK    8  A    between atoms: S1_22  and  O5_25 
ROOT
HETATM    1  C10 UNL     1       5.930   8.547  14.140  1.00  0.00     0.003 C 
HETATM    2  C11 UNL     1       6.560   7.287  14.741  1.00  0.00     0.006 C 
HETATM    3  C12 UNL     1       8.068   7.566  14.697  1.00  0.00     0.006 C 
HETATM    4  C13 UNL     1       8.228   9.078  14.390  1.00  0.00    -0.001 C 
HETATM    5  C14 UNL     1       9.459   9.706  15.071  1.00  0.00    -0.001 C 
HETATM    6  C15 UNL     1      10.036  10.855  14.226  1.00  0.00     0.033 C 
HETATM    7  C16 UNL     1      11.100  11.623  14.939  1.00  0.00    -0.022 C 
HETATM    8  C17 UNL     1      11.009  11.893  16.249  1.00  0.00    -0.066 C 
HETATM    9  C18 UNL     1      12.044  12.721  16.967  1.00  0.00     0.057 C 
HETATM   10  C19 UNL     1      12.700  11.921  18.096  1.00  0.00     0.132 C 
HETATM   11  C20 UNL     1      11.779  10.874  18.718  1.00  0.00     0.101 C 
HETATM   12  C21 UNL     1      10.321  11.242  18.533  1.00  0.00     0.141 C 
HETATM   13  O6  UNL     1       9.570  11.315  19.507  1.00  0.00    -0.297 OA
HETATM   14  C22 UNL     1       9.814  11.417  17.076  1.00  0.00     0.044 C 
HETATM   15  C23 UNL     1       8.749  12.526  17.059  1.00  0.00     0.029 C 
HETATM   16  C24 UNL     1       9.289  10.018  16.583  1.00  0.00     0.010 C 
HETATM   17  C25 UNL     1       7.912   9.610  17.128  1.00  0.00     0.007 C 
HETATM   18  C26 UNL     1       6.704   9.940  16.251  1.00  0.00     0.010 C 
HETATM   19  C27 UNL     1       6.838   9.686  14.725  1.00  0.00    -0.036 C 
HETATM   20  C28 UNL     1       6.557  10.988  13.959  1.00  0.00     0.016 C 
ENDROOT
BRANCH   1  21
HETATM   21  C8  UNL     1       4.363   8.635  14.120  1.00  0.00     0.044 C 
BRANCH  21  22
HETATM   22  C7  UNL     1       3.792   7.851  12.889  1.00  0.00     0.142 C 
HETATM   23  C6  UNL     1       2.780   8.606  12.027  1.00  0.00     0.067 C 
HETATM   24  C4  UNL     1       2.476   7.826  10.772  1.00  0.00    -0.067 C 
HETATM   25  C3  UNL     1       3.373   6.944  10.274  1.00  0.00     0.043 C 
HETATM   26  C5  UNL     1       1.135   8.123  10.161  1.00  0.00     0.044 C 
HETATM   27  C29 UNL     1       4.733   6.875  10.869  1.00  0.00     0.292 C 
HETATM   28  O7  UNL     1       4.923   7.488  12.060  1.00  0.00    -0.311 OA
HETATM   29  O8  UNL     1       5.661   6.325  10.287  1.00  0.00    -0.260 OA
BRANCH  25  30
HETATM   30  C2  UNL     1       3.192   6.024   9.094  1.00  0.00     0.212 C 
BRANCH  30  31
HETATM   31  O1  UNL     1       3.016   4.670   9.525  1.00  0.00    -0.391 OA
HETATM   32  C1  UNL     1       3.956   3.800   8.909  1.00  0.00     0.201 C 
ENDBRANCH  30  31
ENDBRANCH  25  30
ENDBRANCH  21  22
BRANCH  21  33
HETATM   33  C9  UNL     1       3.665   8.264  15.430  1.00  0.00     0.171 C 
BRANCH  33  34
HETATM   34  O2  UNL     1       3.134   6.944  15.386  1.00  0.00    -0.400 OA
HETATM   35  H15 UNL     1       2.380   6.951  14.768  1.00  0.00     0.209 HD
ENDBRANCH  33  34
ENDBRANCH  21  33
ENDBRANCH   1  21
BRANCH  10  36
HETATM   36  S1  UNL     1      13.330  13.071  19.325  1.00  0.00     0.099 S 
HETATM   37  O3  UNL     1      14.729  13.329  19.076  1.00  0.00    -0.601 OA
HETATM   38  O4  UNL     1      12.385  14.139  19.548  1.00  0.00    -0.601 OA
BRANCH  36  39
HETATM   39  O5  UNL     1      13.260  12.107  20.617  1.00  0.00    -0.295 OA
HETATM   40  H29 UNL     1      13.383  12.655  21.423  1.00  0.00     0.232 HD
ENDBRANCH  36  39
ENDBRANCH  10  36
TORSDOF 8
ENDMDL
MODEL 5
REMARK minimizedAffinity -7.26576424
REMARK CNNscore 0.405005962
REMARK CNNaffinity 6.97185278
REMARK  8 active torsions:
REMARK  status: ('A' for Active; 'I' for Inactive)
REMARK    1  A    between atoms: O1_2  and  C2_3 
REMARK    2  A    between atoms: C2_3  and  C3_4 
REMARK    3  A    between atoms: C7_8  and  C8_9 
REMARK    4  A    between atoms: C8_9  and  C9_10 
REMARK    5  A    between atoms: C8_9  and  C10_12 
REMARK    6  A    between atoms: C9_10  and  O2_11 
REMARK    7  A    between atoms: C19_21  and  S1_22 
REMARK    8  A    between atoms: S1_22  and  O5_25 
ROOT
HETATM    1  C10 UNL     1      -9.172   6.898  14.746  1.00  0.00     0.003 C 
HETATM    2  C11 UNL     1      -9.726   6.891  13.318  1.00  0.00     0.006 C 
HETATM    3  C12 UNL     1     -11.214   7.218  13.494  1.00  0.00     0.006 C 
HETATM    4  C13 UNL     1     -11.387   7.720  14.951  1.00  0.00    -0.001 C 
HETATM    5  C14 UNL     1     -12.478   8.800  15.094  1.00  0.00    -0.001 C 
HETATM    6  C15 UNL     1     -13.156   8.725  16.473  1.00  0.00     0.033 C 
HETATM    7  C16 UNL     1     -14.074   9.874  16.732  1.00  0.00    -0.022 C 
HETATM    8  C17 UNL     1     -13.767  11.117  16.334  1.00  0.00    -0.066 C 
HETATM    9  C18 UNL     1     -14.654  12.296  16.643  1.00  0.00     0.057 C 
HETATM   10  C19 UNL     1     -15.138  12.972  15.357  1.00  0.00     0.132 C 
HETATM   11  C20 UNL     1     -14.153  12.853  14.196  1.00  0.00     0.101 C 
HETATM   12  C21 UNL     1     -12.736  12.654  14.693  1.00  0.00     0.141 C 
HETATM   13  O6  UNL     1     -11.837  13.413  14.326  1.00  0.00    -0.297 OA
HETATM   14  C22 UNL     1     -12.466  11.412  15.586  1.00  0.00     0.044 C 
HETATM   15  C23 UNL     1     -11.392  11.781  16.623  1.00  0.00     0.029 C 
HETATM   16  C24 UNL     1     -12.059  10.224  14.638  1.00  0.00     0.010 C 
HETATM   17  C25 UNL     1     -10.623  10.283  14.099  1.00  0.00     0.007 C 
HETATM   18  C26 UNL     1      -9.564   9.510  14.885  1.00  0.00     0.010 C 
HETATM   19  C27 UNL     1      -9.947   8.096  15.400  1.00  0.00    -0.036 C 
HETATM   20  C28 UNL     1      -9.762   8.035  16.924  1.00  0.00     0.016 C 
ENDROOT
BRANCH   1  21
HETATM   21  C8  UNL     1      -7.627   6.687  14.925  1.00  0.00     0.044 C 
BRANCH  21  22
HETATM   22  C7  UNL     1      -7.063   5.799  13.763  1.00  0.00     0.142 C 
HETATM   23  C6  UNL     1      -5.550   5.582  13.762  1.00  0.00     0.067 C 
HETATM   24  C4  UNL     1      -5.170   4.549  12.730  1.00  0.00    -0.067 C 
HETATM   25  C3  UNL     1      -6.060   3.611  12.334  1.00  0.00     0.043 C 
HETATM   26  C5  UNL     1      -3.761   4.664  12.219  1.00  0.00     0.044 C 
HETATM   27  C29 UNL     1      -7.360   3.493  13.046  1.00  0.00     0.292 C 
HETATM   28  O7  UNL     1      -7.713   4.509  13.867  1.00  0.00    -0.311 OA
HETATM   29  O8  UNL     1      -8.066   2.497  12.933  1.00  0.00    -0.260 OA
BRANCH  25  30
HETATM   30  C2  UNL     1      -5.877   2.572  11.256  1.00  0.00     0.212 C 
BRANCH  30  31
HETATM   31  O1  UNL     1      -5.348   1.359  11.802  1.00  0.00    -0.391 OA
HETATM   32  C1  UNL     1      -3.944   1.265  11.598  1.00  0.00     0.201 C 
ENDBRANCH  30  31
ENDBRANCH  25  30
ENDBRANCH  21  22
BRANCH  21  33
HETATM   33  C9  UNL     1      -6.808   7.962  15.142  1.00  0.00     0.171 C 
BRANCH  33  34
HETATM   34  O2  UNL     1      -6.030   7.889  16.331  1.00  0.00    -0.400 OA
HETATM   35  H15 UNL     1      -6.644   7.931  17.088  1.00  0.00     0.209 HD
ENDBRANCH  33  34
ENDBRANCH  21  33
ENDBRANCH   1  21
BRANCH  10  36
HETATM   36  S1  UNL     1     -15.535  14.686  15.724  1.00  0.00     0.099 S 
HETATM   37  O3  UNL     1     -14.998  15.540  14.690  1.00  0.00    -0.601 OA
HETATM   38  O4  UNL     1     -16.900  14.803  16.177  1.00  0.00    -0.601 OA
BRANCH  36  39
HETATM   39  O5  UNL     1     -14.594  14.880  17.020  1.00  0.00    -0.295 OA
HETATM   40  H29 UNL     1     -14.849  15.715  17.469  1.00  0.00     0.232 HD
ENDBRANCH  36  39
ENDBRANCH  10  36
TORSDOF 8
ENDMDL
MODEL 6
REMARK minimizedAffinity -7.58708668
REMARK CNNscore 0.357997715
REMARK CNNaffinity 6.49175882
REMARK  8 active torsions:
REMARK  status: ('A' for Active; 'I' for Inactive)
REMARK    1  A    between atoms: O1_2  and  C2_3 
REMARK    2  A    between atoms: C2_3  and  C3_4 
REMARK    3  A    between atoms: C7_8  and  C8_9 
REMARK    4  A    between atoms: C8_9  and  C9_10 
REMARK    5  A    between atoms: C8_9  and  C10_12 
REMARK    6  A    between atoms: C9_10  and  O2_11 
REMARK    7  A    between atoms: C19_21  and  S1_22 
REMARK    8  A    between atoms: S1_22  and  O5_25 
ROOT
HETATM    1  C10 UNL     1      -8.631   6.689  15.273  1.00  0.00     0.003 C 
HETATM    2  C11 UNL     1      -8.096   6.562  16.703  1.00  0.00     0.006 C 
HETATM    3  C12 UNL     1      -6.779   5.792  16.541  1.00  0.00     0.006 C 
HETATM    4  C13 UNL     1      -6.446   5.800  15.026  1.00  0.00    -0.001 C 
HETATM    5  C14 UNL     1      -4.933   5.849  14.739  1.00  0.00    -0.001 C 
HETATM    6  C15 UNL     1      -4.591   5.114  13.432  1.00  0.00     0.033 C 
HETATM    7  C16 UNL     1      -3.172   5.309  13.010  1.00  0.00    -0.022 C 
HETATM    8  C17 UNL     1      -2.555   6.490  13.157  1.00  0.00    -0.066 C 
HETATM    9  C18 UNL     1      -1.144   6.719  12.678  1.00  0.00     0.057 C 
HETATM   10  C19 UNL     1      -0.227   7.114  13.839  1.00  0.00     0.132 C 
HETATM   11  C20 UNL     1      -0.945   7.872  14.953  1.00  0.00     0.101 C 
HETATM   12  C21 UNL     1      -2.183   8.575  14.435  1.00  0.00     0.141 C 
HETATM   13  O6  UNL     1      -2.330   9.785  14.612  1.00  0.00    -0.297 OA
HETATM   14  C22 UNL     1      -3.275   7.690  13.774  1.00  0.00     0.044 C 
HETATM   15  C23 UNL     1      -3.930   8.491  12.637  1.00  0.00     0.029 C 
HETATM   16  C24 UNL     1      -4.276   7.247  14.904  1.00  0.00     0.010 C 
HETATM   17  C25 UNL     1      -5.270   8.327  15.354  1.00  0.00     0.007 C 
HETATM   18  C26 UNL     1      -6.640   8.324  14.675  1.00  0.00     0.010 C 
HETATM   19  C27 UNL     1      -7.321   6.947  14.448  1.00  0.00    -0.036 C 
HETATM   20  C28 UNL     1      -7.631   6.765  12.954  1.00  0.00     0.016 C 
ENDROOT
BRANCH   1  21
HETATM   21  C8  UNL     1      -9.945   7.521  15.063  1.00  0.00     0.044 C 
BRANCH  21  22
HETATM   22  C7  UNL     1      -9.780   8.958  15.669  1.00  0.00     0.142 C 
HETATM   23  C6  UNL     1     -10.131  10.119  14.740  1.00  0.00     0.067 C 
HETATM   24  C4  UNL     1     -10.133  11.419  15.505  1.00  0.00    -0.067 C 
HETATM   25  C3  UNL     1     -10.359  11.433  16.839  1.00  0.00     0.043 C 
HETATM   26  C5  UNL     1      -9.876  12.639  14.666  1.00  0.00     0.044 C 
HETATM   27  C29 UNL     1     -10.778  10.180  17.520  1.00  0.00     0.292 C 
HETATM   28  O7  UNL     1     -10.639   9.023  16.833  1.00  0.00    -0.311 OA
HETATM   29  O8  UNL     1     -11.274  10.194  18.641  1.00  0.00    -0.260 OA
BRANCH  25  30
HETATM   30  C2  UNL     1     -10.305  12.623  17.763  1.00  0.00     0.212 C 
BRANCH  30  31
HETATM   31  O1  UNL     1     -11.523  13.373  17.702  1.00  0.00    -0.391 OA
HETATM   32  C1  UNL     1     -11.998  13.703  19.000  1.00  0.00     0.201 C 
ENDBRANCH  30  31
ENDBRANCH  25  30
ENDBRANCH  21  22
BRANCH  21  33
HETATM   33  C9  UNL     1     -10.489   7.544  13.632  1.00  0.00     0.171 C 
BRANCH  33  34
HETATM   34  O2  UNL     1     -11.753   6.899  13.541  1.00  0.00    -0.400 OA
HETATM   35  H15 UNL     1     -11.607   5.943  13.669  1.00  0.00     0.209 HD
ENDBRANCH  33  34
ENDBRANCH  21  33
ENDBRANCH   1  21
BRANCH  10  36
HETATM   36  S1  UNL     1       1.161   8.048  13.182  1.00  0.00     0.099 S 
HETATM   37  O3  UNL     1       0.900   8.402  11.807  1.00  0.00    -0.601 OA
HETATM   38  O4  UNL     1       1.618   9.019  14.146  1.00  0.00    -0.601 OA
BRANCH  36  39
HETATM   39  O5  UNL     1       2.257   6.864  13.155  1.00  0.00    -0.295 OA
HETATM   40  H29 UNL     1       3.143   7.262  13.007  1.00  0.00     0.232 HD
ENDBRANCH  36  39
ENDBRANCH  10  36
TORSDOF 8
ENDMDL
MODEL 7
REMARK minimizedAffinity -7.47087526
REMARK CNNscore 0.357299894
REMARK CNNaffinity 6.30677795
REMARK  8 active torsions:
REMARK  status: ('A' for Active; 'I' for Inactive)
REMARK    1  A    between atoms: O1_2  and  C2_3 
REMARK    2  A    between atoms: C2_3  and  C3_4 
REMARK    3  A    between atoms: C7_8  and  C8_9 
REMARK    4  A    between atoms: C8_9  and  C9_10 
REMARK    5  A    between atoms: C8_9  and  C10_12 
REMARK    6  A    between atoms: C9_10  and  O2_11 
REMARK    7  A    between atoms: C19_21  and  S1_22 
REMARK    8  A    between atoms: S1_22  and  O5_25 
ROOT
HETATM    1  C10 UNL     1     -15.652   3.937  23.042  1.00  0.00     0.003 C 
HETATM    2  C11 UNL     1     -14.399   3.531  22.259  1.00  0.00     0.006 C 
HETATM    3  C12 UNL     1     -14.040   4.786  21.454  1.00  0.00     0.006 C 
HETATM    4  C13 UNL     1     -14.881   5.947  22.046  1.00  0.00    -0.001 C 
HETATM    5  C14 UNL     1     -14.154   7.305  22.003  1.00  0.00    -0.001 C 
HETATM    6  C15 UNL     1     -15.152   8.465  21.840  1.00  0.00     0.033 C 
HETATM    7  C16 UNL     1     -14.515   9.806  21.997  1.00  0.00    -0.022 C 
HETATM    8  C17 UNL     1     -13.560  10.024  22.912  1.00  0.00    -0.066 C 
HETATM    9  C18 UNL     1     -12.953  11.387  23.125  1.00  0.00     0.057 C 
HETATM   10  C19 UNL     1     -11.443  11.361  22.870  1.00  0.00     0.132 C 
HETATM   11  C20 UNL     1     -10.793  10.016  23.186  1.00  0.00     0.101 C 
HETATM   12  C21 UNL     1     -11.602   9.237  24.203  1.00  0.00     0.141 C 
HETATM   13  O6  UNL     1     -11.072   8.828  25.237  1.00  0.00    -0.297 OA
HETATM   14  C22 UNL     1     -13.073   8.903  23.832  1.00  0.00     0.044 C 
HETATM   15  C23 UNL     1     -13.920   8.936  25.115  1.00  0.00     0.029 C 
HETATM   16  C24 UNL     1     -13.075   7.510  23.101  1.00  0.00     0.010 C 
HETATM   17  C25 UNL     1     -12.916   6.290  24.020  1.00  0.00     0.007 C 
HETATM   18  C26 UNL     1     -14.204   5.612  24.488  1.00  0.00     0.010 C 
HETATM   19  C27 UNL     1     -15.332   5.421  23.438  1.00  0.00    -0.036 C 
HETATM   20  C28 UNL     1     -16.621   6.091  23.939  1.00  0.00     0.016 C 
ENDROOT
BRANCH   1  21
HETATM   21  C8  UNL     1     -16.241   2.895  24.057  1.00  0.00     0.044 C 
BRANCH  21  22
HETATM   22  C7  UNL     1     -15.145   2.471  25.096  1.00  0.00     0.142 C 
HETATM   23  C6  UNL     1     -13.736   2.276  24.538  1.00  0.00     0.067 C 
HETATM   24  C4  UNL     1     -12.750   2.082  25.663  1.00  0.00    -0.067 C 
HETATM   25  C3  UNL     1     -13.005   2.575  26.896  1.00  0.00     0.043 C 
HETATM   26  C5  UNL     1     -11.511   1.321  25.284  1.00  0.00     0.044 C 
HETATM   27  C29 UNL     1     -14.180   3.463  27.097  1.00  0.00     0.292 C 
HETATM   28  O7  UNL     1     -15.102   3.508  26.106  1.00  0.00    -0.311 OA
HETATM   29  O8  UNL     1     -14.292   4.165  28.096  1.00  0.00    -0.260 OA
BRANCH  25  30
HETATM   30  C2  UNL     1     -12.179   2.393  28.144  1.00  0.00     0.212 C 
BRANCH  30  31
HETATM   31  O1  UNL     1     -12.986   1.914  29.225  1.00  0.00    -0.391 OA
HETATM   32  C1  UNL     1     -12.603   2.502  30.461  1.00  0.00     0.201 C 
ENDBRANCH  30  31
ENDBRANCH  25  30
ENDBRANCH  21  22
BRANCH  21  33
HETATM   33  C9  UNL     1     -17.559   3.296  24.723  1.00  0.00     0.171 C 
BRANCH  33  34
HETATM   34  O2  UNL     1     -17.848   2.476  25.849  1.00  0.00    -0.400 OA
HETATM   35  H15 UNL     1     -18.070   1.586  25.518  1.00  0.00     0.209 HD
ENDBRANCH  33  34
ENDBRANCH  21  33
ENDBRANCH   1  21
BRANCH  10  36
HETATM   36  S1  UNL     1     -10.683  12.703  23.793  1.00  0.00     0.099 S 
HETATM   37  O3  UNL     1      -9.624  13.293  23.008  1.00  0.00    -0.601 OA
HETATM   38  O4  UNL     1     -11.691  13.507  24.439  1.00  0.00    -0.601 OA
BRANCH  36  39
HETATM   39  O5  UNL     1      -9.971  11.829  24.947  1.00  0.00    -0.295 OA
HETATM   40  H29 UNL     1      -9.674  12.436  25.661  1.00  0.00     0.232 HD
ENDBRANCH  36  39
ENDBRANCH  10  36
TORSDOF 8
ENDMDL
MODEL 8
REMARK minimizedAffinity -7.07089043
REMARK CNNscore 0.323740721
REMARK CNNaffinity 5.71957779
REMARK  8 active torsions:
REMARK  status: ('A' for Active; 'I' for Inactive)
REMARK    1  A    between atoms: O1_2  and  C2_3 
REMARK    2  A    between atoms: C2_3  and  C3_4 
REMARK    3  A    between atoms: C7_8  and  C8_9 
REMARK    4  A    between atoms: C8_9  and  C9_10 
REMARK    5  A    between atoms: C8_9  and  C10_12 
REMARK    6  A    between atoms: C9_10  and  O2_11 
REMARK    7  A    between atoms: C19_21  and  S1_22 
REMARK    8  A    between atoms: S1_22  and  O5_25 
ROOT
HETATM    1  C10 UNL     1     -17.004   7.181  14.160  1.00  0.00     0.003 C 
HETATM    2  C11 UNL     1     -16.626   7.391  15.629  1.00  0.00     0.006 C 
HETATM    3  C12 UNL     1     -17.402   6.297  16.373  1.00  0.00     0.006 C 
HETATM    4  C13 UNL     1     -17.920   5.310  15.294  1.00  0.00    -0.001 C 
HETATM    5  C14 UNL     1     -17.970   3.850  15.783  1.00  0.00    -0.001 C 
HETATM    6  C15 UNL     1     -19.112   3.075  15.104  1.00  0.00     0.033 C 
HETATM    7  C16 UNL     1     -19.073   1.610  15.392  1.00  0.00    -0.022 C 
HETATM    8  C17 UNL     1     -17.914   0.941  15.455  1.00  0.00    -0.066 C 
HETATM    9  C18 UNL     1     -17.862  -0.548  15.683  1.00  0.00     0.057 C 
HETATM   10  C19 UNL     1     -17.088  -0.882  16.961  1.00  0.00     0.132 C 
HETATM   11  C20 UNL     1     -15.991   0.128  17.292  1.00  0.00     0.101 C 
HETATM   12  C21 UNL     1     -15.514   0.853  16.050  1.00  0.00     0.141 C 
HETATM   13  O6  UNL     1     -14.318   0.860  15.756  1.00  0.00    -0.297 OA
HETATM   14  C22 UNL     1     -16.575   1.651  15.245  1.00  0.00     0.044 C 
HETATM   15  C23 UNL     1     -16.220   1.567  13.751  1.00  0.00     0.029 C 
HETATM   16  C24 UNL     1     -16.601   3.118  15.815  1.00  0.00     0.010 C 
HETATM   17  C25 UNL     1     -15.433   4.010  15.370  1.00  0.00     0.007 C 
HETATM   18  C26 UNL     1     -15.675   4.894  14.146  1.00  0.00     0.010 C 
HETATM   19  C27 UNL     1     -17.046   5.616  14.046  1.00  0.00    -0.036 C 
HETATM   20  C28 UNL     1     -17.735   5.232  12.727  1.00  0.00     0.016 C 
ENDROOT
BRANCH   1  21
HETATM   21  C8  UNL     1     -16.299   8.091  13.093  1.00  0.00     0.044 C 
BRANCH  21  22
HETATM   22  C7  UNL     1     -14.837   8.428  13.550  1.00  0.00     0.142 C 
HETATM   23  C6  UNL     1     -13.731   7.568  12.939  1.00  0.00     0.067 C 
HETATM   24  C4  UNL     1     -12.377   8.129  13.293  1.00  0.00    -0.067 C 
HETATM   25  C3  UNL     1     -12.228   9.441  13.584  1.00  0.00     0.043 C 
HETATM   26  C5  UNL     1     -11.261   7.121  13.282  1.00  0.00     0.044 C 
HETATM   27  C29 UNL     1     -13.375  10.366  13.384  1.00  0.00     0.292 C 
HETATM   28  O7  UNL     1     -14.594   9.811  13.193  1.00  0.00    -0.311 OA
HETATM   29  O8  UNL     1     -13.220  11.581  13.345  1.00  0.00    -0.260 OA
BRANCH  25  30
HETATM   30  C2  UNL     1     -10.974  10.140  14.043  1.00  0.00     0.212 C 
BRANCH  30  31
HETATM   31  O1  UNL     1     -10.516   9.603  15.289  1.00  0.00    -0.391 OA
HETATM   32  C1  UNL     1      -9.104   9.441  15.299  1.00  0.00     0.201 C 
ENDBRANCH  30  31
ENDBRANCH  25  30
ENDBRANCH  21  22
BRANCH  21  33
HETATM   33  C9  UNL     1     -16.363   7.588  11.650  1.00  0.00     0.171 C 
BRANCH  33  34
HETATM   34  O2  UNL     1     -16.171   8.644  10.716  1.00  0.00    -0.400 OA
HETATM   35  H15 UNL     1     -16.961   9.215  10.750  1.00  0.00     0.209 HD
ENDBRANCH  33  34
ENDBRANCH  21  33
ENDBRANCH   1  21
BRANCH  10  36
HETATM   36  S1  UNL     1     -16.437  -2.551  16.818  1.00  0.00     0.099 S 
HETATM   37  O3  UNL     1     -17.465  -3.431  16.311  1.00  0.00    -0.601 OA
HETATM   38  O4  UNL     1     -15.108  -2.530  16.259  1.00  0.00    -0.601 OA
BRANCH  36  39
HETATM   39  O5  UNL     1     -16.278  -2.884  18.389  1.00  0.00    -0.295 OA
HETATM   40  H29 UNL     1     -15.737  -3.698  18.483  1.00  0.00     0.232 HD
ENDBRANCH  36  39
ENDBRANCH  10  36
TORSDOF 8
ENDMDL
MODEL 9
REMARK minimizedAffinity -7.23725319
REMARK CNNscore 0.322599709
REMARK CNNaffinity 6.86685324
REMARK  8 active torsions:
REMARK  status: ('A' for Active; 'I' for Inactive)
REMARK    1  A    between atoms: O1_2  and  C2_3 
REMARK    2  A    between atoms: C2_3  and  C3_4 
REMARK    3  A    between atoms: C7_8  and  C8_9 
REMARK    4  A    between atoms: C8_9  and  C9_10 
REMARK    5  A    between atoms: C8_9  and  C10_12 
REMARK    6  A    between atoms: C9_10  and  O2_11 
REMARK    7  A    between atoms: C19_21  and  S1_22 
REMARK    8  A    between atoms: S1_22  and  O5_25 
ROOT
HETATM    1  C10 UNL     1      -9.391   7.703  14.545  1.00  0.00     0.003 C 
HETATM    2  C11 UNL     1      -9.665   8.417  15.871  1.00  0.00     0.006 C 
HETATM    3  C12 UNL     1     -10.653   9.530  15.499  1.00  0.00     0.006 C 
HETATM    4  C13 UNL     1     -11.159   9.211  14.068  1.00  0.00    -0.001 C 
HETATM    5  C14 UNL     1     -12.623   9.631  13.835  1.00  0.00    -0.001 C 
HETATM    6  C15 UNL     1     -12.860  10.034  12.370  1.00  0.00     0.033 C 
HETATM    7  C16 UNL     1     -14.303  10.253  12.053  1.00  0.00    -0.022 C 
HETATM    8  C17 UNL     1     -15.259   9.469  12.571  1.00  0.00    -0.066 C 
HETATM    9  C18 UNL     1     -16.713   9.638  12.211  1.00  0.00     0.057 C 
HETATM   10  C19 UNL     1     -17.553   9.950  13.452  1.00  0.00     0.132 C 
HETATM   11  C20 UNL     1     -16.999   9.336  14.736  1.00  0.00     0.101 C 
HETATM   12  C21 UNL     1     -16.148   8.117  14.442  1.00  0.00     0.141 C 
HETATM   13  O6  UNL     1     -16.397   7.040  14.986  1.00  0.00    -0.297 OA
HETATM   14  C22 UNL     1     -14.914   8.320  13.521  1.00  0.00     0.044 C 
HETATM   15  C23 UNL     1     -14.719   7.048  12.679  1.00  0.00     0.029 C 
HETATM   16  C24 UNL     1     -13.687   8.675  14.439  1.00  0.00     0.010 C 
HETATM   17  C25 UNL     1     -13.068   7.485  15.188  1.00  0.00     0.007 C 
HETATM   18  C26 UNL     1     -11.877   6.800  14.519  1.00  0.00     0.010 C 
HETATM   19  C27 UNL     1     -10.804   7.711  13.862  1.00  0.00    -0.036 C 
HETATM   20  C28 UNL     1     -10.644   7.335  12.381  1.00  0.00     0.016 C 
ENDROOT
BRANCH   1  21
HETATM   21  C8  UNL     1      -8.474   6.430  14.582  1.00  0.00     0.044 C 
BRANCH  21  22
HETATM   22  C7  UNL     1      -7.076   6.750  13.948  1.00  0.00     0.142 C 
HETATM   23  C6  UNL     1      -6.254   7.828  14.652  1.00  0.00     0.067 C 
HETATM   24  C4  UNL     1      -4.862   7.886  14.073  1.00  0.00    -0.067 C 
HETATM   25  C3  UNL     1      -4.318   6.801  13.477  1.00  0.00     0.043 C 
HETATM   26  C5  UNL     1      -4.174   9.213  14.229  1.00  0.00     0.044 C 
HETATM   27  C29 UNL     1      -5.029   5.497  13.548  1.00  0.00     0.292 C 
HETATM   28  O7  UNL     1      -6.319   5.515  13.956  1.00  0.00    -0.311 OA
HETATM   29  O8  UNL     1      -4.462   4.441  13.293  1.00  0.00    -0.260 OA
BRANCH  25  30
HETATM   30  C2  UNL     1      -2.988   6.714  12.772  1.00  0.00     0.212 C 
BRANCH  30  31
HETATM   31  O1  UNL     1      -1.925   6.510  13.710  1.00  0.00    -0.391 OA
HETATM   32  C1  UNL     1      -0.901   5.687  13.166  1.00  0.00     0.201 C 
ENDBRANCH  30  31
ENDBRANCH  25  30
ENDBRANCH  21  22
BRANCH  21  33
HETATM   33  C9  UNL     1      -8.358   5.741  15.944  1.00  0.00     0.171 C 
BRANCH  33  34
HETATM   34  O2  UNL     1      -8.046   4.359  15.807  1.00  0.00    -0.400 OA
HETATM   35  H15 UNL     1      -8.833   3.914  15.439  1.00  0.00     0.209 HD
ENDBRANCH  33  34
ENDBRANCH  21  33
ENDBRANCH   1  21
BRANCH  10  36
HETATM   36  S1  UNL     1     -19.247   9.434  13.142  1.00  0.00     0.099 S 
HETATM   37  O3  UNL     1     -20.064  10.593  12.866  1.00  0.00    -0.601 OA
HETATM   38  O4  UNL     1     -19.273   8.264  12.299  1.00  0.00    -0.601 OA
BRANCH  36  39
HETATM   39  O5  UNL     1     -19.627   8.946  14.633  1.00  0.00    -0.295 OA
HETATM   40  H29 UNL     1     -20.468   8.440  14.591  1.00  0.00     0.232 HD
ENDBRANCH  36  39
ENDBRANCH  10  36
TORSDOF 8
ENDMDL
