MODEL 1
REMARK minimizedAffinity -8.94374657
REMARK  14 active torsions:
REMARK  status: ('A' for Active; 'I' for Inactive)
REMARK    1  A    between atoms: C2_2  and  O1_3 
REMARK    2  A    between atoms: O1_3  and  C3_4 
REMARK    3  A    between atoms: C4_6  and  C5_7 
REMARK    4  A    between atoms: C5_7  and  O3_8 
REMARK    5  A    between atoms: C5_7  and  C6_9 
REMARK    6  A    between atoms: C6_9  and  O4_10 
REMARK    7  A    between atoms: O4_10  and  C7_11 
REMARK    8  A    between atoms: C12_16  and  C13_17 
REMARK    9  A    between atoms: C13_17  and  O5_19 
REMARK   10  A    between atoms: C13_17  and  C15_20 
REMARK   11  A    between atoms: C15_20  and  O6_21 
REMARK   12  A    between atoms: C18_24  and  O7_26 
REMARK   13  A    between atoms: C22_29  and  O8_30 
REMARK   14  A    between atoms: C23_31  and  O9_32 
ROOT
HETATM    1  C7  UNL     1      -0.236  52.067 -22.305  1.00  0.00     0.126 C 
HETATM    2  C8  UNL     1      -1.693  51.726 -22.045  1.00  0.00     0.040 C 
HETATM    3  C9  UNL     1      -1.743  51.315 -20.558  1.00  0.00     0.026 C 
HETATM    4  C10 UNL     1      -0.618  52.149 -19.885  1.00  0.00    -0.001 C 
HETATM    5  C11 UNL     1       0.273  51.495 -18.823  1.00  0.00     0.013 C 
HETATM    6  C12 UNL     1      -0.481  50.936 -17.592  1.00  0.00     0.022 C 
HETATM    7  C16 UNL     1      -0.949  49.498 -17.900  1.00  0.00     0.010 C 
HETATM    8  C17 UNL     1      -2.095  49.395 -18.898  1.00  0.00     0.038 C 
HETATM    9  C18 UNL     1      -1.818  49.781 -20.360  1.00  0.00     0.058 C 
HETATM   10  C19 UNL     1      -0.668  48.978 -20.976  1.00  0.00     0.046 C 
HETATM   11  C20 UNL     1       0.144  52.851 -21.049  1.00  0.00     0.015 C 
HETATM   12  C21 UNL     1       1.657  53.006 -20.922  1.00  0.00     0.013 C 
ENDROOT
BRANCH   1  13
HETATM   13  O4  UNL     1      -0.071  52.890 -23.456  1.00  0.00    -0.383 OA
BRANCH  13  14
HETATM   14  C6  UNL     1       0.172  52.132 -24.650  1.00  0.00     0.202 C 
BRANCH  14  15
HETATM   15  C5  UNL     1      -0.351  52.957 -25.830  1.00  0.00     0.173 C 
BRANCH  15  16
HETATM   16  C4  UNL     1      -1.047  52.087 -26.888  1.00  0.00     0.187 C 
HETATM   17  O2  UNL     1      -0.910  50.687 -26.528  1.00  0.00    -0.348 OA
HETATM   18  C3  UNL     1      -2.227  50.122 -26.413  1.00  0.00     0.291 C 
HETATM   19  C23 UNL     1      -3.086  50.948 -27.375  1.00  0.00     0.204 C 
HETATM   20  C22 UNL     1      -2.545  52.350 -27.131  1.00  0.00     0.183 C 
BRANCH  18  21
HETATM   21  O1  UNL     1      -2.730  50.243 -25.086  1.00  0.00    -0.359 OA
BRANCH  21  22
HETATM   22  C2  UNL     1      -3.254  49.011 -24.598  1.00  0.00     0.166 C 
HETATM   23  C1  UNL     1      -3.947  48.304 -25.746  1.00  0.00     0.033 C 
ENDBRANCH  21  22
ENDBRANCH  18  21
BRANCH  19  24
HETATM   24  O9  UNL     1      -2.853  50.561 -28.739  1.00  0.00    -0.388 OA
HETATM   25  H42 UNL     1      -1.909  50.334 -28.829  1.00  0.00     0.210 HD
ENDBRANCH  19  24
BRANCH  20  26
HETATM   26  O8  UNL     1      -3.211  52.962 -26.028  1.00  0.00    -0.390 OA
HETATM   27  H40 UNL     1      -2.822  52.574 -25.210  1.00  0.00     0.210 HD
ENDBRANCH  20  26
ENDBRANCH  15  16
BRANCH  15  28
HETATM   28  O3  UNL     1       0.747  53.690 -26.403  1.00  0.00    -0.391 OA
HETATM   29  H9  UNL     1       1.203  54.091 -25.635  1.00  0.00     0.210 HD
ENDBRANCH  15  28
ENDBRANCH  14  15
ENDBRANCH  13  14
ENDBRANCH   1  13
BRANCH   9  30
HETATM   30  O7  UNL     1      -3.006  49.367 -21.081  1.00  0.00    -0.390 OA
HETATM   31  H34 UNL     1      -3.094  48.403 -20.992  1.00  0.00     0.210 HD
ENDBRANCH   9  30
BRANCH   6  32
HETATM   32  C13 UNL     1       0.415  50.989 -16.294  1.00  0.00     0.079 C 
HETATM   33  C14 UNL     1      -0.375  51.497 -15.072  1.00  0.00     0.048 C 
BRANCH  32  34
HETATM   34  O5  UNL     1       0.856  49.657 -15.994  1.00  0.00    -0.388 OA
HETATM   35  H23 UNL     1       1.389  49.687 -15.179  1.00  0.00     0.210 HD
ENDBRANCH  32  34
BRANCH  32  36
HETATM   36  C15 UNL     1       1.663  51.903 -16.462  1.00  0.00     0.201 C 
BRANCH  36  37
HETATM   37  O6  UNL     1       1.438  53.234 -16.017  1.00  0.00    -0.398 OA
HETATM   38  H26 UNL     1       1.369  53.220 -15.047  1.00  0.00     0.209 HD
ENDBRANCH  36  37
ENDBRANCH  32  36
ENDBRANCH   6  32
TORSDOF 14
ENDMDL
MODEL 2
REMARK minimizedAffinity -8.89453793
REMARK  14 active torsions:
REMARK  status: ('A' for Active; 'I' for Inactive)
REMARK    1  A    between atoms: C2_2  and  O1_3 
REMARK    2  A    between atoms: O1_3  and  C3_4 
REMARK    3  A    between atoms: C4_6  and  C5_7 
REMARK    4  A    between atoms: C5_7  and  O3_8 
REMARK    5  A    between atoms: C5_7  and  C6_9 
REMARK    6  A    between atoms: C6_9  and  O4_10 
REMARK    7  A    between atoms: O4_10  and  C7_11 
REMARK    8  A    between atoms: C12_16  and  C13_17 
REMARK    9  A    between atoms: C13_17  and  O5_19 
REMARK   10  A    between atoms: C13_17  and  C15_20 
REMARK   11  A    between atoms: C15_20  and  O6_21 
REMARK   12  A    between atoms: C18_24  and  O7_26 
REMARK   13  A    between atoms: C22_29  and  O8_30 
REMARK   14  A    between atoms: C23_31  and  O9_32 
ROOT
HETATM    1  C7  UNL     1      -2.509  51.471 -21.846  1.00  0.00     0.126 C 
HETATM    2  C8  UNL     1      -3.088  50.255 -22.548  1.00  0.00     0.040 C 
HETATM    3  C9  UNL     1      -2.398  50.229 -23.927  1.00  0.00     0.026 C 
HETATM    4  C10 UNL     1      -0.998  50.856 -23.675  1.00  0.00    -0.001 C 
HETATM    5  C11 UNL     1      -0.409  51.826 -24.704  1.00  0.00     0.013 C 
HETATM    6  C12 UNL     1      -0.238  51.243 -26.128  1.00  0.00     0.022 C 
HETATM    7  C16 UNL     1      -1.559  51.422 -26.907  1.00  0.00     0.010 C 
HETATM    8  C17 UNL     1      -2.697  50.516 -26.456  1.00  0.00     0.038 C 
HETATM    9  C18 UNL     1      -3.307  50.756 -25.066  1.00  0.00     0.058 C 
HETATM   10  C19 UNL     1      -3.828  52.186 -24.887  1.00  0.00     0.046 C 
HETATM   11  C20 UNL     1      -1.027  51.381 -22.209  1.00  0.00     0.015 C 
HETATM   12  C21 UNL     1      -0.296  52.686 -21.903  1.00  0.00     0.013 C 
ENDROOT
BRANCH   1  13
HETATM   13  O4  UNL     1      -2.666  51.404 -20.432  1.00  0.00    -0.383 OA
BRANCH  13  14
HETATM   14  C6  UNL     1      -1.411  51.340 -19.737  1.00  0.00     0.202 C 
BRANCH  14  15
HETATM   15  C5  UNL     1      -1.720  51.296 -18.238  1.00  0.00     0.173 C 
BRANCH  15  16
HETATM   16  C4  UNL     1      -1.054  50.102 -17.539  1.00  0.00     0.187 C 
HETATM   17  O2  UNL     1       0.385  50.295 -17.519  1.00  0.00    -0.348 OA
HETATM   18  C3  UNL     1       0.825  50.264 -16.151  1.00  0.00     0.291 C 
HETATM   19  C23 UNL     1      -0.189  49.361 -15.442  1.00  0.00     0.204 C 
HETATM   20  C22 UNL     1      -1.492  49.806 -16.093  1.00  0.00     0.183 C 
BRANCH  18  21
HETATM   21  O1  UNL     1       0.808  51.564 -15.571  1.00  0.00    -0.359 OA
BRANCH  21  22
HETATM   22  C2  UNL     1       1.540  52.507 -16.349  1.00  0.00     0.166 C 
HETATM   23  C1  UNL     1       3.014  52.329 -16.044  1.00  0.00     0.033 C 
ENDBRANCH  21  22
ENDBRANCH  18  21
BRANCH  19  24
HETATM   24  O9  UNL     1       0.057  47.976 -15.732  1.00  0.00    -0.388 OA
HETATM   25  H42 UNL     1       0.367  47.914 -16.654  1.00  0.00     0.210 HD
ENDBRANCH  19  24
BRANCH  20  26
HETATM   26  O8  UNL     1      -2.036  50.935 -15.411  1.00  0.00    -0.390 OA
HETATM   27  H40 UNL     1      -1.519  51.721 -15.705  1.00  0.00     0.210 HD
ENDBRANCH  20  26
ENDBRANCH  15  16
BRANCH  15  28
HETATM   28  O3  UNL     1      -3.149  51.267 -18.063  1.00  0.00    -0.391 OA
HETATM   29  H9  UNL     1      -3.484  51.972 -18.654  1.00  0.00     0.210 HD
ENDBRANCH  15  28
ENDBRANCH  14  15
ENDBRANCH  13  14
ENDBRANCH   1  13
BRANCH   9  30
HETATM   30  O7  UNL     1      -4.483  49.909 -25.029  1.00  0.00    -0.390 OA
HETATM   31  H34 UNL     1      -5.093  50.207 -25.725  1.00  0.00     0.210 HD
ENDBRANCH   9  30
BRANCH   6  32
HETATM   32  C13 UNL     1       0.976  51.912 -26.884  1.00  0.00     0.079 C 
HETATM   33  C14 UNL     1       0.870  51.732 -28.411  1.00  0.00     0.048 C 
BRANCH  32  34
HETATM   34  O5  UNL     1       0.954  53.322 -26.617  1.00  0.00    -0.388 OA
HETATM   35  H23 UNL     1       1.689  53.736 -27.103  1.00  0.00     0.210 HD
ENDBRANCH  32  34
BRANCH  32  36
HETATM   36  C15 UNL     1       2.351  51.339 -26.435  1.00  0.00     0.201 C 
BRANCH  36  37
HETATM   37  O6  UNL     1       3.352  51.454 -27.438  1.00  0.00    -0.398 OA
HETATM   38  H26 UNL     1       3.583  52.395 -27.527  1.00  0.00     0.209 HD
ENDBRANCH  36  37
ENDBRANCH  32  36
ENDBRANCH   6  32
TORSDOF 14
ENDMDL
MODEL 3
REMARK minimizedAffinity -8.88163471
REMARK  14 active torsions:
REMARK  status: ('A' for Active; 'I' for Inactive)
REMARK    1  A    between atoms: C2_2  and  O1_3 
REMARK    2  A    between atoms: O1_3  and  C3_4 
REMARK    3  A    between atoms: C4_6  and  C5_7 
REMARK    4  A    between atoms: C5_7  and  O3_8 
REMARK    5  A    between atoms: C5_7  and  C6_9 
REMARK    6  A    between atoms: C6_9  and  O4_10 
REMARK    7  A    between atoms: O4_10  and  C7_11 
REMARK    8  A    between atoms: C12_16  and  C13_17 
REMARK    9  A    between atoms: C13_17  and  O5_19 
REMARK   10  A    between atoms: C13_17  and  C15_20 
REMARK   11  A    between atoms: C15_20  and  O6_21 
REMARK   12  A    between atoms: C18_24  and  O7_26 
REMARK   13  A    between atoms: C22_29  and  O8_30 
REMARK   14  A    between atoms: C23_31  and  O9_32 
ROOT
HETATM    1  C7  UNL     1      -0.906  52.310 -22.329  1.00  0.00     0.126 C 
HETATM    2  C8  UNL     1       0.560  52.593 -22.047  1.00  0.00     0.040 C 
HETATM    3  C9  UNL     1       0.807  52.026 -20.634  1.00  0.00     0.026 C 
HETATM    4  C10 UNL     1      -0.178  50.830 -20.515  1.00  0.00    -0.001 C 
HETATM    5  C11 UNL     1      -0.932  50.600 -19.201  1.00  0.00     0.013 C 
HETATM    6  C12 UNL     1      -0.031  50.387 -17.960  1.00  0.00     0.022 C 
HETATM    7  C16 UNL     1       0.334  51.762 -17.361  1.00  0.00     0.010 C 
HETATM    8  C17 UNL     1       1.320  52.580 -18.185  1.00  0.00     0.038 C 
HETATM    9  C18 UNL     1       0.851  53.125 -19.543  1.00  0.00     0.058 C 
HETATM   10  C19 UNL     1      -0.405  53.995 -19.429  1.00  0.00     0.046 C 
HETATM   11  C20 UNL     1      -1.072  50.889 -21.790  1.00  0.00     0.015 C 
HETATM   12  C21 UNL     1      -2.544  50.513 -21.649  1.00  0.00     0.013 C 
ENDROOT
BRANCH   1  13
HETATM   13  O4  UNL     1      -1.203  52.336 -23.722  1.00  0.00    -0.383 OA
BRANCH  13  14
HETATM   14  C6  UNL     1      -0.129  51.827 -24.528  1.00  0.00     0.202 C 
BRANCH  14  15
HETATM   15  C5  UNL     1      -0.169  52.574 -25.865  1.00  0.00     0.173 C 
BRANCH  15  16
HETATM   16  C4  UNL     1      -0.960  51.809 -26.937  1.00  0.00     0.187 C 
HETATM   17  O2  UNL     1      -1.048  50.408 -26.565  1.00  0.00    -0.348 OA
HETATM   18  C3  UNL     1      -2.438  50.051 -26.484  1.00  0.00     0.291 C 
HETATM   19  C23 UNL     1      -3.134  50.988 -27.476  1.00  0.00     0.204 C 
HETATM   20  C22 UNL     1      -2.393  52.294 -27.225  1.00  0.00     0.183 C 
BRANCH  18  21
HETATM   21  O1  UNL     1      -2.952  50.261 -25.173  1.00  0.00    -0.359 OA
BRANCH  21  22
HETATM   22  C2  UNL     1      -4.160  49.538 -24.950  1.00  0.00     0.166 C 
HETATM   23  C1  UNL     1      -4.129  48.289 -25.811  1.00  0.00     0.033 C 
ENDBRANCH  21  22
ENDBRANCH  18  21
BRANCH  19  24
HETATM   24  O9  UNL     1      -2.926  50.557 -28.830  1.00  0.00    -0.388 OA
HETATM   25  H42 UNL     1      -2.025  50.188 -28.891  1.00  0.00     0.210 HD
ENDBRANCH  19  24
BRANCH  20  26
HETATM   26  O8  UNL     1      -2.988  53.012 -26.145  1.00  0.00    -0.390 OA
HETATM   27  H40 UNL     1      -2.685  52.577 -25.313  1.00  0.00     0.210 HD
ENDBRANCH  20  26
ENDBRANCH  15  16
BRANCH  15  28
HETATM   28  O3  UNL     1       1.183  52.820 -26.296  1.00  0.00    -0.391 OA
HETATM   29  H9  UNL     1       1.634  53.175 -25.502  1.00  0.00     0.210 HD
ENDBRANCH  15  28
ENDBRANCH  14  15
ENDBRANCH  13  14
ENDBRANCH   1  13
BRANCH   9  30
HETATM   30  O7  UNL     1       1.907  54.026 -19.962  1.00  0.00    -0.390 OA
HETATM   31  H34 UNL     1       1.970  54.744 -19.308  1.00  0.00     0.210 HD
ENDBRANCH   9  30
BRANCH   6  32
HETATM   32  C13 UNL     1      -0.729  49.456 -16.893  1.00  0.00     0.079 C 
HETATM   33  C14 UNL     1      -2.025  50.084 -16.344  1.00  0.00     0.048 C 
BRANCH  32  34
HETATM   34  O5  UNL     1      -1.088  48.224 -17.534  1.00  0.00    -0.388 OA
HETATM   35  H23 UNL     1      -1.539  47.660 -16.881  1.00  0.00     0.210 HD
ENDBRANCH  32  34
BRANCH  32  36
HETATM   36  C15 UNL     1       0.193  49.139 -15.680  1.00  0.00     0.201 C 
BRANCH  36  37
HETATM   37  O6  UNL     1       0.790  47.852 -15.761  1.00  0.00    -0.398 OA
HETATM   38  H26 UNL     1       1.451  47.871 -16.475  1.00  0.00     0.209 HD
ENDBRANCH  36  37
ENDBRANCH  32  36
ENDBRANCH   6  32
TORSDOF 14
ENDMDL
MODEL 4
REMARK minimizedAffinity -8.67263699
REMARK  14 active torsions:
REMARK  status: ('A' for Active; 'I' for Inactive)
REMARK    1  A    between atoms: C2_2  and  O1_3 
REMARK    2  A    between atoms: O1_3  and  C3_4 
REMARK    3  A    between atoms: C4_6  and  C5_7 
REMARK    4  A    between atoms: C5_7  and  O3_8 
REMARK    5  A    between atoms: C5_7  and  C6_9 
REMARK    6  A    between atoms: C6_9  and  O4_10 
REMARK    7  A    between atoms: O4_10  and  C7_11 
REMARK    8  A    between atoms: C12_16  and  C13_17 
REMARK    9  A    between atoms: C13_17  and  O5_19 
REMARK   10  A    between atoms: C13_17  and  C15_20 
REMARK   11  A    between atoms: C15_20  and  O6_21 
REMARK   12  A    between atoms: C18_24  and  O7_26 
REMARK   13  A    between atoms: C22_29  and  O8_30 
REMARK   14  A    between atoms: C23_31  and  O9_32 
ROOT
HETATM    1  C7  UNL     1      -4.389  48.900 -24.814  1.00  0.00     0.126 C 
HETATM    2  C8  UNL     1      -4.652  50.074 -23.887  1.00  0.00     0.040 C 
HETATM    3  C9  UNL     1      -3.451  51.019 -24.095  1.00  0.00     0.026 C 
HETATM    4  C10 UNL     1      -3.027  50.792 -25.573  1.00  0.00    -0.001 C 
HETATM    5  C11 UNL     1      -1.538  50.727 -25.929  1.00  0.00     0.013 C 
HETATM    6  C12 UNL     1      -0.722  51.990 -25.561  1.00  0.00     0.022 C 
HETATM    7  C16 UNL     1      -0.245  51.872 -24.097  1.00  0.00     0.010 C 
HETATM    8  C17 UNL     1      -1.340  52.030 -23.050  1.00  0.00     0.038 C 
HETATM    9  C18 UNL     1      -2.410  50.931 -22.951  1.00  0.00     0.058 C 
HETATM   10  C19 UNL     1      -1.811  49.542 -22.708  1.00  0.00     0.046 C 
HETATM   11  C20 UNL     1      -3.883  49.593 -26.080  1.00  0.00     0.015 C 
HETATM   12  C21 UNL     1      -3.227  48.601 -27.037  1.00  0.00     0.013 C 
ENDROOT
BRANCH   1  13
HETATM   13  O4  UNL     1      -5.574  48.167 -25.107  1.00  0.00    -0.383 OA
BRANCH  13  14
HETATM   14  C6  UNL     1      -6.419  47.996 -23.959  1.00  0.00     0.202 C 
BRANCH  14  15
HETATM   15  C5  UNL     1      -7.820  48.478 -24.347  1.00  0.00     0.173 C 
BRANCH  15  16
HETATM   16  C4  UNL     1      -8.274  47.921 -25.704  1.00  0.00     0.187 C 
HETATM   17  O2  UNL     1      -9.124  46.763 -25.491  1.00  0.00    -0.348 OA
HETATM   18  C3  UNL     1     -10.393  47.015 -26.118  1.00  0.00     0.291 C 
HETATM   19  C23 UNL     1     -10.067  47.963 -27.277  1.00  0.00     0.204 C 
HETATM   20  C22 UNL     1      -9.039  48.882 -26.633  1.00  0.00     0.183 C 
BRANCH  18  21
HETATM   21  O1  UNL     1     -11.301  47.641 -25.219  1.00  0.00    -0.359 OA
BRANCH  21  22
HETATM   22  C2  UNL     1     -12.350  46.763 -24.820  1.00  0.00     0.166 C 
HETATM   23  C1  UNL     1     -13.429  46.801 -25.884  1.00  0.00     0.033 C 
ENDBRANCH  21  22
ENDBRANCH  18  21
BRANCH  19  24
HETATM   24  O9  UNL     1      -9.472  47.253 -28.375  1.00  0.00    -0.388 OA
HETATM   25  H42 UNL     1      -8.909  46.548 -28.006  1.00  0.00     0.210 HD
ENDBRANCH  19  24
BRANCH  20  26
HETATM   26  O8  UNL     1      -9.683  49.956 -25.949  1.00  0.00    -0.390 OA
HETATM   27  H40 UNL     1     -10.019  49.590 -25.097  1.00  0.00     0.210 HD
ENDBRANCH  20  26
ENDBRANCH  15  16
BRANCH  15  28
HETATM   28  O3  UNL     1      -7.828  49.918 -24.348  1.00  0.00    -0.391 OA
HETATM   29  H9  UNL     1      -7.394  50.168 -23.507  1.00  0.00     0.210 HD
ENDBRANCH  15  28
ENDBRANCH  14  15
ENDBRANCH  13  14
ENDBRANCH   1  13
BRANCH   9  30
HETATM   30  O7  UNL     1      -3.151  51.248 -21.745  1.00  0.00    -0.390 OA
HETATM   31  H34 UNL     1      -2.539  51.198 -20.991  1.00  0.00     0.210 HD
ENDBRANCH   9  30
BRANCH   6  32
HETATM   32  C13 UNL     1       0.489  52.204 -26.550  1.00  0.00     0.079 C 
HETATM   33  C14 UNL     1       0.213  51.591 -27.936  1.00  0.00     0.048 C 
BRANCH  32  34
HETATM   34  O5  UNL     1       0.677  53.615 -26.736  1.00  0.00    -0.388 OA
HETATM   35  H23 UNL     1       1.409  53.745 -27.364  1.00  0.00     0.210 HD
ENDBRANCH  32  34
BRANCH  32  36
HETATM   36  C15 UNL     1       1.815  51.589 -26.016  1.00  0.00     0.201 C 
BRANCH  36  37
HETATM   37  O6  UNL     1       2.947  51.956 -26.793  1.00  0.00    -0.398 OA
HETATM   38  H26 UNL     1       3.126  52.900 -26.639  1.00  0.00     0.209 HD
ENDBRANCH  36  37
ENDBRANCH  32  36
ENDBRANCH   6  32
TORSDOF 14
ENDMDL
MODEL 5
REMARK minimizedAffinity -8.60608673
REMARK  14 active torsions:
REMARK  status: ('A' for Active; 'I' for Inactive)
REMARK    1  A    between atoms: C2_2  and  O1_3 
REMARK    2  A    between atoms: O1_3  and  C3_4 
REMARK    3  A    between atoms: C4_6  and  C5_7 
REMARK    4  A    between atoms: C5_7  and  O3_8 
REMARK    5  A    between atoms: C5_7  and  C6_9 
REMARK    6  A    between atoms: C6_9  and  O4_10 
REMARK    7  A    between atoms: O4_10  and  C7_11 
REMARK    8  A    between atoms: C12_16  and  C13_17 
REMARK    9  A    between atoms: C13_17  and  O5_19 
REMARK   10  A    between atoms: C13_17  and  C15_20 
REMARK   11  A    between atoms: C15_20  and  O6_21 
REMARK   12  A    between atoms: C18_24  and  O7_26 
REMARK   13  A    between atoms: C22_29  and  O8_30 
REMARK   14  A    between atoms: C23_31  and  O9_32 
ROOT
HETATM    1  C7  UNL     1      -0.291  52.607 -20.071  1.00  0.00     0.126 C 
HETATM    2  C8  UNL     1      -0.776  51.173 -20.190  1.00  0.00     0.040 C 
HETATM    3  C9  UNL     1      -0.632  50.831 -21.688  1.00  0.00     0.026 C 
HETATM    4  C10 UNL     1       0.576  51.682 -22.168  1.00  0.00    -0.001 C 
HETATM    5  C11 UNL     1       0.518  52.373 -23.535  1.00  0.00     0.013 C 
HETATM    6  C12 UNL     1       0.307  51.423 -24.738  1.00  0.00     0.022 C 
HETATM    7  C16 UNL     1      -1.206  51.188 -24.936  1.00  0.00     0.010 C 
HETATM    8  C17 UNL     1      -1.864  50.315 -23.875  1.00  0.00     0.038 C 
HETATM    9  C18 UNL     1      -1.981  50.873 -22.448  1.00  0.00     0.058 C 
HETATM   10  C19 UNL     1      -2.728  52.210 -22.396  1.00  0.00     0.046 C 
HETATM   11  C20 UNL     1       0.944  52.609 -20.972  1.00  0.00     0.015 C 
HETATM   12  C21 UNL     1       1.406  54.030 -21.284  1.00  0.00     0.013 C 
ENDROOT
BRANCH   1  13
HETATM   13  O4  UNL     1       0.083  52.942 -18.738  1.00  0.00    -0.383 OA
BRANCH  13  14
HETATM   14  C6  UNL     1       0.396  51.787 -17.943  1.00  0.00     0.202 C 
BRANCH  14  15
HETATM   15  C5  UNL     1       1.529  52.183 -16.990  1.00  0.00     0.173 C 
BRANCH  15  16
HETATM   16  C4  UNL     1       1.779  51.122 -15.908  1.00  0.00     0.187 C 
HETATM   17  O2  UNL     1       2.399  51.746 -14.753  1.00  0.00    -0.348 OA
HETATM   18  C3  UNL     1       1.564  51.504 -13.609  1.00  0.00     0.291 C 
HETATM   19  C23 UNL     1       0.862  50.178 -13.918  1.00  0.00     0.204 C 
HETATM   20  C22 UNL     1       0.552  50.341 -15.400  1.00  0.00     0.183 C 
BRANCH  18  21
HETATM   21  O1  UNL     1       0.599  52.537 -13.442  1.00  0.00    -0.359 OA
BRANCH  21  22
HETATM   22  C2  UNL     1      -0.143  52.387 -12.234  1.00  0.00     0.166 C 
HETATM   23  C1  UNL     1      -1.619  52.437 -12.578  1.00  0.00     0.033 C 
ENDBRANCH  21  22
ENDBRANCH  18  21
BRANCH  19  24
HETATM   24  O9  UNL     1       1.748  49.064 -13.722  1.00  0.00    -0.388 OA
HETATM   25  H42 UNL     1       2.643  49.342 -13.992  1.00  0.00     0.210 HD
ENDBRANCH  19  24
BRANCH  20  26
HETATM   26  O8  UNL     1      -0.685  51.027 -15.583  1.00  0.00    -0.390 OA
HETATM   27  H40 UNL     1      -0.507  51.984 -15.424  1.00  0.00     0.210 HD
ENDBRANCH  20  26
ENDBRANCH  15  16
BRANCH  15  28
HETATM   28  O3  UNL     1       1.211  53.458 -16.402  1.00  0.00    -0.391 OA
HETATM   29  H9  UNL     1       0.933  54.016 -17.157  1.00  0.00     0.210 HD
ENDBRANCH  15  28
ENDBRANCH  14  15
ENDBRANCH  13  14
ENDBRANCH   1  13
BRANCH   9  30
HETATM   30  O7  UNL     1      -2.833  49.929 -21.752  1.00  0.00    -0.390 OA
HETATM   31  H34 UNL     1      -3.702  49.924 -22.190  1.00  0.00     0.210 HD
ENDBRANCH   9  30
BRANCH   6  32
HETATM   32  C13 UNL     1       0.980  51.991 -26.048  1.00  0.00     0.079 C 
HETATM   33  C14 UNL     1       0.141  51.686 -27.304  1.00  0.00     0.048 C 
BRANCH  32  34
HETATM   34  O5  UNL     1       1.069  53.418 -25.928  1.00  0.00    -0.388 OA
HETATM   35  H23 UNL     1       1.463  53.769 -26.746  1.00  0.00     0.210 HD
ENDBRANCH  32  34
BRANCH  32  36
HETATM   36  C15 UNL     1       2.409  51.418 -26.284  1.00  0.00     0.201 C 
BRANCH  36  37
HETATM   37  O6  UNL     1       3.127  52.123 -27.287  1.00  0.00    -0.398 OA
HETATM   38  H26 UNL     1       3.354  53.001 -26.936  1.00  0.00     0.209 HD
ENDBRANCH  36  37
ENDBRANCH  32  36
ENDBRANCH   6  32
TORSDOF 14
ENDMDL
MODEL 6
REMARK minimizedAffinity -8.55195904
REMARK  14 active torsions:
REMARK  status: ('A' for Active; 'I' for Inactive)
REMARK    1  A    between atoms: C2_2  and  O1_3 
REMARK    2  A    between atoms: O1_3  and  C3_4 
REMARK    3  A    between atoms: C4_6  and  C5_7 
REMARK    4  A    between atoms: C5_7  and  O3_8 
REMARK    5  A    between atoms: C5_7  and  C6_9 
REMARK    6  A    between atoms: C6_9  and  O4_10 
REMARK    7  A    between atoms: O4_10  and  C7_11 
REMARK    8  A    between atoms: C12_16  and  C13_17 
REMARK    9  A    between atoms: C13_17  and  O5_19 
REMARK   10  A    between atoms: C13_17  and  C15_20 
REMARK   11  A    between atoms: C15_20  and  O6_21 
REMARK   12  A    between atoms: C18_24  and  O7_26 
REMARK   13  A    between atoms: C22_29  and  O8_30 
REMARK   14  A    between atoms: C23_31  and  O9_32 
ROOT
HETATM    1  C7  UNL     1      -0.530  51.940 -21.448  1.00  0.00     0.126 C 
HETATM    2  C8  UNL     1      -1.856  51.467 -20.877  1.00  0.00     0.040 C 
HETATM    3  C9  UNL     1      -1.583  51.246 -19.375  1.00  0.00     0.026 C 
HETATM    4  C10 UNL     1      -0.482  52.285 -19.021  1.00  0.00    -0.001 C 
HETATM    5  C11 UNL     1       0.665  51.880 -18.090  1.00  0.00     0.013 C 
HETATM    6  C12 UNL     1       0.227  51.399 -16.685  1.00  0.00     0.022 C 
HETATM    7  C16 UNL     1      -0.085  49.888 -16.746  1.00  0.00     0.010 C 
HETATM    8  C17 UNL     1      -1.365  49.526 -17.488  1.00  0.00     0.038 C 
HETATM    9  C18 UNL     1      -1.408  49.751 -19.008  1.00  0.00     0.058 C 
HETATM   10  C19 UNL     1      -0.286  49.016 -19.747  1.00  0.00     0.046 C 
HETATM   11  C20 UNL     1      -0.045  52.917 -20.376  1.00  0.00     0.015 C 
HETATM   12  C21 UNL     1       1.430  53.262 -20.561  1.00  0.00     0.013 C 
ENDROOT
BRANCH   1  13
HETATM   13  O4  UNL     1      -0.688  52.622 -22.688  1.00  0.00    -0.383 OA
BRANCH  13  14
HETATM   14  C6  UNL     1       0.498  52.588 -23.496  1.00  0.00     0.202 C 
BRANCH  14  15
HETATM   15  C5  UNL     1       0.244  53.477 -24.718  1.00  0.00     0.173 C 
BRANCH  15  16
HETATM   16  C4  UNL     1       0.602  52.774 -26.036  1.00  0.00     0.187 C 
HETATM   17  O2  UNL     1       0.676  51.341 -25.814  1.00  0.00    -0.348 OA
HETATM   18  C3  UNL     1      -0.256  50.701 -26.702  1.00  0.00     0.291 C 
HETATM   19  C23 UNL     1      -0.347  51.641 -27.908  1.00  0.00     0.204 C 
HETATM   20  C22 UNL     1      -0.346  53.002 -27.228  1.00  0.00     0.183 C 
BRANCH  18  21
HETATM   21  O1  UNL     1      -1.538  50.562 -26.097  1.00  0.00    -0.359 OA
BRANCH  21  22
HETATM   22  C2  UNL     1      -2.472  49.923 -26.963  1.00  0.00     0.166 C 
HETATM   23  C1  UNL     1      -2.823  48.574 -26.366  1.00  0.00     0.033 C 
ENDBRANCH  21  22
ENDBRANCH  18  21
BRANCH  19  24
HETATM   24  O9  UNL     1       0.808  51.512 -28.753  1.00  0.00    -0.388 OA
HETATM   25  H42 UNL     1       1.581  51.350 -28.180  1.00  0.00     0.210 HD
ENDBRANCH  19  24
BRANCH  20  26
HETATM   26  O8  UNL     1      -1.670  53.377 -26.850  1.00  0.00    -0.390 OA
HETATM   27  H40 UNL     1      -1.886  52.871 -26.032  1.00  0.00     0.210 HD
ENDBRANCH  20  26
ENDBRANCH  15  16
BRANCH  15  28
HETATM   28  O3  UNL     1       0.991  54.698 -24.562  1.00  0.00    -0.391 OA
HETATM   29  H9  UNL     1       0.802  54.987 -23.645  1.00  0.00     0.210 HD
ENDBRANCH  15  28
ENDBRANCH  14  15
ENDBRANCH  13  14
ENDBRANCH   1  13
BRANCH   9  30
HETATM   30  O7  UNL     1      -2.637  49.113 -19.439  1.00  0.00    -0.390 OA
HETATM   31  H34 UNL     1      -2.573  48.165 -19.236  1.00  0.00     0.210 HD
ENDBRANCH   9  30
BRANCH   6  32
HETATM   32  C13 UNL     1       1.324  51.721 -15.596  1.00  0.00     0.079 C 
HETATM   33  C14 UNL     1       2.629  52.237 -16.232  1.00  0.00     0.048 C 
BRANCH  32  34
HETATM   34  O5  UNL     1       0.823  52.761 -14.744  1.00  0.00    -0.388 OA
HETATM   35  H23 UNL     1       1.509  52.975 -14.088  1.00  0.00     0.210 HD
ENDBRANCH  32  34
BRANCH  32  36
HETATM   36  C15 UNL     1       1.681  50.485 -14.721  1.00  0.00     0.201 C 
BRANCH  36  37
HETATM   37  O6  UNL     1       2.876  50.664 -13.972  1.00  0.00    -0.398 OA
HETATM   38  H26 UNL     1       2.700  51.319 -13.275  1.00  0.00     0.209 HD
ENDBRANCH  36  37
ENDBRANCH  32  36
ENDBRANCH   6  32
TORSDOF 14
ENDMDL
MODEL 7
REMARK minimizedAffinity -8.46265602
REMARK  14 active torsions:
REMARK  status: ('A' for Active; 'I' for Inactive)
REMARK    1  A    between atoms: C2_2  and  O1_3 
REMARK    2  A    between atoms: O1_3  and  C3_4 
REMARK    3  A    between atoms: C4_6  and  C5_7 
REMARK    4  A    between atoms: C5_7  and  O3_8 
REMARK    5  A    between atoms: C5_7  and  C6_9 
REMARK    6  A    between atoms: C6_9  and  O4_10 
REMARK    7  A    between atoms: O4_10  and  C7_11 
REMARK    8  A    between atoms: C12_16  and  C13_17 
REMARK    9  A    between atoms: C13_17  and  O5_19 
REMARK   10  A    between atoms: C13_17  and  C15_20 
REMARK   11  A    between atoms: C15_20  and  O6_21 
REMARK   12  A    between atoms: C18_24  and  O7_26 
REMARK   13  A    between atoms: C22_29  and  O8_30 
REMARK   14  A    between atoms: C23_31  and  O9_32 
ROOT
HETATM    1  C7  UNL     1      -1.395  51.256 -21.736  1.00  0.00     0.126 C 
HETATM    2  C8  UNL     1      -2.718  50.809 -21.138  1.00  0.00     0.040 C 
HETATM    3  C9  UNL     1      -2.415  50.569 -19.645  1.00  0.00     0.026 C 
HETATM    4  C10 UNL     1      -1.283  51.579 -19.309  1.00  0.00    -0.001 C 
HETATM    5  C11 UNL     1      -0.124  51.141 -18.408  1.00  0.00     0.013 C 
HETATM    6  C12 UNL     1      -0.539  50.658 -16.998  1.00  0.00     0.022 C 
HETATM    7  C16 UNL     1      -0.886  49.155 -17.063  1.00  0.00     0.010 C 
HETATM    8  C17 UNL     1      -2.191  48.828 -17.778  1.00  0.00     0.038 C 
HETATM    9  C18 UNL     1      -2.265  49.067 -19.294  1.00  0.00     0.058 C 
HETATM   10  C19 UNL     1      -1.178  48.313 -20.066  1.00  0.00     0.046 C 
HETATM   11  C20 UNL     1      -0.864  52.213 -20.669  1.00  0.00     0.015 C 
HETATM   12  C21 UNL     1       0.614  52.526 -20.886  1.00  0.00     0.013 C 
ENDROOT
BRANCH   1  13
HETATM   13  O4  UNL     1      -1.568  51.953 -22.967  1.00  0.00    -0.383 OA
BRANCH  13  14
HETATM   14  C6  UNL     1      -2.944  52.042 -23.366  1.00  0.00     0.202 C 
BRANCH  14  15
HETATM   15  C5  UNL     1      -3.051  51.445 -24.773  1.00  0.00     0.173 C 
BRANCH  15  16
HETATM   16  C4  UNL     1      -2.730  52.472 -25.869  1.00  0.00     0.187 C 
HETATM   17  O2  UNL     1      -1.556  53.235 -25.487  1.00  0.00    -0.348 OA
HETATM   18  C3  UNL     1      -0.564  53.080 -26.517  1.00  0.00     0.291 C 
HETATM   19  C23 UNL     1      -1.372  52.841 -27.796  1.00  0.00     0.204 C 
HETATM   20  C22 UNL     1      -2.476  51.924 -27.286  1.00  0.00     0.183 C 
BRANCH  18  21
HETATM   21  O1  UNL     1       0.281  51.964 -26.260  1.00  0.00    -0.359 OA
BRANCH  21  22
HETATM   22  C2  UNL     1       1.329  51.854 -27.219  1.00  0.00     0.166 C 
HETATM   23  C1  UNL     1       2.563  51.326 -26.512  1.00  0.00     0.033 C 
ENDBRANCH  21  22
ENDBRANCH  18  21
BRANCH  19  24
HETATM   24  O9  UNL     1      -1.939  54.066 -28.288  1.00  0.00    -0.388 OA
HETATM   25  H42 UNL     1      -2.189  54.610 -27.518  1.00  0.00     0.210 HD
ENDBRANCH  19  24
BRANCH  20  26
HETATM   26  O8  UNL     1      -2.051  50.562 -27.311  1.00  0.00    -0.390 OA
HETATM   27  H40 UNL     1      -1.463  50.433 -26.531  1.00  0.00     0.210 HD
ENDBRANCH  20  26
ENDBRANCH  15  16
BRANCH  15  28
HETATM   28  O3  UNL     1      -4.372  50.899 -24.943  1.00  0.00    -0.391 OA
HETATM   29  H9  UNL     1      -4.530  50.377 -24.131  1.00  0.00     0.210 HD
ENDBRANCH  15  28
ENDBRANCH  14  15
ENDBRANCH  13  14
ENDBRANCH   1  13
BRANCH   9  30
HETATM   30  O7  UNL     1      -3.518  48.460 -19.701  1.00  0.00    -0.390 OA
HETATM   31  H34 UNL     1      -3.470  47.509 -19.507  1.00  0.00     0.210 HD
ENDBRANCH   9  30
BRANCH   6  32
HETATM   32  C13 UNL     1       0.590  50.946 -15.933  1.00  0.00     0.079 C 
HETATM   33  C14 UNL     1       0.019  51.575 -14.647  1.00  0.00     0.048 C 
BRANCH  32  34
HETATM   34  O5  UNL     1       1.195  49.698 -15.565  1.00  0.00    -0.388 OA
HETATM   35  H23 UNL     1       1.875  49.874 -14.891  1.00  0.00     0.210 HD
ENDBRANCH  32  34
BRANCH  32  36
HETATM   36  C15 UNL     1       1.696  51.898 -16.473  1.00  0.00     0.201 C 
BRANCH  36  37
HETATM   37  O6  UNL     1       1.469  53.259 -16.131  1.00  0.00    -0.398 OA
HETATM   38  H26 UNL     1       1.615  53.358 -15.174  1.00  0.00     0.209 HD
ENDBRANCH  36  37
ENDBRANCH  32  36
ENDBRANCH   6  32
TORSDOF 14
ENDMDL
MODEL 8
REMARK minimizedAffinity -8.44190311
REMARK  14 active torsions:
REMARK  status: ('A' for Active; 'I' for Inactive)
REMARK    1  A    between atoms: C2_2  and  O1_3 
REMARK    2  A    between atoms: O1_3  and  C3_4 
REMARK    3  A    between atoms: C4_6  and  C5_7 
REMARK    4  A    between atoms: C5_7  and  O3_8 
REMARK    5  A    between atoms: C5_7  and  C6_9 
REMARK    6  A    between atoms: C6_9  and  O4_10 
REMARK    7  A    between atoms: O4_10  and  C7_11 
REMARK    8  A    between atoms: C12_16  and  C13_17 
REMARK    9  A    between atoms: C13_17  and  O5_19 
REMARK   10  A    between atoms: C13_17  and  C15_20 
REMARK   11  A    between atoms: C15_20  and  O6_21 
REMARK   12  A    between atoms: C18_24  and  O7_26 
REMARK   13  A    between atoms: C22_29  and  O8_30 
REMARK   14  A    between atoms: C23_31  and  O9_32 
ROOT
HETATM    1  C7  UNL     1      -0.271  52.335 -19.544  1.00  0.00     0.126 C 
HETATM    2  C8  UNL     1      -0.527  50.853 -19.758  1.00  0.00     0.040 C 
HETATM    3  C9  UNL     1      -0.474  50.660 -21.288  1.00  0.00     0.026 C 
HETATM    4  C10 UNL     1       0.531  51.738 -21.782  1.00  0.00    -0.001 C 
HETATM    5  C11 UNL     1       0.232  52.514 -23.069  1.00  0.00     0.013 C 
HETATM    6  C12 UNL     1       0.062  51.640 -24.335  1.00  0.00     0.022 C 
HETATM    7  C16 UNL     1      -1.405  51.170 -24.430  1.00  0.00     0.010 C 
HETATM    8  C17 UNL     1      -1.810  50.118 -23.406  1.00  0.00     0.038 C 
HETATM    9  C18 UNL     1      -1.878  50.534 -21.929  1.00  0.00     0.058 C 
HETATM   10  C19 UNL     1      -2.822  51.717 -21.691  1.00  0.00     0.046 C 
HETATM   11  C20 UNL     1       0.856  52.616 -20.538  1.00  0.00     0.015 C 
HETATM   12  C21 UNL     1       1.052  54.115 -20.752  1.00  0.00     0.013 C 
ENDROOT
BRANCH   1  13
HETATM   13  O4  UNL     1       0.170  52.621 -18.220  1.00  0.00    -0.383 OA
BRANCH  13  14
HETATM   14  C6  UNL     1       0.561  51.443 -17.499  1.00  0.00     0.202 C 
BRANCH  14  15
HETATM   15  C5  UNL     1       1.195  51.903 -16.182  1.00  0.00     0.173 C 
BRANCH  15  16
HETATM   16  C4  UNL     1       0.337  51.535 -14.962  1.00  0.00     0.187 C 
HETATM   17  O2  UNL     1       0.258  50.090 -14.845  1.00  0.00    -0.348 OA
HETATM   18  C3  UNL     1       0.759  49.715 -13.551  1.00  0.00     0.291 C 
HETATM   19  C23 UNL     1       0.464  50.925 -12.659  1.00  0.00     0.204 C 
HETATM   20  C22 UNL     1       0.798  52.077 -13.596  1.00  0.00     0.183 C 
BRANCH  18  21
HETATM   21  O1  UNL     1       2.161  49.470 -13.589  1.00  0.00    -0.359 OA
BRANCH  21  22
HETATM   22  C2  UNL     1       2.485  48.149 -13.164  1.00  0.00     0.166 C 
HETATM   23  C1  UNL     1       2.894  48.209 -11.705  1.00  0.00     0.033 C 
ENDBRANCH  21  22
ENDBRANCH  18  21
BRANCH  19  24
HETATM   24  O9  UNL     1      -0.926  50.974 -12.296  1.00  0.00    -0.388 OA
HETATM   25  H42 UNL     1      -1.445  50.653 -13.057  1.00  0.00     0.210 HD
ENDBRANCH  19  24
BRANCH  20  26
HETATM   26  O8  UNL     1       2.189  52.387 -13.537  1.00  0.00    -0.390 OA
HETATM   27  H40 UNL     1       2.656  51.702 -14.070  1.00  0.00     0.210 HD
ENDBRANCH  20  26
ENDBRANCH  15  16
BRANCH  15  28
HETATM   28  O3  UNL     1       1.418  53.324 -16.249  1.00  0.00    -0.391 OA
HETATM   29  H9  UNL     1       1.841  53.465 -17.121  1.00  0.00     0.210 HD
ENDBRANCH  15  28
ENDBRANCH  14  15
ENDBRANCH  13  14
ENDBRANCH   1  13
BRANCH   9  30
HETATM   30  O7  UNL     1      -2.497  49.407 -21.258  1.00  0.00    -0.390 OA
HETATM   31  H34 UNL     1      -3.391  49.291 -21.622  1.00  0.00     0.210 HD
ENDBRANCH   9  30
BRANCH   6  32
HETATM   32  C13 UNL     1       0.508  52.416 -25.636  1.00  0.00     0.079 C 
HETATM   33  C14 UNL     1      -0.696  52.792 -26.521  1.00  0.00     0.048 C 
BRANCH  32  34
HETATM   34  O5  UNL     1       1.145  53.638 -25.238  1.00  0.00    -0.388 OA
HETATM   35  H23 UNL     1       1.398  54.126 -26.041  1.00  0.00     0.210 HD
ENDBRANCH  32  34
BRANCH  32  36
HETATM   36  C15 UNL     1       1.500  51.597 -26.512  1.00  0.00     0.201 C 
BRANCH  36  37
HETATM   37  O6  UNL     1       2.792  52.185 -26.582  1.00  0.00    -0.398 OA
HETATM   38  H26 UNL     1       3.215  52.087 -25.712  1.00  0.00     0.209 HD
ENDBRANCH  36  37
ENDBRANCH  32  36
ENDBRANCH   6  32
TORSDOF 14
ENDMDL
MODEL 9
REMARK minimizedAffinity -8.38197613
REMARK  14 active torsions:
REMARK  status: ('A' for Active; 'I' for Inactive)
REMARK    1  A    between atoms: C2_2  and  O1_3 
REMARK    2  A    between atoms: O1_3  and  C3_4 
REMARK    3  A    between atoms: C4_6  and  C5_7 
REMARK    4  A    between atoms: C5_7  and  O3_8 
REMARK    5  A    between atoms: C5_7  and  C6_9 
REMARK    6  A    between atoms: C6_9  and  O4_10 
REMARK    7  A    between atoms: O4_10  and  C7_11 
REMARK    8  A    between atoms: C12_16  and  C13_17 
REMARK    9  A    between atoms: C13_17  and  O5_19 
REMARK   10  A    between atoms: C13_17  and  C15_20 
REMARK   11  A    between atoms: C15_20  and  O6_21 
REMARK   12  A    between atoms: C18_24  and  O7_26 
REMARK   13  A    between atoms: C22_29  and  O8_30 
REMARK   14  A    between atoms: C23_31  and  O9_32 
ROOT
HETATM    1  C7  UNL     1      -2.702  51.160 -22.039  1.00  0.00     0.126 C 
HETATM    2  C8  UNL     1      -3.252  49.994 -22.842  1.00  0.00     0.040 C 
HETATM    3  C9  UNL     1      -2.513  50.064 -24.195  1.00  0.00     0.026 C 
HETATM    4  C10 UNL     1      -1.125  50.673 -23.851  1.00  0.00    -0.001 C 
HETATM    5  C11 UNL     1      -0.503  51.712 -24.790  1.00  0.00     0.013 C 
HETATM    6  C12 UNL     1      -0.281  51.229 -26.244  1.00  0.00     0.022 C 
HETATM    7  C16 UNL     1      -1.574  51.459 -27.054  1.00  0.00     0.010 C 
HETATM    8  C17 UNL     1      -2.725  50.523 -26.707  1.00  0.00     0.038 C 
HETATM    9  C18 UNL     1      -3.383  50.667 -25.326  1.00  0.00     0.058 C 
HETATM   10  C19 UNL     1      -3.915  52.080 -25.069  1.00  0.00     0.046 C 
HETATM   11  C20 UNL     1      -1.208  51.097 -22.354  1.00  0.00     0.015 C 
HETATM   12  C21 UNL     1      -0.493  52.378 -21.934  1.00  0.00     0.013 C 
ENDROOT
BRANCH   1  13
HETATM   13  O4  UNL     1      -2.908  50.996 -20.639  1.00  0.00    -0.383 OA
BRANCH  13  14
HETATM   14  C6  UNL     1      -4.287  50.778 -20.302  1.00  0.00     0.202 C 
BRANCH  14  15
HETATM   15  C5  UNL     1      -4.317  49.935 -19.023  1.00  0.00     0.173 C 
BRANCH  15  16
HETATM   16  C4  UNL     1      -2.917  49.737 -18.422  1.00  0.00     0.187 C 
HETATM   17  O2  UNL     1      -2.482  50.972 -17.794  1.00  0.00    -0.348 OA
HETATM   18  C3  UNL     1      -2.195  50.698 -16.413  1.00  0.00     0.291 C 
HETATM   19  C23 UNL     1      -1.771  49.226 -16.393  1.00  0.00     0.204 C 
HETATM   20  C22 UNL     1      -2.758  48.616 -17.378  1.00  0.00     0.183 C 
BRANCH  18  21
HETATM   21  O1  UNL     1      -3.347  50.883 -15.597  1.00  0.00    -0.359 OA
BRANCH  21  22
HETATM   22  C2  UNL     1      -3.020  51.447 -14.330  1.00  0.00     0.166 C 
HETATM   23  C1  UNL     1      -3.104  50.349 -13.287  1.00  0.00     0.033 C 
ENDBRANCH  21  22
ENDBRANCH  18  21
BRANCH  19  24
HETATM   24  O9  UNL     1      -0.429  49.067 -16.880  1.00  0.00    -0.388 OA
HETATM   25  H42 UNL     1      -0.291  49.717 -17.594  1.00  0.00     0.210 HD
ENDBRANCH  19  24
BRANCH  20  26
HETATM   26  O8  UNL     1      -3.974  48.264 -16.719  1.00  0.00    -0.390 OA
HETATM   27  H40 UNL     1      -4.481  49.099 -16.592  1.00  0.00     0.210 HD
ENDBRANCH  20  26
ENDBRANCH  15  16
BRANCH  15  28
HETATM   28  O3  UNL     1      -4.938  48.670 -19.319  1.00  0.00    -0.391 OA
HETATM   29  H9  UNL     1      -5.746  48.904 -19.820  1.00  0.00     0.210 HD
ENDBRANCH  15  28
ENDBRANCH  14  15
ENDBRANCH  13  14
ENDBRANCH   1  13
BRANCH   9  30
HETATM   30  O7  UNL     1      -4.557  49.818 -25.389  1.00  0.00    -0.390 OA
HETATM   31  H34 UNL     1      -5.143  50.162 -26.084  1.00  0.00     0.210 HD
ENDBRANCH   9  30
BRANCH   6  32
HETATM   32  C13 UNL     1       0.956  51.949 -26.909  1.00  0.00     0.079 C 
HETATM   33  C14 UNL     1       0.955  51.794 -28.441  1.00  0.00     0.048 C 
BRANCH  32  34
HETATM   34  O5  UNL     1       0.872  53.352 -26.621  1.00  0.00    -0.388 OA
HETATM   35  H23 UNL     1       1.622  53.798 -27.051  1.00  0.00     0.210 HD
ENDBRANCH  32  34
BRANCH  32  36
HETATM   36  C15 UNL     1       2.318  51.411 -26.381  1.00  0.00     0.201 C 
BRANCH  36  37
HETATM   37  O6  UNL     1       3.340  51.430 -27.368  1.00  0.00    -0.398 OA
HETATM   38  H26 UNL     1       3.579  52.358 -27.538  1.00  0.00     0.209 HD
ENDBRANCH  36  37
ENDBRANCH  32  36
ENDBRANCH   6  32
TORSDOF 14
ENDMDL
