MODEL 1
REMARK minimizedAffinity -7.24288654
REMARK CNNscore 0.626549423
REMARK CNNaffinity 6.00973892
REMARK  13 active torsions:
REMARK  status: ('A' for Active; 'I' for Inactive)
REMARK    1  A    between atoms: C4_4  and  C5_5 
REMARK    2  A    between atoms: C5_5  and  C6_6 
REMARK    3  A    between atoms: C6_6  and  C7_7 
REMARK    4  A    between atoms: C7_7  and  C9_9 
REMARK    5  A    between atoms: C18_18  and  C20_20 
REMARK    6  A    between atoms: C20_20  and  O2_22 
REMARK    7  A    between atoms: C21_23  and  O3_24 
REMARK    8  A    between atoms: O3_24  and  C22_25 
REMARK    9  A    between atoms: C23_27  and  C24_28 
REMARK   10  A    between atoms: C24_28  and  O5_29 
REMARK   11  A    between atoms: C25_30  and  O6_31 
REMARK   12  A    between atoms: C26_32  and  O7_33 
REMARK   13  A    between atoms: C28_35  and  O8_36 
ROOT
HETATM    1  C9  UNL     1     -17.360   5.462  14.727  1.00  0.00    -0.002 C 
HETATM    2  C10 UNL     1     -18.845   5.440  15.188  1.00  0.00     0.006 C 
HETATM    3  C11 UNL     1     -19.200   3.985  15.536  1.00  0.00     0.011 C 
HETATM    4  C12 UNL     1     -17.857   3.228  15.537  1.00  0.00    -0.032 C 
HETATM    5  C13 UNL     1     -17.241   3.432  16.958  1.00  0.00     0.016 C 
HETATM    6  C14 UNL     1     -17.973   1.713  15.201  1.00  0.00     0.004 C 
HETATM    7  C15 UNL     1     -18.571   0.878  16.333  1.00  0.00     0.007 C 
HETATM    8  C16 UNL     1     -18.770  -0.573  15.910  1.00  0.00     0.007 C 
HETATM    9  C17 UNL     1     -17.486  -1.336  15.509  1.00  0.00     0.018 C 
HETATM   10  C18 UNL     1     -16.921  -2.361  16.567  1.00  0.00     0.072 C 
HETATM   11  C19 UNL     1     -18.039  -3.316  17.066  1.00  0.00     0.030 C 
HETATM   12  C21 UNL     1     -15.782  -3.215  15.898  1.00  0.00     0.146 C 
HETATM   13  C27 UNL     1     -15.004  -2.493  14.791  1.00  0.00     0.066 C 
HETATM   14  C28 UNL     1     -14.987  -0.987  14.963  1.00  0.00     0.130 C 
HETATM   15  C29 UNL     1     -16.401  -0.426  14.878  1.00  0.00    -0.001 A 
HETATM   16  C30 UNL     1     -16.755   0.168  13.530  1.00  0.00     0.024 A 
HETATM   17  C31 UNL     1     -16.639   1.109  14.711  1.00  0.00    -0.025 A 
HETATM   18  C32 UNL     1     -15.411   2.024  14.758  1.00  0.00     0.011 C 
HETATM   19  C33 UNL     1     -15.622   3.511  14.407  1.00  0.00     0.011 C 
HETATM   20  C34 UNL     1     -17.089   3.962  14.379  1.00  0.00    -0.032 C 
HETATM   21  C35 UNL     1     -17.656   3.659  12.957  1.00  0.00     0.016 C 
ENDROOT
BRANCH  12  22
HETATM   22  O3  UNL     1     -16.346  -4.399  15.284  1.00  0.00    -0.352 OA
BRANCH  22  23
HETATM   23  C22 UNL     1     -15.635  -5.589  15.634  1.00  0.00     0.292 C 
HETATM   24  O4  UNL     1     -14.341  -5.301  16.183  1.00  0.00    -0.348 OA
HETATM   25  C23 UNL     1     -13.393  -6.204  15.556  1.00  0.00     0.179 C 
HETATM   26  C25 UNL     1     -14.192  -7.230  14.748  1.00  0.00     0.182 C 
HETATM   27  C26 UNL     1     -15.407  -6.415  14.359  1.00  0.00     0.204 C 
BRANCH  25  28
HETATM   28  C24 UNL     1     -12.508  -6.800  16.645  1.00  0.00     0.198 C 
BRANCH  28  29
HETATM   29  O5  UNL     1     -11.310  -7.314  16.056  1.00  0.00    -0.398 OA
HETATM   30  H39 UNL     1     -10.992  -6.605  15.468  1.00  0.00     0.209 HD
ENDBRANCH  28  29
ENDBRANCH  25  28
BRANCH  26  31
HETATM   31  O6  UNL     1     -14.594  -8.346  15.545  1.00  0.00    -0.390 OA
HETATM   32  H41 UNL     1     -14.861  -9.055  14.932  1.00  0.00     0.210 HD
ENDBRANCH  26  31
BRANCH  27  33
HETATM   33  O7  UNL     1     -15.085  -5.575  13.240  1.00  0.00    -0.388 OA
HETATM   34  H43 UNL     1     -15.560  -4.734  13.407  1.00  0.00     0.210 HD
ENDBRANCH  27  33
ENDBRANCH  22  23
ENDBRANCH  12  22
BRANCH  10  35
HETATM   35  C20 UNL     1     -16.429  -1.681  17.851  1.00  0.00     0.151 C 
HETATM   36  O1  UNL     1     -16.323  -0.485  18.060  1.00  0.00    -0.649 OA
BRANCH  35  37
HETATM   37  O2  UNL     1     -16.242  -2.519  18.893  1.00  0.00    -0.776 OA
HETATM   38  H33 UNL     1     -15.935  -1.909  19.598  1.00  0.00     0.167 HD
ENDBRANCH  35  37
ENDBRANCH  10  35
BRANCH  14  39
HETATM   39  O8  UNL     1     -14.410  -0.637  16.212  1.00  0.00    -0.395 OA
HETATM   40  H47 UNL     1     -13.448  -0.738  16.114  1.00  0.00     0.210 HD
ENDBRANCH  14  39
BRANCH   1  41
HETATM   41  C7  UNL     1     -17.081   6.563  13.667  1.00  0.00    -0.014 C 
HETATM   42  C8  UNL     1     -18.297   6.841  12.780  1.00  0.00     0.010 C 
BRANCH  41  43
HETATM   43  C6  UNL     1     -15.816   6.279  12.811  1.00  0.00     0.008 C 
BRANCH  43  44
HETATM   44  C5  UNL     1     -14.691   7.325  12.804  1.00  0.00     0.028 C 
BRANCH  44  45
HETATM   45  C4  UNL     1     -13.411   6.881  13.457  1.00  0.00    -0.025 C 
HETATM   46  C2  UNL     1     -12.197   7.451  13.332  1.00  0.00    -0.091 C 
HETATM   47  C1  UNL     1     -11.010   6.916  14.089  1.00  0.00     0.042 C 
HETATM   48  C3  UNL     1     -11.890   8.632  12.453  1.00  0.00     0.042 C 
ENDBRANCH  44  45
ENDBRANCH  43  44
ENDBRANCH  41  43
ENDBRANCH   1  41
TORSDOF 13
ENDMDL
MODEL 2
REMARK minimizedAffinity -8.57590675
REMARK CNNscore 0.379347295
REMARK CNNaffinity 6.70877457
REMARK  13 active torsions:
REMARK  status: ('A' for Active; 'I' for Inactive)
REMARK    1  A    between atoms: C4_4  and  C5_5 
REMARK    2  A    between atoms: C5_5  and  C6_6 
REMARK    3  A    between atoms: C6_6  and  C7_7 
REMARK    4  A    between atoms: C7_7  and  C9_9 
REMARK    5  A    between atoms: C18_18  and  C20_20 
REMARK    6  A    between atoms: C20_20  and  O2_22 
REMARK    7  A    between atoms: C21_23  and  O3_24 
REMARK    8  A    between atoms: O3_24  and  C22_25 
REMARK    9  A    between atoms: C23_27  and  C24_28 
REMARK   10  A    between atoms: C24_28  and  O5_29 
REMARK   11  A    between atoms: C25_30  and  O6_31 
REMARK   12  A    between atoms: C26_32  and  O7_33 
REMARK   13  A    between atoms: C28_35  and  O8_36 
ROOT
HETATM    1  C9  UNL     1      -0.435   6.318  11.659  1.00  0.00    -0.002 C 
HETATM    2  C10 UNL     1      -1.820   5.781  12.120  1.00  0.00     0.006 C 
HETATM    3  C11 UNL     1      -2.204   6.534  13.405  1.00  0.00     0.011 C 
HETATM    4  C12 UNL     1      -1.179   7.680  13.526  1.00  0.00    -0.032 C 
HETATM    5  C13 UNL     1      -1.732   8.854  12.658  1.00  0.00     0.016 C 
HETATM    6  C14 UNL     1      -0.914   8.153  14.984  1.00  0.00     0.004 C 
HETATM    7  C15 UNL     1      -2.061   8.967  15.584  1.00  0.00     0.007 C 
HETATM    8  C16 UNL     1      -1.801   9.303  17.047  1.00  0.00     0.007 C 
HETATM    9  C17 UNL     1      -0.541  10.157  17.324  1.00  0.00     0.018 C 
HETATM   10  C18 UNL     1      -0.785  11.681  17.650  1.00  0.00     0.072 C 
HETATM   11  C19 UNL     1      -1.860  11.847  18.758  1.00  0.00     0.030 C 
HETATM   12  C21 UNL     1       0.562  12.323  18.147  1.00  0.00     0.146 C 
HETATM   13  C27 UNL     1       1.831  11.684  17.567  1.00  0.00     0.066 C 
HETATM   14  C28 UNL     1       1.608  11.052  16.207  1.00  0.00     0.130 C 
HETATM   15  C29 UNL     1       0.605   9.910  16.309  1.00  0.00    -0.001 A 
HETATM   16  C30 UNL     1       1.235   8.533  16.363  1.00  0.00     0.024 A 
HETATM   17  C31 UNL     1       0.431   8.897  15.133  1.00  0.00    -0.025 A 
HETATM   18  C32 UNL     1       1.211   9.170  13.844  1.00  0.00     0.011 C 
HETATM   19  C33 UNL     1       1.187   8.078  12.755  1.00  0.00     0.011 C 
HETATM   20  C34 UNL     1       0.116   6.996  12.956  1.00  0.00    -0.032 C 
HETATM   21  C35 UNL     1       0.712   5.899  13.891  1.00  0.00     0.016 C 
ENDROOT
BRANCH  12  22
HETATM   22  O3  UNL     1       0.672  12.194  19.585  1.00  0.00    -0.352 OA
BRANCH  22  23
HETATM   23  C22 UNL     1       1.774  11.373  19.980  1.00  0.00     0.292 C 
HETATM   24  O4  UNL     1       1.358  10.269  20.795  1.00  0.00    -0.348 OA
HETATM   25  C23 UNL     1       2.280  10.182  21.913  1.00  0.00     0.179 C 
HETATM   26  C25 UNL     1       3.434  11.150  21.639  1.00  0.00     0.182 C 
HETATM   27  C26 UNL     1       2.734  12.221  20.829  1.00  0.00     0.204 C 
BRANCH  25  28
HETATM   28  C24 UNL     1       2.697   8.725  22.077  1.00  0.00     0.198 C 
BRANCH  28  29
HETATM   29  O5  UNL     1       1.543   7.929  22.361  1.00  0.00    -0.398 OA
HETATM   30  H39 UNL     1       0.878   8.201  21.702  1.00  0.00     0.209 HD
ENDBRANCH  28  29
ENDBRANCH  25  28
BRANCH  26  31
HETATM   31  O6  UNL     1       4.466  10.547  20.854  1.00  0.00    -0.390 OA
HETATM   32  H41 UNL     1       5.256  11.113  20.936  1.00  0.00     0.210 HD
ENDBRANCH  26  31
BRANCH  27  33
HETATM   33  O7  UNL     1       2.019  13.100  21.710  1.00  0.00    -0.388 OA
HETATM   34  H43 UNL     1       1.189  13.317  21.235  1.00  0.00     0.210 HD
ENDBRANCH  27  33
ENDBRANCH  22  23
ENDBRANCH  12  22
BRANCH  10  35
HETATM   35  C20 UNL     1      -1.369  12.458  16.463  1.00  0.00     0.151 C 
HETATM   36  O1  UNL     1      -2.180  12.059  15.645  1.00  0.00    -0.649 OA
BRANCH  35  37
HETATM   37  O2  UNL     1      -1.045  13.768  16.437  1.00  0.00    -0.776 OA
HETATM   38  H33 UNL     1      -1.501  14.079  15.625  1.00  0.00     0.167 HD
ENDBRANCH  35  37
ENDBRANCH  10  35
BRANCH  14  39
HETATM   39  O8  UNL     1       1.134  12.021  15.283  1.00  0.00    -0.395 OA
HETATM   40  H47 UNL     1       1.902  12.556  15.020  1.00  0.00     0.210 HD
ENDBRANCH  14  39
BRANCH   1  41
HETATM   41  C7  UNL     1       0.412   5.236  10.934  1.00  0.00    -0.014 C 
HETATM   42  C8  UNL     1       0.051   3.817  11.380  1.00  0.00     0.010 C 
BRANCH  41  43
HETATM   43  C6  UNL     1       1.941   5.485  11.043  1.00  0.00     0.008 C 
BRANCH  43  44
HETATM   44  C5  UNL     1       2.544   6.668  10.268  1.00  0.00     0.028 C 
BRANCH  44  45
HETATM   45  C4  UNL     1       2.449   6.556   8.770  1.00  0.00    -0.025 C 
HETATM   46  C2  UNL     1       1.675   7.294   7.951  1.00  0.00    -0.091 C 
HETATM   47  C1  UNL     1       1.723   7.096   6.458  1.00  0.00     0.042 C 
HETATM   48  C3  UNL     1       0.705   8.349   8.405  1.00  0.00     0.042 C 
ENDBRANCH  44  45
ENDBRANCH  43  44
ENDBRANCH  41  43
ENDBRANCH   1  41
TORSDOF 13
ENDMDL
MODEL 3
REMARK minimizedAffinity -9.2834301
REMARK CNNscore 0.286466956
REMARK CNNaffinity 6.97965193
REMARK  13 active torsions:
REMARK  status: ('A' for Active; 'I' for Inactive)
REMARK    1  A    between atoms: C4_4  and  C5_5 
REMARK    2  A    between atoms: C5_5  and  C6_6 
REMARK    3  A    between atoms: C6_6  and  C7_7 
REMARK    4  A    between atoms: C7_7  and  C9_9 
REMARK    5  A    between atoms: C18_18  and  C20_20 
REMARK    6  A    between atoms: C20_20  and  O2_22 
REMARK    7  A    between atoms: C21_23  and  O3_24 
REMARK    8  A    between atoms: O3_24  and  C22_25 
REMARK    9  A    between atoms: C23_27  and  C24_28 
REMARK   10  A    between atoms: C24_28  and  O5_29 
REMARK   11  A    between atoms: C25_30  and  O6_31 
REMARK   12  A    between atoms: C26_32  and  O7_33 
REMARK   13  A    between atoms: C28_35  and  O8_36 
ROOT
HETATM    1  C9  UNL     1      -0.037   6.305  13.557  1.00  0.00    -0.002 C 
HETATM    2  C10 UNL     1       0.269   7.208  14.786  1.00  0.00     0.006 C 
HETATM    3  C11 UNL     1      -1.077   7.653  15.381  1.00  0.00     0.011 C 
HETATM    4  C12 UNL     1      -2.140   6.795  14.666  1.00  0.00    -0.032 C 
HETATM    5  C13 UNL     1      -2.221   5.451  15.458  1.00  0.00     0.016 C 
HETATM    6  C14 UNL     1      -3.544   7.460  14.569  1.00  0.00     0.004 C 
HETATM    7  C15 UNL     1      -4.301   7.491  15.897  1.00  0.00     0.007 C 
HETATM    8  C16 UNL     1      -5.614   8.255  15.772  1.00  0.00     0.007 C 
HETATM    9  C17 UNL     1      -6.633   7.674  14.764  1.00  0.00     0.018 C 
HETATM   10  C18 UNL     1      -7.855   6.887  15.379  1.00  0.00     0.072 C 
HETATM   11  C19 UNL     1      -8.543   7.716  16.497  1.00  0.00     0.030 C 
HETATM   12  C21 UNL     1      -8.903   6.596  14.242  1.00  0.00     0.146 C 
HETATM   13  C27 UNL     1      -8.302   6.438  12.839  1.00  0.00     0.066 C 
HETATM   14  C28 UNL     1      -6.868   5.946  12.860  1.00  0.00     0.130 C 
HETATM   15  C29 UNL     1      -5.969   6.957  13.561  1.00  0.00    -0.001 A 
HETATM   16  C30 UNL     1      -5.190   7.854  12.620  1.00  0.00     0.024 A 
HETATM   17  C31 UNL     1      -4.414   6.851  13.449  1.00  0.00    -0.025 A 
HETATM   18  C32 UNL     1      -3.840   5.634  12.716  1.00  0.00     0.011 C 
HETATM   19  C33 UNL     1      -2.323   5.623  12.442  1.00  0.00     0.011 C 
HETATM   20  C34 UNL     1      -1.521   6.671  13.227  1.00  0.00    -0.032 C 
HETATM   21  C35 UNL     1      -1.549   8.003  12.414  1.00  0.00     0.016 C 
ENDROOT
BRANCH  12  22
HETATM   22  O3  UNL     1      -9.851   7.685  14.151  1.00  0.00    -0.352 OA
BRANCH  22  23
HETATM   23  C22 UNL     1     -11.200   7.257  14.357  1.00  0.00     0.292 C 
HETATM   24  O4  UNL     1     -11.947   7.226  13.133  1.00  0.00    -0.348 OA
HETATM   25  C23 UNL     1     -13.236   7.840  13.396  1.00  0.00     0.179 C 
HETATM   26  C25 UNL     1     -13.349   8.057  14.907  1.00  0.00     0.182 C 
HETATM   27  C26 UNL     1     -11.897   8.266  15.282  1.00  0.00     0.204 C 
BRANCH  25  28
HETATM   28  C24 UNL     1     -14.321   6.951  12.798  1.00  0.00     0.198 C 
BRANCH  28  29
HETATM   29  O5  UNL     1     -15.070   7.697  11.835  1.00  0.00    -0.398 OA
HETATM   30  H39 UNL     1     -14.402   8.135  11.277  1.00  0.00     0.209 HD
ENDBRANCH  28  29
ENDBRANCH  25  28
BRANCH  26  31
HETATM   31  O6  UNL     1     -13.860   6.903  15.579  1.00  0.00    -0.390 OA
HETATM   32  H41 UNL     1     -14.140   7.189  16.468  1.00  0.00     0.210 HD
ENDBRANCH  26  31
BRANCH  27  33
HETATM   33  O7  UNL     1     -11.510   9.614  14.975  1.00  0.00    -0.388 OA
HETATM   34  H43 UNL     1     -10.590   9.546  14.645  1.00  0.00     0.210 HD
ENDBRANCH  27  33
ENDBRANCH  22  23
ENDBRANCH  12  22
BRANCH  10  35
HETATM   35  C20 UNL     1      -7.434   5.597  16.094  1.00  0.00     0.151 C 
HETATM   36  O1  UNL     1      -6.403   5.398  16.714  1.00  0.00    -0.649 OA
BRANCH  35  37
HETATM   37  O2  UNL     1      -8.394   4.650  16.154  1.00  0.00    -0.776 OA
HETATM   38  H33 UNL     1      -7.941   3.925  16.636  1.00  0.00     0.167 HD
ENDBRANCH  35  37
ENDBRANCH  10  35
BRANCH  14  39
HETATM   39  O8  UNL     1      -6.784   4.693  13.523  1.00  0.00    -0.395 OA
HETATM   40  H47 UNL     1      -7.110   4.024  12.900  1.00  0.00     0.210 HD
ENDBRANCH  14  39
BRANCH   1  41
HETATM   41  C7  UNL     1       1.049   6.414  12.451  1.00  0.00    -0.014 C 
HETATM   42  C8  UNL     1       2.004   7.587  12.686  1.00  0.00     0.010 C 
BRANCH  41  43
HETATM   43  C6  UNL     1       0.456   6.453  11.016  1.00  0.00     0.008 C 
BRANCH  43  44
HETATM   44  C5  UNL     1       0.669   7.722  10.175  1.00  0.00     0.028 C 
BRANCH  44  45
HETATM   45  C4  UNL     1       0.762   7.488   8.692  1.00  0.00    -0.025 C 
HETATM   46  C2  UNL     1       1.853   7.636   7.915  1.00  0.00    -0.091 C 
HETATM   47  C1  UNL     1       1.802   7.317   6.444  1.00  0.00     0.042 C 
HETATM   48  C3  UNL     1       3.190   8.123   8.398  1.00  0.00     0.042 C 
ENDBRANCH  44  45
ENDBRANCH  43  44
ENDBRANCH  41  43
ENDBRANCH   1  41
TORSDOF 13
ENDMDL
MODEL 4
REMARK minimizedAffinity -8.41140556
REMARK CNNscore 0.268540502
REMARK CNNaffinity 6.41365957
REMARK  13 active torsions:
REMARK  status: ('A' for Active; 'I' for Inactive)
REMARK    1  A    between atoms: C4_4  and  C5_5 
REMARK    2  A    between atoms: C5_5  and  C6_6 
REMARK    3  A    between atoms: C6_6  and  C7_7 
REMARK    4  A    between atoms: C7_7  and  C9_9 
REMARK    5  A    between atoms: C18_18  and  C20_20 
REMARK    6  A    between atoms: C20_20  and  O2_22 
REMARK    7  A    between atoms: C21_23  and  O3_24 
REMARK    8  A    between atoms: O3_24  and  C22_25 
REMARK    9  A    between atoms: C23_27  and  C24_28 
REMARK   10  A    between atoms: C24_28  and  O5_29 
REMARK   11  A    between atoms: C25_30  and  O6_31 
REMARK   12  A    between atoms: C26_32  and  O7_33 
REMARK   13  A    between atoms: C28_35  and  O8_36 
ROOT
HETATM    1  C9  UNL     1      -4.118   6.633  13.182  1.00  0.00    -0.002 C 
HETATM    2  C10 UNL     1      -4.724   8.059  13.312  1.00  0.00     0.006 C 
HETATM    3  C11 UNL     1      -3.581   9.017  13.687  1.00  0.00     0.011 C 
HETATM    4  C12 UNL     1      -2.288   8.195  13.507  1.00  0.00    -0.032 C 
HETATM    5  C13 UNL     1      -1.906   8.309  11.997  1.00  0.00     0.016 C 
HETATM    6  C14 UNL     1      -1.106   8.652  14.409  1.00  0.00     0.004 C 
HETATM    7  C15 UNL     1      -0.465   9.966  13.962  1.00  0.00     0.007 C 
HETATM    8  C16 UNL     1       0.606  10.426  14.943  1.00  0.00     0.007 C 
HETATM    9  C17 UNL     1       1.801   9.463  15.130  1.00  0.00     0.018 C 
HETATM   10  C18 UNL     1       3.147   9.869  14.414  1.00  0.00     0.072 C 
HETATM   11  C19 UNL     1       3.525  11.340  14.736  1.00  0.00     0.030 C 
HETATM   12  C21 UNL     1       4.302   8.925  14.916  1.00  0.00     0.146 C 
HETATM   13  C27 UNL     1       3.849   7.517  15.322  1.00  0.00     0.066 C 
HETATM   14  C28 UNL     1       2.596   7.065  14.599  1.00  0.00     0.130 C 
HETATM   15  C29 UNL     1       1.422   7.970  14.949  1.00  0.00    -0.001 A 
HETATM   16  C30 UNL     1       0.494   7.404  16.004  1.00  0.00     0.024 A 
HETATM   17  C31 UNL     1      -0.040   7.551  14.594  1.00  0.00    -0.025 A 
HETATM   18  C32 UNL     1      -0.229   6.266  13.782  1.00  0.00     0.011 C 
HETATM   19  C33 UNL     1      -1.671   5.753  13.592  1.00  0.00     0.011 C 
HETATM   20  C34 UNL     1      -2.765   6.767  13.956  1.00  0.00    -0.032 C 
HETATM   21  C35 UNL     1      -3.039   6.648  15.487  1.00  0.00     0.016 C 
ENDROOT
BRANCH  12  22
HETATM   22  O3  UNL     1       4.934   9.495  16.087  1.00  0.00    -0.352 OA
BRANCH  22  23
HETATM   23  C22 UNL     1       6.185  10.118  15.785  1.00  0.00     0.292 C 
HETATM   24  O4  UNL     1       6.559   9.937  14.412  1.00  0.00    -0.348 OA
HETATM   25  C23 UNL     1       7.962   9.564  14.389  1.00  0.00     0.179 C 
HETATM   26  C25 UNL     1       8.513   9.739  15.807  1.00  0.00     0.182 C 
HETATM   27  C26 UNL     1       7.279   9.457  16.638  1.00  0.00     0.204 C 
BRANCH  25  28
HETATM   28  C24 UNL     1       8.663  10.401  13.326  1.00  0.00     0.198 C 
BRANCH  28  29
HETATM   29  O5  UNL     1       8.135  11.730  13.343  1.00  0.00    -0.398 OA
HETATM   30  H39 UNL     1       8.133  11.991  14.282  1.00  0.00     0.209 HD
ENDBRANCH  28  29
ENDBRANCH  25  28
BRANCH  26  31
HETATM   31  O6  UNL     1       8.962  11.074  16.048  1.00  0.00    -0.390 OA
HETATM   32  H41 UNL     1       9.518  11.050  16.848  1.00  0.00     0.210 HD
ENDBRANCH  26  31
BRANCH  27  33
HETATM   33  O7  UNL     1       7.080   8.038  16.739  1.00  0.00    -0.388 OA
HETATM   34  H43 UNL     1       6.109   7.914  16.696  1.00  0.00     0.210 HD
ENDBRANCH  27  33
ENDBRANCH  22  23
ENDBRANCH  12  22
BRANCH  10  35
HETATM   35  C20 UNL     1       3.038   9.852  12.884  1.00  0.00     0.151 C 
HETATM   36  O1  UNL     1       3.952   9.845  12.078  1.00  0.00    -0.649 OA
BRANCH  35  37
HETATM   37  O2  UNL     1       1.785   9.674  12.414  1.00  0.00    -0.776 OA
HETATM   38  H33 UNL     1       1.923   9.693  11.442  1.00  0.00     0.167 HD
ENDBRANCH  35  37
ENDBRANCH  10  35
BRANCH  14  39
HETATM   39  O8  UNL     1       2.804   7.077  13.193  1.00  0.00    -0.395 OA
HETATM   40  H47 UNL     1       3.332   6.290  12.982  1.00  0.00     0.210 HD
ENDBRANCH  14  39
BRANCH   1  41
HETATM   41  C7  UNL     1      -5.126   5.519  13.578  1.00  0.00    -0.014 C 
HETATM   42  C8  UNL     1      -4.781   4.168  12.944  1.00  0.00     0.010 C 
BRANCH  41  43
HETATM   43  C6  UNL     1      -6.604   5.907  13.301  1.00  0.00     0.008 C 
BRANCH  43  44
HETATM   44  C5  UNL     1      -7.649   5.621  14.391  1.00  0.00     0.028 C 
BRANCH  44  45
HETATM   45  C4  UNL     1      -8.929   6.399  14.258  1.00  0.00    -0.025 C 
HETATM   46  C2  UNL     1      -9.427   7.295  15.133  1.00  0.00    -0.091 C 
HETATM   47  C1  UNL     1     -10.707   8.033  14.837  1.00  0.00     0.042 C 
HETATM   48  C3  UNL     1      -8.801   7.645  16.453  1.00  0.00     0.042 C 
ENDBRANCH  44  45
ENDBRANCH  43  44
ENDBRANCH  41  43
ENDBRANCH   1  41
TORSDOF 13
ENDMDL
MODEL 5
REMARK minimizedAffinity -8.16331577
REMARK CNNscore 0.260039717
REMARK CNNaffinity 5.80926371
REMARK  13 active torsions:
REMARK  status: ('A' for Active; 'I' for Inactive)
REMARK    1  A    between atoms: C4_4  and  C5_5 
REMARK    2  A    between atoms: C5_5  and  C6_6 
REMARK    3  A    between atoms: C6_6  and  C7_7 
REMARK    4  A    between atoms: C7_7  and  C9_9 
REMARK    5  A    between atoms: C18_18  and  C20_20 
REMARK    6  A    between atoms: C20_20  and  O2_22 
REMARK    7  A    between atoms: C21_23  and  O3_24 
REMARK    8  A    between atoms: O3_24  and  C22_25 
REMARK    9  A    between atoms: C23_27  and  C24_28 
REMARK   10  A    between atoms: C24_28  and  O5_29 
REMARK   11  A    between atoms: C25_30  and  O6_31 
REMARK   12  A    between atoms: C26_32  and  O7_33 
REMARK   13  A    between atoms: C28_35  and  O8_36 
ROOT
HETATM    1  C9  UNL     1      -7.063 -11.134  -1.961  1.00  0.00    -0.002 C 
HETATM    2  C10 UNL     1      -5.636 -10.687  -2.391  1.00  0.00     0.006 C 
HETATM    3  C11 UNL     1      -4.828 -10.421  -1.109  1.00  0.00     0.011 C 
HETATM    4  C12 UNL     1      -5.697 -10.971   0.039  1.00  0.00    -0.032 C 
HETATM    5  C13 UNL     1      -5.375 -12.496   0.138  1.00  0.00     0.016 C 
HETATM    6  C14 UNL     1      -5.467 -10.272   1.410  1.00  0.00     0.004 C 
HETATM    7  C15 UNL     1      -4.145 -10.651   2.079  1.00  0.00     0.007 C 
HETATM    8  C16 UNL     1      -3.917  -9.852   3.356  1.00  0.00     0.007 C 
HETATM    9  C17 UNL     1      -4.977 -10.047   4.466  1.00  0.00     0.018 C 
HETATM   10  C18 UNL     1      -4.556 -10.956   5.685  1.00  0.00     0.072 C 
HETATM   11  C19 UNL     1      -3.182 -10.516   6.258  1.00  0.00     0.030 C 
HETATM   12  C21 UNL     1      -5.642 -10.834   6.816  1.00  0.00     0.146 C 
HETATM   13  C27 UNL     1      -7.063 -10.545   6.315  1.00  0.00     0.066 C 
HETATM   14  C28 UNL     1      -7.311 -11.057   4.909  1.00  0.00     0.130 C 
HETATM   15  C29 UNL     1      -6.394 -10.353   3.917  1.00  0.00    -0.001 A 
HETATM   16  C30 UNL     1      -7.054  -9.222   3.154  1.00  0.00     0.024 A 
HETATM   17  C31 UNL     1      -6.654 -10.461   2.380  1.00  0.00    -0.025 A 
HETATM   18  C32 UNL     1      -7.780 -11.389   1.917  1.00  0.00     0.011 C 
HETATM   19  C33 UNL     1      -8.158 -11.353   0.422  1.00  0.00     0.011 C 
HETATM   20  C34 UNL     1      -7.142 -10.639  -0.480  1.00  0.00    -0.032 C 
HETATM   21  C35 UNL     1      -7.479  -9.116  -0.469  1.00  0.00     0.016 C 
ENDROOT
BRANCH  12  22
HETATM   22  O3  UNL     1      -5.306  -9.748   7.712  1.00  0.00    -0.352 OA
BRANCH  22  23
HETATM   23  C22 UNL     1      -5.655 -10.028   9.069  1.00  0.00     0.292 C 
HETATM   24  O4  UNL     1      -6.326  -8.924   9.692  1.00  0.00    -0.348 OA
HETATM   25  C23 UNL     1      -5.738  -8.743  11.007  1.00  0.00     0.179 C 
HETATM   26  C25 UNL     1      -4.815  -9.935  11.271  1.00  0.00     0.182 C 
HETATM   27  C26 UNL     1      -4.364 -10.275   9.865  1.00  0.00     0.204 C 
BRANCH  25  28
HETATM   28  C24 UNL     1      -6.867  -8.576  12.017  1.00  0.00     0.198 C 
BRANCH  28  29
HETATM   29  O5  UNL     1      -6.341  -8.696  13.342  1.00  0.00    -0.398 OA
HETATM   30  H39 UNL     1      -5.552  -8.123  13.355  1.00  0.00     0.209 HD
ENDBRANCH  28  29
ENDBRANCH  25  28
BRANCH  26  31
HETATM   31  O6  UNL     1      -5.518 -11.045  11.834  1.00  0.00    -0.390 OA
HETATM   32  H41 UNL     1      -4.850 -11.650  12.204  1.00  0.00     0.210 HD
ENDBRANCH  26  31
BRANCH  27  33
HETATM   33  O7  UNL     1      -3.320  -9.375   9.464  1.00  0.00    -0.388 OA
HETATM   34  H43 UNL     1      -3.488  -9.197   8.515  1.00  0.00     0.210 HD
ENDBRANCH  27  33
ENDBRANCH  22  23
ENDBRANCH  12  22
BRANCH  10  35
HETATM   35  C20 UNL     1      -4.327 -12.419   5.286  1.00  0.00     0.151 C 
HETATM   36  O1  UNL     1      -3.609 -12.839   4.394  1.00  0.00    -0.649 OA
BRANCH  35  37
HETATM   37  O2  UNL     1      -4.876 -13.322   6.126  1.00  0.00    -0.776 OA
HETATM   38  H33 UNL     1      -4.625 -14.174   5.709  1.00  0.00     0.167 HD
ENDBRANCH  35  37
ENDBRANCH  10  35
BRANCH  14  39
HETATM   39  O8  UNL     1      -7.094 -12.459   4.847  1.00  0.00    -0.395 OA
HETATM   40  H47 UNL     1      -7.873 -12.881   5.247  1.00  0.00     0.210 HD
ENDBRANCH  14  39
BRANCH   1  41
HETATM   41  C7  UNL     1      -8.154 -10.702  -2.979  1.00  0.00    -0.014 C 
HETATM   42  C8  UNL     1      -9.054 -11.867  -3.398  1.00  0.00     0.010 C 
BRANCH  41  43
HETATM   43  C6  UNL     1      -7.575  -9.967  -4.219  1.00  0.00     0.008 C 
BRANCH  43  44
HETATM   44  C5  UNL     1      -7.484  -8.434  -4.181  1.00  0.00     0.028 C 
BRANCH  44  45
HETATM   45  C4  UNL     1      -8.255  -7.727  -5.262  1.00  0.00    -0.025 C 
HETATM   46  C2  UNL     1      -9.117  -6.703  -5.106  1.00  0.00    -0.091 C 
HETATM   47  C1  UNL     1      -9.782  -6.065  -6.297  1.00  0.00     0.042 C 
HETATM   48  C3  UNL     1      -9.509  -6.106  -3.783  1.00  0.00     0.042 C 
ENDBRANCH  44  45
ENDBRANCH  43  44
ENDBRANCH  41  43
ENDBRANCH   1  41
TORSDOF 13
ENDMDL
MODEL 6
REMARK minimizedAffinity -7.42362356
REMARK CNNscore 0.237654656
REMARK CNNaffinity 6.58242846
REMARK  13 active torsions:
REMARK  status: ('A' for Active; 'I' for Inactive)
REMARK    1  A    between atoms: C4_4  and  C5_5 
REMARK    2  A    between atoms: C5_5  and  C6_6 
REMARK    3  A    between atoms: C6_6  and  C7_7 
REMARK    4  A    between atoms: C7_7  and  C9_9 
REMARK    5  A    between atoms: C18_18  and  C20_20 
REMARK    6  A    between atoms: C20_20  and  O2_22 
REMARK    7  A    between atoms: C21_23  and  O3_24 
REMARK    8  A    between atoms: O3_24  and  C22_25 
REMARK    9  A    between atoms: C23_27  and  C24_28 
REMARK   10  A    between atoms: C24_28  and  O5_29 
REMARK   11  A    between atoms: C25_30  and  O6_31 
REMARK   12  A    between atoms: C26_32  and  O7_33 
REMARK   13  A    between atoms: C28_35  and  O8_36 
ROOT
HETATM    1  C9  UNL     1      -4.677   6.141  14.373  1.00  0.00    -0.002 C 
HETATM    2  C10 UNL     1      -4.342   5.457  13.016  1.00  0.00     0.006 C 
HETATM    3  C11 UNL     1      -2.956   5.958  12.574  1.00  0.00     0.011 C 
HETATM    4  C12 UNL     1      -2.388   6.708  13.796  1.00  0.00    -0.032 C 
HETATM    5  C13 UNL     1      -1.721   5.625  14.702  1.00  0.00     0.016 C 
HETATM    6  C14 UNL     1      -1.370   7.831  13.443  1.00  0.00     0.004 C 
HETATM    7  C15 UNL     1      -0.007   7.305  12.992  1.00  0.00     0.007 C 
HETATM    8  C16 UNL     1       0.909   8.439  12.548  1.00  0.00     0.007 C 
HETATM    9  C17 UNL     1       1.245   9.491  13.631  1.00  0.00     0.018 C 
HETATM   10  C18 UNL     1       2.683   9.398  14.275  1.00  0.00     0.072 C 
HETATM   11  C19 UNL     1       3.778   9.315  13.178  1.00  0.00     0.030 C 
HETATM   12  C21 UNL     1       2.936  10.679  15.152  1.00  0.00     0.146 C 
HETATM   13  C27 UNL     1       1.674  11.294  15.771  1.00  0.00     0.066 C 
HETATM   14  C28 UNL     1       0.568  10.281  15.993  1.00  0.00     0.130 C 
HETATM   15  C29 UNL     1       0.108   9.695  14.665  1.00  0.00    -0.001 A 
HETATM   16  C30 UNL     1      -1.163  10.314  14.118  1.00  0.00     0.024 A 
HETATM   17  C31 UNL     1      -1.216   8.871  14.575  1.00  0.00    -0.025 A 
HETATM   18  C32 UNL     1      -1.956   8.578  15.883  1.00  0.00     0.011 C 
HETATM   19  C33 UNL     1      -3.352   7.931  15.777  1.00  0.00     0.011 C 
HETATM   20  C34 UNL     1      -3.689   7.354  14.395  1.00  0.00    -0.032 C 
HETATM   21  C35 UNL     1      -4.278   8.507  13.525  1.00  0.00     0.016 C 
ENDROOT
BRANCH  12  22
HETATM   22  O3  UNL     1       3.535  11.722  14.347  1.00  0.00    -0.352 OA
BRANCH  22  23
HETATM   23  C22 UNL     1       4.298  12.646  15.126  1.00  0.00     0.292 C 
HETATM   24  O4  UNL     1       5.055  13.546  14.304  1.00  0.00    -0.348 OA
HETATM   25  C23 UNL     1       6.392  13.625  14.863  1.00  0.00     0.179 C 
HETATM   26  C25 UNL     1       6.376  12.902  16.212  1.00  0.00     0.182 C 
HETATM   27  C26 UNL     1       5.308  11.855  15.971  1.00  0.00     0.204 C 
BRANCH  25  28
HETATM   28  C24 UNL     1       6.797  15.093  14.932  1.00  0.00     0.198 C 
BRANCH  28  29
HETATM   29  O5  UNL     1       7.971  15.225  15.739  1.00  0.00    -0.398 OA
HETATM   30  H39 UNL     1       8.582  14.540  15.413  1.00  0.00     0.209 HD
ENDBRANCH  28  29
ENDBRANCH  25  28
BRANCH  26  31
HETATM   31  O6  UNL     1       5.974  13.765  17.279  1.00  0.00    -0.390 OA
HETATM   32  H41 UNL     1       6.227  13.328  18.113  1.00  0.00     0.210 HD
ENDBRANCH  26  31
BRANCH  27  33
HETATM   33  O7  UNL     1       5.868  10.759  15.232  1.00  0.00    -0.388 OA
HETATM   34  H43 UNL     1       5.159  10.479  14.616  1.00  0.00     0.210 HD
ENDBRANCH  27  33
ENDBRANCH  22  23
ENDBRANCH  12  22
BRANCH  10  35
HETATM   35  C20 UNL     1       2.890   8.114  15.088  1.00  0.00     0.151 C 
HETATM   36  O1  UNL     1       2.269   7.069  14.990  1.00  0.00    -0.649 OA
BRANCH  35  37
HETATM   37  O2  UNL     1       3.980   8.124  15.884  1.00  0.00    -0.776 OA
HETATM   38  H33 UNL     1       3.936   7.240  16.308  1.00  0.00     0.167 HD
ENDBRANCH  35  37
ENDBRANCH  10  35
BRANCH  14  39
HETATM   39  O8  UNL     1       1.017   9.237  16.845  1.00  0.00    -0.395 OA
HETATM   40  H47 UNL     1       1.012   9.591  17.749  1.00  0.00     0.210 HD
ENDBRANCH  14  39
BRANCH   1  41
HETATM   41  C7  UNL     1      -6.200   6.383  14.558  1.00  0.00    -0.014 C 
HETATM   42  C8  UNL     1      -6.787   5.556  15.704  1.00  0.00     0.010 C 
BRANCH  41  43
HETATM   43  C6  UNL     1      -7.013   6.183  13.250  1.00  0.00     0.008 C 
BRANCH  43  44
HETATM   44  C5  UNL     1      -7.576   4.785  12.949  1.00  0.00     0.028 C 
BRANCH  44  45
HETATM   45  C4  UNL     1      -6.715   3.936  12.054  1.00  0.00    -0.025 C 
HETATM   46  C2  UNL     1      -6.660   2.590  12.023  1.00  0.00    -0.091 C 
HETATM   47  C1  UNL     1      -5.776   1.876  11.034  1.00  0.00     0.042 C 
HETATM   48  C3  UNL     1      -7.430   1.678  12.937  1.00  0.00     0.042 C 
ENDBRANCH  44  45
ENDBRANCH  43  44
ENDBRANCH  41  43
ENDBRANCH   1  41
TORSDOF 13
ENDMDL
MODEL 7
REMARK minimizedAffinity -8.77822113
REMARK CNNscore 0.229470849
REMARK CNNaffinity 6.30719709
REMARK  13 active torsions:
REMARK  status: ('A' for Active; 'I' for Inactive)
REMARK    1  A    between atoms: C4_4  and  C5_5 
REMARK    2  A    between atoms: C5_5  and  C6_6 
REMARK    3  A    between atoms: C6_6  and  C7_7 
REMARK    4  A    between atoms: C7_7  and  C9_9 
REMARK    5  A    between atoms: C18_18  and  C20_20 
REMARK    6  A    between atoms: C20_20  and  O2_22 
REMARK    7  A    between atoms: C21_23  and  O3_24 
REMARK    8  A    between atoms: O3_24  and  C22_25 
REMARK    9  A    between atoms: C23_27  and  C24_28 
REMARK   10  A    between atoms: C24_28  and  O5_29 
REMARK   11  A    between atoms: C25_30  and  O6_31 
REMARK   12  A    between atoms: C26_32  and  O7_33 
REMARK   13  A    between atoms: C28_35  and  O8_36 
ROOT
HETATM    1  C9  UNL     1      -0.083  13.083  19.698  1.00  0.00    -0.002 C 
HETATM    2  C10 UNL     1      -1.378  13.816  19.242  1.00  0.00     0.006 C 
HETATM    3  C11 UNL     1      -1.915  13.079  18.003  1.00  0.00     0.011 C 
HETATM    4  C12 UNL     1      -1.091  11.779  17.915  1.00  0.00    -0.032 C 
HETATM    5  C13 UNL     1      -1.799  10.749  18.850  1.00  0.00     0.016 C 
HETATM    6  C14 UNL     1      -0.948  11.206  16.475  1.00  0.00     0.004 C 
HETATM    7  C15 UNL     1      -2.228  10.563  15.941  1.00  0.00     0.007 C 
HETATM    8  C16 UNL     1      -2.069  10.125  14.490  1.00  0.00     0.007 C 
HETATM    9  C17 UNL     1      -0.971   9.068  14.227  1.00  0.00     0.018 C 
HETATM   10  C18 UNL     1      -1.466   7.590  13.979  1.00  0.00     0.072 C 
HETATM   11  C19 UNL     1      -2.585   7.552  12.905  1.00  0.00     0.030 C 
HETATM   12  C21 UNL     1      -0.254   6.718  13.484  1.00  0.00     0.146 C 
HETATM   13  C27 UNL     1       1.117   7.168  14.005  1.00  0.00     0.066 C 
HETATM   14  C28 UNL     1       1.039   7.887  15.337  1.00  0.00     0.130 C 
HETATM   15  C29 UNL     1       0.230   9.171  15.203  1.00  0.00    -0.001 A 
HETATM   16  C30 UNL     1       1.070  10.425  15.069  1.00  0.00     0.024 A 
HETATM   17  C31 UNL     1       0.255  10.249  16.333  1.00  0.00    -0.025 A 
HETATM   18  C32 UNL     1       1.019   9.910  17.616  1.00  0.00     0.011 C 
HETATM   19  C33 UNL     1       1.202  11.038  18.651  1.00  0.00     0.011 C 
HETATM   20  C34 UNL     1       0.313  12.269  18.423  1.00  0.00    -0.032 C 
HETATM   21  C35 UNL     1       1.049  13.213  17.423  1.00  0.00     0.016 C 
ENDROOT
BRANCH  12  22
HETATM   22  O3  UNL     1      -0.168   6.765  12.039  1.00  0.00    -0.352 OA
BRANCH  22  23
HETATM   23  C22 UNL     1       1.183   6.772  11.571  1.00  0.00     0.292 C 
HETATM   24  O4  UNL     1       1.321   7.495  10.339  1.00  0.00    -0.348 OA
HETATM   25  C23 UNL     1       2.151   6.695   9.457  1.00  0.00     0.179 C 
HETATM   26  C25 UNL     1       2.717   5.533  10.277  1.00  0.00     0.182 C 
HETATM   27  C26 UNL     1       1.610   5.323  11.290  1.00  0.00     0.204 C 
BRANCH  25  28
HETATM   28  C24 UNL     1       3.204   7.606   8.834  1.00  0.00     0.198 C 
BRANCH  28  29
HETATM   29  O5  UNL     1       2.652   8.254   7.685  1.00  0.00    -0.398 OA
HETATM   30  H39 UNL     1       1.787   8.595   7.976  1.00  0.00     0.209 HD
ENDBRANCH  28  29
ENDBRANCH  25  28
BRANCH  26  31
HETATM   31  O6  UNL     1       3.927   5.888  10.950  1.00  0.00    -0.390 OA
HETATM   32  H41 UNL     1       4.354   5.058  11.230  1.00  0.00     0.210 HD
ENDBRANCH  26  31
BRANCH  27  33
HETATM   33  O7  UNL     1       0.546   4.568  10.691  1.00  0.00    -0.388 OA
HETATM   34  H43 UNL     1      -0.277   4.956  11.055  1.00  0.00     0.210 HD
ENDBRANCH  27  33
ENDBRANCH  22  23
ENDBRANCH  12  22
BRANCH  10  35
HETATM   35  C20 UNL     1      -2.131   6.970  15.215  1.00  0.00     0.151 C 
HETATM   36  O1  UNL     1      -3.021   7.452  15.895  1.00  0.00    -0.649 OA
BRANCH  35  37
HETATM   37  O2  UNL     1      -1.776   5.691  15.460  1.00  0.00    -0.776 OA
HETATM   38  H33 UNL     1      -2.294   5.483  16.267  1.00  0.00     0.167 HD
ENDBRANCH  35  37
ENDBRANCH  10  35
BRANCH  14  39
HETATM   39  O8  UNL     1       0.444   7.049  16.317  1.00  0.00    -0.395 OA
HETATM   40  H47 UNL     1       1.123   6.409  16.588  1.00  0.00     0.210 HD
ENDBRANCH  14  39
BRANCH   1  41
HETATM   41  C7  UNL     1       0.947  14.045  20.351  1.00  0.00    -0.014 C 
HETATM   42  C8  UNL     1       1.143  15.328  19.539  1.00  0.00     0.010 C 
BRANCH  41  43
HETATM   43  C6  UNL     1       2.308  13.363  20.657  1.00  0.00     0.008 C 
BRANCH  43  44
HETATM   44  C5  UNL     1       2.647  13.037  22.121  1.00  0.00     0.028 C 
BRANCH  44  45
HETATM   45  C4  UNL     1       4.115  13.046  22.447  1.00  0.00    -0.025 C 
HETATM   46  C2  UNL     1       4.868  11.993  22.820  1.00  0.00    -0.091 C 
HETATM   47  C1  UNL     1       6.345  12.150  23.070  1.00  0.00     0.042 C 
HETATM   48  C3  UNL     1       4.348  10.598  23.032  1.00  0.00     0.042 C 
ENDBRANCH  44  45
ENDBRANCH  43  44
ENDBRANCH  41  43
ENDBRANCH   1  41
TORSDOF 13
ENDMDL
MODEL 8
REMARK minimizedAffinity -8.7891283
REMARK CNNscore 0.217176795
REMARK CNNaffinity 6.76100397
REMARK  13 active torsions:
REMARK  status: ('A' for Active; 'I' for Inactive)
REMARK    1  A    between atoms: C4_4  and  C5_5 
REMARK    2  A    between atoms: C5_5  and  C6_6 
REMARK    3  A    between atoms: C6_6  and  C7_7 
REMARK    4  A    between atoms: C7_7  and  C9_9 
REMARK    5  A    between atoms: C18_18  and  C20_20 
REMARK    6  A    between atoms: C20_20  and  O2_22 
REMARK    7  A    between atoms: C21_23  and  O3_24 
REMARK    8  A    between atoms: O3_24  and  C22_25 
REMARK    9  A    between atoms: C23_27  and  C24_28 
REMARK   10  A    between atoms: C24_28  and  O5_29 
REMARK   11  A    between atoms: C25_30  and  O6_31 
REMARK   12  A    between atoms: C26_32  and  O7_33 
REMARK   13  A    between atoms: C28_35  and  O8_36 
ROOT
HETATM    1  C9  UNL     1      -5.145   6.363  14.453  1.00  0.00    -0.002 C 
HETATM    2  C10 UNL     1      -4.903   5.473  13.201  1.00  0.00     0.006 C 
HETATM    3  C11 UNL     1      -3.456   5.708  12.737  1.00  0.00     0.011 C 
HETATM    4  C12 UNL     1      -2.793   6.516  13.870  1.00  0.00    -0.032 C 
HETATM    5  C13 UNL     1      -2.299   5.471  14.920  1.00  0.00     0.016 C 
HETATM    6  C14 UNL     1      -1.618   7.426  13.408  1.00  0.00     0.004 C 
HETATM    7  C15 UNL     1      -0.345   6.656  13.061  1.00  0.00     0.007 C 
HETATM    8  C16 UNL     1       0.732   7.580  12.504  1.00  0.00     0.007 C 
HETATM    9  C17 UNL     1       1.210   8.700  13.457  1.00  0.00     0.018 C 
HETATM   10  C18 UNL     1       2.614   8.483  14.144  1.00  0.00     0.072 C 
HETATM   11  C19 UNL     1       3.694   8.105  13.095  1.00  0.00     0.030 C 
HETATM   12  C21 UNL     1       3.045   9.814  14.863  1.00  0.00     0.146 C 
HETATM   13  C27 UNL     1       1.883  10.678  15.368  1.00  0.00     0.066 C 
HETATM   14  C28 UNL     1       0.639   9.872  15.685  1.00  0.00     0.130 C 
HETATM   15  C29 UNL     1       0.108   9.196  14.428  1.00  0.00    -0.001 A 
HETATM   16  C30 UNL     1      -1.054   9.918  13.776  1.00  0.00     0.024 A 
HETATM   17  C31 UNL     1      -1.322   8.567  14.406  1.00  0.00    -0.025 A 
HETATM   18  C32 UNL     1      -2.108   8.552  15.720  1.00  0.00     0.011 C 
HETATM   19  C33 UNL     1      -3.582   8.105  15.660  1.00  0.00     0.011 C 
HETATM   20  C34 UNL     1      -3.990   7.413  14.352  1.00  0.00    -0.032 C 
HETATM   21  C35 UNL     1      -4.396   8.520  13.331  1.00  0.00     0.016 C 
ENDROOT
BRANCH  12  22
HETATM   22  O3  UNL     1       3.797  10.649  13.950  1.00  0.00    -0.352 OA
BRANCH  22  23
HETATM   23  C22 UNL     1       5.201  10.633  14.222  1.00  0.00     0.292 C 
HETATM   24  O4  UNL     1       5.515   9.849  15.382  1.00  0.00    -0.348 OA
HETATM   25  C23 UNL     1       6.459  10.611  16.179  1.00  0.00     0.179 C 
HETATM   26  C25 UNL     1       6.897  11.822  15.350  1.00  0.00     0.182 C 
HETATM   27  C26 UNL     1       5.658  12.071  14.516  1.00  0.00     0.204 C 
BRANCH  25  28
HETATM   28  C24 UNL     1       7.593   9.682  16.597  1.00  0.00     0.198 C 
BRANCH  28  29
HETATM   29  O5  UNL     1       7.087   8.353  16.750  1.00  0.00    -0.398 OA
HETATM   30  H39 UNL     1       6.559   8.189  15.947  1.00  0.00     0.209 HD
ENDBRANCH  28  29
ENDBRANCH  25  28
BRANCH  26  31
HETATM   31  O6  UNL     1       8.001  11.515  14.495  1.00  0.00    -0.390 OA
HETATM   32  H41 UNL     1       8.380  12.364  14.201  1.00  0.00     0.210 HD
ENDBRANCH  26  31
BRANCH  27  33
HETATM   33  O7  UNL     1       4.686  12.781  15.298  1.00  0.00    -0.388 OA
HETATM   34  H43 UNL     1       3.821  12.403  15.035  1.00  0.00     0.210 HD
ENDBRANCH  27  33
ENDBRANCH  22  23
ENDBRANCH  12  22
BRANCH  10  35
HETATM   35  C20 UNL     1       2.624   7.296  15.115  1.00  0.00     0.151 C 
HETATM   36  O1  UNL     1       3.039   7.282  16.262  1.00  0.00    -0.649 OA
BRANCH  35  37
HETATM   37  O2  UNL     1       1.959   6.206  14.676  1.00  0.00    -0.776 OA
HETATM   38  H33 UNL     1       2.080   5.576  15.419  1.00  0.00     0.167 HD
ENDBRANCH  35  37
ENDBRANCH  10  35
BRANCH  14  39
HETATM   39  O8  UNL     1       0.923   8.889  16.671  1.00  0.00    -0.395 OA
HETATM   40  H47 UNL     1       0.963   9.352  17.524  1.00  0.00     0.210 HD
ENDBRANCH  14  39
BRANCH   1  41
HETATM   41  C7  UNL     1      -6.617   6.844  14.568  1.00  0.00    -0.014 C 
HETATM   42  C8  UNL     1      -6.857   7.698  15.816  1.00  0.00     0.010 C 
BRANCH  41  43
HETATM   43  C6  UNL     1      -7.647   5.685  14.476  1.00  0.00     0.008 C 
BRANCH  43  44
HETATM   44  C5  UNL     1      -7.904   5.047  13.102  1.00  0.00     0.028 C 
BRANCH  44  45
HETATM   45  C4  UNL     1      -7.928   3.543  13.097  1.00  0.00    -0.025 C 
HETATM   46  C2  UNL     1      -7.144   2.722  12.371  1.00  0.00    -0.091 C 
HETATM   47  C1  UNL     1      -7.255   1.226  12.510  1.00  0.00     0.042 C 
HETATM   48  C3  UNL     1      -6.118   3.178  11.372  1.00  0.00     0.042 C 
ENDBRANCH  44  45
ENDBRANCH  43  44
ENDBRANCH  41  43
ENDBRANCH   1  41
TORSDOF 13
ENDMDL
MODEL 9
REMARK minimizedAffinity -8.22951603
REMARK CNNscore 0.214381322
REMARK CNNaffinity 6.41793394
REMARK  13 active torsions:
REMARK  status: ('A' for Active; 'I' for Inactive)
REMARK    1  A    between atoms: C4_4  and  C5_5 
REMARK    2  A    between atoms: C5_5  and  C6_6 
REMARK    3  A    between atoms: C6_6  and  C7_7 
REMARK    4  A    between atoms: C7_7  and  C9_9 
REMARK    5  A    between atoms: C18_18  and  C20_20 
REMARK    6  A    between atoms: C20_20  and  O2_22 
REMARK    7  A    between atoms: C21_23  and  O3_24 
REMARK    8  A    between atoms: O3_24  and  C22_25 
REMARK    9  A    between atoms: C23_27  and  C24_28 
REMARK   10  A    between atoms: C24_28  and  O5_29 
REMARK   11  A    between atoms: C25_30  and  O6_31 
REMARK   12  A    between atoms: C26_32  and  O7_33 
REMARK   13  A    between atoms: C28_35  and  O8_36 
ROOT
HETATM    1  C9  UNL     1      -4.375   6.165  12.929  1.00  0.00    -0.002 C 
HETATM    2  C10 UNL     1      -5.757   6.387  13.607  1.00  0.00     0.006 C 
HETATM    3  C11 UNL     1      -5.559   7.412  14.737  1.00  0.00     0.011 C 
HETATM    4  C12 UNL     1      -4.138   7.974  14.530  1.00  0.00    -0.032 C 
HETATM    5  C13 UNL     1      -4.272   9.129  13.488  1.00  0.00     0.016 C 
HETATM    6  C14 UNL     1      -3.454   8.485  15.831  1.00  0.00     0.004 C 
HETATM    7  C15 UNL     1      -4.023   9.808  16.344  1.00  0.00     0.007 C 
HETATM    8  C16 UNL     1      -3.401  10.202  17.679  1.00  0.00     0.007 C 
HETATM    9  C17 UNL     1      -1.871  10.424  17.665  1.00  0.00     0.018 C 
HETATM   10  C18 UNL     1      -1.380  11.923  17.688  1.00  0.00     0.072 C 
HETATM   11  C19 UNL     1      -2.077  12.718  18.825  1.00  0.00     0.030 C 
HETATM   12  C21 UNL     1       0.175  11.951  17.925  1.00  0.00     0.146 C 
HETATM   13  C27 UNL     1       0.930  10.731  17.384  1.00  0.00     0.066 C 
HETATM   14  C28 UNL     1       0.232  10.075  16.208  1.00  0.00     0.130 C 
HETATM   15  C29 UNL     1      -1.130   9.539  16.629  1.00  0.00    -0.001 A 
HETATM   16  C30 UNL     1      -1.151   8.050  16.913  1.00  0.00     0.024 A 
HETATM   17  C31 UNL     1      -1.916   8.554  15.707  1.00  0.00    -0.025 A 
HETATM   18  C32 UNL     1      -1.324   8.251  14.328  1.00  0.00     0.011 C 
HETATM   19  C33 UNL     1      -1.996   7.141  13.495  1.00  0.00     0.011 C 
HETATM   20  C34 UNL     1      -3.377   6.703  14.006  1.00  0.00    -0.032 C 
HETATM   21  C35 UNL     1      -3.160   5.606  15.093  1.00  0.00     0.016 C 
ENDROOT
BRANCH  12  22
HETATM   22  O3  UNL     1       0.459  12.000  19.344  1.00  0.00    -0.352 OA
BRANCH  22  23
HETATM   23  C22 UNL     1       1.594  11.209  19.703  1.00  0.00     0.292 C 
HETATM   24  O4  UNL     1       1.282  10.255  20.728  1.00  0.00    -0.348 OA
HETATM   25  C23 UNL     1       2.352  10.303  21.707  1.00  0.00     0.179 C 
HETATM   26  C25 UNL     1       3.470  11.176  21.132  1.00  0.00     0.182 C 
HETATM   27  C26 UNL     1       2.678  12.139  20.272  1.00  0.00     0.204 C 
BRANCH  25  28
HETATM   28  C24 UNL     1       2.767   8.873  22.034  1.00  0.00     0.198 C 
BRANCH  28  29
HETATM   29  O5  UNL     1       1.600   8.056  22.164  1.00  0.00    -0.398 OA
HETATM   30  H39 UNL     1       1.055   8.267  21.383  1.00  0.00     0.209 HD
ENDBRANCH  28  29
ENDBRANCH  25  28
BRANCH  26  31
HETATM   31  O6  UNL     1       4.371  10.427  20.313  1.00  0.00    -0.390 OA
HETATM   32  H41 UNL     1       5.173  10.969  20.198  1.00  0.00     0.210 HD
ENDBRANCH  26  31
BRANCH  27  33
HETATM   33  O7  UNL     1       2.108  13.165  21.098  1.00  0.00    -0.388 OA
HETATM   34  H43 UNL     1       1.223  13.338  20.715  1.00  0.00     0.210 HD
ENDBRANCH  27  33
ENDBRANCH  22  23
ENDBRANCH  12  22
BRANCH  10  35
HETATM   35  C20 UNL     1      -1.765  12.696  16.420  1.00  0.00     0.151 C 
HETATM   36  O1  UNL     1      -1.133  13.585  15.875  1.00  0.00    -0.649 OA
BRANCH  35  37
HETATM   37  O2  UNL     1      -2.851  12.215  15.779  1.00  0.00    -0.776 OA
HETATM   38  H33 UNL     1      -2.931  12.829  15.017  1.00  0.00     0.167 HD
ENDBRANCH  35  37
ENDBRANCH  10  35
BRANCH  14  39
HETATM   39  O8  UNL     1       0.071  11.005  15.147  1.00  0.00    -0.395 OA
HETATM   40  H47 UNL     1       0.937  11.090  14.715  1.00  0.00     0.210 HD
ENDBRANCH  14  39
BRANCH   1  41
HETATM   41  C7  UNL     1      -4.208   4.723  12.374  1.00  0.00    -0.014 C 
HETATM   42  C8  UNL     1      -5.407   3.829  12.703  1.00  0.00     0.010 C 
BRANCH  41  43
HETATM   43  C6  UNL     1      -2.875   4.054  12.807  1.00  0.00     0.008 C 
BRANCH  43  44
HETATM   44  C5  UNL     1      -1.885   3.627  11.712  1.00  0.00     0.028 C 
BRANCH  44  45
HETATM   45  C4  UNL     1      -1.262   4.762  10.945  1.00  0.00    -0.025 C 
HETATM   46  C2  UNL     1      -0.100   5.385  11.222  1.00  0.00    -0.091 C 
HETATM   47  C1  UNL     1       0.420   6.481  10.329  1.00  0.00     0.042 C 
HETATM   48  C3  UNL     1       0.774   5.083  12.407  1.00  0.00     0.042 C 
ENDBRANCH  44  45
ENDBRANCH  43  44
ENDBRANCH  41  43
ENDBRANCH   1  41
TORSDOF 13
ENDMDL
