MODEL 1
REMARK minimizedAffinity -8.0277977
REMARK CNNscore 0.512763441
REMARK CNNaffinity 6.67888403
REMARK  11 active torsions:
REMARK  status: ('A' for Active; 'I' for Inactive)
REMARK    1  A    between atoms: C12_13  and  O2_14 
REMARK    2  A    between atoms: C19_21  and  O3_22 
REMARK    3  A    between atoms: C19_21  and  C20_23 
REMARK    4  A    between atoms: C20_23  and  C21_25 
REMARK    5  A    between atoms: C21_25  and  O5_26 
REMARK    6  A    between atoms: O5_26  and  C22_27 
REMARK    7  A    between atoms: C22_27  and  C23_29 
REMARK    8  A    between atoms: C23_29  and  C24_30 
REMARK    9  A    between atoms: C24_30  and  C25_31 
REMARK       I    between atoms: C25_31  and  N1_33 
REMARK   10  A    between atoms: N1_33  and  C26_34 
REMARK   11  A    between atoms: C26_34  and  C27_35 
ROOT
HETATM    1  C1  UNL     1      -5.669   5.296  13.361  1.00  0.00     0.020 C 
HETATM    2  C2  UNL     1      -5.157   6.259  14.472  1.00  0.00    -0.014 C 
HETATM    3  C3  UNL     1      -5.534   5.623  15.844  1.00  0.00     0.022 C 
HETATM    4  C4  UNL     1      -7.026   5.664  16.157  1.00  0.00     0.084 C 
HETATM    5  C5  UNL     1      -7.500   7.092  16.113  1.00  0.00     0.149 C 
HETATM    6  O1  UNL     1      -8.376   7.522  16.858  1.00  0.00    -0.293 OA
HETATM    7  C6  UNL     1      -6.931   7.973  15.067  1.00  0.00     0.053 C 
HETATM    8  C7  UNL     1      -5.908   7.583  14.284  1.00  0.00    -0.068 C 
HETATM    9  C8  UNL     1      -5.496   8.485  13.146  1.00  0.00     0.035 C 
HETATM   10  C9  UNL     1      -4.071   8.265  12.651  1.00  0.00     0.010 C 
HETATM   11  C10 UNL     1      -3.143   7.823  13.789  1.00  0.00    -0.002 C 
HETATM   12  C11 UNL     1      -3.577   6.417  14.278  1.00  0.00     0.031 C 
HETATM   13  C12 UNL     1      -2.676   5.988  15.455  1.00  0.00     0.124 C 
HETATM   14  C13 UNL     1      -1.203   5.950  15.038  1.00  0.00     0.045 C 
HETATM   15  C14 UNL     1      -0.629   7.192  14.309  1.00  0.00     0.001 C 
HETATM   16  C15 UNL     1       0.595   6.692  13.487  1.00  0.00     0.019 C 
HETATM   17  C16 UNL     1      -1.658   7.831  13.325  1.00  0.00     0.002 C 
HETATM   18  C17 UNL     1      -1.150   9.275  13.112  1.00  0.00     0.009 C 
HETATM   19  C18 UNL     1      -0.108   9.561  14.194  1.00  0.00     0.047 C 
HETATM   20  C19 UNL     1      -0.213   8.404  15.211  1.00  0.00     0.128 C 
ENDROOT
BRANCH  20  21
HETATM   21  O3  UNL     1      -1.275   8.760  16.094  1.00  0.00    -0.381 OA
HETATM   22  H27 UNL     1      -0.962   9.543  16.603  1.00  0.00     0.211 HD
ENDBRANCH  20  21
BRANCH  20  23
HETATM   23  C20 UNL     1       1.132   8.221  15.969  1.00  0.00     0.185 C 
HETATM   24  O4  UNL     1       1.341   7.223  16.672  1.00  0.00    -0.292 OA
BRANCH  23  25
HETATM   25  C21 UNL     1       2.173   9.349  15.954  1.00  0.00     0.260 C 
BRANCH  25  26
HETATM   26  O5  UNL     1       2.800   9.807  17.141  1.00  0.00    -0.314 OA
BRANCH  26  27
HETATM   27  C22 UNL     1       3.006  11.146  17.203  1.00  0.00     0.259 C 
HETATM   28  O6  UNL     1       3.521  11.806  16.306  1.00  0.00    -0.265 OA
BRANCH  27  29
HETATM   29  C23 UNL     1       2.410  11.761  18.449  1.00  0.00     0.120 C 
BRANCH  29  30
HETATM   30  C24 UNL     1       1.601  10.808  19.318  1.00  0.00     0.112 C 
BRANCH  30  31
HETATM   31  C25 UNL     1       2.334  10.391  20.577  1.00  0.00     0.218 C 
HETATM   32  O7  UNL     1       2.858   9.293  20.725  1.00  0.00    -0.274 OA
HETATM   33  N1  UNL     1       2.326  11.362  21.552  1.00  0.00    -0.357 N 
HETATM   34  H34 UNL     1       2.054  12.304  21.300  1.00  0.00     0.162 HD
BRANCH  33  35
HETATM   35  C26 UNL     1       3.018  11.170  22.807  1.00  0.00     0.162 C 
BRANCH  35  36
HETATM   36  C27 UNL     1       4.275  11.986  22.874  1.00  0.00    -0.025 A 
HETATM   37  C28 UNL     1       4.250  13.383  22.849  1.00  0.00     0.011 A 
HETATM   38  C29 UNL     1       5.444  14.095  22.911  1.00  0.00     0.018 A 
HETATM   39  C30 UNL     1       6.630  13.383  22.991  1.00  0.00     0.087 A 
HETATM   40  N2  UNL     1       6.695  12.036  23.005  1.00  0.00    -0.375 N 
HETATM   41  C31 UNL     1       5.521  11.367  22.943  1.00  0.00     0.096 A 
ATOM     42  H2  UNL     1       7.587  11.545  23.061  1.00  0.00     0.164 HD
ENDBRANCH  35  36
ENDBRANCH  33  35
ENDBRANCH  30  31
ENDBRANCH  29  30
ENDBRANCH  27  29
ENDBRANCH  26  27
ENDBRANCH  25  26
ENDBRANCH  23  25
ENDBRANCH  20  23
BRANCH  13  43
HETATM   43  O2  UNL     1      -2.836   6.805  16.608  1.00  0.00    -0.395 OA
HETATM   44  H16 UNL     1      -2.408   7.667  16.419  1.00  0.00     0.210 HD
ENDBRANCH  13  43
TORSDOF 11
ENDMDL
MODEL 2
REMARK minimizedAffinity -8.15102577
REMARK CNNscore 0.433870494
REMARK CNNaffinity 6.71167517
REMARK  11 active torsions:
REMARK  status: ('A' for Active; 'I' for Inactive)
REMARK    1  A    between atoms: C12_13  and  O2_14 
REMARK    2  A    between atoms: C19_21  and  O3_22 
REMARK    3  A    between atoms: C19_21  and  C20_23 
REMARK    4  A    between atoms: C20_23  and  C21_25 
REMARK    5  A    between atoms: C21_25  and  O5_26 
REMARK    6  A    between atoms: O5_26  and  C22_27 
REMARK    7  A    between atoms: C22_27  and  C23_29 
REMARK    8  A    between atoms: C23_29  and  C24_30 
REMARK    9  A    between atoms: C24_30  and  C25_31 
REMARK       I    between atoms: C25_31  and  N1_33 
REMARK   10  A    between atoms: N1_33  and  C26_34 
REMARK   11  A    between atoms: C26_34  and  C27_35 
ROOT
HETATM    1  C1  UNL     1       1.675   7.195   8.709  1.00  0.00     0.020 C 
HETATM    2  C2  UNL     1       1.951   7.352  10.233  1.00  0.00    -0.014 C 
HETATM    3  C3  UNL     1       2.878   8.593  10.409  1.00  0.00     0.022 C 
HETATM    4  C4  UNL     1       4.307   8.372   9.925  1.00  0.00     0.084 C 
HETATM    5  C5  UNL     1       4.897   7.191  10.651  1.00  0.00     0.149 C 
HETATM    6  O1  UNL     1       6.083   7.131  10.963  1.00  0.00    -0.293 OA
HETATM    7  C6  UNL     1       4.010   6.035  10.916  1.00  0.00     0.053 C 
HETATM    8  C7  UNL     1       2.686   6.082  10.678  1.00  0.00    -0.068 C 
HETATM    9  C8  UNL     1       1.888   4.809  10.832  1.00  0.00     0.035 C 
HETATM   10  C9  UNL     1       0.396   5.025  11.059  1.00  0.00     0.010 C 
HETATM   11  C10 UNL     1       0.127   6.319  11.837  1.00  0.00    -0.002 C 
HETATM   12  C11 UNL     1       0.538   7.530  10.960  1.00  0.00     0.031 C 
HETATM   13  C12 UNL     1       0.314   8.833  11.756  1.00  0.00     0.124 C 
HETATM   14  C13 UNL     1      -1.153   8.980  12.173  1.00  0.00     0.045 C 
HETATM   15  C14 UNL     1      -1.828   7.769  12.867  1.00  0.00     0.001 C 
HETATM   16  C15 UNL     1      -3.359   7.922  12.624  1.00  0.00     0.019 C 
HETATM   17  C16 UNL     1      -1.366   6.405  12.264  1.00  0.00     0.002 C 
HETATM   18  C17 UNL     1      -1.693   5.365  13.359  1.00  0.00     0.009 C 
HETATM   19  C18 UNL     1      -1.979   6.129  14.651  1.00  0.00     0.047 C 
HETATM   20  C19 UNL     1      -1.541   7.587  14.396  1.00  0.00     0.128 C 
ENDROOT
BRANCH  20  21
HETATM   21  O3  UNL     1      -0.138   7.619  14.651  1.00  0.00    -0.381 OA
HETATM   22  H27 UNL     1      -0.027   7.466  15.618  1.00  0.00     0.211 HD
ENDBRANCH  20  21
BRANCH  20  23
HETATM   23  C20 UNL     1      -2.319   8.560  15.327  1.00  0.00     0.185 C 
HETATM   24  O4  UNL     1      -1.814   8.987  16.373  1.00  0.00    -0.292 OA
BRANCH  23  25
HETATM   25  C21 UNL     1      -3.782   8.904  15.016  1.00  0.00     0.260 C 
BRANCH  25  26
HETATM   26  O5  UNL     1      -4.854   8.392  15.791  1.00  0.00    -0.314 OA
BRANCH  26  27
HETATM   27  C22 UNL     1      -5.294   7.162  15.425  1.00  0.00     0.259 C 
HETATM   28  O6  UNL     1      -4.877   6.111  15.902  1.00  0.00    -0.265 OA
BRANCH  27  29
HETATM   29  C23 UNL     1      -6.452   7.232  14.456  1.00  0.00     0.120 C 
BRANCH  29  30
HETATM   30  C24 UNL     1      -7.783   7.649  15.067  1.00  0.00     0.112 C 
BRANCH  30  31
HETATM   31  C25 UNL     1      -8.975   7.055  14.345  1.00  0.00     0.218 C 
HETATM   32  O7  UNL     1      -8.908   6.068  13.621  1.00  0.00    -0.274 OA
HETATM   33  N1  UNL     1     -10.139   7.756  14.560  1.00  0.00    -0.357 N 
HETATM   34  H34 UNL     1     -10.170   8.432  15.312  1.00  0.00     0.162 HD
BRANCH  33  35
HETATM   35  C26 UNL     1     -11.395   7.314  13.996  1.00  0.00     0.162 C 
BRANCH  35  36
HETATM   36  C27 UNL     1     -12.197   8.465  13.465  1.00  0.00    -0.025 A 
HETATM   37  C28 UNL     1     -13.310   8.965  14.146  1.00  0.00     0.011 A 
HETATM   38  C29 UNL     1     -14.023  10.035  13.611  1.00  0.00     0.018 A 
HETATM   39  C30 UNL     1     -13.601  10.566  12.403  1.00  0.00     0.087 A 
HETATM   40  N2  UNL     1     -12.539  10.104  11.711  1.00  0.00    -0.375 N 
HETATM   41  C31 UNL     1     -11.864   9.064  12.251  1.00  0.00     0.096 A 
ATOM     42  H2  UNL     1     -12.260  10.519  10.822  1.00  0.00     0.164 HD
ENDBRANCH  35  36
ENDBRANCH  33  35
ENDBRANCH  30  31
ENDBRANCH  29  30
ENDBRANCH  27  29
ENDBRANCH  26  27
ENDBRANCH  25  26
ENDBRANCH  23  25
ENDBRANCH  20  23
BRANCH  13  43
HETATM   43  O2  UNL     1       1.158   8.944  12.894  1.00  0.00    -0.395 OA
HETATM   44  H16 UNL     1       0.827   8.316  13.570  1.00  0.00     0.210 HD
ENDBRANCH  13  43
TORSDOF 11
ENDMDL
MODEL 3
REMARK minimizedAffinity -7.63057804
REMARK CNNscore 0.431939036
REMARK CNNaffinity 6.12880945
REMARK  11 active torsions:
REMARK  status: ('A' for Active; 'I' for Inactive)
REMARK    1  A    between atoms: C12_13  and  O2_14 
REMARK    2  A    between atoms: C19_21  and  O3_22 
REMARK    3  A    between atoms: C19_21  and  C20_23 
REMARK    4  A    between atoms: C20_23  and  C21_25 
REMARK    5  A    between atoms: C21_25  and  O5_26 
REMARK    6  A    between atoms: O5_26  and  C22_27 
REMARK    7  A    between atoms: C22_27  and  C23_29 
REMARK    8  A    between atoms: C23_29  and  C24_30 
REMARK    9  A    between atoms: C24_30  and  C25_31 
REMARK       I    between atoms: C25_31  and  N1_33 
REMARK   10  A    between atoms: N1_33  and  C26_34 
REMARK   11  A    between atoms: C26_34  and  C27_35 
ROOT
HETATM    1  C1  UNL     1       0.102   7.595  10.498  1.00  0.00     0.020 C 
HETATM    2  C2  UNL     1       0.330   7.043  11.935  1.00  0.00    -0.014 C 
HETATM    3  C3  UNL     1       1.508   6.024  11.857  1.00  0.00     0.022 C 
HETATM    4  C4  UNL     1       1.154   4.721  11.149  1.00  0.00     0.084 C 
HETATM    5  C5  UNL     1      -0.021   4.085  11.845  1.00  0.00     0.149 C 
HETATM    6  O1  UNL     1      -0.150   2.869  11.950  1.00  0.00    -0.293 OA
HETATM    7  C6  UNL     1      -1.091   4.980  12.344  1.00  0.00     0.053 C 
HETATM    8  C7  UNL     1      -0.961   6.320  12.336  1.00  0.00    -0.068 C 
HETATM    9  C8  UNL     1      -2.161   7.155  12.719  1.00  0.00     0.035 C 
HETATM   10  C9  UNL     1      -1.823   8.566  13.185  1.00  0.00     0.010 C 
HETATM   11  C10 UNL     1      -0.468   8.612  13.903  1.00  0.00    -0.002 C 
HETATM   12  C11 UNL     1       0.655   8.290  12.882  1.00  0.00     0.031 C 
HETATM   13  C12 UNL     1       2.016   8.288  13.609  1.00  0.00     0.124 C 
HETATM   14  C13 UNL     1       2.296   9.644  14.262  1.00  0.00     0.045 C 
HETATM   15  C14 UNL     1       1.182  10.259  15.149  1.00  0.00     0.001 C 
HETATM   16  C15 UNL     1       1.432  11.796  15.165  1.00  0.00     0.019 C 
HETATM   17  C16 UNL     1      -0.246   9.997  14.575  1.00  0.00     0.002 C 
HETATM   18  C17 UNL     1      -1.192  10.186  15.782  1.00  0.00     0.009 C 
HETATM   19  C18 UNL     1      -0.332  10.190  17.047  1.00  0.00     0.047 C 
HETATM   20  C19 UNL     1       1.072   9.715  16.614  1.00  0.00     0.128 C 
ENDROOT
BRANCH  20  21
HETATM   21  O3  UNL     1       1.017   8.290  16.618  1.00  0.00    -0.381 OA
HETATM   22  H27 UNL     1       0.914   8.018  17.559  1.00  0.00     0.211 HD
ENDBRANCH  20  21
BRANCH  20  23
HETATM   23  C20 UNL     1       2.154  10.254  17.593  1.00  0.00     0.185 C 
HETATM   24  O4  UNL     1       3.360  10.071  17.378  1.00  0.00    -0.292 OA
BRANCH  23  25
HETATM   25  C21 UNL     1       1.728  10.913  18.911  1.00  0.00     0.260 C 
BRANCH  25  26
HETATM   26  O5  UNL     1       1.182  10.162  19.983  1.00  0.00    -0.314 OA
BRANCH  26  27
HETATM   27  C22 UNL     1       1.960  10.090  21.092  1.00  0.00     0.259 C 
HETATM   28  O6  UNL     1       2.137   9.066  21.744  1.00  0.00    -0.265 OA
BRANCH  27  29
HETATM   29  C23 UNL     1       2.694  11.384  21.362  1.00  0.00     0.120 C 
BRANCH  29  30
HETATM   30  C24 UNL     1       3.726  11.320  22.480  1.00  0.00     0.112 C 
BRANCH  30  31
HETATM   31  C25 UNL     1       5.090  11.827  22.054  1.00  0.00     0.218 C 
HETATM   32  O7  UNL     1       5.471  11.850  20.889  1.00  0.00    -0.274 OA
HETATM   33  N1  UNL     1       5.870  12.231  23.112  1.00  0.00    -0.357 N 
HETATM   34  H34 UNL     1       5.433  12.371  24.014  1.00  0.00     0.162 HD
BRANCH  33  35
HETATM   35  C26 UNL     1       7.185  12.792  22.902  1.00  0.00     0.162 C 
BRANCH  35  36
HETATM   36  C27 UNL     1       7.236  14.240  23.293  1.00  0.00    -0.025 A 
HETATM   37  C28 UNL     1       6.123  15.076  23.171  1.00  0.00     0.011 A 
HETATM   38  C29 UNL     1       6.221  16.414  23.545  1.00  0.00     0.018 A 
HETATM   39  C30 UNL     1       7.437  16.873  24.025  1.00  0.00     0.087 A 
HETATM   40  N2  UNL     1       8.536  16.101  24.146  1.00  0.00    -0.375 N 
HETATM   41  C31 UNL     1       8.415  14.805  23.775  1.00  0.00     0.096 A 
ATOM     42  H2  UNL     1       9.415  16.475  24.500  1.00  0.00     0.164 HD
ENDBRANCH  35  36
ENDBRANCH  33  35
ENDBRANCH  30  31
ENDBRANCH  29  30
ENDBRANCH  27  29
ENDBRANCH  26  27
ENDBRANCH  25  26
ENDBRANCH  23  25
ENDBRANCH  20  23
BRANCH  13  43
HETATM   43  O2  UNL     1       2.134   7.249  14.571  1.00  0.00    -0.395 OA
HETATM   44  H16 UNL     1       1.574   7.493  15.338  1.00  0.00     0.210 HD
ENDBRANCH  13  43
TORSDOF 11
ENDMDL
MODEL 4
REMARK minimizedAffinity -7.2375493
REMARK CNNscore 0.429308653
REMARK CNNaffinity 6.25251055
REMARK  11 active torsions:
REMARK  status: ('A' for Active; 'I' for Inactive)
REMARK    1  A    between atoms: C12_13  and  O2_14 
REMARK    2  A    between atoms: C19_21  and  O3_22 
REMARK    3  A    between atoms: C19_21  and  C20_23 
REMARK    4  A    between atoms: C20_23  and  C21_25 
REMARK    5  A    between atoms: C21_25  and  O5_26 
REMARK    6  A    between atoms: O5_26  and  C22_27 
REMARK    7  A    between atoms: C22_27  and  C23_29 
REMARK    8  A    between atoms: C23_29  and  C24_30 
REMARK    9  A    between atoms: C24_30  and  C25_31 
REMARK       I    between atoms: C25_31  and  N1_33 
REMARK   10  A    between atoms: N1_33  and  C26_34 
REMARK   11  A    between atoms: C26_34  and  C27_35 
ROOT
HETATM    1  C1  UNL     1     -18.279  -1.011  13.462  1.00  0.00     0.020 C 
HETATM    2  C2  UNL     1     -16.925  -1.041  14.230  1.00  0.00    -0.014 C 
HETATM    3  C3  UNL     1     -17.191  -0.479  15.659  1.00  0.00     0.022 C 
HETATM    4  C4  UNL     1     -17.457   1.022  15.695  1.00  0.00     0.084 C 
HETATM    5  C5  UNL     1     -16.291   1.745  15.075  1.00  0.00     0.149 C 
HETATM    6  O1  UNL     1     -15.905   2.841  15.471  1.00  0.00    -0.293 OA
HETATM    7  C6  UNL     1     -15.650   1.127  13.891  1.00  0.00     0.053 C 
HETATM    8  C7  UNL     1     -15.971  -0.110  13.471  1.00  0.00    -0.068 C 
HETATM    9  C8  UNL     1     -15.381  -0.596  12.168  1.00  0.00     0.035 C 
HETATM   10  C9  UNL     1     -15.352  -2.113  12.017  1.00  0.00     0.010 C 
HETATM   11  C10 UNL     1     -15.163  -2.809  13.371  1.00  0.00    -0.002 C 
HETATM   12  C11 UNL     1     -16.417  -2.557  14.248  1.00  0.00     0.031 C 
HETATM   13  C12 UNL     1     -16.212  -3.215  15.628  1.00  0.00     0.124 C 
HETATM   14  C13 UNL     1     -15.980  -4.723  15.492  1.00  0.00     0.045 C 
HETATM   15  C14 UNL     1     -14.912  -5.198  14.474  1.00  0.00     0.001 C 
HETATM   16  C15 UNL     1     -15.292  -6.658  14.087  1.00  0.00     0.019 C 
HETATM   17  C16 UNL     1     -14.900  -4.330  13.177  1.00  0.00     0.002 C 
HETATM   18  C17 UNL     1     -13.508  -4.579  12.554  1.00  0.00     0.009 C 
HETATM   19  C18 UNL     1     -12.640  -5.252  13.617  1.00  0.00     0.047 C 
HETATM   20  C19 UNL     1     -13.419  -5.137  14.945  1.00  0.00     0.128 C 
ENDROOT
BRANCH  20  21
HETATM   21  O3  UNL     1     -13.108  -3.846  15.465  1.00  0.00    -0.381 OA
HETATM   22  H27 UNL     1     -12.154  -3.866  15.708  1.00  0.00     0.211 HD
ENDBRANCH  20  21
BRANCH  20  23
HETATM   23  C20 UNL     1     -12.996  -6.270  15.924  1.00  0.00     0.185 C 
HETATM   24  O4  UNL     1     -13.669  -6.531  16.930  1.00  0.00    -0.292 OA
BRANCH  23  25
HETATM   25  C21 UNL     1     -11.661  -6.997  15.716  1.00  0.00     0.260 C 
BRANCH  25  26
HETATM   26  O5  UNL     1     -11.593  -8.399  15.516  1.00  0.00    -0.314 OA
BRANCH  26  27
HETATM   27  C22 UNL     1     -10.671  -9.045  16.273  1.00  0.00     0.259 C 
HETATM   28  O6  UNL     1      -9.868  -9.861  15.831  1.00  0.00    -0.265 OA
BRANCH  27  29
HETATM   29  C23 UNL     1     -10.651  -8.549  17.700  1.00  0.00     0.120 C 
BRANCH  29  30
HETATM   30  C24 UNL     1      -9.822  -9.388  18.665  1.00  0.00     0.112 C 
BRANCH  30  31
HETATM   31  C25 UNL     1     -10.668 -10.309  19.521  1.00  0.00     0.218 C 
HETATM   32  O7  UNL     1     -11.892 -10.354  19.466  1.00  0.00    -0.274 OA
HETATM   33  N1  UNL     1      -9.923 -11.070  20.392  1.00  0.00    -0.357 N 
HETATM   34  H34 UNL     1      -8.923 -11.131  20.254  1.00  0.00     0.162 HD
BRANCH  33  35
HETATM   35  C26 UNL     1     -10.547 -12.046  21.257  1.00  0.00     0.162 C 
BRANCH  35  36
HETATM   36  C27 UNL     1      -9.874 -12.107  22.596  1.00  0.00    -0.025 A 
HETATM   37  C28 UNL     1      -8.482 -12.105  22.723  1.00  0.00     0.011 A 
HETATM   38  C29 UNL     1      -7.904 -12.165  23.988  1.00  0.00     0.018 A 
HETATM   39  C30 UNL     1      -8.742 -12.233  25.089  1.00  0.00     0.087 A 
HETATM   40  N2  UNL     1     -10.088 -12.250  25.007  1.00  0.00    -0.375 N 
HETATM   41  C31 UNL     1     -10.625 -12.191  23.767  1.00  0.00     0.096 A 
ATOM     42  H2  UNL     1     -10.673 -12.304  25.840  1.00  0.00     0.164 HD
ENDBRANCH  35  36
ENDBRANCH  33  35
ENDBRANCH  30  31
ENDBRANCH  29  30
ENDBRANCH  27  29
ENDBRANCH  26  27
ENDBRANCH  25  26
ENDBRANCH  23  25
ENDBRANCH  20  23
BRANCH  13  43
HETATM   43  O2  UNL     1     -15.158  -2.625  16.378  1.00  0.00    -0.395 OA
HETATM   44  H16 UNL     1     -14.312  -2.907  15.968  1.00  0.00     0.210 HD
ENDBRANCH  13  43
TORSDOF 11
ENDMDL
MODEL 5
REMARK minimizedAffinity -7.64201641
REMARK CNNscore 0.348634601
REMARK CNNaffinity 6.44386673
REMARK  11 active torsions:
REMARK  status: ('A' for Active; 'I' for Inactive)
REMARK    1  A    between atoms: C12_13  and  O2_14 
REMARK    2  A    between atoms: C19_21  and  O3_22 
REMARK    3  A    between atoms: C19_21  and  C20_23 
REMARK    4  A    between atoms: C20_23  and  C21_25 
REMARK    5  A    between atoms: C21_25  and  O5_26 
REMARK    6  A    between atoms: O5_26  and  C22_27 
REMARK    7  A    between atoms: C22_27  and  C23_29 
REMARK    8  A    between atoms: C23_29  and  C24_30 
REMARK    9  A    between atoms: C24_30  and  C25_31 
REMARK       I    between atoms: C25_31  and  N1_33 
REMARK   10  A    between atoms: N1_33  and  C26_34 
REMARK   11  A    between atoms: C26_34  and  C27_35 
ROOT
HETATM    1  C1  UNL     1      -7.617   4.559  15.580  1.00  0.00     0.020 C 
HETATM    2  C2  UNL     1      -7.213   5.691  14.592  1.00  0.00    -0.014 C 
HETATM    3  C3  UNL     1      -8.000   6.971  15.009  1.00  0.00     0.022 C 
HETATM    4  C4  UNL     1      -9.493   6.906  14.706  1.00  0.00     0.084 C 
HETATM    5  C5  UNL     1      -9.688   6.648  13.236  1.00  0.00     0.149 C 
HETATM    6  O1  UNL     1     -10.622   7.125  12.598  1.00  0.00    -0.293 OA
HETATM    7  C6  UNL     1      -8.749   5.714  12.572  1.00  0.00     0.053 C 
HETATM    8  C7  UNL     1      -7.658   5.235  13.197  1.00  0.00    -0.068 C 
HETATM    9  C8  UNL     1      -6.845   4.171  12.498  1.00  0.00     0.035 C 
HETATM   10  C9  UNL     1      -5.406   4.056  12.987  1.00  0.00     0.010 C 
HETATM   11  C10 UNL     1      -4.855   5.414  13.438  1.00  0.00    -0.002 C 
HETATM   12  C11 UNL     1      -5.629   5.879  14.700  1.00  0.00     0.031 C 
HETATM   13  C12 UNL     1      -5.111   7.268  15.130  1.00  0.00     0.124 C 
HETATM   14  C13 UNL     1      -3.611   7.227  15.439  1.00  0.00     0.045 C 
HETATM   15  C14 UNL     1      -2.677   6.576  14.386  1.00  0.00     0.001 C 
HETATM   16  C15 UNL     1      -1.404   6.114  15.155  1.00  0.00     0.019 C 
HETATM   17  C16 UNL     1      -3.325   5.327  13.708  1.00  0.00     0.002 C 
HETATM   18  C17 UNL     1      -2.538   5.146  12.392  1.00  0.00     0.009 C 
HETATM   19  C18 UNL     1      -1.739   6.427  12.151  1.00  0.00     0.047 C 
HETATM   20  C19 UNL     1      -2.275   7.465  13.161  1.00  0.00     0.128 C 
ENDROOT
BRANCH  20  21
HETATM   21  O3  UNL     1      -3.431   8.035  12.552  1.00  0.00    -0.381 OA
HETATM   22  H27 UNL     1      -3.112   8.549  11.775  1.00  0.00     0.211 HD
ENDBRANCH  20  21
BRANCH  20  23
HETATM   23  C20 UNL     1      -1.192   8.540  13.463  1.00  0.00     0.185 C 
HETATM   24  O4  UNL     1      -1.446   9.523  14.171  1.00  0.00    -0.292 OA
BRANCH  23  25
HETATM   25  C21 UNL     1       0.178   8.455  12.776  1.00  0.00     0.260 C 
BRANCH  25  26
HETATM   26  O5  UNL     1       1.256   7.728  13.340  1.00  0.00    -0.314 OA
BRANCH  26  27
HETATM   27  C22 UNL     1       2.157   8.474  14.027  1.00  0.00     0.259 C 
HETATM   28  O6  UNL     1       2.681   8.123  15.080  1.00  0.00    -0.265 OA
BRANCH  27  29
HETATM   29  C23 UNL     1       2.546   9.732  13.286  1.00  0.00     0.120 C 
BRANCH  29  30
HETATM   30  C24 UNL     1       2.640  10.986  14.144  1.00  0.00     0.112 C 
BRANCH  30  31
HETATM   31  C25 UNL     1       3.570  12.032  13.560  1.00  0.00     0.218 C 
HETATM   32  O7  UNL     1       4.792  11.949  13.598  1.00  0.00    -0.274 OA
HETATM   33  N1  UNL     1       2.901  13.100  13.010  1.00  0.00    -0.357 N 
HETATM   34  H34 UNL     1       1.908  13.017  12.835  1.00  0.00     0.162 HD
BRANCH  33  35
HETATM   35  C26 UNL     1       3.615  14.176  12.358  1.00  0.00     0.162 C 
BRANCH  35  36
HETATM   36  C27 UNL     1       2.678  15.111  11.652  1.00  0.00    -0.025 A 
HETATM   37  C28 UNL     1       3.034  15.751  10.461  1.00  0.00     0.011 A 
HETATM   38  C29 UNL     1       2.130  16.612   9.845  1.00  0.00     0.018 A 
HETATM   39  C30 UNL     1       0.897  16.810  10.446  1.00  0.00     0.087 A 
HETATM   40  N2  UNL     1       0.522  16.220  11.599  1.00  0.00    -0.375 N 
HETATM   41  C31 UNL     1       1.419  15.389  12.179  1.00  0.00     0.096 A 
ATOM     42  H2  UNL     1      -0.393  16.392  12.015  1.00  0.00     0.164 HD
ENDBRANCH  35  36
ENDBRANCH  33  35
ENDBRANCH  30  31
ENDBRANCH  29  30
ENDBRANCH  27  29
ENDBRANCH  26  27
ENDBRANCH  25  26
ENDBRANCH  23  25
ENDBRANCH  20  23
BRANCH  13  43
HETATM   43  O2  UNL     1      -5.385   8.286  14.177  1.00  0.00    -0.395 OA
HETATM   44  H16 UNL     1      -4.782   8.148  13.416  1.00  0.00     0.210 HD
ENDBRANCH  13  43
TORSDOF 11
ENDMDL
MODEL 6
REMARK minimizedAffinity -7.54329109
REMARK CNNscore 0.3238056
REMARK CNNaffinity 6.2157836
REMARK  11 active torsions:
REMARK  status: ('A' for Active; 'I' for Inactive)
REMARK    1  A    between atoms: C12_13  and  O2_14 
REMARK    2  A    between atoms: C19_21  and  O3_22 
REMARK    3  A    between atoms: C19_21  and  C20_23 
REMARK    4  A    between atoms: C20_23  and  C21_25 
REMARK    5  A    between atoms: C21_25  and  O5_26 
REMARK    6  A    between atoms: O5_26  and  C22_27 
REMARK    7  A    between atoms: C22_27  and  C23_29 
REMARK    8  A    between atoms: C23_29  and  C24_30 
REMARK    9  A    between atoms: C24_30  and  C25_31 
REMARK       I    between atoms: C25_31  and  N1_33 
REMARK   10  A    between atoms: N1_33  and  C26_34 
REMARK   11  A    between atoms: C26_34  and  C27_35 
ROOT
HETATM    1  C1  UNL     1       4.568   6.282  10.704  1.00  0.00     0.020 C 
HETATM    2  C2  UNL     1       3.130   5.841  10.300  1.00  0.00    -0.014 C 
HETATM    3  C3  UNL     1       3.178   4.307  10.026  1.00  0.00     0.022 C 
HETATM    4  C4  UNL     1       3.916   3.929   8.746  1.00  0.00     0.084 C 
HETATM    5  C5  UNL     1       3.274   4.633   7.580  1.00  0.00     0.149 C 
HETATM    6  O1  UNL     1       3.191   4.126   6.465  1.00  0.00    -0.293 OA
HETATM    7  C6  UNL     1       2.804   6.022   7.790  1.00  0.00     0.053 C 
HETATM    8  C7  UNL     1       2.788   6.594   9.009  1.00  0.00    -0.068 C 
HETATM    9  C8  UNL     1       2.440   8.060   9.104  1.00  0.00     0.035 C 
HETATM   10  C9  UNL     1       1.942   8.501  10.476  1.00  0.00     0.010 C 
HETATM   11  C10 UNL     1       1.173   7.377  11.183  1.00  0.00    -0.002 C 
HETATM   12  C11 UNL     1       2.155   6.221  11.509  1.00  0.00     0.031 C 
HETATM   13  C12 UNL     1       1.377   5.068  12.177  1.00  0.00     0.124 C 
HETATM   14  C13 UNL     1       0.695   5.536  13.466  1.00  0.00     0.045 C 
HETATM   15  C14 UNL     1      -0.157   6.830  13.401  1.00  0.00     0.001 C 
HETATM   16  C15 UNL     1      -0.204   7.399  14.850  1.00  0.00     0.019 C 
HETATM   17  C16 UNL     1       0.474   7.910  12.466  1.00  0.00     0.002 C 
HETATM   18  C17 UNL     1      -0.699   8.851  12.110  1.00  0.00     0.009 C 
HETATM   19  C18 UNL     1      -1.995   8.145  12.512  1.00  0.00     0.047 C 
HETATM   20  C19 UNL     1      -1.609   6.685  12.832  1.00  0.00     0.128 C 
ENDROOT
BRANCH  20  21
HETATM   21  O3  UNL     1      -1.592   6.006  11.577  1.00  0.00    -0.381 OA
HETATM   22  H27 UNL     1      -2.525   5.980  11.262  1.00  0.00     0.211 HD
ENDBRANCH  20  21
BRANCH  20  23
HETATM   23  C20 UNL     1      -2.635   6.054  13.815  1.00  0.00     0.185 C 
HETATM   24  O4  UNL     1      -2.920   4.850  13.759  1.00  0.00    -0.292 OA
BRANCH  23  25
HETATM   25  C21 UNL     1      -3.406   6.952  14.792  1.00  0.00     0.260 C 
BRANCH  25  26
HETATM   26  O5  UNL     1      -2.858   8.162  15.289  1.00  0.00    -0.314 OA
BRANCH  26  27
HETATM   27  C22 UNL     1      -3.768   9.101  15.650  1.00  0.00     0.259 C 
HETATM   28  O6  UNL     1      -4.977   8.898  15.718  1.00  0.00    -0.265 OA
BRANCH  27  29
HETATM   29  C23 UNL     1      -3.118  10.392  16.090  1.00  0.00     0.120 C 
BRANCH  29  30
HETATM   30  C24 UNL     1      -4.080  11.474  16.561  1.00  0.00     0.112 C 
BRANCH  30  31
HETATM   31  C25 UNL     1      -3.774  11.966  17.962  1.00  0.00     0.218 C 
HETATM   32  O7  UNL     1      -2.868  11.519  18.655  1.00  0.00    -0.274 OA
HETATM   33  N1  UNL     1      -4.639  12.947  18.390  1.00  0.00    -0.357 N 
HETATM   34  H34 UNL     1      -5.232  13.404  17.710  1.00  0.00     0.162 HD
BRANCH  33  35
HETATM   35  C26 UNL     1      -4.478  13.577  19.681  1.00  0.00     0.162 C 
BRANCH  35  36
HETATM   36  C27 UNL     1      -5.727  13.475  20.505  1.00  0.00    -0.025 A 
HETATM   37  C28 UNL     1      -5.686  13.215  21.877  1.00  0.00     0.011 A 
HETATM   38  C29 UNL     1      -6.874  13.127  22.598  1.00  0.00     0.018 A 
HETATM   39  C30 UNL     1      -8.069  13.296  21.918  1.00  0.00     0.087 A 
HETATM   40  N2  UNL     1      -8.150  13.537  20.593  1.00  0.00    -0.375 N 
HETATM   41  C31 UNL     1      -6.981  13.617  19.915  1.00  0.00     0.096 A 
ATOM     42  H2  UNL     1      -9.048  13.652  20.125  1.00  0.00     0.164 HD
ENDBRANCH  35  36
ENDBRANCH  33  35
ENDBRANCH  30  31
ENDBRANCH  29  30
ENDBRANCH  27  29
ENDBRANCH  26  27
ENDBRANCH  25  26
ENDBRANCH  23  25
ENDBRANCH  20  23
BRANCH  13  43
HETATM   43  O2  UNL     1       0.426   4.462  11.314  1.00  0.00    -0.395 OA
HETATM   44  H16 UNL     1      -0.323   5.088  11.215  1.00  0.00     0.210 HD
ENDBRANCH  13  43
TORSDOF 11
ENDMDL
MODEL 7
REMARK minimizedAffinity -8.63079548
REMARK CNNscore 0.323507756
REMARK CNNaffinity 6.81454229
REMARK  11 active torsions:
REMARK  status: ('A' for Active; 'I' for Inactive)
REMARK    1  A    between atoms: C12_13  and  O2_14 
REMARK    2  A    between atoms: C19_21  and  O3_22 
REMARK    3  A    between atoms: C19_21  and  C20_23 
REMARK    4  A    between atoms: C20_23  and  C21_25 
REMARK    5  A    between atoms: C21_25  and  O5_26 
REMARK    6  A    between atoms: O5_26  and  C22_27 
REMARK    7  A    between atoms: C22_27  and  C23_29 
REMARK    8  A    between atoms: C23_29  and  C24_30 
REMARK    9  A    between atoms: C24_30  and  C25_31 
REMARK       I    between atoms: C25_31  and  N1_33 
REMARK   10  A    between atoms: N1_33  and  C26_34 
REMARK   11  A    between atoms: C26_34  and  C27_35 
ROOT
HETATM    1  C1  UNL     1      -7.646   4.895  15.707  1.00  0.00     0.020 C 
HETATM    2  C2  UNL     1      -7.330   6.043  14.705  1.00  0.00    -0.014 C 
HETATM    3  C3  UNL     1      -8.278   7.231  15.049  1.00  0.00     0.022 C 
HETATM    4  C4  UNL     1      -9.737   6.986  14.684  1.00  0.00     0.084 C 
HETATM    5  C5  UNL     1      -9.832   6.672  13.215  1.00  0.00     0.149 C 
HETATM    6  O1  UNL     1     -10.784   7.021  12.523  1.00  0.00    -0.293 OA
HETATM    7  C6  UNL     1      -8.762   5.838  12.620  1.00  0.00     0.053 C 
HETATM    8  C7  UNL     1      -7.653   5.504  13.306  1.00  0.00    -0.068 C 
HETATM    9  C8  UNL     1      -6.691   4.526  12.675  1.00  0.00     0.035 C 
HETATM   10  C9  UNL     1      -5.273   4.591  13.229  1.00  0.00     0.010 C 
HETATM   11  C10 UNL     1      -4.904   6.015  13.664  1.00  0.00    -0.002 C 
HETATM   12  C11 UNL     1      -5.784   6.417  14.876  1.00  0.00     0.031 C 
HETATM   13  C12 UNL     1      -5.451   7.866  15.287  1.00  0.00     0.124 C 
HETATM   14  C13 UNL     1      -3.973   8.007  15.663  1.00  0.00     0.045 C 
HETATM   15  C14 UNL     1      -2.922   7.445  14.671  1.00  0.00     0.001 C 
HETATM   16  C15 UNL     1      -1.641   7.153  15.508  1.00  0.00     0.019 C 
HETATM   17  C16 UNL     1      -3.389   6.113  14.003  1.00  0.00     0.002 C 
HETATM   18  C17 UNL     1      -2.525   5.993  12.728  1.00  0.00     0.009 C 
HETATM   19  C18 UNL     1      -1.868   7.353  12.485  1.00  0.00     0.047 C 
HETATM   20  C19 UNL     1      -2.567   8.345  13.440  1.00  0.00     0.128 C 
ENDROOT
BRANCH  20  21
HETATM   21  O3  UNL     1      -3.752   8.762  12.764  1.00  0.00    -0.381 OA
HETATM   22  H27 UNL     1      -3.458   9.291  11.987  1.00  0.00     0.211 HD
ENDBRANCH  20  21
BRANCH  20  23
HETATM   23  C20 UNL     1      -1.631   9.546  13.757  1.00  0.00     0.185 C 
HETATM   24  O4  UNL     1      -0.443   9.541  13.409  1.00  0.00    -0.292 OA
BRANCH  23  25
HETATM   25  C21 UNL     1      -2.145  10.704  14.623  1.00  0.00     0.260 C 
BRANCH  25  26
HETATM   26  O5  UNL     1      -1.335  11.319  15.611  1.00  0.00    -0.314 OA
BRANCH  26  27
HETATM   27  C22 UNL     1      -1.002  10.525  16.659  1.00  0.00     0.259 C 
HETATM   28  O6  UNL     1       0.001   9.818  16.696  1.00  0.00    -0.265 OA
BRANCH  27  29
HETATM   29  C23 UNL     1      -1.933  10.707  17.835  1.00  0.00     0.120 C 
BRANCH  29  30
HETATM   30  C24 UNL     1      -3.346  11.151  17.480  1.00  0.00     0.112 C 
BRANCH  30  31
HETATM   31  C25 UNL     1      -3.681  12.531  18.011  1.00  0.00     0.218 C 
HETATM   32  O7  UNL     1      -3.476  13.566  17.388  1.00  0.00    -0.274 OA
HETATM   33  N1  UNL     1      -4.212  12.505  19.280  1.00  0.00    -0.357 N 
HETATM   34  H34 UNL     1      -4.535  11.622  19.655  1.00  0.00     0.162 HD
BRANCH  33  35
HETATM   35  C26 UNL     1      -4.643  13.719  19.937  1.00  0.00     0.162 C 
BRANCH  35  36
HETATM   36  C27 UNL     1      -5.886  13.497  20.746  1.00  0.00    -0.025 A 
HETATM   37  C28 UNL     1      -5.837  13.249  22.121  1.00  0.00     0.011 A 
HETATM   38  C29 UNL     1      -7.020  13.047  22.828  1.00  0.00     0.018 A 
HETATM   39  C30 UNL     1      -8.216  13.093  22.131  1.00  0.00     0.087 A 
HETATM   40  N2  UNL     1      -8.303  13.317  20.804  1.00  0.00    -0.375 N 
HETATM   41  C31 UNL     1      -7.140  13.509  20.140  1.00  0.00     0.096 A 
ATOM     42  H2  UNL     1      -9.203  13.340  20.324  1.00  0.00     0.164 HD
ENDBRANCH  35  36
ENDBRANCH  33  35
ENDBRANCH  30  31
ENDBRANCH  29  30
ENDBRANCH  27  29
ENDBRANCH  26  27
ENDBRANCH  25  26
ENDBRANCH  23  25
ENDBRANCH  20  23
BRANCH  13  43
HETATM   43  O2  UNL     1      -5.796   8.822  14.295  1.00  0.00    -0.395 OA
HETATM   44  H16 UNL     1      -5.146   8.738  13.565  1.00  0.00     0.210 HD
ENDBRANCH  13  43
TORSDOF 11
ENDMDL
MODEL 8
REMARK minimizedAffinity -8.56690693
REMARK CNNscore 0.299499959
REMARK CNNaffinity 5.59032059
REMARK  11 active torsions:
REMARK  status: ('A' for Active; 'I' for Inactive)
REMARK    1  A    between atoms: C12_13  and  O2_14 
REMARK    2  A    between atoms: C19_21  and  O3_22 
REMARK    3  A    between atoms: C19_21  and  C20_23 
REMARK    4  A    between atoms: C20_23  and  C21_25 
REMARK    5  A    between atoms: C21_25  and  O5_26 
REMARK    6  A    between atoms: O5_26  and  C22_27 
REMARK    7  A    between atoms: C22_27  and  C23_29 
REMARK    8  A    between atoms: C23_29  and  C24_30 
REMARK    9  A    between atoms: C24_30  and  C25_31 
REMARK       I    between atoms: C25_31  and  N1_33 
REMARK   10  A    between atoms: N1_33  and  C26_34 
REMARK   11  A    between atoms: C26_34  and  C27_35 
ROOT
HETATM    1  C1  UNL     1       3.764   8.430   9.243  1.00  0.00     0.020 C 
HETATM    2  C2  UNL     1       3.861   7.970  10.727  1.00  0.00    -0.014 C 
HETATM    3  C3  UNL     1       4.910   8.887  11.427  1.00  0.00     0.022 C 
HETATM    4  C4  UNL     1       6.349   8.624  10.996  1.00  0.00     0.084 C 
HETATM    5  C5  UNL     1       6.685   7.180  11.256  1.00  0.00     0.149 C 
HETATM    6  O1  UNL     1       7.804   6.812  11.603  1.00  0.00    -0.293 OA
HETATM    7  C6  UNL     1       5.631   6.171  10.998  1.00  0.00     0.053 C 
HETATM    8  C7  UNL     1       4.365   6.522  10.704  1.00  0.00    -0.068 C 
HETATM    9  C8  UNL     1       3.398   5.433  10.305  1.00  0.00     0.035 C 
HETATM   10  C9  UNL     1       1.929   5.796  10.493  1.00  0.00     0.010 C 
HETATM   11  C10 UNL     1       1.731   6.740  11.685  1.00  0.00    -0.002 C 
HETATM   12  C11 UNL     1       2.402   8.102  11.367  1.00  0.00     0.031 C 
HETATM   13  C12 UNL     1       2.247   9.040  12.582  1.00  0.00     0.124 C 
HETATM   14  C13 UNL     1       0.770   9.267  12.920  1.00  0.00     0.045 C 
HETATM   15  C14 UNL     1      -0.138   8.016  13.051  1.00  0.00     0.001 C 
HETATM   16  C15 UNL     1      -1.593   8.501  12.779  1.00  0.00     0.019 C 
HETATM   17  C16 UNL     1       0.219   6.912  12.007  1.00  0.00     0.002 C 
HETATM   18  C17 UNL     1      -0.375   5.613  12.597  1.00  0.00     0.009 C 
HETATM   19  C18 UNL     1      -0.723   5.886  14.060  1.00  0.00     0.047 C 
HETATM   20  C19 UNL     1      -0.073   7.242  14.411  1.00  0.00     0.128 C 
ENDROOT
BRANCH  20  21
HETATM   21  O3  UNL     1       1.279   6.945  14.756  1.00  0.00    -0.381 OA
HETATM   22  H27 UNL     1       1.245   6.432  15.597  1.00  0.00     0.211 HD
ENDBRANCH  20  21
BRANCH  20  23
HETATM   23  C20 UNL     1      -0.832   7.922  15.586  1.00  0.00     0.185 C 
HETATM   24  O4  UNL     1      -1.858   7.418  16.063  1.00  0.00    -0.292 OA
BRANCH  23  25
HETATM   25  C21 UNL     1      -0.383   9.302  16.086  1.00  0.00     0.260 C 
BRANCH  25  26
HETATM   26  O5  UNL     1       0.328   9.464  17.302  1.00  0.00    -0.314 OA
BRANCH  26  27
HETATM   27  C22 UNL     1       0.274  10.709  17.839  1.00  0.00     0.259 C 
HETATM   28  O6  UNL     1       0.324  11.745  17.182  1.00  0.00    -0.265 OA
BRANCH  27  29
HETATM   29  C23 UNL     1       0.011  10.682  19.327  1.00  0.00     0.120 C 
BRANCH  29  30
HETATM   30  C24 UNL     1       0.921  11.574  20.161  1.00  0.00     0.112 C 
BRANCH  30  31
HETATM   31  C25 UNL     1       2.158  10.854  20.659  1.00  0.00     0.218 C 
HETATM   32  O7  UNL     1       2.652   9.884  20.095  1.00  0.00    -0.274 OA
HETATM   33  N1  UNL     1       2.654  11.381  21.829  1.00  0.00    -0.357 N 
HETATM   34  H34 UNL     1       2.325  12.288  22.133  1.00  0.00     0.162 HD
BRANCH  33  35
HETATM   35  C26 UNL     1       3.860  10.860  22.434  1.00  0.00     0.162 C 
BRANCH  35  36
HETATM   36  C27 UNL     1       4.872  11.942  22.666  1.00  0.00    -0.025 A 
HETATM   37  C28 UNL     1       6.210  11.652  22.948  1.00  0.00     0.011 A 
HETATM   38  C29 UNL     1       7.112  12.692  23.158  1.00  0.00     0.018 A 
HETATM   39  C30 UNL     1       6.641  13.993  23.086  1.00  0.00     0.087 A 
HETATM   40  N2  UNL     1       5.356  14.312  22.829  1.00  0.00    -0.375 N 
HETATM   41  C31 UNL     1       4.499  13.284  22.629  1.00  0.00     0.096 A 
ATOM     42  H2  UNL     1       5.044  15.282  22.787  1.00  0.00     0.164 HD
ENDBRANCH  35  36
ENDBRANCH  33  35
ENDBRANCH  30  31
ENDBRANCH  29  30
ENDBRANCH  27  29
ENDBRANCH  26  27
ENDBRANCH  25  26
ENDBRANCH  23  25
ENDBRANCH  20  23
BRANCH  13  43
HETATM   43  O2  UNL     1       2.947   8.586  13.732  1.00  0.00    -0.395 OA
HETATM   44  H16 UNL     1       2.454   7.818  14.092  1.00  0.00     0.210 HD
ENDBRANCH  13  43
TORSDOF 11
ENDMDL
MODEL 9
REMARK minimizedAffinity -7.54081059
REMARK CNNscore 0.296501398
REMARK CNNaffinity 6.94287729
REMARK  11 active torsions:
REMARK  status: ('A' for Active; 'I' for Inactive)
REMARK    1  A    between atoms: C12_13  and  O2_14 
REMARK    2  A    between atoms: C19_21  and  O3_22 
REMARK    3  A    between atoms: C19_21  and  C20_23 
REMARK    4  A    between atoms: C20_23  and  C21_25 
REMARK    5  A    between atoms: C21_25  and  O5_26 
REMARK    6  A    between atoms: O5_26  and  C22_27 
REMARK    7  A    between atoms: C22_27  and  C23_29 
REMARK    8  A    between atoms: C23_29  and  C24_30 
REMARK    9  A    between atoms: C24_30  and  C25_31 
REMARK       I    between atoms: C25_31  and  N1_33 
REMARK   10  A    between atoms: N1_33  and  C26_34 
REMARK   11  A    between atoms: C26_34  and  C27_35 
ROOT
HETATM    1  C1  UNL     1      -7.428   5.583  16.230  1.00  0.00     0.020 C 
HETATM    2  C2  UNL     1      -7.815   6.093  14.811  1.00  0.00    -0.014 C 
HETATM    3  C3  UNL     1      -7.873   4.850  13.873  1.00  0.00     0.022 C 
HETATM    4  C4  UNL     1      -6.507   4.252  13.551  1.00  0.00     0.084 C 
HETATM    5  C5  UNL     1      -5.638   5.314  12.932  1.00  0.00     0.149 C 
HETATM    6  O1  UNL     1      -4.812   5.067  12.058  1.00  0.00    -0.293 OA
HETATM    7  C6  UNL     1      -5.744   6.690  13.471  1.00  0.00     0.053 C 
HETATM    8  C7  UNL     1      -6.692   7.035  14.363  1.00  0.00    -0.068 C 
HETATM    9  C8  UNL     1      -6.628   8.416  14.972  1.00  0.00     0.035 C 
HETATM   10  C9  UNL     1      -7.952   8.917  15.537  1.00  0.00     0.010 C 
HETATM   11  C10 UNL     1      -9.145   8.373  14.740  1.00  0.00    -0.002 C 
HETATM   12  C11 UNL     1      -9.226   6.836  14.938  1.00  0.00     0.031 C 
HETATM   13  C12 UNL     1     -10.395   6.277  14.100  1.00  0.00     0.124 C 
HETATM   14  C13 UNL     1     -11.725   6.915  14.513  1.00  0.00     0.045 C 
HETATM   15  C14 UNL     1     -11.783   8.462  14.606  1.00  0.00     0.001 C 
HETATM   16  C15 UNL     1     -12.946   8.799  15.586  1.00  0.00     0.019 C 
HETATM   17  C16 UNL     1     -10.464   9.073  15.174  1.00  0.00     0.002 C 
HETATM   18  C17 UNL     1     -10.488  10.548  14.714  1.00  0.00     0.009 C 
HETATM   19  C18 UNL     1     -11.566  10.678  13.638  1.00  0.00     0.047 C 
HETATM   20  C19 UNL     1     -11.973   9.238  13.259  1.00  0.00     0.128 C 
ENDROOT
BRANCH  20  21
HETATM   21  O3  UNL     1     -11.016   8.808  12.292  1.00  0.00    -0.381 OA
HETATM   22  H27 UNL     1     -11.167   9.356  11.488  1.00  0.00     0.211 HD
ENDBRANCH  20  21
BRANCH  20  23
HETATM   23  C20 UNL     1     -13.420   9.213  12.689  1.00  0.00     0.185 C 
HETATM   24  O4  UNL     1     -13.789  10.038  11.843  1.00  0.00    -0.292 OA
BRANCH  23  25
HETATM   25  C21 UNL     1     -14.449   8.234  13.269  1.00  0.00     0.260 C 
BRANCH  25  26
HETATM   26  O5  UNL     1     -14.797   7.030  12.605  1.00  0.00    -0.314 OA
BRANCH  26  27
HETATM   27  C22 UNL     1     -16.129   6.812  12.467  1.00  0.00     0.259 C 
HETATM   28  O6  UNL     1     -16.869   7.494  11.765  1.00  0.00    -0.265 OA
BRANCH  27  29
HETATM   29  C23 UNL     1     -16.581   5.553  13.171  1.00  0.00     0.120 C 
BRANCH  29  30
HETATM   30  C24 UNL     1     -16.169   5.446  14.634  1.00  0.00     0.112 C 
BRANCH  30  31
HETATM   31  C25 UNL     1     -16.256   4.031  15.169  1.00  0.00     0.218 C 
HETATM   32  O7  UNL     1     -17.097   3.663  15.980  1.00  0.00    -0.274 OA
HETATM   33  N1  UNL     1     -15.273   3.206  14.673  1.00  0.00    -0.357 N 
HETATM   34  H34 UNL     1     -14.739   3.512  13.869  1.00  0.00     0.162 HD
BRANCH  33  35
HETATM   35  C26 UNL     1     -15.220   1.805  15.027  1.00  0.00     0.162 C 
BRANCH  35  36
HETATM   36  C27 UNL     1     -15.809   0.942  13.951  1.00  0.00    -0.025 A 
HETATM   37  C28 UNL     1     -16.573   1.477  12.911  1.00  0.00     0.011 A 
HETATM   38  C29 UNL     1     -17.100   0.633  11.937  1.00  0.00     0.018 A 
HETATM   39  C30 UNL     1     -16.848  -0.725  12.040  1.00  0.00     0.087 A 
HETATM   40  N2  UNL     1     -16.126  -1.281  13.034  1.00  0.00    -0.375 N 
HETATM   41  C31 UNL     1     -15.626  -0.440  13.969  1.00  0.00     0.096 A 
ATOM     42  H2  UNL     1     -15.965  -2.286  13.080  1.00  0.00     0.164 HD
ENDBRANCH  35  36
ENDBRANCH  33  35
ENDBRANCH  30  31
ENDBRANCH  29  30
ENDBRANCH  27  29
ENDBRANCH  26  27
ENDBRANCH  25  26
ENDBRANCH  23  25
ENDBRANCH  20  23
BRANCH  13  43
HETATM   43  O2  UNL     1     -10.198   6.422  12.700  1.00  0.00    -0.395 OA
HETATM   44  H16 UNL     1     -10.320   7.371  12.482  1.00  0.00     0.210 HD
ENDBRANCH  13  43
TORSDOF 11
ENDMDL
