MODEL 1
REMARK minimizedAffinity -8.03484821
REMARK CNNscore 0.892815351
REMARK CNNaffinity 6.80651712
REMARK  9 active torsions:
REMARK  status: ('A' for Active; 'I' for Inactive)
REMARK    1  A    between atoms: C2_2  and  C32_37 
REMARK    2  A    between atoms: C3_3  and  C4_4 
REMARK    3  A    between atoms: C4_4  and  O1_5 
REMARK    4  A    between atoms: C4_4  and  C5_6 
REMARK    5  A    between atoms: C5_6  and  C6_7 
REMARK    6  A    between atoms: C6_7  and  C8_9 
REMARK    7  A    between atoms: C10_11  and  O2_12 
REMARK    8  A    between atoms: C31_35  and  O5_36 
REMARK    9  A    between atoms: C32_37  and  O7_39 
ROOT
HETATM    1  C8  UNL     1       4.241  56.800  -7.288  1.00  0.00     0.001 C 
HETATM    2  C9  UNL     1       5.313  55.824  -7.849  1.00  0.00     0.038 C 
HETATM    3  C10 UNL     1       4.581  54.769  -8.697  1.00  0.00     0.132 C 
HETATM    4  C11 UNL     1       3.155  55.349  -8.922  1.00  0.00     0.017 C 
HETATM    5  C12 UNL     1       3.203  56.363 -10.109  1.00  0.00     0.023 C 
HETATM    6  C13 UNL     1       1.980  54.405  -9.239  1.00  0.00    -0.029 C 
HETATM    7  C14 UNL     1       0.706  54.738  -8.895  1.00  0.00     0.002 C 
HETATM    8  C15 UNL     1       0.478  56.070  -8.182  1.00  0.00     0.157 C 
HETATM    9  O3  UNL     1      -0.654  56.539  -8.064  1.00  0.00    -0.293 OA
HETATM   10  C16 UNL     1       1.646  56.843  -7.590  1.00  0.00     0.094 C 
HETATM   11  C17 UNL     1       2.916  56.002  -7.506  1.00  0.00    -0.019 C 
HETATM   12  C18 UNL     1       2.750  54.954  -6.358  1.00  0.00     0.017 C 
HETATM   13  C19 UNL     1      -0.532  53.822  -9.092  1.00  0.00    -0.007 C 
HETATM   14  C20 UNL     1      -1.126  53.560  -7.672  1.00  0.00     0.021 C 
HETATM   15  C21 UNL     1      -1.596  54.496  -9.998  1.00  0.00     0.022 C 
HETATM   16  C22 UNL     1      -2.898  53.716 -10.105  1.00  0.00     0.080 C 
HETATM   17  C23 UNL     1      -2.708  52.223 -10.021  1.00  0.00     0.136 C 
HETATM   18  O4  UNL     1      -3.658  51.502  -9.709  1.00  0.00    -0.297 OA
HETATM   19  C24 UNL     1      -1.351  51.647 -10.431  1.00  0.00     0.025 C 
HETATM   20  C25 UNL     1      -1.307  50.160 -10.001  1.00  0.00     0.024 C 
HETATM   21  C26 UNL     1      -1.327  51.690 -11.994  1.00  0.00     0.044 C 
HETATM   22  C27 UNL     1      -0.353  52.652 -12.602  1.00  0.00    -0.029 C 
HETATM   23  C28 UNL     1       0.760  53.019 -11.960  1.00  0.00    -0.023 C 
HETATM   24  C29 UNL     1       1.079  52.432 -10.608  1.00  0.00     0.047 C 
HETATM   25  C30 UNL     1      -0.167  52.401  -9.700  1.00  0.00     0.024 C 
HETATM   26  C31 UNL     1       2.280  53.081  -9.896  1.00  0.00     0.156 C 
ENDROOT
BRANCH   1  27
HETATM   27  C6  UNL     1       4.620  57.322  -5.865  1.00  0.00    -0.011 C 
HETATM   28  C7  UNL     1       3.659  58.414  -5.381  1.00  0.00     0.010 C 
BRANCH  27  29
HETATM   29  C5  UNL     1       6.078  57.885  -5.861  1.00  0.00     0.040 C 
BRANCH  29  30
HETATM   30  C4  UNL     1       6.938  57.493  -4.640  1.00  0.00     0.142 C 
BRANCH  30  31
HETATM   31  C3  UNL     1       8.338  58.036  -4.688  1.00  0.00     0.018 C 
HETATM   32  C2  UNL     1       9.504  57.442  -5.022  1.00  0.00     0.010 C 
HETATM   33  C1  UNL     1       9.678  56.047  -5.541  1.00  0.00     0.055 C 
BRANCH  32  34
HETATM   34  C32 UNL     1      10.718  58.287  -4.891  1.00  0.00     0.171 C 
HETATM   35  O6  UNL     1      11.819  57.929  -4.506  1.00  0.00    -0.646 OA
BRANCH  34  36
HETATM   36  O7  UNL     1      10.509  59.556  -5.280  1.00  0.00    -0.773 OA
HETATM   37  H44 UNL     1      11.384  59.979  -5.154  1.00  0.00     0.167 HD
ENDBRANCH  34  36
ENDBRANCH  32  34
ENDBRANCH  30  31
BRANCH  30  38
HETATM   38  O1  UNL     1       6.260  57.891  -3.458  1.00  0.00    -0.392 OA
HETATM   39  H6  UNL     1       5.408  57.424  -3.444  1.00  0.00     0.210 HD
ENDBRANCH  30  38
ENDBRANCH  29  30
ENDBRANCH  27  29
ENDBRANCH   1  27
BRANCH   3  40
HETATM   40  O2  UNL     1       5.329  54.552  -9.883  1.00  0.00    -0.394 OA
HETATM   41  H17 UNL     1       4.722  54.074 -10.489  1.00  0.00     0.210 HD
ENDBRANCH   3  40
BRANCH  26  42
HETATM   42  O5  UNL     1       3.359  53.204 -10.825  1.00  0.00    -0.390 OA
HETATM   43  H43 UNL     1       3.423  52.356 -11.302  1.00  0.00     0.210 HD
ENDBRANCH  26  42
TORSDOF 9
ENDMDL
MODEL 2
REMARK minimizedAffinity -8.39936352
REMARK CNNscore 0.885396302
REMARK CNNaffinity 6.93856096
REMARK  9 active torsions:
REMARK  status: ('A' for Active; 'I' for Inactive)
REMARK    1  A    between atoms: C2_2  and  C32_37 
REMARK    2  A    between atoms: C3_3  and  C4_4 
REMARK    3  A    between atoms: C4_4  and  O1_5 
REMARK    4  A    between atoms: C4_4  and  C5_6 
REMARK    5  A    between atoms: C5_6  and  C6_7 
REMARK    6  A    between atoms: C6_7  and  C8_9 
REMARK    7  A    between atoms: C10_11  and  O2_12 
REMARK    8  A    between atoms: C31_35  and  O5_36 
REMARK    9  A    between atoms: C32_37  and  O7_39 
ROOT
HETATM    1  C8  UNL     1     -13.284  46.009 -26.260  1.00  0.00     0.001 C 
HETATM    2  C9  UNL     1     -12.550  47.164 -25.523  1.00  0.00     0.038 C 
HETATM    3  C10 UNL     1     -11.351  47.581 -26.393  1.00  0.00     0.132 C 
HETATM    4  C11 UNL     1     -11.612  46.928 -27.781  1.00  0.00     0.017 C 
HETATM    5  C12 UNL     1     -12.595  47.833 -28.588  1.00  0.00     0.023 C 
HETATM    6  C13 UNL     1     -10.436  46.649 -28.736  1.00  0.00    -0.029 C 
HETATM    7  C14 UNL     1     -10.496  45.633 -29.639  1.00  0.00     0.002 C 
HETATM    8  C15 UNL     1     -11.760  44.776 -29.673  1.00  0.00     0.157 C 
HETATM    9  O3  UNL     1     -11.980  44.010 -30.611  1.00  0.00    -0.293 OA
HETATM   10  C16 UNL     1     -12.772  44.839 -28.540  1.00  0.00     0.094 C 
HETATM   11  C17 UNL     1     -12.221  45.551 -27.308  1.00  0.00    -0.019 C 
HETATM   12  C18 UNL     1     -11.178  44.618 -26.612  1.00  0.00     0.017 C 
HETATM   13  C19 UNL     1      -9.336  45.218 -30.583  1.00  0.00    -0.007 C 
HETATM   14  C20 UNL     1      -8.975  43.742 -30.227  1.00  0.00     0.021 C 
HETATM   15  C21 UNL     1      -9.755  45.320 -32.073  1.00  0.00     0.022 C 
HETATM   16  C22 UNL     1      -8.716  44.780 -33.044  1.00  0.00     0.080 C 
HETATM   17  C23 UNL     1      -7.298  44.972 -32.568  1.00  0.00     0.136 C 
HETATM   18  O4  UNL     1      -6.397  44.270 -33.032  1.00  0.00    -0.297 OA
HETATM   19  C24 UNL     1      -7.017  46.114 -31.590  1.00  0.00     0.025 C 
HETATM   20  C25 UNL     1      -5.580  45.938 -31.041  1.00  0.00     0.024 C 
HETATM   21  C26 UNL     1      -7.041  47.422 -32.447  1.00  0.00     0.044 C 
HETATM   22  C27 UNL     1      -8.178  48.357 -32.173  1.00  0.00    -0.029 C 
HETATM   23  C28 UNL     1      -8.783  48.392 -30.982  1.00  0.00    -0.023 C 
HETATM   24  C29 UNL     1      -8.296  47.504 -29.863  1.00  0.00     0.047 C 
HETATM   25  C30 UNL     1      -8.016  46.073 -30.363  1.00  0.00     0.024 C 
HETATM   26  C31 UNL     1      -9.196  47.500 -28.613  1.00  0.00     0.156 C 
ENDROOT
BRANCH   1  27
HETATM   27  C6  UNL     1     -13.896  44.979 -25.258  1.00  0.00    -0.011 C 
HETATM   28  C7  UNL     1     -14.739  43.915 -25.974  1.00  0.00     0.010 C 
BRANCH  27  29
HETATM   29  C5  UNL     1     -14.784  45.707 -24.199  1.00  0.00     0.040 C 
BRANCH  29  30
HETATM   30  C4  UNL     1     -15.653  46.863 -24.742  1.00  0.00     0.142 C 
BRANCH  30  31
HETATM   31  C3  UNL     1     -17.122  46.553 -24.769  1.00  0.00     0.018 C 
HETATM   32  C2  UNL     1     -17.982  46.270 -23.767  1.00  0.00     0.010 C 
HETATM   33  C1  UNL     1     -17.681  46.289 -22.300  1.00  0.00     0.055 C 
BRANCH  32  34
HETATM   34  C32 UNL     1     -19.373  45.950 -24.183  1.00  0.00     0.171 C 
HETATM   35  O6  UNL     1     -20.088  45.075 -23.724  1.00  0.00    -0.646 OA
BRANCH  34  36
HETATM   36  O7  UNL     1     -19.825  46.767 -25.149  1.00  0.00    -0.773 OA
HETATM   37  H44 UNL     1     -20.739  46.451 -25.304  1.00  0.00     0.167 HD
ENDBRANCH  34  36
ENDBRANCH  32  34
ENDBRANCH  30  31
BRANCH  30  38
HETATM   38  O1  UNL     1     -15.376  48.034 -23.989  1.00  0.00    -0.392 OA
HETATM   39  H6  UNL     1     -14.431  48.231 -24.099  1.00  0.00     0.210 HD
ENDBRANCH  30  38
ENDBRANCH  29  30
ENDBRANCH  27  29
ENDBRANCH   1  27
BRANCH   3  40
HETATM   40  O2  UNL     1     -11.279  48.998 -26.405  1.00  0.00    -0.394 OA
HETATM   41  H17 UNL     1     -10.675  49.221 -27.147  1.00  0.00     0.210 HD
ENDBRANCH   3  40
BRANCH  26  42
HETATM   42  O5  UNL     1      -9.530  48.848 -28.278  1.00  0.00    -0.390 OA
HETATM   43  H43 UNL     1      -8.709  49.369 -28.334  1.00  0.00     0.210 HD
ENDBRANCH  26  42
TORSDOF 9
ENDMDL
MODEL 3
REMARK minimizedAffinity -8.75971794
REMARK CNNscore 0.663335383
REMARK CNNaffinity 6.7542243
REMARK  9 active torsions:
REMARK  status: ('A' for Active; 'I' for Inactive)
REMARK    1  A    between atoms: C2_2  and  C32_37 
REMARK    2  A    between atoms: C3_3  and  C4_4 
REMARK    3  A    between atoms: C4_4  and  O1_5 
REMARK    4  A    between atoms: C4_4  and  C5_6 
REMARK    5  A    between atoms: C5_6  and  C6_7 
REMARK    6  A    between atoms: C6_7  and  C8_9 
REMARK    7  A    between atoms: C10_11  and  O2_12 
REMARK    8  A    between atoms: C31_35  and  O5_36 
REMARK    9  A    between atoms: C32_37  and  O7_39 
ROOT
HETATM    1  C8  UNL     1      -3.785  48.991 -24.363  1.00  0.00     0.001 C 
HETATM    2  C9  UNL     1      -3.041  50.031 -23.478  1.00  0.00     0.038 C 
HETATM    3  C10 UNL     1      -3.620  49.929 -22.056  1.00  0.00     0.132 C 
HETATM    4  C11 UNL     1      -4.420  48.594 -22.040  1.00  0.00     0.017 C 
HETATM    5  C12 UNL     1      -3.428  47.414 -21.792  1.00  0.00     0.023 C 
HETATM    6  C13 UNL     1      -5.560  48.391 -21.025  1.00  0.00    -0.029 C 
HETATM    7  C14 UNL     1      -6.605  47.565 -21.305  1.00  0.00     0.002 C 
HETATM    8  C15 UNL     1      -6.616  46.854 -22.657  1.00  0.00     0.157 C 
HETATM    9  O3  UNL     1      -7.389  45.921 -22.875  1.00  0.00    -0.293 OA
HETATM   10  C16 UNL     1      -5.679  47.290 -23.772  1.00  0.00     0.094 C 
HETATM   11  C17 UNL     1      -5.035  48.645 -23.492  1.00  0.00    -0.019 C 
HETATM   12  C18 UNL     1      -6.114  49.761 -23.671  1.00  0.00     0.017 C 
HETATM   13  C19 UNL     1      -7.841  47.360 -20.389  1.00  0.00    -0.007 C 
HETATM   14  C20 UNL     1      -9.088  47.816 -21.209  1.00  0.00     0.021 C 
HETATM   15  C21 UNL     1      -7.993  45.874 -19.970  1.00  0.00     0.022 C 
HETATM   16  C22 UNL     1      -9.271  45.578 -19.199  1.00  0.00     0.080 C 
HETATM   17  C23 UNL     1      -9.731  46.731 -18.343  1.00  0.00     0.136 C 
HETATM   18  O4  UNL     1     -10.908  46.792 -17.979  1.00  0.00    -0.297 OA
HETATM   19  C24 UNL     1      -8.682  47.738 -17.870  1.00  0.00     0.025 C 
HETATM   20  C25 UNL     1      -9.420  48.955 -17.258  1.00  0.00     0.024 C 
HETATM   21  C26 UNL     1      -7.901  47.028 -16.716  1.00  0.00     0.044 C 
HETATM   22  C27 UNL     1      -6.472  46.688 -17.012  1.00  0.00    -0.029 C 
HETATM   23  C28 UNL     1      -5.757  47.387 -17.899  1.00  0.00    -0.023 C 
HETATM   24  C29 UNL     1      -6.374  48.572 -18.599  1.00  0.00     0.047 C 
HETATM   25  C30 UNL     1      -7.805  48.259 -19.081  1.00  0.00     0.024 C 
HETATM   26  C31 UNL     1      -5.514  49.165 -19.731  1.00  0.00     0.156 C 
ENDROOT
BRANCH   1  27
HETATM   27  C6  UNL     1      -3.964  49.499 -25.829  1.00  0.00    -0.011 C 
HETATM   28  C7  UNL     1      -4.297  48.355 -26.794  1.00  0.00     0.010 C 
BRANCH  27  29
HETATM   29  C5  UNL     1      -2.667  50.220 -26.319  1.00  0.00     0.040 C 
BRANCH  29  30
HETATM   30  C4  UNL     1      -2.887  51.379 -27.316  1.00  0.00     0.142 C 
BRANCH  30  31
HETATM   31  C3  UNL     1      -1.971  52.548 -27.095  1.00  0.00     0.018 C 
HETATM   32  C2  UNL     1      -0.652  52.695 -27.346  1.00  0.00     0.010 C 
HETATM   33  C1  UNL     1       0.243  51.705 -28.027  1.00  0.00     0.055 C 
BRANCH  32  34
HETATM   34  C32 UNL     1      -0.058  53.992 -26.932  1.00  0.00     0.171 C 
HETATM   35  O6  UNL     1      -0.246  55.079 -27.452  1.00  0.00    -0.646 OA
BRANCH  34  36
HETATM   36  O7  UNL     1       0.736  53.877 -25.854  1.00  0.00    -0.773 OA
HETATM   37  H44 UNL     1       1.036  54.796 -25.695  1.00  0.00     0.167 HD
ENDBRANCH  34  36
ENDBRANCH  32  34
ENDBRANCH  30  31
BRANCH  30  38
HETATM   38  O1  UNL     1      -2.781  50.870 -28.637  1.00  0.00    -0.392 OA
HETATM   39  H6  UNL     1      -3.468  50.191 -28.740  1.00  0.00     0.210 HD
ENDBRANCH  30  38
ENDBRANCH  29  30
ENDBRANCH  27  29
ENDBRANCH   1  27
BRANCH   3  40
HETATM   40  O2  UNL     1      -2.545  49.990 -21.131  1.00  0.00    -0.394 OA
HETATM   41  H17 UNL     1      -2.919  49.681 -20.278  1.00  0.00     0.210 HD
ENDBRANCH   3  40
BRANCH  26  42
HETATM   42  O5  UNL     1      -4.171  49.308 -19.266  1.00  0.00    -0.390 OA
HETATM   43  H43 UNL     1      -4.216  49.703 -18.376  1.00  0.00     0.210 HD
ENDBRANCH  26  42
TORSDOF 9
ENDMDL
MODEL 4
REMARK minimizedAffinity -9.98303699
REMARK CNNscore 0.485996574
REMARK CNNaffinity 6.98513651
REMARK  9 active torsions:
REMARK  status: ('A' for Active; 'I' for Inactive)
REMARK    1  A    between atoms: C2_2  and  C32_37 
REMARK    2  A    between atoms: C3_3  and  C4_4 
REMARK    3  A    between atoms: C4_4  and  O1_5 
REMARK    4  A    between atoms: C4_4  and  C5_6 
REMARK    5  A    between atoms: C5_6  and  C6_7 
REMARK    6  A    between atoms: C6_7  and  C8_9 
REMARK    7  A    between atoms: C10_11  and  O2_12 
REMARK    8  A    between atoms: C31_35  and  O5_36 
REMARK    9  A    between atoms: C32_37  and  O7_39 
ROOT
HETATM    1  C8  UNL     1      -1.091  51.288 -17.583  1.00  0.00     0.001 C 
HETATM    2  C9  UNL     1       0.433  51.593 -17.523  1.00  0.00     0.038 C 
HETATM    3  C10 UNL     1       0.893  51.935 -18.952  1.00  0.00     0.132 C 
HETATM    4  C11 UNL     1      -0.419  52.186 -19.750  1.00  0.00     0.017 C 
HETATM    5  C12 UNL     1      -0.899  53.648 -19.485  1.00  0.00     0.023 C 
HETATM    6  C13 UNL     1      -0.432  52.023 -21.281  1.00  0.00    -0.029 C 
HETATM    7  C14 UNL     1      -1.574  51.676 -21.936  1.00  0.00     0.002 C 
HETATM    8  C15 UNL     1      -2.837  51.448 -21.107  1.00  0.00     0.157 C 
HETATM    9  O3  UNL     1      -3.941  51.373 -21.644  1.00  0.00    -0.293 OA
HETATM   10  C16 UNL     1      -2.756  51.294 -19.596  1.00  0.00     0.094 C 
HETATM   11  C17 UNL     1      -1.328  51.067 -19.110  1.00  0.00    -0.019 C 
HETATM   12  C18 UNL     1      -0.891  49.616 -19.496  1.00  0.00     0.017 C 
HETATM   13  C19 UNL     1      -1.672  51.403 -23.461  1.00  0.00    -0.007 C 
HETATM   14  C20 UNL     1      -2.142  49.924 -23.623  1.00  0.00     0.021 C 
HETATM   15  C21 UNL     1      -2.683  52.362 -24.143  1.00  0.00     0.022 C 
HETATM   16  C22 UNL     1      -2.941  52.046 -25.609  1.00  0.00     0.080 C 
HETATM   17  C23 UNL     1      -1.738  51.471 -26.315  1.00  0.00     0.136 C 
HETATM   18  O4  UNL     1      -1.890  50.825 -27.353  1.00  0.00    -0.297 OA
HETATM   19  C24 UNL     1      -0.352  51.806 -25.761  1.00  0.00     0.025 C 
HETATM   20  C25 UNL     1       0.683  50.895 -26.467  1.00  0.00     0.024 C 
HETATM   21  C26 UNL     1      -0.064  53.279 -26.199  1.00  0.00     0.044 C 
HETATM   22  C27 UNL     1      -0.016  54.288 -25.093  1.00  0.00    -0.029 C 
HETATM   23  C28 UNL     1       0.316  53.941 -23.845  1.00  0.00    -0.023 C 
HETATM   24  C29 UNL     1       0.692  52.514 -23.534  1.00  0.00     0.047 C 
HETATM   25  C30 UNL     1      -0.274  51.518 -24.207  1.00  0.00     0.024 C 
HETATM   26  C31 UNL     1       0.862  52.210 -22.034  1.00  0.00     0.156 C 
ENDROOT
BRANCH   1  27
HETATM   27  C6  UNL     1      -1.502  50.187 -16.555  1.00  0.00    -0.011 C 
HETATM   28  C7  UNL     1      -2.383  50.751 -15.433  1.00  0.00     0.010 C 
BRANCH  27  29
HETATM   29  C5  UNL     1      -0.234  49.526 -15.925  1.00  0.00     0.040 C 
BRANCH  29  30
HETATM   30  C4  UNL     1       0.098  49.967 -14.482  1.00  0.00     0.142 C 
BRANCH  30  31
HETATM   31  C3  UNL     1       1.430  49.476 -13.992  1.00  0.00     0.018 C 
HETATM   32  C2  UNL     1       2.555  50.150 -13.669  1.00  0.00     0.010 C 
HETATM   33  C1  UNL     1       2.723  51.638 -13.632  1.00  0.00     0.055 C 
BRANCH  32  34
HETATM   34  C32 UNL     1       3.718  49.314 -13.275  1.00  0.00     0.171 C 
HETATM   35  O6  UNL     1       4.897  49.593 -13.411  1.00  0.00    -0.646 OA
BRANCH  34  36
HETATM   36  O7  UNL     1       3.351  48.159 -12.694  1.00  0.00    -0.773 OA
HETATM   37  H44 UNL     1       4.206  47.731 -12.481  1.00  0.00     0.167 HD
ENDBRANCH  34  36
ENDBRANCH  32  34
ENDBRANCH  30  31
BRANCH  30  38
HETATM   38  O1  UNL     1      -0.003  51.380 -14.403  1.00  0.00    -0.392 OA
HETATM   39  H6  UNL     1      -0.916  51.617 -14.635  1.00  0.00     0.210 HD
ENDBRANCH  30  38
ENDBRANCH  29  30
ENDBRANCH  27  29
ENDBRANCH   1  27
BRANCH   3  40
HETATM   40  O2  UNL     1       1.771  53.048 -18.882  1.00  0.00    -0.394 OA
HETATM   41  H17 UNL     1       1.842  53.380 -19.804  1.00  0.00     0.210 HD
ENDBRANCH   3  40
BRANCH  26  42
HETATM   42  O5  UNL     1       1.656  53.238 -21.439  1.00  0.00    -0.390 OA
HETATM   43  H43 UNL     1       2.412  53.396 -22.034  1.00  0.00     0.210 HD
ENDBRANCH  26  42
TORSDOF 9
ENDMDL
MODEL 5
REMARK minimizedAffinity -8.55023575
REMARK CNNscore 0.47912544
REMARK CNNaffinity 6.58643723
REMARK  9 active torsions:
REMARK  status: ('A' for Active; 'I' for Inactive)
REMARK    1  A    between atoms: C2_2  and  C32_37 
REMARK    2  A    between atoms: C3_3  and  C4_4 
REMARK    3  A    between atoms: C4_4  and  O1_5 
REMARK    4  A    between atoms: C4_4  and  C5_6 
REMARK    5  A    between atoms: C5_6  and  C6_7 
REMARK    6  A    between atoms: C6_7  and  C8_9 
REMARK    7  A    between atoms: C10_11  and  O2_12 
REMARK    8  A    between atoms: C31_35  and  O5_36 
REMARK    9  A    between atoms: C32_37  and  O7_39 
ROOT
HETATM    1  C8  UNL     1      -4.474  49.223 -22.236  1.00  0.00     0.001 C 
HETATM    2  C9  UNL     1      -4.681  47.684 -22.157  1.00  0.00     0.038 C 
HETATM    3  C10 UNL     1      -4.182  47.220 -20.777  1.00  0.00     0.132 C 
HETATM    4  C11 UNL     1      -4.038  48.524 -19.939  1.00  0.00     0.017 C 
HETATM    5  C12 UNL     1      -5.439  48.917 -19.373  1.00  0.00     0.023 C 
HETATM    6  C13 UNL     1      -3.083  48.562 -18.732  1.00  0.00    -0.029 C 
HETATM    7  C14 UNL     1      -2.503  49.729 -18.339  1.00  0.00     0.002 C 
HETATM    8  C15 UNL     1      -2.821  50.994 -19.134  1.00  0.00     0.157 C 
HETATM    9  O3  UNL     1      -2.531  52.107 -18.696  1.00  0.00    -0.293 OA
HETATM   10  C16 UNL     1      -3.494  50.906 -20.495  1.00  0.00     0.094 C 
HETATM   11  C17 UNL     1      -3.484  49.489 -21.058  1.00  0.00    -0.019 C 
HETATM   12  C18 UNL     1      -2.031  49.140 -21.515  1.00  0.00     0.017 C 
HETATM   13  C19 UNL     1      -1.464  49.858 -17.193  1.00  0.00    -0.007 C 
HETATM   14  C20 UNL     1      -0.154  50.414 -17.835  1.00  0.00     0.021 C 
HETATM   15  C21 UNL     1      -1.963  50.820 -16.083  1.00  0.00     0.022 C 
HETATM   16  C22 UNL     1      -0.927  51.111 -15.007  1.00  0.00     0.080 C 
HETATM   17  C23 UNL     1      -0.000  49.951 -14.742  1.00  0.00     0.136 C 
HETATM   18  O4  UNL     1       1.092  50.150 -14.206  1.00  0.00    -0.297 OA
HETATM   19  C24 UNL     1      -0.503  48.542 -15.062  1.00  0.00     0.025 C 
HETATM   20  C25 UNL     1       0.697  47.568 -14.974  1.00  0.00     0.024 C 
HETATM   21  C26 UNL     1      -1.497  48.174 -13.912  1.00  0.00     0.044 C 
HETATM   22  C27 UNL     1      -2.937  48.057 -14.310  1.00  0.00    -0.029 C 
HETATM   23  C28 UNL     1      -3.292  47.732 -15.556  1.00  0.00    -0.023 C 
HETATM   24  C29 UNL     1      -2.234  47.436 -16.589  1.00  0.00     0.047 C 
HETATM   25  C30 UNL     1      -1.087  48.464 -16.531  1.00  0.00     0.024 C 
HETATM   26  C31 UNL     1      -2.769  47.268 -18.024  1.00  0.00     0.156 C 
ENDROOT
BRANCH   1  27
HETATM   27  C6  UNL     1      -4.116  49.685 -23.685  1.00  0.00    -0.011 C 
HETATM   28  C7  UNL     1      -3.960  48.498 -24.643  1.00  0.00     0.010 C 
BRANCH  27  29
HETATM   29  C5  UNL     1      -2.793  50.516 -23.681  1.00  0.00     0.040 C 
BRANCH  29  30
HETATM   30  C4  UNL     1      -2.945  52.011 -24.041  1.00  0.00     0.142 C 
BRANCH  30  31
HETATM   31  C3  UNL     1      -1.685  52.638 -24.564  1.00  0.00     0.018 C 
HETATM   32  C2  UNL     1      -0.495  52.859 -23.964  1.00  0.00     0.010 C 
HETATM   33  C1  UNL     1      -0.095  52.425 -22.587  1.00  0.00     0.055 C 
BRANCH  32  34
HETATM   34  C32 UNL     1       0.518  53.570 -24.786  1.00  0.00     0.171 C 
HETATM   35  O6  UNL     1       0.719  53.428 -25.980  1.00  0.00    -0.646 OA
BRANCH  34  36
HETATM   36  O7  UNL     1       1.228  54.462 -24.074  1.00  0.00    -0.773 OA
HETATM   37  H44 UNL     1       1.831  54.854 -24.738  1.00  0.00     0.167 HD
ENDBRANCH  34  36
ENDBRANCH  32  34
ENDBRANCH  30  31
BRANCH  30  38
HETATM   38  O1  UNL     1      -4.021  52.152 -24.956  1.00  0.00    -0.392 OA
HETATM   39  H6  UNL     1      -4.820  51.819 -24.514  1.00  0.00     0.210 HD
ENDBRANCH  30  38
ENDBRANCH  29  30
ENDBRANCH  27  29
ENDBRANCH   1  27
BRANCH   3  40
HETATM   40  O2  UNL     1      -5.111  46.279 -20.260  1.00  0.00    -0.394 OA
HETATM   41  H17 UNL     1      -4.894  46.199 -19.306  1.00  0.00     0.210 HD
ENDBRANCH   3  40
BRANCH  26  42
HETATM   42  O5  UNL     1      -3.912  46.410 -17.995  1.00  0.00    -0.390 OA
HETATM   43  H43 UNL     1      -3.687  45.653 -17.424  1.00  0.00     0.210 HD
ENDBRANCH  26  42
TORSDOF 9
ENDMDL
MODEL 6
REMARK minimizedAffinity -9.70175362
REMARK CNNscore 0.423688412
REMARK CNNaffinity 6.49523973
REMARK  9 active torsions:
REMARK  status: ('A' for Active; 'I' for Inactive)
REMARK    1  A    between atoms: C2_2  and  C32_37 
REMARK    2  A    between atoms: C3_3  and  C4_4 
REMARK    3  A    between atoms: C4_4  and  O1_5 
REMARK    4  A    between atoms: C4_4  and  C5_6 
REMARK    5  A    between atoms: C5_6  and  C6_7 
REMARK    6  A    between atoms: C6_7  and  C8_9 
REMARK    7  A    between atoms: C10_11  and  O2_12 
REMARK    8  A    between atoms: C31_35  and  O5_36 
REMARK    9  A    between atoms: C32_37  and  O7_39 
ROOT
HETATM    1  C8  UNL     1      -0.965  50.345 -21.606  1.00  0.00     0.001 C 
HETATM    2  C9  UNL     1      -0.903  49.768 -20.164  1.00  0.00     0.038 C 
HETATM    3  C10 UNL     1      -2.125  48.851 -19.979  1.00  0.00     0.132 C 
HETATM    4  C11 UNL     1      -2.674  48.614 -21.415  1.00  0.00     0.017 C 
HETATM    5  C12 UNL     1      -1.844  47.479 -22.093  1.00  0.00     0.023 C 
HETATM    6  C13 UNL     1      -4.149  48.221 -21.621  1.00  0.00    -0.029 C 
HETATM    7  C14 UNL     1      -4.803  48.544 -22.770  1.00  0.00     0.002 C 
HETATM    8  C15 UNL     1      -4.035  49.313 -23.843  1.00  0.00     0.157 C 
HETATM    9  O3  UNL     1      -4.481  49.422 -24.985  1.00  0.00    -0.293 OA
HETATM   10  C16 UNL     1      -2.704  49.973 -23.521  1.00  0.00     0.094 C 
HETATM   11  C17 UNL     1      -2.442  50.053 -22.020  1.00  0.00    -0.019 C 
HETATM   12  C18 UNL     1      -3.377  51.144 -21.405  1.00  0.00     0.017 C 
HETATM   13  C19 UNL     1      -6.307  48.270 -23.039  1.00  0.00    -0.007 C 
HETATM   14  C20 UNL     1      -6.982  49.658 -23.271  1.00  0.00     0.021 C 
HETATM   15  C21 UNL     1      -6.503  47.367 -24.285  1.00  0.00     0.022 C 
HETATM   16  C22 UNL     1      -7.958  47.187 -24.694  1.00  0.00     0.080 C 
HETATM   17  C23 UNL     1      -8.912  47.205 -23.527  1.00  0.00     0.136 C 
HETATM   18  O4  UNL     1     -10.105  47.456 -23.715  1.00  0.00    -0.297 OA
HETATM   19  C24 UNL     1      -8.373  46.807 -22.152  1.00  0.00     0.025 C 
HETATM   20  C25 UNL     1      -9.442  47.166 -21.090  1.00  0.00     0.024 C 
HETATM   21  C26 UNL     1      -8.242  45.248 -22.183  1.00  0.00     0.044 C 
HETATM   22  C27 UNL     1      -6.843  44.714 -22.147  1.00  0.00    -0.029 C 
HETATM   23  C28 UNL     1      -5.846  45.404 -21.585  1.00  0.00    -0.023 C 
HETATM   24  C29 UNL     1      -6.124  46.735 -20.933  1.00  0.00     0.047 C 
HETATM   25  C30 UNL     1      -7.052  47.605 -21.803  1.00  0.00     0.024 C 
HETATM   26  C31 UNL     1      -4.865  47.510 -20.499  1.00  0.00     0.156 C 
ENDROOT
BRANCH   1  27
HETATM   27  C6  UNL     1      -0.403  51.801 -21.673  1.00  0.00    -0.011 C 
HETATM   28  C7  UNL     1       0.120  52.149 -23.072  1.00  0.00     0.010 C 
BRANCH  27  29
HETATM   29  C5  UNL     1       0.750  51.989 -20.635  1.00  0.00     0.040 C 
BRANCH  29  30
HETATM   30  C4  UNL     1       0.571  53.162 -19.647  1.00  0.00     0.142 C 
BRANCH  30  31
HETATM   31  C3  UNL     1       1.345  53.000 -18.370  1.00  0.00     0.018 C 
HETATM   32  C2  UNL     1       1.102  52.238 -17.282  1.00  0.00     0.010 C 
HETATM   33  C1  UNL     1      -0.009  51.247 -17.116  1.00  0.00     0.055 C 
BRANCH  32  34
HETATM   34  C32 UNL     1       2.071  52.383 -16.165  1.00  0.00     0.171 C 
HETATM   35  O6  UNL     1       2.078  51.754 -15.120  1.00  0.00    -0.646 OA
BRANCH  34  36
HETATM   36  O7  UNL     1       3.019  53.301 -16.418  1.00  0.00    -0.773 OA
HETATM   37  H44 UNL     1       3.580  53.274 -15.616  1.00  0.00     0.167 HD
ENDBRANCH  34  36
ENDBRANCH  32  34
ENDBRANCH  30  31
BRANCH  30  38
HETATM   38  O1  UNL     1       0.901  54.372 -20.312  1.00  0.00    -0.392 OA
HETATM   39  H6  UNL     1       0.295  54.461 -21.066  1.00  0.00     0.210 HD
ENDBRANCH  30  38
ENDBRANCH  29  30
ENDBRANCH  27  29
ENDBRANCH   1  27
BRANCH   3  40
HETATM   40  O2  UNL     1      -1.704  47.678 -19.301  1.00  0.00    -0.394 OA
HETATM   41  H17 UNL     1      -2.435  47.033 -19.420  1.00  0.00     0.210 HD
ENDBRANCH   3  40
BRANCH  26  42
HETATM   42  O5  UNL     1      -3.985  46.619 -19.813  1.00  0.00    -0.390 OA
HETATM   43  H43 UNL     1      -4.528  46.104 -19.189  1.00  0.00     0.210 HD
ENDBRANCH  26  42
TORSDOF 9
ENDMDL
MODEL 7
REMARK minimizedAffinity -8.44377804
REMARK CNNscore 0.422610849
REMARK CNNaffinity 6.98625946
REMARK  9 active torsions:
REMARK  status: ('A' for Active; 'I' for Inactive)
REMARK    1  A    between atoms: C2_2  and  C32_37 
REMARK    2  A    between atoms: C3_3  and  C4_4 
REMARK    3  A    between atoms: C4_4  and  O1_5 
REMARK    4  A    between atoms: C4_4  and  C5_6 
REMARK    5  A    between atoms: C5_6  and  C6_7 
REMARK    6  A    between atoms: C6_7  and  C8_9 
REMARK    7  A    between atoms: C10_11  and  O2_12 
REMARK    8  A    between atoms: C31_35  and  O5_36 
REMARK    9  A    between atoms: C32_37  and  O7_39 
ROOT
HETATM    1  C8  UNL     1      -1.545  49.978 -16.980  1.00  0.00     0.001 C 
HETATM    2  C9  UNL     1      -0.163  50.490 -17.475  1.00  0.00     0.038 C 
HETATM    3  C10 UNL     1      -0.260  50.687 -18.998  1.00  0.00     0.132 C 
HETATM    4  C11 UNL     1      -1.783  50.646 -19.315  1.00  0.00     0.017 C 
HETATM    5  C12 UNL     1      -2.397  52.053 -19.028  1.00  0.00     0.023 C 
HETATM    6  C13 UNL     1      -2.267  50.270 -20.728  1.00  0.00    -0.029 C 
HETATM    7  C14 UNL     1      -3.481  49.686 -20.917  1.00  0.00     0.002 C 
HETATM    8  C15 UNL     1      -4.345  49.408 -19.687  1.00  0.00     0.157 C 
HETATM    9  O3  UNL     1      -5.534  49.112 -19.803  1.00  0.00    -0.293 OA
HETATM   10  C16 UNL     1      -3.751  49.480 -18.289  1.00  0.00     0.094 C 
HETATM   11  C17 UNL     1      -2.226  49.516 -18.307  1.00  0.00    -0.019 C 
HETATM   12  C18 UNL     1      -1.694  48.097 -18.693  1.00  0.00     0.017 C 
HETATM   13  C19 UNL     1      -4.023  49.192 -22.285  1.00  0.00    -0.007 C 
HETATM   14  C20 UNL     1      -4.256  47.655 -22.147  1.00  0.00     0.021 C 
HETATM   15  C21 UNL     1      -5.351  49.902 -22.657  1.00  0.00     0.022 C 
HETATM   16  C22 UNL     1      -6.014  49.352 -23.912  1.00  0.00     0.080 C 
HETATM   17  C23 UNL     1      -5.028  48.851 -24.936  1.00  0.00     0.136 C 
HETATM   18  O4  UNL     1      -5.395  48.051 -25.799  1.00  0.00    -0.297 OA
HETATM   19  C24 UNL     1      -3.617  49.441 -24.925  1.00  0.00     0.025 C 
HETATM   20  C25 UNL     1      -2.727  48.588 -25.862  1.00  0.00     0.024 C 
HETATM   21  C26 UNL     1      -3.747  50.865 -25.560  1.00  0.00     0.044 C 
HETATM   22  C27 UNL     1      -3.516  52.015 -24.630  1.00  0.00    -0.029 C 
HETATM   23  C28 UNL     1      -2.740  51.894 -23.548  1.00  0.00    -0.023 C 
HETATM   24  C29 UNL     1      -2.042  50.587 -23.263  1.00  0.00     0.047 C 
HETATM   25  C30 UNL     1      -2.987  49.387 -23.474  1.00  0.00     0.024 C 
HETATM   26  C31 UNL     1      -1.342  50.521 -21.893  1.00  0.00     0.156 C 
ENDROOT
BRANCH   1  27
HETATM   27  C6  UNL     1      -1.401  48.986 -15.782  1.00  0.00    -0.011 C 
HETATM   28  C7  UNL     1      -2.639  48.998 -14.877  1.00  0.00     0.010 C 
BRANCH  27  29
HETATM   29  C5  UNL     1      -0.140  49.339 -14.929  1.00  0.00     0.040 C 
BRANCH  29  30
HETATM   30  C4  UNL     1       0.801  48.156 -14.613  1.00  0.00     0.142 C 
BRANCH  30  31
HETATM   31  C3  UNL     1       2.164  48.577 -14.143  1.00  0.00     0.018 C 
HETATM   32  C2  UNL     1       2.536  49.507 -13.238  1.00  0.00     0.010 C 
HETATM   33  C1  UNL     1       1.627  50.323 -12.370  1.00  0.00     0.055 C 
BRANCH  32  34
HETATM   34  C32 UNL     1       4.001  49.696 -13.074  1.00  0.00     0.171 C 
HETATM   35  O6  UNL     1       4.848  49.624 -13.947  1.00  0.00    -0.646 OA
BRANCH  34  36
HETATM   36  O7  UNL     1       4.345  50.000 -11.811  1.00  0.00    -0.773 OA
HETATM   37  H44 UNL     1       5.317  50.107 -11.860  1.00  0.00     0.167 HD
ENDBRANCH  34  36
ENDBRANCH  32  34
ENDBRANCH  30  31
BRANCH  30  38
HETATM   38  O1  UNL     1       0.162  47.304 -13.674  1.00  0.00    -0.392 OA
HETATM   39  H6  UNL     1      -0.662  46.990 -14.084  1.00  0.00     0.210 HD
ENDBRANCH  30  38
ENDBRANCH  29  30
ENDBRANCH  27  29
ENDBRANCH   1  27
BRANCH   3  40
HETATM   40  O2  UNL     1       0.385  51.906 -19.332  1.00  0.00    -0.394 OA
HETATM   41  H17 UNL     1       0.094  52.112 -20.247  1.00  0.00     0.210 HD
ENDBRANCH   3  40
BRANCH  26  42
HETATM   42  O5  UNL     1      -0.589  51.720 -21.699  1.00  0.00    -0.390 OA
HETATM   43  H43 UNL     1      -0.108  51.893 -22.529  1.00  0.00     0.210 HD
ENDBRANCH  26  42
TORSDOF 9
ENDMDL
MODEL 8
REMARK minimizedAffinity -9.4609766
REMARK CNNscore 0.412264615
REMARK CNNaffinity 6.48941278
REMARK  9 active torsions:
REMARK  status: ('A' for Active; 'I' for Inactive)
REMARK    1  A    between atoms: C2_2  and  C32_37 
REMARK    2  A    between atoms: C3_3  and  C4_4 
REMARK    3  A    between atoms: C4_4  and  O1_5 
REMARK    4  A    between atoms: C4_4  and  C5_6 
REMARK    5  A    between atoms: C5_6  and  C6_7 
REMARK    6  A    between atoms: C6_7  and  C8_9 
REMARK    7  A    between atoms: C10_11  and  O2_12 
REMARK    8  A    between atoms: C31_35  and  O5_36 
REMARK    9  A    between atoms: C32_37  and  O7_39 
ROOT
HETATM    1  C8  UNL     1      -1.393  50.573 -23.494  1.00  0.00     0.001 C 
HETATM    2  C9  UNL     1      -0.765  51.066 -22.160  1.00  0.00     0.038 C 
HETATM    3  C10 UNL     1      -1.701  50.632 -21.018  1.00  0.00     0.132 C 
HETATM    4  C11 UNL     1      -2.658  49.583 -21.656  1.00  0.00     0.017 C 
HETATM    5  C12 UNL     1      -1.942  48.197 -21.683  1.00  0.00     0.023 C 
HETATM    6  C13 UNL     1      -4.039  49.318 -21.028  1.00  0.00    -0.029 C 
HETATM    7  C14 UNL     1      -5.081  48.890 -21.791  1.00  0.00     0.002 C 
HETATM    8  C15 UNL     1      -4.842  48.687 -23.286  1.00  0.00     0.157 C 
HETATM    9  O3  UNL     1      -5.656  48.079 -23.981  1.00  0.00    -0.293 OA
HETATM   10  C16 UNL     1      -3.596  49.245 -23.956  1.00  0.00     0.094 C 
HETATM   11  C17 UNL     1      -2.862  50.249 -23.072  1.00  0.00    -0.019 C 
HETATM   12  C18 UNL     1      -3.689  51.574 -23.023  1.00  0.00     0.017 C 
HETATM   13  C19 UNL     1      -6.529  48.677 -21.273  1.00  0.00    -0.007 C 
HETATM   14  C20 UNL     1      -7.443  49.647 -22.084  1.00  0.00     0.021 C 
HETATM   15  C21 UNL     1      -6.993  47.211 -21.478  1.00  0.00     0.022 C 
HETATM   16  C22 UNL     1      -8.456  46.973 -21.133  1.00  0.00     0.080 C 
HETATM   17  C23 UNL     1      -8.954  47.850 -20.012  1.00  0.00     0.136 C 
HETATM   18  O4  UNL     1     -10.164  48.050 -19.884  1.00  0.00    -0.297 OA
HETATM   19  C24 UNL     1      -7.932  48.380 -19.006  1.00  0.00     0.025 C 
HETATM   20  C25 UNL     1      -8.623  49.459 -18.136  1.00  0.00     0.024 C 
HETATM   21  C26 UNL     1      -7.585  47.172 -18.075  1.00  0.00     0.044 C 
HETATM   22  C27 UNL     1      -6.191  46.636 -18.199  1.00  0.00    -0.029 C 
HETATM   23  C28 UNL     1      -5.180  47.409 -18.606  1.00  0.00    -0.023 C 
HETATM   24  C29 UNL     1      -5.420  48.866 -18.914  1.00  0.00     0.047 C 
HETATM   25  C30 UNL     1      -6.707  49.061 -19.742  1.00  0.00     0.024 C 
HETATM   26  C31 UNL     1      -4.221  49.590 -19.556  1.00  0.00     0.156 C 
ENDROOT
BRANCH   1  27
HETATM   27  C6  UNL     1      -1.112  51.563 -24.668  1.00  0.00    -0.011 C 
HETATM   28  C7  UNL     1      -0.577  52.910 -24.165  1.00  0.00     0.010 C 
BRANCH  27  29
HETATM   29  C5  UNL     1      -2.411  51.807 -25.500  1.00  0.00     0.040 C 
BRANCH  29  30
HETATM   30  C4  UNL     1      -2.265  51.634 -27.028  1.00  0.00     0.142 C 
BRANCH  30  31
HETATM   31  C3  UNL     1      -3.262  50.684 -27.627  1.00  0.00     0.018 C 
HETATM   32  C2  UNL     1      -3.367  49.341 -27.533  1.00  0.00     0.010 C 
HETATM   33  C1  UNL     1      -2.521  48.436 -26.690  1.00  0.00     0.055 C 
BRANCH  32  34
HETATM   34  C32 UNL     1      -4.463  48.723 -28.324  1.00  0.00     0.171 C 
HETATM   35  O6  UNL     1      -4.666  48.858 -29.518  1.00  0.00    -0.646 OA
BRANCH  34  36
HETATM   36  O7  UNL     1      -5.252  47.929 -27.581  1.00  0.00    -0.773 OA
HETATM   37  H44 UNL     1      -5.905  47.589 -28.227  1.00  0.00     0.167 HD
ENDBRANCH  34  36
ENDBRANCH  32  34
ENDBRANCH  30  31
BRANCH  30  38
HETATM   38  O1  UNL     1      -2.326  52.914 -27.640  1.00  0.00    -0.392 OA
HETATM   39  H6  UNL     1      -1.593  53.440 -27.280  1.00  0.00     0.210 HD
ENDBRANCH  30  38
ENDBRANCH  29  30
ENDBRANCH  27  29
ENDBRANCH   1  27
BRANCH   3  40
HETATM   40  O2  UNL     1      -0.905  50.140 -19.951  1.00  0.00    -0.394 OA
HETATM   41  H17 UNL     1      -1.527  49.659 -19.364  1.00  0.00     0.210 HD
ENDBRANCH   3  40
BRANCH  26  42
HETATM   42  O5  UNL     1      -3.038  49.265 -18.824  1.00  0.00    -0.390 OA
HETATM   43  H43 UNL     1      -3.256  49.343 -17.878  1.00  0.00     0.210 HD
ENDBRANCH  26  42
TORSDOF 9
ENDMDL
MODEL 9
REMARK minimizedAffinity -8.79444695
REMARK CNNscore 0.409128577
REMARK CNNaffinity 6.49209738
REMARK  9 active torsions:
REMARK  status: ('A' for Active; 'I' for Inactive)
REMARK    1  A    between atoms: C2_2  and  C32_37 
REMARK    2  A    between atoms: C3_3  and  C4_4 
REMARK    3  A    between atoms: C4_4  and  O1_5 
REMARK    4  A    between atoms: C4_4  and  C5_6 
REMARK    5  A    between atoms: C5_6  and  C6_7 
REMARK    6  A    between atoms: C6_7  and  C8_9 
REMARK    7  A    between atoms: C10_11  and  O2_12 
REMARK    8  A    between atoms: C31_35  and  O5_36 
REMARK    9  A    between atoms: C32_37  and  O7_39 
ROOT
HETATM    1  C8  UNL     1      -1.350  49.827 -22.366  1.00  0.00     0.001 C 
HETATM    2  C9  UNL     1      -0.774  50.084 -20.945  1.00  0.00     0.038 C 
HETATM    3  C10 UNL     1      -1.837  49.635 -19.927  1.00  0.00     0.132 C 
HETATM    4  C11 UNL     1      -2.851  48.788 -20.748  1.00  0.00     0.017 C 
HETATM    5  C12 UNL     1      -2.292  47.338 -20.902  1.00  0.00     0.023 C 
HETATM    6  C13 UNL     1      -4.297  48.617 -20.245  1.00  0.00    -0.029 C 
HETATM    7  C14 UNL     1      -5.319  48.406 -21.119  1.00  0.00     0.002 C 
HETATM    8  C15 UNL     1      -4.991  48.351 -22.610  1.00  0.00     0.157 C 
HETATM    9  O3  UNL     1      -5.811  47.928 -23.423  1.00  0.00    -0.293 OA
HETATM   10  C16 UNL     1      -3.643  48.831 -23.126  1.00  0.00     0.094 C 
HETATM   11  C17 UNL     1      -2.872  49.632 -22.081  1.00  0.00    -0.019 C 
HETATM   12  C18 UNL     1      -3.550  51.031 -21.919  1.00  0.00     0.017 C 
HETATM   13  C19 UNL     1      -6.816  48.307 -20.722  1.00  0.00    -0.007 C 
HETATM   14  C20 UNL     1      -7.554  49.466 -21.462  1.00  0.00     0.021 C 
HETATM   15  C21 UNL     1      -7.422  46.939 -21.136  1.00  0.00     0.022 C 
HETATM   16  C22 UNL     1      -8.924  46.838 -20.915  1.00  0.00     0.080 C 
HETATM   17  C23 UNL     1      -9.407  47.632 -19.727  1.00  0.00     0.136 C 
HETATM   18  O4  UNL     1     -10.594  47.958 -19.651  1.00  0.00    -0.297 OA
HETATM   19  C24 UNL     1      -8.412  47.918 -18.601  1.00  0.00     0.025 C 
HETATM   20  C25 UNL     1      -9.045  48.962 -17.649  1.00  0.00     0.024 C 
HETATM   21  C26 UNL     1      -8.272  46.577 -17.808  1.00  0.00     0.044 C 
HETATM   22  C27 UNL     1      -6.940  45.899 -17.909  1.00  0.00    -0.029 C 
HETATM   23  C28 UNL     1      -5.822  46.588 -18.153  1.00  0.00    -0.023 C 
HETATM   24  C29 UNL     1      -5.877  48.089 -18.294  1.00  0.00     0.047 C 
HETATM   25  C30 UNL     1      -7.067  48.529 -19.169  1.00  0.00     0.024 C 
HETATM   26  C31 UNL     1      -4.560  48.736 -18.765  1.00  0.00     0.156 C 
ENDROOT
BRANCH   1  27
HETATM   27  C6  UNL     1      -0.872  50.906 -23.389  1.00  0.00    -0.011 C 
HETATM   28  C7  UNL     1      -1.159  52.330 -22.895  1.00  0.00     0.010 C 
BRANCH  27  29
HETATM   29  C5  UNL     1      -1.569  50.695 -24.772  1.00  0.00     0.040 C 
BRANCH  29  30
HETATM   30  C4  UNL     1      -2.556  51.805 -25.195  1.00  0.00     0.142 C 
BRANCH  30  31
HETATM   31  C3  UNL     1      -2.160  52.516 -26.458  1.00  0.00     0.018 C 
HETATM   32  C2  UNL     1      -0.997  53.106 -26.810  1.00  0.00     0.010 C 
HETATM   33  C1  UNL     1       0.276  53.113 -26.020  1.00  0.00     0.055 C 
BRANCH  32  34
HETATM   34  C32 UNL     1      -0.990  53.774 -28.137  1.00  0.00     0.171 C 
HETATM   35  O6  UNL     1      -1.745  54.655 -28.514  1.00  0.00    -0.646 OA
BRANCH  34  36
HETATM   36  O7  UNL     1      -0.009  53.326 -28.937  1.00  0.00    -0.773 OA
HETATM   37  H44 UNL     1      -0.119  53.858 -29.752  1.00  0.00     0.167 HD
ENDBRANCH  34  36
ENDBRANCH  32  34
ENDBRANCH  30  31
BRANCH  30  38
HETATM   38  O1  UNL     1      -3.857  51.246 -25.293  1.00  0.00    -0.392 OA
HETATM   39  H6  UNL     1      -4.086  50.896 -24.416  1.00  0.00     0.210 HD
ENDBRANCH  30  38
ENDBRANCH  29  30
ENDBRANCH  27  29
ENDBRANCH   1  27
BRANCH   3  40
HETATM   40  O2  UNL     1      -1.183  48.932 -18.881  1.00  0.00    -0.394 OA
HETATM   41  H17 UNL     1      -1.898  48.463 -18.398  1.00  0.00     0.210 HD
ENDBRANCH   3  40
BRANCH  26  42
HETATM   42  O5  UNL     1      -3.479  48.190 -18.006  1.00  0.00    -0.390 OA
HETATM   43  H43 UNL     1      -3.759  48.183 -17.073  1.00  0.00     0.210 HD
ENDBRANCH  26  42
TORSDOF 9
ENDMDL
