MODEL 1
REMARK minimizedAffinity -9.95997334
REMARK  11 active torsions:
REMARK  status: ('A' for Active; 'I' for Inactive)
REMARK    1  A    between atoms: C2_2  and  C27_32 
REMARK    2  A    between atoms: C3_3  and  C4_4 
REMARK    3  A    between atoms: C4_4  and  C5_5 
REMARK    4  A    between atoms: C5_5  and  C6_6 
REMARK    5  A    between atoms: C6_6  and  C8_8 
REMARK    6  A    between atoms: C10_10  and  O1_11 
REMARK    7  A    between atoms: C11_12  and  O2_13 
REMARK    8  A    between atoms: C21_23  and  O3_24 
REMARK    9  A    between atoms: C24_27  and  O4_28 
REMARK   10  A    between atoms: C26_30  and  O5_31 
REMARK   11  A    between atoms: C27_32  and  O6_33 
ROOT
HETATM    1  C8  UNL     1      -2.825   7.292  12.883  1.00  0.00     0.003 C 
HETATM    2  C9  UNL     1      -2.319   8.720  13.109  1.00  0.00     0.041 C 
HETATM    3  C10 UNL     1      -0.834   8.600  12.799  1.00  0.00     0.156 C 
HETATM    4  C11 UNL     1      -0.410   7.336  13.583  1.00  0.00     0.122 C 
HETATM    5  C12 UNL     1      -1.691   6.378  13.509  1.00  0.00    -0.003 C 
HETATM    6  C13 UNL     1      -2.037   5.830  14.904  1.00  0.00     0.019 C 
HETATM    7  C14 UNL     1      -1.442   5.172  12.567  1.00  0.00     0.013 C 
HETATM    8  C15 UNL     1      -0.572   5.527  11.365  1.00  0.00     0.009 C 
HETATM    9  C16 UNL     1       0.866   5.948  11.741  1.00  0.00     0.032 C 
HETATM   10  C17 UNL     1       1.690   6.545  10.512  1.00  0.00    -0.031 C 
HETATM   11  C18 UNL     1       2.640   5.395  10.045  1.00  0.00     0.016 C 
HETATM   12  C19 UNL     1       0.828   6.950   9.278  1.00  0.00     0.012 C 
HETATM   13  C20 UNL     1       1.640   7.544   8.122  1.00  0.00     0.032 C 
HETATM   14  C21 UNL     1       2.545   8.691   8.560  1.00  0.00     0.118 C 
HETATM   15  C22 UNL     1       3.383   8.347   9.792  1.00  0.00     0.039 C 
HETATM   16  C23 UNL     1       2.489   7.813  10.922  1.00  0.00     0.025 C 
HETATM   17  C24 UNL     1       3.212   7.591  12.248  1.00  0.00     0.126 C 
HETATM   18  C25 UNL     1       2.169   7.604  13.357  1.00  0.00     0.073 C 
HETATM   19  C26 UNL     1       0.947   6.679  13.131  1.00  0.00     0.099 C 
ENDROOT
BRANCH   1  20
HETATM   20  C6  UNL     1      -4.351   7.160  13.184  1.00  0.00    -0.013 C 
HETATM   21  C7  UNL     1      -5.036   8.354  13.843  1.00  0.00     0.010 C 
BRANCH  20  22
HETATM   22  C5  UNL     1      -4.774   5.776  13.747  1.00  0.00     0.008 C 
BRANCH  22  23
HETATM   23  C4  UNL     1      -6.022   5.069  13.208  1.00  0.00     0.028 C 
BRANCH  23  24
HETATM   24  C3  UNL     1      -5.747   3.922  12.277  1.00  0.00    -0.022 C 
HETATM   25  C2  UNL     1      -6.402   2.744  12.215  1.00  0.00    -0.064 C 
HETATM   26  C1  UNL     1      -6.008   1.703  11.199  1.00  0.00     0.045 C 
BRANCH  25  27
HETATM   27  C27 UNL     1      -7.553   2.350  13.102  1.00  0.00     0.197 C 
BRANCH  27  28
HETATM   28  O6  UNL     1      -8.645   3.224  12.857  1.00  0.00    -0.397 OA
HETATM   29  H46 UNL     1      -8.837   3.165  11.905  1.00  0.00     0.209 HD
ENDBRANCH  27  28
ENDBRANCH  25  27
ENDBRANCH  23  24
ENDBRANCH  22  23
ENDBRANCH  20  22
ENDBRANCH   1  20
BRANCH   3  30
HETATM   30  O1  UNL     1      -0.176   9.777  13.239  1.00  0.00    -0.392 OA
HETATM   31  H17 UNL     1      -0.110   9.675  14.212  1.00  0.00     0.210 HD
ENDBRANCH   3  30
BRANCH   4  32
HETATM   32  O2  UNL     1      -0.224   7.784  14.956  1.00  0.00    -0.383 OA
HETATM   33  H18 UNL     1       0.331   7.090  15.372  1.00  0.00     0.210 HD
ENDBRANCH   4  32
BRANCH  19  34
HETATM   34  O5  UNL     1       1.190   5.651  14.154  1.00  0.00    -0.386 OA
HETATM   35  H43 UNL     1       0.784   4.811  13.889  1.00  0.00     0.210 HD
ENDBRANCH  19  34
BRANCH  17  36
HETATM   36  O4  UNL     1       4.143   8.645  12.485  1.00  0.00    -0.395 OA
HETATM   37  H40 UNL     1       4.523   8.510  13.370  1.00  0.00     0.210 HD
ENDBRANCH  17  36
BRANCH  14  38
HETATM   38  O3  UNL     1       3.401   9.034   7.476  1.00  0.00    -0.396 OA
HETATM   39  H35 UNL     1       3.954   9.780   7.770  1.00  0.00     0.210 HD
ENDBRANCH  14  38
TORSDOF 11
ENDMDL
MODEL 2
REMARK minimizedAffinity -9.38312817
REMARK  11 active torsions:
REMARK  status: ('A' for Active; 'I' for Inactive)
REMARK    1  A    between atoms: C2_2  and  C27_32 
REMARK    2  A    between atoms: C3_3  and  C4_4 
REMARK    3  A    between atoms: C4_4  and  C5_5 
REMARK    4  A    between atoms: C5_5  and  C6_6 
REMARK    5  A    between atoms: C6_6  and  C8_8 
REMARK    6  A    between atoms: C10_10  and  O1_11 
REMARK    7  A    between atoms: C11_12  and  O2_13 
REMARK    8  A    between atoms: C21_23  and  O3_24 
REMARK    9  A    between atoms: C24_27  and  O4_28 
REMARK   10  A    between atoms: C26_30  and  O5_31 
REMARK   11  A    between atoms: C27_32  and  O6_33 
ROOT
HETATM    1  C8  UNL     1      -2.794   7.312  12.898  1.00  0.00     0.003 C 
HETATM    2  C9  UNL     1      -2.288   8.742  13.106  1.00  0.00     0.041 C 
HETATM    3  C10 UNL     1      -0.808   8.623  12.777  1.00  0.00     0.156 C 
HETATM    4  C11 UNL     1      -0.370   7.367  13.564  1.00  0.00     0.122 C 
HETATM    5  C12 UNL     1      -1.650   6.405  13.516  1.00  0.00    -0.003 C 
HETATM    6  C13 UNL     1      -1.975   5.867  14.919  1.00  0.00     0.019 C 
HETATM    7  C14 UNL     1      -1.410   5.193  12.579  1.00  0.00     0.013 C 
HETATM    8  C15 UNL     1      -0.558   5.540  11.363  1.00  0.00     0.009 C 
HETATM    9  C16 UNL     1       0.885   5.967  11.716  1.00  0.00     0.032 C 
HETATM   10  C17 UNL     1       1.690   6.556  10.472  1.00  0.00    -0.031 C 
HETATM   11  C18 UNL     1       2.637   5.405  10.001  1.00  0.00     0.016 C 
HETATM   12  C19 UNL     1       0.811   6.950   9.246  1.00  0.00     0.012 C 
HETATM   13  C20 UNL     1       1.606   7.537   8.074  1.00  0.00     0.032 C 
HETATM   14  C21 UNL     1       2.514   8.689   8.492  1.00  0.00     0.118 C 
HETATM   15  C22 UNL     1       3.369   8.356   9.714  1.00  0.00     0.039 C 
HETATM   16  C23 UNL     1       2.492   7.829  10.861  1.00  0.00     0.025 C 
HETATM   17  C24 UNL     1       3.233   7.619  12.178  1.00  0.00     0.126 C 
HETATM   18  C25 UNL     1       2.206   7.639  13.301  1.00  0.00     0.073 C 
HETATM   19  C26 UNL     1       0.983   6.709  13.099  1.00  0.00     0.099 C 
ENDROOT
BRANCH   1  20
HETATM   20  C6  UNL     1      -4.315   7.179  13.220  1.00  0.00    -0.013 C 
HETATM   21  C7  UNL     1      -4.982   8.356  13.926  1.00  0.00     0.010 C 
BRANCH  20  22
HETATM   22  C5  UNL     1      -4.737   5.781  13.748  1.00  0.00     0.008 C 
BRANCH  22  23
HETATM   23  C4  UNL     1      -5.996   5.096  13.207  1.00  0.00     0.028 C 
BRANCH  23  24
HETATM   24  C3  UNL     1      -7.282   5.821  13.490  1.00  0.00    -0.022 C 
HETATM   25  C2  UNL     1      -7.826   6.078  14.698  1.00  0.00    -0.064 C 
HETATM   26  C1  UNL     1      -9.121   6.843  14.805  1.00  0.00     0.045 C 
BRANCH  25  27
HETATM   27  C27 UNL     1      -7.233   5.662  16.017  1.00  0.00     0.197 C 
BRANCH  27  28
HETATM   28  O6  UNL     1      -7.191   6.789  16.880  1.00  0.00    -0.397 OA
HETATM   29  H46 UNL     1      -8.103   7.124  16.940  1.00  0.00     0.209 HD
ENDBRANCH  27  28
ENDBRANCH  25  27
ENDBRANCH  23  24
ENDBRANCH  22  23
ENDBRANCH  20  22
ENDBRANCH   1  20
BRANCH   3  30
HETATM   30  O1  UNL     1      -0.146   9.805  13.198  1.00  0.00    -0.392 OA
HETATM   31  H17 UNL     1      -0.066   9.711  14.171  1.00  0.00     0.210 HD
ENDBRANCH   3  30
BRANCH   4  32
HETATM   32  O2  UNL     1      -0.166   7.826  14.931  1.00  0.00    -0.383 OA
HETATM   33  H18 UNL     1       0.396   7.136  15.345  1.00  0.00     0.210 HD
ENDBRANCH   4  32
BRANCH  19  34
HETATM   34  O5  UNL     1       1.242   5.689  14.127  1.00  0.00    -0.386 OA
HETATM   35  H43 UNL     1       0.834   4.847  13.874  1.00  0.00     0.210 HD
ENDBRANCH  19  34
BRANCH  17  36
HETATM   36  O4  UNL     1       4.165   8.677  12.395  1.00  0.00    -0.395 OA
HETATM   37  H40 UNL     1       4.557   8.549  13.276  1.00  0.00     0.210 HD
ENDBRANCH  17  36
BRANCH  14  38
HETATM   38  O3  UNL     1       3.354   9.025   7.394  1.00  0.00    -0.396 OA
HETATM   39  H35 UNL     1       3.910   9.775   7.675  1.00  0.00     0.210 HD
ENDBRANCH  14  38
TORSDOF 11
ENDMDL
MODEL 3
REMARK minimizedAffinity -9.04067516
REMARK  11 active torsions:
REMARK  status: ('A' for Active; 'I' for Inactive)
REMARK    1  A    between atoms: C2_2  and  C27_32 
REMARK    2  A    between atoms: C3_3  and  C4_4 
REMARK    3  A    between atoms: C4_4  and  C5_5 
REMARK    4  A    between atoms: C5_5  and  C6_6 
REMARK    5  A    between atoms: C6_6  and  C8_8 
REMARK    6  A    between atoms: C10_10  and  O1_11 
REMARK    7  A    between atoms: C11_12  and  O2_13 
REMARK    8  A    between atoms: C21_23  and  O3_24 
REMARK    9  A    between atoms: C24_27  and  O4_28 
REMARK   10  A    between atoms: C26_30  and  O5_31 
REMARK   11  A    between atoms: C27_32  and  O6_33 
ROOT
HETATM    1  C8  UNL     1      -5.961   6.231  13.513  1.00  0.00     0.003 C 
HETATM    2  C9  UNL     1      -5.986   7.735  13.222  1.00  0.00     0.041 C 
HETATM    3  C10 UNL     1      -4.555   8.156  13.523  1.00  0.00     0.156 C 
HETATM    4  C11 UNL     1      -4.267   7.485  14.886  1.00  0.00     0.122 C 
HETATM    5  C12 UNL     1      -5.083   6.108  14.827  1.00  0.00    -0.003 C 
HETATM    6  C13 UNL     1      -5.909   5.915  16.110  1.00  0.00     0.019 C 
HETATM    7  C14 UNL     1      -4.130   4.893  14.682  1.00  0.00     0.013 C 
HETATM    8  C15 UNL     1      -2.906   5.196  13.824  1.00  0.00     0.009 C 
HETATM    9  C16 UNL     1      -1.973   6.270  14.428  1.00  0.00     0.032 C 
HETATM   10  C17 UNL     1      -0.834   6.754  13.423  1.00  0.00    -0.031 C 
HETATM   11  C18 UNL     1       0.469   6.022  13.880  1.00  0.00     0.016 C 
HETATM   12  C19 UNL     1      -1.069   6.370  11.930  1.00  0.00     0.012 C 
HETATM   13  C20 UNL     1       0.027   6.869  10.981  1.00  0.00     0.032 C 
HETATM   14  C21 UNL     1       0.305   8.362  11.128  1.00  0.00     0.118 C 
HETATM   15  C22 UNL     1       0.506   8.786  12.582  1.00  0.00     0.039 C 
HETATM   16  C23 UNL     1      -0.661   8.298  13.454  1.00  0.00     0.025 C 
HETATM   17  C24 UNL     1      -0.632   8.809  14.893  1.00  0.00     0.126 C 
HETATM   18  C25 UNL     1      -2.046   8.721  15.449  1.00  0.00     0.073 C 
HETATM   19  C26 UNL     1      -2.747   7.350  15.270  1.00  0.00     0.099 C 
ENDROOT
BRANCH   1  20
HETATM   20  C6  UNL     1      -7.361   5.574  13.306  1.00  0.00    -0.013 C 
HETATM   21  C7  UNL     1      -8.572   6.335  13.837  1.00  0.00     0.010 C 
BRANCH  20  22
HETATM   22  C5  UNL     1      -7.392   4.043  13.561  1.00  0.00     0.008 C 
BRANCH  22  23
HETATM   23  C4  UNL     1      -6.864   3.070  12.501  1.00  0.00     0.028 C 
BRANCH  23  24
HETATM   24  C3  UNL     1      -5.723   3.594  11.674  1.00  0.00    -0.022 C 
HETATM   25  C2  UNL     1      -4.598   2.936  11.325  1.00  0.00    -0.064 C 
HETATM   26  C1  UNL     1      -3.556   3.607  10.467  1.00  0.00     0.045 C 
BRANCH  25  27
HETATM   27  C27 UNL     1      -4.268   1.521  11.721  1.00  0.00     0.197 C 
BRANCH  27  28
HETATM   28  O6  UNL     1      -2.936   1.231  11.326  1.00  0.00    -0.397 OA
HETATM   29  H46 UNL     1      -2.371   1.905  11.744  1.00  0.00     0.209 HD
ENDBRANCH  27  28
ENDBRANCH  25  27
ENDBRANCH  23  24
ENDBRANCH  22  23
ENDBRANCH  20  22
ENDBRANCH   1  20
BRANCH   3  30
HETATM   30  O1  UNL     1      -4.494   9.572  13.573  1.00  0.00    -0.392 OA
HETATM   31  H17 UNL     1      -4.879   9.807  14.444  1.00  0.00     0.210 HD
ENDBRANCH   3  30
BRANCH   4  32
HETATM   32  O2  UNL     1      -4.875   8.361  15.877  1.00  0.00    -0.383 OA
HETATM   33  H18 UNL     1      -4.438   8.123  16.723  1.00  0.00     0.210 HD
ENDBRANCH   4  32
BRANCH  19  34
HETATM   34  O5  UNL     1      -2.783   6.878  16.663  1.00  0.00    -0.386 OA
HETATM   35  H43 UNL     1      -2.797   5.909  16.688  1.00  0.00     0.210 HD
ENDBRANCH  19  34
BRANCH  17  36
HETATM   36  O4  UNL     1      -0.214  10.171  14.925  1.00  0.00    -0.395 OA
HETATM   37  H40 UNL     1      -0.284  10.481  15.844  1.00  0.00     0.210 HD
ENDBRANCH  17  36
BRANCH  14  38
HETATM   38  O3  UNL     1       1.464   8.685  10.367  1.00  0.00    -0.396 OA
HETATM   39  H35 UNL     1       1.610   9.644  10.458  1.00  0.00     0.210 HD
ENDBRANCH  14  38
TORSDOF 11
ENDMDL
MODEL 4
REMARK minimizedAffinity -8.91213799
REMARK  11 active torsions:
REMARK  status: ('A' for Active; 'I' for Inactive)
REMARK    1  A    between atoms: C2_2  and  C27_32 
REMARK    2  A    between atoms: C3_3  and  C4_4 
REMARK    3  A    between atoms: C4_4  and  C5_5 
REMARK    4  A    between atoms: C5_5  and  C6_6 
REMARK    5  A    between atoms: C6_6  and  C8_8 
REMARK    6  A    between atoms: C10_10  and  O1_11 
REMARK    7  A    between atoms: C11_12  and  O2_13 
REMARK    8  A    between atoms: C21_23  and  O3_24 
REMARK    9  A    between atoms: C24_27  and  O4_28 
REMARK   10  A    between atoms: C26_30  and  O5_31 
REMARK   11  A    between atoms: C27_32  and  O6_33 
ROOT
HETATM    1  C8  UNL     1      -1.542   6.033  13.234  1.00  0.00     0.003 C 
HETATM    2  C9  UNL     1      -0.950   5.649  14.593  1.00  0.00     0.041 C 
HETATM    3  C10 UNL     1      -0.615   7.000  15.205  1.00  0.00     0.156 C 
HETATM    4  C11 UNL     1       0.113   7.738  14.058  1.00  0.00     0.122 C 
HETATM    5  C12 UNL     1      -0.613   7.214  12.730  1.00  0.00    -0.003 C 
HETATM    6  C13 UNL     1       0.426   6.781  11.682  1.00  0.00     0.019 C 
HETATM    7  C14 UNL     1      -1.501   8.317  12.099  1.00  0.00     0.013 C 
HETATM    8  C15 UNL     1      -2.169   9.210  13.139  1.00  0.00     0.009 C 
HETATM    9  C16 UNL     1      -1.172  10.038  13.980  1.00  0.00     0.032 C 
HETATM   10  C17 UNL     1      -1.854  10.781  15.217  1.00  0.00    -0.031 C 
HETATM   11  C18 UNL     1      -2.012  12.272  14.776  1.00  0.00     0.016 C 
HETATM   12  C19 UNL     1      -3.277  10.264  15.590  1.00  0.00     0.012 C 
HETATM   13  C20 UNL     1      -3.899  10.976  16.796  1.00  0.00     0.032 C 
HETATM   14  C21 UNL     1      -2.981  10.988  18.016  1.00  0.00     0.118 C 
HETATM   15  C22 UNL     1      -1.564  11.455  17.685  1.00  0.00     0.039 C 
HETATM   16  C23 UNL     1      -0.993  10.655  16.504  1.00  0.00     0.025 C 
HETATM   17  C24 UNL     1       0.477  10.939  16.201  1.00  0.00     0.126 C 
HETATM   18  C25 UNL     1       1.033   9.749  15.431  1.00  0.00     0.073 C 
HETATM   19  C26 UNL     1       0.200   9.303  14.203  1.00  0.00     0.099 C 
ENDROOT
BRANCH   1  20
HETATM   20  C6  UNL     1      -1.933   4.778  12.393  1.00  0.00    -0.013 C 
HETATM   21  C7  UNL     1      -1.005   4.395  11.244  1.00  0.00     0.010 C 
BRANCH  20  22
HETATM   22  C5  UNL     1      -3.448   4.673  12.068  1.00  0.00     0.008 C 
BRANCH  22  23
HETATM   23  C4  UNL     1      -4.485   4.685  13.196  1.00  0.00     0.028 C 
BRANCH  23  24
HETATM   24  C3  UNL     1      -5.808   4.065  12.845  1.00  0.00    -0.022 C 
HETATM   25  C2  UNL     1      -6.983   4.228  13.488  1.00  0.00    -0.064 C 
HETATM   26  C1  UNL     1      -8.230   3.544  12.987  1.00  0.00     0.045 C 
BRANCH  25  27
HETATM   27  C27 UNL     1      -7.185   5.076  14.715  1.00  0.00     0.197 C 
BRANCH  27  28
HETATM   28  O6  UNL     1      -7.840   4.302  15.709  1.00  0.00    -0.397 OA
HETATM   29  H46 UNL     1      -7.286   3.515  15.854  1.00  0.00     0.209 HD
ENDBRANCH  27  28
ENDBRANCH  25  27
ENDBRANCH  23  24
ENDBRANCH  22  23
ENDBRANCH  20  22
ENDBRANCH   1  20
BRANCH   3  30
HETATM   30  O1  UNL     1       0.202   6.798  16.347  1.00  0.00    -0.392 OA
HETATM   31  H17 UNL     1       1.092   6.602  15.984  1.00  0.00     0.210 HD
ENDBRANCH   3  30
BRANCH   4  32
HETATM   32  O2  UNL     1       1.479   7.236  14.089  1.00  0.00    -0.383 OA
HETATM   33  H18 UNL     1       2.002   7.905  13.597  1.00  0.00     0.210 HD
ENDBRANCH   4  32
BRANCH  19  34
HETATM   34  O5  UNL     1       1.096   9.702  13.106  1.00  0.00    -0.386 OA
HETATM   35  H43 UNL     1       0.583   9.881  12.303  1.00  0.00     0.210 HD
ENDBRANCH  19  34
BRANCH  17  36
HETATM   36  O4  UNL     1       1.213  11.081  17.413  1.00  0.00    -0.395 OA
HETATM   37  H40 UNL     1       2.151  11.181  17.180  1.00  0.00     0.210 HD
ENDBRANCH  17  36
BRANCH  14  38
HETATM   38  O3  UNL     1      -3.551  11.840  19.003  1.00  0.00    -0.396 OA
HETATM   39  H35 UNL     1      -2.961  11.817  19.778  1.00  0.00     0.210 HD
ENDBRANCH  14  38
TORSDOF 11
ENDMDL
MODEL 5
REMARK minimizedAffinity -8.57420731
REMARK  11 active torsions:
REMARK  status: ('A' for Active; 'I' for Inactive)
REMARK    1  A    between atoms: C2_2  and  C27_32 
REMARK    2  A    between atoms: C3_3  and  C4_4 
REMARK    3  A    between atoms: C4_4  and  C5_5 
REMARK    4  A    between atoms: C5_5  and  C6_6 
REMARK    5  A    between atoms: C6_6  and  C8_8 
REMARK    6  A    between atoms: C10_10  and  O1_11 
REMARK    7  A    between atoms: C11_12  and  O2_13 
REMARK    8  A    between atoms: C21_23  and  O3_24 
REMARK    9  A    between atoms: C24_27  and  O4_28 
REMARK   10  A    between atoms: C26_30  and  O5_31 
REMARK   11  A    between atoms: C27_32  and  O6_33 
ROOT
HETATM    1  C8  UNL     1       1.252   6.815  12.815  1.00  0.00     0.003 C 
HETATM    2  C9  UNL     1       1.290   6.541  14.321  1.00  0.00     0.041 C 
HETATM    3  C10 UNL     1      -0.013   7.159  14.805  1.00  0.00     0.156 C 
HETATM    4  C11 UNL     1      -0.025   8.545  14.120  1.00  0.00     0.122 C 
HETATM    5  C12 UNL     1       0.684   8.292  12.706  1.00  0.00    -0.003 C 
HETATM    6  C13 UNL     1       1.765   9.354  12.446  1.00  0.00     0.019 C 
HETATM    7  C14 UNL     1      -0.338   8.352  11.543  1.00  0.00     0.013 C 
HETATM    8  C15 UNL     1      -1.705   7.792  11.923  1.00  0.00     0.009 C 
HETATM    9  C16 UNL     1      -2.423   8.600  13.028  1.00  0.00     0.032 C 
HETATM   10  C17 UNL     1      -3.731   7.880  13.587  1.00  0.00    -0.031 C 
HETATM   11  C18 UNL     1      -4.936   8.611  12.910  1.00  0.00     0.016 C 
HETATM   12  C19 UNL     1      -3.856   6.369  13.224  1.00  0.00     0.012 C 
HETATM   13  C20 UNL     1      -5.108   5.694  13.795  1.00  0.00     0.032 C 
HETATM   14  C21 UNL     1      -5.268   5.914  15.297  1.00  0.00     0.118 C 
HETATM   15  C22 UNL     1      -5.117   7.381  15.700  1.00  0.00     0.039 C 
HETATM   16  C23 UNL     1      -3.812   7.965  15.136  1.00  0.00     0.025 C 
HETATM   17  C24 UNL     1      -3.493   9.378  15.618  1.00  0.00     0.126 C 
HETATM   18  C25 UNL     1      -1.997   9.603  15.449  1.00  0.00     0.073 C 
HETATM   19  C26 UNL     1      -1.426   9.258  14.050  1.00  0.00     0.099 C 
ENDROOT
BRANCH   1  20
HETATM   20  C6  UNL     1       2.535   6.294  12.095  1.00  0.00    -0.013 C 
HETATM   21  C7  UNL     1       3.771   7.188  12.141  1.00  0.00     0.010 C 
BRANCH  20  22
HETATM   22  C5  UNL     1       2.268   5.623  10.721  1.00  0.00     0.008 C 
BRANCH  22  23
HETATM   23  C4  UNL     1       3.311   5.709   9.601  1.00  0.00     0.028 C 
BRANCH  23  24
HETATM   24  C3  UNL     1       2.747   5.963   8.230  1.00  0.00    -0.022 C 
HETATM   25  C2  UNL     1       2.212   7.112   7.768  1.00  0.00    -0.064 C 
HETATM   26  C1  UNL     1       1.709   7.204   6.350  1.00  0.00     0.045 C 
BRANCH  25  27
HETATM   27  C27 UNL     1       2.066   8.380   8.567  1.00  0.00     0.197 C 
BRANCH  27  28
HETATM   28  O6  UNL     1       0.772   8.919   8.346  1.00  0.00    -0.397 OA
HETATM   29  H46 UNL     1       0.138   8.221   8.586  1.00  0.00     0.209 HD
ENDBRANCH  27  28
ENDBRANCH  25  27
ENDBRANCH  23  24
ENDBRANCH  22  23
ENDBRANCH  20  22
ENDBRANCH   1  20
BRANCH   3  30
HETATM   30  O1  UNL     1       0.012   7.235  16.221  1.00  0.00    -0.392 OA
HETATM   31  H17 UNL     1       0.593   8.000  16.418  1.00  0.00     0.210 HD
ENDBRANCH   3  30
BRANCH   4  32
HETATM   32  O2  UNL     1       0.834   9.383  14.944  1.00  0.00    -0.383 OA
HETATM   33  H18 UNL     1       0.584  10.303  14.709  1.00  0.00     0.210 HD
ENDBRANCH   4  32
BRANCH  19  34
HETATM   34  O5  UNL     1      -1.105  10.603  13.548  1.00  0.00    -0.386 OA
HETATM   35  H43 UNL     1      -1.136  10.615  12.579  1.00  0.00     0.210 HD
ENDBRANCH  19  34
BRANCH  17  36
HETATM   36  O4  UNL     1      -3.822   9.516  16.998  1.00  0.00    -0.395 OA
HETATM   37  H40 UNL     1      -3.533  10.400  17.284  1.00  0.00     0.210 HD
ENDBRANCH  17  36
BRANCH  14  38
HETATM   38  O3  UNL     1      -6.549   5.435  15.691  1.00  0.00    -0.396 OA
HETATM   39  H35 UNL     1      -6.621   5.566  16.654  1.00  0.00     0.210 HD
ENDBRANCH  14  38
TORSDOF 11
ENDMDL
MODEL 6
REMARK minimizedAffinity -8.55180168
REMARK  11 active torsions:
REMARK  status: ('A' for Active; 'I' for Inactive)
REMARK    1  A    between atoms: C2_2  and  C27_32 
REMARK    2  A    between atoms: C3_3  and  C4_4 
REMARK    3  A    between atoms: C4_4  and  C5_5 
REMARK    4  A    between atoms: C5_5  and  C6_6 
REMARK    5  A    between atoms: C6_6  and  C8_8 
REMARK    6  A    between atoms: C10_10  and  O1_11 
REMARK    7  A    between atoms: C11_12  and  O2_13 
REMARK    8  A    between atoms: C21_23  and  O3_24 
REMARK    9  A    between atoms: C24_27  and  O4_28 
REMARK   10  A    between atoms: C26_30  and  O5_31 
REMARK   11  A    between atoms: C27_32  and  O6_33 
ROOT
HETATM    1  C8  UNL     1      -2.265   7.269  14.066  1.00  0.00     0.003 C 
HETATM    2  C9  UNL     1      -1.539   6.443  15.131  1.00  0.00     0.041 C 
HETATM    3  C10 UNL     1      -0.464   7.401  15.620  1.00  0.00     0.156 C 
HETATM    4  C11 UNL     1       0.143   7.952  14.310  1.00  0.00     0.122 C 
HETATM    5  C12 UNL     1      -1.098   8.020  13.299  1.00  0.00    -0.003 C 
HETATM    6  C13 UNL     1      -0.731   7.381  11.950  1.00  0.00     0.019 C 
HETATM    7  C14 UNL     1      -1.532   9.485  13.035  1.00  0.00     0.013 C 
HETATM    8  C15 UNL     1      -1.381  10.380  14.260  1.00  0.00     0.009 C 
HETATM    9  C16 UNL     1       0.082  10.554  14.727  1.00  0.00     0.032 C 
HETATM   10  C17 UNL     1       0.212  11.287  16.138  1.00  0.00    -0.031 C 
HETATM   11  C18 UNL     1       0.624  12.758  15.811  1.00  0.00     0.016 C 
HETATM   12  C19 UNL     1      -1.108  11.358  16.965  1.00  0.00     0.012 C 
HETATM   13  C20 UNL     1      -0.951  12.044  18.326  1.00  0.00     0.032 C 
HETATM   14  C21 UNL     1       0.187  11.458  19.158  1.00  0.00     0.118 C 
HETATM   15  C22 UNL     1       1.492  11.338  18.371  1.00  0.00     0.039 C 
HETATM   16  C23 UNL     1       1.260  10.591  17.049  1.00  0.00     0.025 C 
HETATM   17  C24 UNL     1       2.534  10.280  16.267  1.00  0.00     0.126 C 
HETATM   18  C25 UNL     1       2.235   9.120  15.328  1.00  0.00     0.073 C 
HETATM   19  C26 UNL     1       0.969   9.285  14.450  1.00  0.00     0.099 C 
ENDROOT
BRANCH   1  20
HETATM   20  C6  UNL     1      -3.412   6.461  13.382  1.00  0.00    -0.013 C 
HETATM   21  C7  UNL     1      -4.837   6.965  13.588  1.00  0.00     0.010 C 
BRANCH  20  22
HETATM   22  C5  UNL     1      -3.248   4.920  13.471  1.00  0.00     0.008 C 
BRANCH  22  23
HETATM   23  C4  UNL     1      -4.266   3.992  12.799  1.00  0.00     0.028 C 
BRANCH  23  24
HETATM   24  C3  UNL     1      -5.705   4.365  13.022  1.00  0.00    -0.022 C 
HETATM   25  C2  UNL     1      -6.795   3.623  12.738  1.00  0.00    -0.064 C 
HETATM   26  C1  UNL     1      -8.176   4.143  13.048  1.00  0.00     0.045 C 
BRANCH  25  27
HETATM   27  C27 UNL     1      -6.768   2.252  12.117  1.00  0.00     0.197 C 
BRANCH  27  28
HETATM   28  O6  UNL     1      -7.868   1.501  12.607  1.00  0.00    -0.397 OA
HETATM   29  H46 UNL     1      -8.667   2.016  12.400  1.00  0.00     0.209 HD
ENDBRANCH  27  28
ENDBRANCH  25  27
ENDBRANCH  23  24
ENDBRANCH  22  23
ENDBRANCH  20  22
ENDBRANCH   1  20
BRANCH   3  30
HETATM   30  O1  UNL     1       0.470   6.680  16.408  1.00  0.00    -0.392 OA
HETATM   31  H17 UNL     1       1.021   6.195  15.758  1.00  0.00     0.210 HD
ENDBRANCH   3  30
BRANCH   4  32
HETATM   32  O2  UNL     1       1.073   6.926  13.859  1.00  0.00    -0.383 OA
HETATM   33  H18 UNL     1       1.670   7.389  13.233  1.00  0.00     0.210 HD
ENDBRANCH   4  32
BRANCH  19  34
HETATM   34  O5  UNL     1       1.578   9.456  13.122  1.00  0.00    -0.386 OA
HETATM   35  H43 UNL     1       0.989   9.970  12.547  1.00  0.00     0.210 HD
ENDBRANCH  19  34
BRANCH  17  36
HETATM   36  O4  UNL     1       3.577   9.888  17.157  1.00  0.00    -0.395 OA
HETATM   37  H40 UNL     1       4.342   9.624  16.618  1.00  0.00     0.210 HD
ENDBRANCH  17  36
BRANCH  14  38
HETATM   38  O3  UNL     1       0.386  12.285  20.299  1.00  0.00    -0.396 OA
HETATM   39  H35 UNL     1       1.101  11.882  20.824  1.00  0.00     0.210 HD
ENDBRANCH  14  38
TORSDOF 11
ENDMDL
MODEL 7
REMARK minimizedAffinity -8.50137043
REMARK  11 active torsions:
REMARK  status: ('A' for Active; 'I' for Inactive)
REMARK    1  A    between atoms: C2_2  and  C27_32 
REMARK    2  A    between atoms: C3_3  and  C4_4 
REMARK    3  A    between atoms: C4_4  and  C5_5 
REMARK    4  A    between atoms: C5_5  and  C6_6 
REMARK    5  A    between atoms: C6_6  and  C8_8 
REMARK    6  A    between atoms: C10_10  and  O1_11 
REMARK    7  A    between atoms: C11_12  and  O2_13 
REMARK    8  A    between atoms: C21_23  and  O3_24 
REMARK    9  A    between atoms: C24_27  and  O4_28 
REMARK   10  A    between atoms: C26_30  and  O5_31 
REMARK   11  A    between atoms: C27_32  and  O6_33 
ROOT
HETATM    1  C8  UNL     1      -1.489   9.646  15.839  1.00  0.00     0.003 C 
HETATM    2  C9  UNL     1      -0.743   8.511  16.546  1.00  0.00     0.041 C 
HETATM    3  C10 UNL     1      -0.457   7.541  15.410  1.00  0.00     0.156 C 
HETATM    4  C11 UNL     1      -1.817   7.437  14.682  1.00  0.00     0.122 C 
HETATM    5  C12 UNL     1      -2.453   8.900  14.826  1.00  0.00    -0.003 C 
HETATM    6  C13 UNL     1      -3.911   8.809  15.310  1.00  0.00     0.019 C 
HETATM    7  C14 UNL     1      -2.442   9.656  13.473  1.00  0.00     0.013 C 
HETATM    8  C15 UNL     1      -1.214   9.341  12.625  1.00  0.00     0.009 C 
HETATM    9  C16 UNL     1      -1.133   7.865  12.173  1.00  0.00     0.032 C 
HETATM   10  C17 UNL     1       0.262   7.489  11.498  1.00  0.00    -0.031 C 
HETATM   11  C18 UNL     1      -0.008   7.467   9.959  1.00  0.00     0.016 C 
HETATM   12  C19 UNL     1       1.409   8.516  11.742  1.00  0.00     0.012 C 
HETATM   13  C20 UNL     1       2.745   8.118  11.105  1.00  0.00     0.032 C 
HETATM   14  C21 UNL     1       3.184   6.705  11.479  1.00  0.00     0.118 C 
HETATM   15  C22 UNL     1       2.074   5.671  11.288  1.00  0.00     0.039 C 
HETATM   16  C23 UNL     1       0.789   6.117  12.003  1.00  0.00     0.025 C 
HETATM   17  C24 UNL     1      -0.327   5.076  12.004  1.00  0.00     0.126 C 
HETATM   18  C25 UNL     1      -1.269   5.402  13.154  1.00  0.00     0.073 C 
HETATM   19  C26 UNL     1      -1.762   6.870  13.215  1.00  0.00     0.099 C 
ENDROOT
BRANCH   1  20
HETATM   20  C6  UNL     1      -1.927  10.765  16.835  1.00  0.00    -0.013 C 
HETATM   21  C7  UNL     1      -1.827  12.208  16.348  1.00  0.00     0.010 C 
BRANCH  20  22
HETATM   22  C5  UNL     1      -1.459  10.538  18.298  1.00  0.00     0.008 C 
BRANCH  22  23
HETATM   23  C4  UNL     1      -0.575  11.576  18.998  1.00  0.00     0.028 C 
BRANCH  23  24
HETATM   24  C3  UNL     1       0.295  11.028  20.095  1.00  0.00    -0.022 C 
HETATM   25  C2  UNL     1       1.589  10.656  20.001  1.00  0.00    -0.064 C 
HETATM   26  C1  UNL     1       2.325  10.144  21.213  1.00  0.00     0.045 C 
BRANCH  25  27
HETATM   27  C27 UNL     1       2.414  10.711  18.744  1.00  0.00     0.197 C 
BRANCH  27  28
HETATM   28  O6  UNL     1       2.327   9.460  18.079  1.00  0.00    -0.397 OA
HETATM   29  H46 UNL     1       1.380   9.294  17.927  1.00  0.00     0.209 HD
ENDBRANCH  27  28
ENDBRANCH  25  27
ENDBRANCH  23  24
ENDBRANCH  22  23
ENDBRANCH  20  22
ENDBRANCH   1  20
BRANCH   3  30
HETATM   30  O1  UNL     1      -0.020   6.307  15.957  1.00  0.00    -0.392 OA
HETATM   31  H17 UNL     1      -0.839   5.878  16.285  1.00  0.00     0.210 HD
ENDBRANCH   3  30
BRANCH   4  32
HETATM   32  O2  UNL     1      -2.599   6.494  15.469  1.00  0.00    -0.383 OA
HETATM   33  H18 UNL     1      -3.309   6.192  14.863  1.00  0.00     0.210 HD
ENDBRANCH   4  32
BRANCH  19  34
HETATM   34  O5  UNL     1      -3.178   6.697  12.858  1.00  0.00    -0.386 OA
HETATM   35  H43 UNL     1      -3.523   7.507  12.451  1.00  0.00     0.210 HD
ENDBRANCH  19  34
BRANCH  17  36
HETATM   36  O4  UNL     1       0.212   3.773  12.212  1.00  0.00    -0.395 OA
HETATM   37  H40 UNL     1      -0.533   3.152  12.285  1.00  0.00     0.210 HD
ENDBRANCH  17  36
BRANCH  14  38
HETATM   38  O3  UNL     1       4.311   6.354  10.685  1.00  0.00    -0.396 OA
HETATM   39  H35 UNL     1       4.586   5.459  10.954  1.00  0.00     0.210 HD
ENDBRANCH  14  38
TORSDOF 11
ENDMDL
MODEL 8
REMARK minimizedAffinity -8.30252743
REMARK  11 active torsions:
REMARK  status: ('A' for Active; 'I' for Inactive)
REMARK    1  A    between atoms: C2_2  and  C27_32 
REMARK    2  A    between atoms: C3_3  and  C4_4 
REMARK    3  A    between atoms: C4_4  and  C5_5 
REMARK    4  A    between atoms: C5_5  and  C6_6 
REMARK    5  A    between atoms: C6_6  and  C8_8 
REMARK    6  A    between atoms: C10_10  and  O1_11 
REMARK    7  A    between atoms: C11_12  and  O2_13 
REMARK    8  A    between atoms: C21_23  and  O3_24 
REMARK    9  A    between atoms: C24_27  and  O4_28 
REMARK   10  A    between atoms: C26_30  and  O5_31 
REMARK   11  A    between atoms: C27_32  and  O6_33 
ROOT
HETATM    1  C8  UNL     1      -2.827   7.680  14.830  1.00  0.00     0.003 C 
HETATM    2  C9  UNL     1      -1.895   6.670  15.504  1.00  0.00     0.041 C 
HETATM    3  C10 UNL     1      -0.690   7.522  15.872  1.00  0.00     0.156 C 
HETATM    4  C11 UNL     1      -0.407   8.314  14.575  1.00  0.00     0.122 C 
HETATM    5  C12 UNL     1      -1.857   8.568  13.944  1.00  0.00    -0.003 C 
HETATM    6  C13 UNL     1      -1.868   8.197  12.451  1.00  0.00     0.019 C 
HETATM    7  C14 UNL     1      -2.278  10.054  14.074  1.00  0.00     0.013 C 
HETATM    8  C15 UNL     1      -1.785  10.701  15.364  1.00  0.00     0.009 C 
HETATM    9  C16 UNL     1      -0.246  10.790  15.467  1.00  0.00     0.032 C 
HETATM   10  C17 UNL     1       0.265  11.242  16.909  1.00  0.00    -0.031 C 
HETATM   11  C18 UNL     1       0.647  12.751  16.765  1.00  0.00     0.016 C 
HETATM   12  C19 UNL     1      -0.801  11.150  18.042  1.00  0.00     0.012 C 
HETATM   13  C20 UNL     1      -0.278  11.565  19.422  1.00  0.00     0.032 C 
HETATM   14  C21 UNL     1       1.005  10.838  19.813  1.00  0.00     0.118 C 
HETATM   15  C22 UNL     1       2.065  10.874  18.713  1.00  0.00     0.039 C 
HETATM   16  C23 UNL     1       1.476  10.390  17.379  1.00  0.00     0.025 C 
HETATM   17  C24 UNL     1       2.499  10.239  16.255  1.00  0.00     0.126 C 
HETATM   18  C25 UNL     1       1.923   9.277  15.225  1.00  0.00     0.073 C 
HETATM   19  C26 UNL     1       0.486   9.600  14.744  1.00  0.00     0.099 C 
ENDROOT
BRANCH   1  20
HETATM   20  C6  UNL     1      -4.143   7.012  14.323  1.00  0.00    -0.013 C 
HETATM   21  C7  UNL     1      -5.446   7.448  14.988  1.00  0.00     0.010 C 
BRANCH  20  22
HETATM   22  C5  UNL     1      -4.025   5.486  14.063  1.00  0.00     0.008 C 
BRANCH  22  23
HETATM   23  C4  UNL     1      -3.814   4.956  12.640  1.00  0.00     0.028 C 
BRANCH  23  24
HETATM   24  C3  UNL     1      -4.772   3.878  12.218  1.00  0.00    -0.022 C 
HETATM   25  C2  UNL     1      -4.467   2.679  11.679  1.00  0.00    -0.064 C 
HETATM   26  C1  UNL     1      -5.558   1.698  11.331  1.00  0.00     0.045 C 
BRANCH  25  27
HETATM   27  C27 UNL     1      -3.073   2.196  11.383  1.00  0.00     0.197 C 
BRANCH  27  28
HETATM   28  O6  UNL     1      -3.072   0.777  11.353  1.00  0.00    -0.397 OA
HETATM   29  H46 UNL     1      -3.734   0.515  10.689  1.00  0.00     0.209 HD
ENDBRANCH  27  28
ENDBRANCH  25  27
ENDBRANCH  23  24
ENDBRANCH  22  23
ENDBRANCH  20  22
ENDBRANCH   1  20
BRANCH   3  30
HETATM   30  O1  UNL     1       0.379   6.669  16.250  1.00  0.00    -0.392 OA
HETATM   31  H17 UNL     1       0.728   6.318  15.403  1.00  0.00     0.210 HD
ENDBRANCH   3  30
BRANCH   4  32
HETATM   32  O2  UNL     1       0.334   7.397  13.722  1.00  0.00    -0.383 OA
HETATM   33  H18 UNL     1       0.776   7.972  13.061  1.00  0.00     0.210 HD
ENDBRANCH   4  32
BRANCH  19  34
HETATM   34  O5  UNL     1       0.750  10.022  13.360  1.00  0.00    -0.386 OA
HETATM   35  H43 UNL     1       0.060  10.634  13.059  1.00  0.00     0.210 HD
ENDBRANCH  19  34
BRANCH  17  36
HETATM   36  O4  UNL     1       3.713   9.689  16.762  1.00  0.00    -0.395 OA
HETATM   37  H40 UNL     1       4.306   9.536  16.007  1.00  0.00     0.210 HD
ENDBRANCH  17  36
BRANCH  14  38
HETATM   38  O3  UNL     1       1.520  11.433  20.999  1.00  0.00    -0.396 OA
HETATM   39  H35 UNL     1       2.326  10.942  21.241  1.00  0.00     0.210 HD
ENDBRANCH  14  38
TORSDOF 11
ENDMDL
MODEL 9
REMARK minimizedAffinity -8.24496365
REMARK  11 active torsions:
REMARK  status: ('A' for Active; 'I' for Inactive)
REMARK    1  A    between atoms: C2_2  and  C27_32 
REMARK    2  A    between atoms: C3_3  and  C4_4 
REMARK    3  A    between atoms: C4_4  and  C5_5 
REMARK    4  A    between atoms: C5_5  and  C6_6 
REMARK    5  A    between atoms: C6_6  and  C8_8 
REMARK    6  A    between atoms: C10_10  and  O1_11 
REMARK    7  A    between atoms: C11_12  and  O2_13 
REMARK    8  A    between atoms: C21_23  and  O3_24 
REMARK    9  A    between atoms: C24_27  and  O4_28 
REMARK   10  A    between atoms: C26_30  and  O5_31 
REMARK   11  A    between atoms: C27_32  and  O6_33 
ROOT
HETATM    1  C8  UNL     1       3.599   8.998  13.157  1.00  0.00     0.003 C 
HETATM    2  C9  UNL     1       3.586   7.940  14.263  1.00  0.00     0.041 C 
HETATM    3  C10 UNL     1       4.958   8.106  14.899  1.00  0.00     0.156 C 
HETATM    4  C11 UNL     1       5.909   8.155  13.681  1.00  0.00     0.122 C 
HETATM    5  C12 UNL     1       5.059   8.900  12.547  1.00  0.00    -0.003 C 
HETATM    6  C13 UNL     1       5.127   8.122  11.222  1.00  0.00     0.019 C 
HETATM    7  C14 UNL     1       5.593  10.333  12.290  1.00  0.00     0.013 C 
HETATM    8  C15 UNL     1       6.105  11.013  13.556  1.00  0.00     0.009 C 
HETATM    9  C16 UNL     1       7.334  10.316  14.182  1.00  0.00     0.032 C 
HETATM   10  C17 UNL     1       7.713  10.882  15.624  1.00  0.00    -0.031 C 
HETATM   11  C18 UNL     1       8.939  11.825  15.396  1.00  0.00     0.016 C 
HETATM   12  C19 UNL     1       6.603  11.739  16.307  1.00  0.00     0.012 C 
HETATM   13  C20 UNL     1       6.983  12.249  17.701  1.00  0.00     0.032 C 
HETATM   14  C21 UNL     1       7.468  11.138  18.628  1.00  0.00     0.118 C 
HETATM   15  C22 UNL     1       8.534  10.252  17.982  1.00  0.00     0.039 C 
HETATM   16  C23 UNL     1       8.053   9.737  16.617  1.00  0.00     0.025 C 
HETATM   17  C24 UNL     1       8.982   8.715  15.965  1.00  0.00     0.126 C 
HETATM   18  C25 UNL     1       8.165   7.916  14.958  1.00  0.00     0.073 C 
HETATM   19  C26 UNL     1       7.337   8.760  13.956  1.00  0.00     0.099 C 
ENDROOT
BRANCH   1  20
HETATM   20  C6  UNL     1       2.278   8.989  12.325  1.00  0.00    -0.013 C 
HETATM   21  C7  UNL     1       0.983   8.706  13.081  1.00  0.00     0.010 C 
BRANCH  20  22
HETATM   22  C5  UNL     1       2.395   8.282  10.948  1.00  0.00     0.008 C 
BRANCH  22  23
HETATM   23  C4  UNL     1       1.623   6.986  10.674  1.00  0.00     0.028 C 
BRANCH  23  24
HETATM   24  C3  UNL     1       1.962   6.312   9.374  1.00  0.00    -0.022 C 
HETATM   25  C2  UNL     1       2.075   6.889   8.159  1.00  0.00    -0.064 C 
HETATM   26  C1  UNL     1       2.445   6.064   6.953  1.00  0.00     0.045 C 
BRANCH  25  27
HETATM   27  C27 UNL     1       1.864   8.352   7.876  1.00  0.00     0.197 C 
BRANCH  27  28
HETATM   28  O6  UNL     1       3.111   8.942   7.542  1.00  0.00    -0.397 OA
HETATM   29  H46 UNL     1       3.462   8.437   6.788  1.00  0.00     0.209 HD
ENDBRANCH  27  28
ENDBRANCH  25  27
ENDBRANCH  23  24
ENDBRANCH  22  23
ENDBRANCH  20  22
ENDBRANCH   1  20
BRANCH   3  30
HETATM   30  O1  UNL     1       5.205   7.003  15.756  1.00  0.00    -0.392 OA
HETATM   31  H17 UNL     1       5.435   6.266  15.151  1.00  0.00     0.210 HD
ENDBRANCH   3  30
BRANCH   4  32
HETATM   32  O2  UNL     1       6.108   6.765  13.297  1.00  0.00    -0.383 OA
HETATM   33  H18 UNL     1       6.927   6.771  12.755  1.00  0.00     0.210 HD
ENDBRANCH   4  32
BRANCH  19  34
HETATM   34  O5  UNL     1       8.069   8.498  12.708  1.00  0.00    -0.386 OA
HETATM   35  H43 UNL     1       7.958   9.239  12.092  1.00  0.00     0.210 HD
ENDBRANCH  19  34
BRANCH  17  36
HETATM   36  O4  UNL     1       9.496   7.818  16.947  1.00  0.00    -0.395 OA
HETATM   37  H40 UNL     1      10.017   7.139  16.484  1.00  0.00     0.210 HD
ENDBRANCH  17  36
BRANCH  14  38
HETATM   38  O3  UNL     1       7.988  11.730  19.813  1.00  0.00    -0.396 OA
HETATM   39  H35 UNL     1       8.272  11.004  20.397  1.00  0.00     0.210 HD
ENDBRANCH  14  38
TORSDOF 11
ENDMDL
