MODEL 1
REMARK minimizedAffinity -7.5996151
REMARK CNNscore 0.554589152
REMARK CNNaffinity 6.62387896
REMARK  4 active torsions:
REMARK  status: ('A' for Active; 'I' for Inactive)
REMARK    1  A    between atoms: C7_11  and  O3_12 
REMARK    2  A    between atoms: C10_16  and  C11_17 
REMARK    3  A    between atoms: C21_28  and  C22_29 
REMARK    4  A    between atoms: C28_37  and  O8_38 
ROOT
HETATM    1  C1  UNL     1       9.121  58.337  -4.896  1.00  0.00     0.040 C 
HETATM    2  C2  UNL     1       8.195  58.429  -3.690  1.00  0.00     0.124 C 
HETATM    3  C3  UNL     1       8.049  57.129  -2.891  1.00  0.00     0.081 C 
HETATM    4  C4  UNL     1       6.998  56.167  -3.450  1.00  0.00     0.162 C 
HETATM    5  N1  UNL     1       7.505  55.434  -4.618  1.00  0.00    -0.336 N 
HETATM    6  C5  UNL     1       7.087  54.125  -4.742  1.00  0.00     0.229 C 
HETATM    7  O1  UNL     1       7.130  53.525  -5.806  1.00  0.00    -0.273 OA
HETATM    8  C6  UNL     1       6.573  53.531  -3.454  1.00  0.00     0.198 C 
HETATM    9  S1  UNL     1       6.747  54.816  -2.266  1.00  0.00    -0.021 S 
HETATM   10  O2  UNL     1       5.583  54.920  -1.423  1.00  0.00    -0.270 OA
HETATM   11  C7  UNL     1       5.651  56.916  -3.735  1.00  0.00     0.251 C 
HETATM   12  O4  UNL     1       4.730  55.995  -4.354  1.00  0.00    -0.340 OA
HETATM   13  C8  UNL     1       4.173  56.521  -5.568  1.00  0.00     0.156 C 
HETATM   14  C9  UNL     1       3.280  55.464  -6.228  1.00  0.00     0.056 C 
HETATM   15  C10 UNL     1       2.633  55.962  -7.550  1.00  0.00     0.043 C 
HETATM   16  C12 UNL     1       3.666  56.675  -8.438  1.00  0.00    -0.065 C 
HETATM   17  C13 UNL     1       3.683  56.533  -9.774  1.00  0.00    -0.022 C 
HETATM   18  C14 UNL     1       2.725  55.698 -10.560  1.00  0.00     0.035 C 
HETATM   19  C15 UNL     1       1.533  55.142  -9.744  1.00  0.00     0.030 C 
HETATM   20  C16 UNL     1       2.002  54.732  -8.323  1.00  0.00     0.012 C 
HETATM   21  C17 UNL     1       0.898  53.994  -7.537  1.00  0.00     0.007 C 
HETATM   22  C18 UNL     1       0.287  52.844  -8.330  1.00  0.00     0.013 C 
HETATM   23  C19 UNL     1      -0.300  53.288  -9.701  1.00  0.00    -0.005 C 
HETATM   24  C20 UNL     1      -1.550  54.157  -9.457  1.00  0.00     0.019 C 
HETATM   25  C21 UNL     1      -0.597  52.004 -10.553  1.00  0.00     0.028 C 
HETATM   26  C26 UNL     1       0.783  51.636 -11.145  1.00  0.00     0.013 C 
HETATM   27  C27 UNL     1       1.677  52.878 -11.042  1.00  0.00     0.040 C 
HETATM   28  C28 UNL     1       0.788  54.025 -10.529  1.00  0.00     0.070 C 
HETATM   29  C29 UNL     1       4.687  57.581  -7.777  1.00  0.00     0.069 C 
HETATM   30  C30 UNL     1       5.298  56.933  -6.540  1.00  0.00     0.158 C 
HETATM   31  O9  UNL     1       6.287  57.803  -5.958  1.00  0.00    -0.347 OA
HETATM   32  C31 UNL     1       5.964  58.173  -4.622  1.00  0.00     0.326 C 
HETATM   33  O10 UNL     1       6.945  59.017  -4.028  1.00  0.00    -0.351 OA
HETATM   34  H7  UNL     1       7.703  55.907  -5.496  1.00  0.00     0.164 HD
HETATM   35  H10 UNL     1       7.856  54.621  -1.517  1.00  0.00     0.128 HD
ENDROOT
BRANCH  11  36
HETATM   36  O3  UNL     1       5.078  57.343  -2.494  1.00  0.00    -0.359 OA
HETATM   37  H11 UNL     1       4.515  58.119  -2.669  1.00  0.00     0.213 HD
ENDBRANCH  11  36
BRANCH  15  38
HETATM   38  C11 UNL     1       1.550  56.992  -7.154  1.00  0.00     0.245 C 
HETATM   39  O5  UNL     1       0.744  56.842  -6.230  1.00  0.00    -0.306 OA
ENDBRANCH  15  38
BRANCH  28  40
HETATM   40  O8  UNL     1       0.171  54.635 -11.669  1.00  0.00    -0.389 OA
HETATM   41  H36 UNL     1       0.858  54.960 -12.277  1.00  0.00     0.210 HD
ENDBRANCH  28  40
BRANCH  25  42
HETATM   42  C22 UNL     1      -1.683  52.086 -11.600  1.00  0.00    -0.045 A 
HETATM   43  C23 UNL     1      -1.661  51.704 -12.879  1.00  0.00     0.087 A 
HETATM   44  C24 UNL     1      -2.975  51.997 -13.448  1.00  0.00     0.283 A 
HETATM   45  O6  UNL     1      -3.294  51.801 -14.605  1.00  0.00    -0.260 OA
HETATM   46  O7  UNL     1      -3.772  52.524 -12.477  1.00  0.00    -0.314 OA
HETATM   47  C25 UNL     1      -3.036  52.598 -11.260  1.00  0.00     0.213 A 
ENDBRANCH  25  42
TORSDOF 4
ENDMDL
MODEL 2
REMARK minimizedAffinity -9.76039505
REMARK CNNscore 0.523421347
REMARK CNNaffinity 6.4719429
REMARK  4 active torsions:
REMARK  status: ('A' for Active; 'I' for Inactive)
REMARK    1  A    between atoms: C7_11  and  O3_12 
REMARK    2  A    between atoms: C10_16  and  C11_17 
REMARK    3  A    between atoms: C21_28  and  C22_29 
REMARK    4  A    between atoms: C28_37  and  O8_38 
ROOT
HETATM    1  C1  UNL     1     -11.897  44.420 -21.497  1.00  0.00     0.040 C 
HETATM    2  C2  UNL     1     -11.643  44.327 -22.997  1.00  0.00     0.124 C 
HETATM    3  C3  UNL     1     -10.625  43.259 -23.412  1.00  0.00     0.081 C 
HETATM    4  C4  UNL     1      -9.168  43.720 -23.334  1.00  0.00     0.162 C 
HETATM    5  N1  UNL     1      -8.671  43.709 -21.951  1.00  0.00    -0.336 N 
HETATM    6  C5  UNL     1      -7.351  43.344 -21.783  1.00  0.00     0.229 C 
HETATM    7  O1  UNL     1      -6.721  43.625 -20.775  1.00  0.00    -0.273 OA
HETATM    8  C6  UNL     1      -6.780  42.587 -22.957  1.00  0.00     0.198 C 
HETATM    9  S1  UNL     1      -8.110  42.463 -24.101  1.00  0.00    -0.021 S 
HETATM   10  O2  UNL     1      -7.677  42.736 -25.449  1.00  0.00    -0.270 OA
HETATM   11  C7  UNL     1      -8.985  45.109 -24.038  1.00  0.00     0.251 C 
HETATM   12  O4  UNL     1      -7.624  45.549 -23.849  1.00  0.00    -0.340 OA
HETATM   13  C8  UNL     1      -7.555  46.881 -23.319  1.00  0.00     0.156 C 
HETATM   14  C9  UNL     1      -6.093  47.255 -23.052  1.00  0.00     0.056 C 
HETATM   15  C10 UNL     1      -5.933  48.693 -22.480  1.00  0.00     0.043 C 
HETATM   16  C12 UNL     1      -6.953  48.959 -21.361  1.00  0.00    -0.065 C 
HETATM   17  C13 UNL     1      -6.639  49.658 -20.257  1.00  0.00    -0.022 C 
HETATM   18  C14 UNL     1      -5.302  50.264 -19.977  1.00  0.00     0.035 C 
HETATM   19  C15 UNL     1      -4.311  50.220 -21.165  1.00  0.00     0.030 C 
HETATM   20  C16 UNL     1      -4.459  48.881 -21.935  1.00  0.00     0.012 C 
HETATM   21  C17 UNL     1      -3.364  48.704 -23.008  1.00  0.00     0.007 C 
HETATM   22  C18 UNL     1      -1.961  48.935 -22.454  1.00  0.00     0.013 C 
HETATM   23  C19 UNL     1      -1.785  50.335 -21.798  1.00  0.00    -0.005 C 
HETATM   24  C20 UNL     1      -1.835  51.417 -22.895  1.00  0.00     0.019 C 
HETATM   25  C21 UNL     1      -0.440  50.337 -20.990  1.00  0.00     0.028 C 
HETATM   26  C26 UNL     1      -0.816  49.645 -19.659  1.00  0.00     0.013 C 
HETATM   27  C27 UNL     1      -2.343  49.695 -19.527  1.00  0.00     0.040 C 
HETATM   28  C28 UNL     1      -2.864  50.546 -20.700  1.00  0.00     0.070 C 
HETATM   29  C29 UNL     1      -8.363  48.426 -21.523  1.00  0.00     0.069 C 
HETATM   30  C30 UNL     1      -8.366  46.982 -22.012  1.00  0.00     0.158 C 
HETATM   31  O9  UNL     1      -9.718  46.496 -22.121  1.00  0.00    -0.347 OA
HETATM   32  C31 UNL     1     -10.047  46.104 -23.449  1.00  0.00     0.326 C 
HETATM   33  O10 UNL     1     -11.375  45.602 -23.567  1.00  0.00    -0.351 OA
HETATM   34  H7  UNL     1      -9.032  44.354 -21.252  1.00  0.00     0.164 HD
HETATM   35  H10 UNL     1      -8.684  41.242 -24.028  1.00  0.00     0.128 HD
ENDROOT
BRANCH  11  36
HETATM   36  O3  UNL     1      -9.207  44.957 -25.444  1.00  0.00    -0.359 OA
HETATM   37  H11 UNL     1      -9.499  45.816 -25.801  1.00  0.00     0.213 HD
ENDBRANCH  11  36
BRANCH  15  38
HETATM   38  C11 UNL     1      -6.232  49.668 -23.643  1.00  0.00     0.245 C 
HETATM   39  O5  UNL     1      -5.436  50.505 -24.078  1.00  0.00    -0.306 OA
ENDBRANCH  15  38
BRANCH  28  40
HETATM   40  O8  UNL     1      -2.841  51.916 -20.283  1.00  0.00    -0.389 OA
HETATM   41  H36 UNL     1      -3.394  52.025 -19.491  1.00  0.00     0.210 HD
ENDBRANCH  28  40
BRANCH  25  42
HETATM   42  C22 UNL     1       0.262  51.660 -20.787  1.00  0.00    -0.045 A 
HETATM   43  C23 UNL     1       0.893  52.432 -21.676  1.00  0.00     0.087 A 
HETATM   44  C24 UNL     1       1.388  53.608 -20.963  1.00  0.00     0.283 A 
HETATM   45  O6  UNL     1       2.036  54.506 -21.465  1.00  0.00    -0.260 OA
HETATM   46  O7  UNL     1       1.011  53.527 -19.656  1.00  0.00    -0.314 OA
HETATM   47  C25 UNL     1       0.271  52.326 -19.459  1.00  0.00     0.213 A 
ENDBRANCH  25  42
TORSDOF 4
ENDMDL
MODEL 3
REMARK minimizedAffinity -7.25122261
REMARK CNNscore 0.517163515
REMARK CNNaffinity 6.54522324
REMARK  4 active torsions:
REMARK  status: ('A' for Active; 'I' for Inactive)
REMARK    1  A    between atoms: C7_11  and  O3_12 
REMARK    2  A    between atoms: C10_16  and  C11_17 
REMARK    3  A    between atoms: C21_28  and  C22_29 
REMARK    4  A    between atoms: C28_37  and  O8_38 
ROOT
HETATM    1  C1  UNL     1       0.001  47.128 -14.185  1.00  0.00     0.040 C 
HETATM    2  C2  UNL     1      -0.877  48.154 -14.891  1.00  0.00     0.124 C 
HETATM    3  C3  UNL     1      -0.139  49.056 -15.887  1.00  0.00     0.081 C 
HETATM    4  C4  UNL     1       0.533  50.274 -15.248  1.00  0.00     0.162 C 
HETATM    5  N1  UNL     1       1.793  49.911 -14.587  1.00  0.00    -0.336 N 
HETATM    6  C5  UNL     1       2.809  50.842 -14.661  1.00  0.00     0.229 C 
HETATM    7  O1  UNL     1       3.753  50.840 -13.885  1.00  0.00    -0.273 OA
HETATM    8  C6  UNL     1       2.626  51.846 -15.772  1.00  0.00     0.198 C 
HETATM    9  S1  UNL     1       1.126  51.376 -16.561  1.00  0.00    -0.021 S 
HETATM   10  O2  UNL     1       0.298  52.519 -16.851  1.00  0.00    -0.270 OA
HETATM   11  C7  UNL     1      -0.463  51.024 -14.298  1.00  0.00     0.251 C 
HETATM   12  O4  UNL     1       0.243  52.098 -13.643  1.00  0.00    -0.340 OA
HETATM   13  C8  UNL     1       0.080  52.062 -12.217  1.00  0.00     0.156 C 
HETATM   14  C9  UNL     1       0.926  53.166 -11.572  1.00  0.00     0.056 C 
HETATM   15  C10 UNL     1       0.798  53.196 -10.023  1.00  0.00     0.043 C 
HETATM   16  C12 UNL     1       0.903  51.781  -9.431  1.00  0.00    -0.065 C 
HETATM   17  C13 UNL     1       1.557  51.531  -8.284  1.00  0.00    -0.022 C 
HETATM   18  C14 UNL     1       2.241  52.559  -7.445  1.00  0.00     0.035 C 
HETATM   19  C15 UNL     1       1.976  54.022  -7.872  1.00  0.00     0.030 C 
HETATM   20  C16 UNL     1       1.927  54.128  -9.419  1.00  0.00     0.012 C 
HETATM   21  C17 UNL     1       1.859  55.592  -9.901  1.00  0.00     0.007 C 
HETATM   22  C18 UNL     1       2.936  56.466  -9.266  1.00  0.00     0.013 C 
HETATM   23  C19 UNL     1       2.893  56.458  -7.711  1.00  0.00    -0.005 C 
HETATM   24  C20 UNL     1       1.622  57.190  -7.236  1.00  0.00     0.019 C 
HETATM   25  C21 UNL     1       4.217  57.109  -7.175  1.00  0.00     0.028 C 
HETATM   26  C26 UNL     1       5.246  55.958  -7.257  1.00  0.00     0.013 C 
HETATM   27  C27 UNL     1       4.462  54.643  -7.359  1.00  0.00     0.040 C 
HETATM   28  C28 UNL     1       2.974  54.998  -7.186  1.00  0.00     0.070 C 
HETATM   29  C29 UNL     1       0.230  50.637 -10.165  1.00  0.00     0.069 C 
HETATM   30  C30 UNL     1       0.506  50.688 -11.663  1.00  0.00     0.158 C 
HETATM   31  O9  UNL     1      -0.118  49.570 -12.323  1.00  0.00    -0.347 OA
HETATM   32  C31 UNL     1      -1.072  49.979 -13.297  1.00  0.00     0.326 C 
HETATM   33  O10 UNL     1      -1.681  48.883 -13.972  1.00  0.00    -0.351 OA
HETATM   34  H7  UNL     1       1.807  49.325 -13.755  1.00  0.00     0.164 HD
HETATM   35  H10 UNL     1       1.384  50.681 -17.691  1.00  0.00     0.128 HD
ENDROOT
BRANCH  11  36
HETATM   36  O3  UNL     1      -1.515  51.601 -15.079  1.00  0.00    -0.359 OA
HETATM   37  H11 UNL     1      -2.302  51.690 -14.511  1.00  0.00     0.213 HD
ENDBRANCH  11  36
BRANCH  15  38
HETATM   38  C11 UNL     1      -0.613  53.745  -9.705  1.00  0.00     0.245 C 
HETATM   39  O5  UNL     1      -1.139  53.720  -8.588  1.00  0.00    -0.306 OA
ENDBRANCH  15  38
BRANCH  28  40
HETATM   40  O8  UNL     1       2.689  54.991  -5.782  1.00  0.00    -0.389 OA
HETATM   41  H36 UNL     1       2.892  54.115  -5.412  1.00  0.00     0.210 HD
ENDBRANCH  28  40
BRANCH  25  42
HETATM   42  C22 UNL     1       4.180  57.770  -5.817  1.00  0.00    -0.045 A 
HETATM   43  C23 UNL     1       3.318  58.667  -5.331  1.00  0.00     0.087 A 
HETATM   44  C24 UNL     1       3.728  58.973  -3.962  1.00  0.00     0.283 A 
HETATM   45  O6  UNL     1       3.177  59.775  -3.232  1.00  0.00    -0.260 OA
HETATM   46  O7  UNL     1       4.820  58.223  -3.646  1.00  0.00    -0.314 OA
HETATM   47  C25 UNL     1       5.166  57.411  -4.765  1.00  0.00     0.213 A 
ENDBRANCH  25  42
TORSDOF 4
ENDMDL
MODEL 4
REMARK minimizedAffinity -8.8720932
REMARK CNNscore 0.496180654
REMARK CNNaffinity 6.37044334
REMARK  4 active torsions:
REMARK  status: ('A' for Active; 'I' for Inactive)
REMARK    1  A    between atoms: C7_11  and  O3_12 
REMARK    2  A    between atoms: C10_16  and  C11_17 
REMARK    3  A    between atoms: C21_28  and  C22_29 
REMARK    4  A    between atoms: C28_37  and  O8_38 
ROOT
HETATM    1  C1  UNL     1      -9.478  41.517 -23.006  1.00  0.00     0.040 C 
HETATM    2  C2  UNL     1     -10.519  42.372 -22.295  1.00  0.00     0.124 C 
HETATM    3  C3  UNL     1     -11.176  43.446 -23.169  1.00  0.00     0.081 C 
HETATM    4  C4  UNL     1     -10.376  44.747 -23.268  1.00  0.00     0.162 C 
HETATM    5  N1  UNL     1      -9.252  44.619 -24.205  1.00  0.00    -0.336 N 
HETATM    6  C5  UNL     1      -8.956  45.739 -24.955  1.00  0.00     0.229 C 
HETATM    7  O1  UNL     1      -7.869  45.897 -25.490  1.00  0.00    -0.273 OA
HETATM    8  C6  UNL     1     -10.090  46.732 -25.031  1.00  0.00     0.198 C 
HETATM    9  S1  UNL     1     -11.390  46.000 -24.099  1.00  0.00    -0.021 S 
HETATM   10  O2  UNL     1     -12.035  46.963 -23.242  1.00  0.00    -0.270 OA
HETATM   11  C7  UNL     1      -9.934  45.239 -21.847  1.00  0.00     0.251 C 
HETATM   12  O4  UNL     1      -9.100  46.405 -21.999  1.00  0.00    -0.340 OA
HETATM   13  C8  UNL     1      -7.857  46.277 -21.292  1.00  0.00     0.156 C 
HETATM   14  C9  UNL     1      -6.977  47.501 -21.568  1.00  0.00     0.056 C 
HETATM   15  C10 UNL     1      -5.610  47.440 -20.830  1.00  0.00     0.043 C 
HETATM   16  C12 UNL     1      -4.964  46.052 -20.975  1.00  0.00    -0.065 C 
HETATM   17  C13 UNL     1      -3.642  45.891 -21.154  1.00  0.00    -0.022 C 
HETATM   18  C14 UNL     1      -2.645  47.001 -21.223  1.00  0.00     0.035 C 
HETATM   19  C15 UNL     1      -3.206  48.397 -20.860  1.00  0.00     0.030 C 
HETATM   20  C16 UNL     1      -4.647  48.555 -21.411  1.00  0.00     0.012 C 
HETATM   21  C17 UNL     1      -5.179  49.994 -21.245  1.00  0.00     0.007 C 
HETATM   22  C18 UNL     1      -4.206  51.041 -21.778  1.00  0.00     0.013 C 
HETATM   23  C19 UNL     1      -2.798  50.959 -21.122  1.00  0.00    -0.005 C 
HETATM   24  C20 UNL     1      -2.901  51.397 -19.648  1.00  0.00     0.019 C 
HETATM   25  C21 UNL     1      -1.808  51.842 -21.961  1.00  0.00     0.028 C 
HETATM   26  C26 UNL     1      -1.424  50.928 -23.147  1.00  0.00     0.013 C 
HETATM   27  C27 UNL     1      -1.772  49.487 -22.753  1.00  0.00     0.040 C 
HETATM   28  C28 UNL     1      -2.222  49.525 -21.281  1.00  0.00     0.070 C 
HETATM   29  C29 UNL     1      -5.855  44.827 -20.897  1.00  0.00     0.069 C 
HETATM   30  C30 UNL     1      -7.120  44.996 -21.731  1.00  0.00     0.158 C 
HETATM   31  O9  UNL     1      -7.925  43.803 -21.663  1.00  0.00    -0.347 OA
HETATM   32  C31 UNL     1      -9.215  44.051 -21.115  1.00  0.00     0.326 C 
HETATM   33  O10 UNL     1     -10.029  42.883 -21.061  1.00  0.00    -0.351 OA
HETATM   34  H7  UNL     1      -8.460  44.014 -24.005  1.00  0.00     0.164 HD
HETATM   35  H10 UNL     1     -12.293  45.420 -24.921  1.00  0.00     0.128 HD
ENDROOT
BRANCH  11  36
HETATM   36  O3  UNL     1     -11.094  45.623 -21.100  1.00  0.00    -0.359 OA
HETATM   37  H11 UNL     1     -10.891  45.526 -20.151  1.00  0.00     0.213 HD
ENDBRANCH  11  36
BRANCH  15  38
HETATM   38  C11 UNL     1      -5.904  47.677 -19.331  1.00  0.00     0.245 C 
HETATM   39  O5  UNL     1      -5.665  48.727 -18.727  1.00  0.00    -0.306 OA
ENDBRANCH  15  38
BRANCH  28  40
HETATM   40  O8  UNL     1      -1.048  49.402 -20.468  1.00  0.00    -0.389 OA
HETATM   41  H36 UNL     1      -0.591  48.570 -20.680  1.00  0.00     0.210 HD
ENDBRANCH  28  40
BRANCH  25  42
HETATM   42  C22 UNL     1      -0.607  52.424 -21.253  1.00  0.00    -0.045 A 
HETATM   43  C23 UNL     1       0.444  53.075 -21.758  1.00  0.00     0.087 A 
HETATM   44  C24 UNL     1       1.317  53.433 -20.642  1.00  0.00     0.283 A 
HETATM   45  O6  UNL     1       2.382  54.011 -20.747  1.00  0.00    -0.260 OA
HETATM   46  O7  UNL     1       0.748  53.009 -19.479  1.00  0.00    -0.314 OA
HETATM   47  C25 UNL     1      -0.492  52.373 -19.773  1.00  0.00     0.213 A 
ENDBRANCH  25  42
TORSDOF 4
ENDMDL
MODEL 5
REMARK minimizedAffinity -9.10451508
REMARK CNNscore 0.484401941
REMARK CNNaffinity 6.10897779
REMARK  4 active torsions:
REMARK  status: ('A' for Active; 'I' for Inactive)
REMARK    1  A    between atoms: C7_11  and  O3_12 
REMARK    2  A    between atoms: C10_16  and  C11_17 
REMARK    3  A    between atoms: C21_28  and  C22_29 
REMARK    4  A    between atoms: C28_37  and  O8_38 
ROOT
HETATM    1  C1  UNL     1     -17.594  42.046 -22.243  1.00  0.00     0.040 C 
HETATM    2  C2  UNL     1     -17.995  43.498 -22.012  1.00  0.00     0.124 C 
HETATM    3  C3  UNL     1     -18.990  44.060 -23.033  1.00  0.00     0.081 C 
HETATM    4  C4  UNL     1     -18.340  44.588 -24.314  1.00  0.00     0.162 C 
HETATM    5  N1  UNL     1     -17.971  43.494 -25.223  1.00  0.00    -0.336 N 
HETATM    6  C5  UNL     1     -18.115  43.748 -26.571  1.00  0.00     0.229 C 
HETATM    7  O1  UNL     1     -17.532  43.096 -27.424  1.00  0.00    -0.273 OA
HETATM    8  C6  UNL     1     -19.041  44.901 -26.872  1.00  0.00     0.198 C 
HETATM    9  S1  UNL     1     -19.593  45.456 -25.297  1.00  0.00    -0.021 S 
HETATM   10  O2  UNL     1     -19.583  46.895 -25.208  1.00  0.00    -0.270 OA
HETATM   11  C7  UNL     1     -17.137  45.536 -23.979  1.00  0.00     0.251 C 
HETATM   12  O4  UNL     1     -16.496  45.924 -25.212  1.00  0.00    -0.340 OA
HETATM   13  C8  UNL     1     -15.080  45.690 -25.181  1.00  0.00     0.156 C 
HETATM   14  C9  UNL     1     -14.470  46.030 -26.545  1.00  0.00     0.056 C 
HETATM   15  C10 UNL     1     -12.932  45.807 -26.591  1.00  0.00     0.043 C 
HETATM   16  C12 UNL     1     -12.549  44.460 -25.956  1.00  0.00    -0.065 C 
HETATM   17  C13 UNL     1     -11.581  43.678 -26.463  1.00  0.00    -0.022 C 
HETATM   18  C14 UNL     1     -10.761  44.001 -27.669  1.00  0.00     0.035 C 
HETATM   19  C15 UNL     1     -10.949  45.438 -28.212  1.00  0.00     0.030 C 
HETATM   20  C16 UNL     1     -12.436  45.865 -28.094  1.00  0.00     0.012 C 
HETATM   21  C17 UNL     1     -12.712  47.211 -28.796  1.00  0.00     0.007 C 
HETATM   22  C18 UNL     1     -12.182  47.242 -30.226  1.00  0.00     0.013 C 
HETATM   23  C19 UNL     1     -10.659  46.942 -30.322  1.00  0.00    -0.005 C 
HETATM   24  C20 UNL     1      -9.872  48.116 -29.706  1.00  0.00     0.019 C 
HETATM   25  C21 UNL     1     -10.299  46.680 -31.827  1.00  0.00     0.028 C 
HETATM   26  C26 UNL     1     -10.710  45.206 -32.046  1.00  0.00     0.013 C 
HETATM   27  C27 UNL     1     -10.828  44.548 -30.666  1.00  0.00     0.040 C 
HETATM   28  C28 UNL     1     -10.343  45.584 -29.636  1.00  0.00     0.070 C 
HETATM   29  C29 UNL     1     -13.282  44.014 -24.705  1.00  0.00     0.069 C 
HETATM   30  C30 UNL     1     -14.787  44.216 -24.832  1.00  0.00     0.158 C 
HETATM   31  O9  UNL     1     -15.455  43.751 -23.644  1.00  0.00    -0.347 OA
HETATM   32  C31 UNL     1     -16.179  44.786 -22.988  1.00  0.00     0.326 C 
HETATM   33  O10 UNL     1     -16.861  44.335 -21.822  1.00  0.00    -0.351 OA
HETATM   34  H7  UNL     1     -17.234  42.833 -24.986  1.00  0.00     0.164 HD
HETATM   35  H10 UNL     1     -20.829  44.976 -25.032  1.00  0.00     0.128 HD
ENDROOT
BRANCH  11  36
HETATM   36  O3  UNL     1     -17.635  46.723 -23.351  1.00  0.00    -0.359 OA
HETATM   37  H11 UNL     1     -16.925  47.093 -22.794  1.00  0.00     0.213 HD
ENDBRANCH  11  36
BRANCH  15  38
HETATM   38  C11 UNL     1     -12.295  46.934 -25.744  1.00  0.00     0.245 C 
HETATM   39  O5  UNL     1     -11.955  48.036 -26.187  1.00  0.00    -0.306 OA
ENDBRANCH  15  38
BRANCH  28  40
HETATM   40  O8  UNL     1      -8.922  45.443 -29.518  1.00  0.00    -0.389 OA
HETATM   41  H36 UNL     1      -8.706  44.536 -29.240  1.00  0.00     0.210 HD
ENDBRANCH  28  40
BRANCH  25  42
HETATM   42  C22 UNL     1      -8.886  46.970 -32.277  1.00  0.00    -0.045 A 
HETATM   43  C23 UNL     1      -8.449  47.471 -33.435  1.00  0.00     0.087 A 
HETATM   44  C24 UNL     1      -6.993  47.560 -33.354  1.00  0.00     0.283 A 
HETATM   45  O6  UNL     1      -6.267  47.949 -34.249  1.00  0.00    -0.260 OA
HETATM   46  O7  UNL     1      -6.589  47.134 -32.125  1.00  0.00    -0.314 OA
HETATM   47  C25 UNL     1      -7.734  46.757 -31.364  1.00  0.00     0.213 A 
ENDBRANCH  25  42
TORSDOF 4
ENDMDL
MODEL 6
REMARK minimizedAffinity -7.68012905
REMARK CNNscore 0.427868068
REMARK CNNaffinity 6.25300026
REMARK  4 active torsions:
REMARK  status: ('A' for Active; 'I' for Inactive)
REMARK    1  A    between atoms: C7_11  and  O3_12 
REMARK    2  A    between atoms: C10_16  and  C11_17 
REMARK    3  A    between atoms: C21_28  and  C22_29 
REMARK    4  A    between atoms: C28_37  and  O8_38 
ROOT
HETATM    1  C1  UNL     1       9.898  56.020  -3.828  1.00  0.00     0.040 C 
HETATM    2  C2  UNL     1       9.468  57.481  -3.858  1.00  0.00     0.124 C 
HETATM    3  C3  UNL     1       8.481  57.884  -2.756  1.00  0.00     0.081 C 
HETATM    4  C4  UNL     1       7.017  57.589  -3.089  1.00  0.00     0.162 C 
HETATM    5  N1  UNL     1       6.697  56.167  -2.905  1.00  0.00    -0.336 N 
HETATM    6  C5  UNL     1       5.436  55.885  -2.421  1.00  0.00     0.229 C 
HETATM    7  O1  UNL     1       4.918  54.787  -2.554  1.00  0.00    -0.273 OA
HETATM    8  C6  UNL     1       4.778  57.057  -1.736  1.00  0.00     0.198 C 
HETATM    9  S1  UNL     1       5.960  58.355  -1.829  1.00  0.00    -0.021 S 
HETATM   10  O2  UNL     1       5.346  59.607  -2.193  1.00  0.00    -0.270 OA
HETATM   11  C7  UNL     1       6.654  58.119  -4.519  1.00  0.00     0.251 C 
HETATM   12  O4  UNL     1       5.300  57.728  -4.827  1.00  0.00    -0.340 OA
HETATM   13  C8  UNL     1       5.205  57.058  -6.093  1.00  0.00     0.156 C 
HETATM   14  C9  UNL     1       3.766  56.584  -6.321  1.00  0.00     0.056 C 
HETATM   15  C10 UNL     1       3.580  55.852  -7.680  1.00  0.00     0.043 C 
HETATM   16  C12 UNL     1       4.709  54.837  -7.921  1.00  0.00    -0.065 C 
HETATM   17  C13 UNL     1       4.487  53.638  -8.484  1.00  0.00    -0.022 C 
HETATM   18  C14 UNL     1       3.157  53.142  -8.950  1.00  0.00     0.035 C 
HETATM   19  C15 UNL     1       2.033  54.204  -8.939  1.00  0.00     0.030 C 
HETATM   20  C16 UNL     1       2.174  55.122  -7.697  1.00  0.00     0.012 C 
HETATM   21  C17 UNL     1       0.970  56.072  -7.535  1.00  0.00     0.007 C 
HETATM   22  C18 UNL     1      -0.366  55.338  -7.598  1.00  0.00     0.013 C 
HETATM   23  C19 UNL     1      -0.555  54.524  -8.910  1.00  0.00    -0.005 C 
HETATM   24  C20 UNL     1      -0.716  55.501 -10.092  1.00  0.00     0.019 C 
HETATM   25  C21 UNL     1      -1.787  53.568  -8.727  1.00  0.00     0.028 C 
HETATM   26  C26 UNL     1      -1.202  52.370  -7.944  1.00  0.00     0.013 C 
HETATM   27  C27 UNL     1       0.323  52.413  -8.104  1.00  0.00     0.040 C 
HETATM   28  C28 UNL     1       0.634  53.543  -9.102  1.00  0.00     0.070 C 
HETATM   29  C29 UNL     1       6.122  55.216  -7.520  1.00  0.00     0.069 C 
HETATM   30  C30 UNL     1       6.164  55.851  -6.134  1.00  0.00     0.158 C 
HETATM   31  O9  UNL     1       7.521  56.167  -5.771  1.00  0.00    -0.347 OA
HETATM   32  C31 UNL     1       7.710  57.558  -5.535  1.00  0.00     0.326 C 
HETATM   33  O10 UNL     1       9.044  57.880  -5.155  1.00  0.00    -0.351 OA
HETATM   34  H7  UNL     1       7.097  55.451  -3.508  1.00  0.00     0.164 HD
HETATM   35  H10 UNL     1       6.622  58.477  -0.656  1.00  0.00     0.128 HD
ENDROOT
BRANCH  11  36
HETATM   36  O3  UNL     1       6.709  59.549  -4.519  1.00  0.00    -0.359 OA
HETATM   37  H11 UNL     1       6.895  59.847  -5.429  1.00  0.00     0.213 HD
ENDBRANCH  11  36
BRANCH  15  38
HETATM   38  C11 UNL     1       3.665  56.933  -8.782  1.00  0.00     0.245 C 
HETATM   39  O5  UNL     1       3.687  56.698  -9.994  1.00  0.00    -0.306 OA
ENDBRANCH  15  38
BRANCH  28  40
HETATM   40  O8  UNL     1       0.570  52.985 -10.420  1.00  0.00    -0.389 OA
HETATM   41  H36 UNL     1       1.208  52.256 -10.497  1.00  0.00     0.210 HD
ENDBRANCH  28  40
BRANCH  25  42
HETATM   42  C22 UNL     1      -2.546  53.149  -9.964  1.00  0.00    -0.045 A 
HETATM   43  C23 UNL     1      -3.136  53.903 -10.895  1.00  0.00     0.087 A 
HETATM   44  C24 UNL     1      -3.723  53.001 -11.884  1.00  0.00     0.283 A 
HETATM   45  O6  UNL     1      -4.362  53.353 -12.857  1.00  0.00    -0.260 OA
HETATM   46  O7  UNL     1      -3.443  51.715 -11.534  1.00  0.00    -0.314 OA
HETATM   47  C25 UNL     1      -2.678  51.716 -10.332  1.00  0.00     0.213 A 
ENDBRANCH  25  42
TORSDOF 4
ENDMDL
MODEL 7
REMARK minimizedAffinity -7.7579689
REMARK CNNscore 0.421088159
REMARK CNNaffinity 6.09679937
REMARK  4 active torsions:
REMARK  status: ('A' for Active; 'I' for Inactive)
REMARK    1  A    between atoms: C7_11  and  O3_12 
REMARK    2  A    between atoms: C10_16  and  C11_17 
REMARK    3  A    between atoms: C21_28  and  C22_29 
REMARK    4  A    between atoms: C28_37  and  O8_38 
ROOT
HETATM    1  C1  UNL     1      -6.191  47.766 -23.649  1.00  0.00     0.040 C 
HETATM    2  C2  UNL     1      -7.665  48.079 -23.427  1.00  0.00     0.124 C 
HETATM    3  C3  UNL     1      -8.524  46.876 -23.021  1.00  0.00     0.081 C 
HETATM    4  C4  UNL     1      -9.022  46.038 -24.201  1.00  0.00     0.162 C 
HETATM    5  N1  UNL     1      -7.968  45.156 -24.720  1.00  0.00    -0.336 N 
HETATM    6  C5  UNL     1      -8.377  43.915 -25.164  1.00  0.00     0.229 C 
HETATM    7  O1  UNL     1      -7.701  43.240 -25.925  1.00  0.00    -0.273 OA
HETATM    8  C6  UNL     1      -9.724  43.498 -24.630  1.00  0.00     0.198 C 
HETATM    9  S1  UNL     1     -10.229  44.827 -23.595  1.00  0.00    -0.021 S 
HETATM   10  O2  UNL     1     -11.617  45.160 -23.798  1.00  0.00    -0.270 OA
HETATM   11  C7  UNL     1      -9.655  46.951 -25.306  1.00  0.00     0.251 C 
HETATM   12  O4  UNL     1     -10.014  46.130 -26.436  1.00  0.00    -0.340 OA
HETATM   13  C8  UNL     1      -9.480  46.641 -27.667  1.00  0.00     0.156 C 
HETATM   14  C9  UNL     1      -9.813  45.679 -28.814  1.00  0.00     0.056 C 
HETATM   15  C10 UNL     1      -9.272  46.168 -30.187  1.00  0.00     0.043 C 
HETATM   16  C12 UNL     1      -7.819  46.657 -30.067  1.00  0.00    -0.065 C 
HETATM   17  C13 UNL     1      -6.902  46.417 -31.018  1.00  0.00    -0.022 C 
HETATM   18  C14 UNL     1      -7.157  45.674 -32.289  1.00  0.00     0.035 C 
HETATM   19  C15 UNL     1      -8.647  45.358 -32.563  1.00  0.00     0.030 C 
HETATM   20  C16 UNL     1      -9.368  44.989 -31.240  1.00  0.00     0.012 C 
HETATM   21  C17 UNL     1     -10.803  44.478 -31.483  1.00  0.00     0.007 C 
HETATM   22  C18 UNL     1     -10.859  43.373 -32.533  1.00  0.00     0.013 C 
HETATM   23  C19 UNL     1     -10.251  43.797 -33.901  1.00  0.00    -0.005 C 
HETATM   24  C20 UNL     1     -11.164  44.852 -34.555  1.00  0.00     0.019 C 
HETATM   25  C21 UNL     1     -10.066  42.510 -34.781  1.00  0.00     0.028 C 
HETATM   26  C26 UNL     1      -8.742  41.904 -34.261  1.00  0.00     0.013 C 
HETATM   27  C27 UNL     1      -7.993  43.008 -33.503  1.00  0.00     0.040 C 
HETATM   28  C28 UNL     1      -8.797  44.306 -33.699  1.00  0.00     0.070 C 
HETATM   29  C29 UNL     1      -7.421  47.452 -28.838  1.00  0.00     0.069 C 
HETATM   30  C30 UNL     1      -7.952  46.814 -27.559  1.00  0.00     0.158 C 
HETATM   31  O9  UNL     1      -7.527  47.572 -26.411  1.00  0.00    -0.347 OA
HETATM   32  C31 UNL     1      -8.625  48.081 -25.661  1.00  0.00     0.326 C 
HETATM   33  O10 UNL     1      -8.218  48.816 -24.511  1.00  0.00    -0.351 OA
HETATM   34  H7  UNL     1      -7.145  45.530 -25.186  1.00  0.00     0.164 HD
HETATM   35  H10 UNL     1     -10.001  44.529 -22.296  1.00  0.00     0.128 HD
ENDROOT
BRANCH  11  36
HETATM   36  O3  UNL     1     -10.853  47.546 -24.797  1.00  0.00    -0.359 OA
HETATM   37  H11 UNL     1     -11.007  48.380 -25.276  1.00  0.00     0.213 HD
ENDBRANCH  11  36
BRANCH  15  38
HETATM   38  C11 UNL     1     -10.149  47.370 -30.607  1.00  0.00     0.245 C 
HETATM   39  O5  UNL     1     -11.102  47.303 -31.389  1.00  0.00    -0.306 OA
ENDBRANCH  15  38
BRANCH  28  40
HETATM   40  O8  UNL     1      -8.344  44.915 -34.915  1.00  0.00    -0.389 OA
HETATM   41  H36 UNL     1      -7.390  45.092 -34.855  1.00  0.00     0.210 HD
ENDBRANCH  28  40
BRANCH  25  42
HETATM   42  C22 UNL     1     -10.089  42.672 -36.283  1.00  0.00    -0.045 A 
HETATM   43  C23 UNL     1     -10.817  43.499 -37.037  1.00  0.00     0.087 A 
HETATM   44  C24 UNL     1     -10.452  43.258 -38.431  1.00  0.00     0.283 A 
HETATM   45  O6  UNL     1     -10.945  43.822 -39.389  1.00  0.00    -0.260 OA
HETATM   46  O7  UNL     1      -9.482  42.303 -38.479  1.00  0.00    -0.314 OA
HETATM   47  C25 UNL     1      -9.174  41.887 -37.151  1.00  0.00     0.213 A 
ENDBRANCH  25  42
TORSDOF 4
ENDMDL
MODEL 8
REMARK minimizedAffinity -8.0386343
REMARK CNNscore 0.39446637
REMARK CNNaffinity 6.01950073
REMARK  4 active torsions:
REMARK  status: ('A' for Active; 'I' for Inactive)
REMARK    1  A    between atoms: C7_11  and  O3_12 
REMARK    2  A    between atoms: C10_16  and  C11_17 
REMARK    3  A    between atoms: C21_28  and  C22_29 
REMARK    4  A    between atoms: C28_37  and  O8_38 
ROOT
HETATM    1  C1  UNL     1       9.932  55.776  -1.027  1.00  0.00     0.040 C 
HETATM    2  C2  UNL     1      10.848  56.234  -2.155  1.00  0.00     0.124 C 
HETATM    3  C3  UNL     1      10.621  57.677  -2.621  1.00  0.00     0.081 C 
HETATM    4  C4  UNL     1       9.502  57.831  -3.653  1.00  0.00     0.162 C 
HETATM    5  N1  UNL     1       8.176  57.789  -3.022  1.00  0.00    -0.336 N 
HETATM    6  C5  UNL     1       7.215  58.614  -3.569  1.00  0.00     0.229 C 
HETATM    7  O1  UNL     1       6.021  58.431  -3.393  1.00  0.00    -0.273 OA
HETATM    8  C6  UNL     1       7.787  59.737  -4.400  1.00  0.00     0.198 C 
HETATM    9  S1  UNL     1       9.530  59.524  -4.304  1.00  0.00    -0.021 S 
HETATM   10  O2  UNL     1      10.158  59.698  -5.589  1.00  0.00    -0.270 OA
HETATM   11  C7  UNL     1       9.662  56.786  -4.810  1.00  0.00     0.251 C 
HETATM   12  O4  UNL     1       8.532  56.902  -5.699  1.00  0.00    -0.340 OA
HETATM   13  C8  UNL     1       7.895  55.637  -5.932  1.00  0.00     0.156 C 
HETATM   14  C9  UNL     1       6.651  55.837  -6.803  1.00  0.00     0.056 C 
HETATM   15  C10 UNL     1       5.906  54.507  -7.107  1.00  0.00     0.043 C 
HETATM   16  C12 UNL     1       5.755  53.655  -5.836  1.00  0.00    -0.065 C 
HETATM   17  C13 UNL     1       4.641  52.952  -5.573  1.00  0.00    -0.022 C 
HETATM   18  C14 UNL     1       3.436  52.892  -6.453  1.00  0.00     0.035 C 
HETATM   19  C15 UNL     1       3.620  53.545  -7.844  1.00  0.00     0.030 C 
HETATM   20  C16 UNL     1       4.483  54.829  -7.723  1.00  0.00     0.012 C 
HETATM   21  C17 UNL     1       4.535  55.622  -9.045  1.00  0.00     0.007 C 
HETATM   22  C18 UNL     1       3.148  55.875  -9.628  1.00  0.00     0.013 C 
HETATM   23  C19 UNL     1       2.337  54.570  -9.870  1.00  0.00    -0.005 C 
HETATM   24  C20 UNL     1       2.985  53.778 -11.023  1.00  0.00     0.019 C 
HETATM   25  C21 UNL     1       0.843  54.959 -10.152  1.00  0.00     0.028 C 
HETATM   26  C26 UNL     1       0.255  55.187  -8.740  1.00  0.00     0.013 C 
HETATM   27  C27 UNL     1       1.192  54.506  -7.734  1.00  0.00     0.040 C 
HETATM   28  C28 UNL     1       2.251  53.748  -8.554  1.00  0.00     0.070 C 
HETATM   29  C29 UNL     1       6.915  53.599  -4.859  1.00  0.00     0.069 C 
HETATM   30  C30 UNL     1       7.495  54.983  -4.594  1.00  0.00     0.158 C 
HETATM   31  O9  UNL     1       8.569  54.898  -3.638  1.00  0.00    -0.347 OA
HETATM   32  C31 UNL     1       9.806  55.360  -4.170  1.00  0.00     0.326 C 
HETATM   33  O10 UNL     1      10.872  55.301  -3.227  1.00  0.00    -0.351 OA
HETATM   34  H7  UNL     1       7.819  56.938  -2.594  1.00  0.00     0.164 HD
HETATM   35  H10 UNL     1      10.062  60.378  -3.400  1.00  0.00     0.128 HD
ENDROOT
BRANCH  11  36
HETATM   36  O3  UNL     1      10.844  57.091  -5.559  1.00  0.00    -0.359 OA
HETATM   37  H11 UNL     1      11.163  56.268  -5.973  1.00  0.00     0.213 HD
ENDBRANCH  11  36
BRANCH  15  38
HETATM   38  C11 UNL     1       6.788  53.723  -8.107  1.00  0.00     0.245 C 
HETATM   39  O5  UNL     1       7.197  54.173  -9.182  1.00  0.00    -0.306 OA
ENDBRANCH  15  38
BRANCH  28  40
HETATM   40  O8  UNL     1       1.720  52.450  -8.849  1.00  0.00    -0.389 OA
HETATM   41  H36 UNL     1       1.512  51.987  -8.020  1.00  0.00     0.210 HD
ENDBRANCH  28  40
BRANCH  25  42
HETATM   42  C22 UNL     1       0.013  54.015 -10.990  1.00  0.00    -0.045 A 
HETATM   43  C23 UNL     1       0.362  53.299 -12.062  1.00  0.00     0.087 A 
HETATM   44  C24 UNL     1      -0.815  52.544 -12.488  1.00  0.00     0.283 A 
HETATM   45  O6  UNL     1      -0.858  51.808 -13.455  1.00  0.00    -0.260 OA
HETATM   46  O7  UNL     1      -1.844  52.804 -11.634  1.00  0.00    -0.314 OA
HETATM   47  C25 UNL     1      -1.399  53.717 -10.635  1.00  0.00     0.213 A 
ENDBRANCH  25  42
TORSDOF 4
ENDMDL
MODEL 9
REMARK minimizedAffinity -7.53298569
REMARK CNNscore 0.354195178
REMARK CNNaffinity 5.63816071
REMARK  4 active torsions:
REMARK  status: ('A' for Active; 'I' for Inactive)
REMARK    1  A    between atoms: C7_11  and  O3_12 
REMARK    2  A    between atoms: C10_16  and  C11_17 
REMARK    3  A    between atoms: C21_28  and  C22_29 
REMARK    4  A    between atoms: C28_37  and  O8_38 
ROOT
HETATM    1  C1  UNL     1     -20.117  43.708 -18.322  1.00  0.00     0.040 C 
HETATM    2  C2  UNL     1     -20.833  42.773 -19.289  1.00  0.00     0.124 C 
HETATM    3  C3  UNL     1     -20.163  41.407 -19.476  1.00  0.00     0.081 C 
HETATM    4  C4  UNL     1     -19.041  41.398 -20.516  1.00  0.00     0.162 C 
HETATM    5  N1  UNL     1     -17.801  41.972 -19.976  1.00  0.00    -0.336 N 
HETATM    6  C5  UNL     1     -16.625  41.388 -20.402  1.00  0.00     0.229 C 
HETATM    7  O1  UNL     1     -15.549  41.962 -20.328  1.00  0.00    -0.273 OA
HETATM    8  C6  UNL     1     -16.810  40.002 -20.967  1.00  0.00     0.198 C 
HETATM    9  S1  UNL     1     -18.533  39.684 -20.822  1.00  0.00    -0.021 S 
HETATM   10  O2  UNL     1     -19.062  39.070 -22.014  1.00  0.00    -0.270 OA
HETATM   11  C7  UNL     1     -19.506  42.088 -21.845  1.00  0.00     0.251 C 
HETATM   12  O4  UNL     1     -18.386  42.147 -22.752  1.00  0.00    -0.340 OA
HETATM   13  C8  UNL     1     -18.172  43.473 -23.261  1.00  0.00     0.156 C 
HETATM   14  C9  UNL     1     -16.918  43.492 -24.141  1.00  0.00     0.056 C 
HETATM   15  C10 UNL     1     -16.621  44.897 -24.737  1.00  0.00     0.043 C 
HETATM   16  C12 UNL     1     -16.757  45.992 -23.666  1.00  0.00    -0.065 C 
HETATM   17  C13 UNL     1     -15.919  47.041 -23.604  1.00  0.00    -0.022 C 
HETATM   18  C14 UNL     1     -14.783  47.289 -24.542  1.00  0.00     0.035 C 
HETATM   19  C15 UNL     1     -14.739  46.345 -25.767  1.00  0.00     0.030 C 
HETATM   20  C16 UNL     1     -15.162  44.910 -25.352  1.00  0.00     0.012 C 
HETATM   21  C17 UNL     1     -14.950  43.890 -26.490  1.00  0.00     0.007 C 
HETATM   22  C18 UNL     1     -13.547  43.962 -27.085  1.00  0.00     0.013 C 
HETATM   23  C19 UNL     1     -13.180  45.377 -27.619  1.00  0.00    -0.005 C 
HETATM   24  C20 UNL     1     -14.030  45.682 -28.868  1.00  0.00     0.019 C 
HETATM   25  C21 UNL     1     -11.636  45.416 -27.898  1.00  0.00     0.028 C 
HETATM   26  C26 UNL     1     -11.022  45.669 -26.502  1.00  0.00     0.013 C 
HETATM   27  C27 UNL     1     -12.134  46.218 -25.600  1.00  0.00     0.040 C 
HETATM   28  C28 UNL     1     -13.368  46.433 -26.495  1.00  0.00     0.070 C 
HETATM   29  C29 UNL     1     -17.886  45.886 -22.659  1.00  0.00     0.069 C 
HETATM   30  C30 UNL     1     -18.010  44.474 -22.099  1.00  0.00     0.158 C 
HETATM   31  O9  UNL     1     -19.067  44.416 -21.123  1.00  0.00    -0.347 OA
HETATM   32  C31 UNL     1     -20.093  43.499 -21.488  1.00  0.00     0.326 C 
HETATM   33  O10 UNL     1     -21.135  43.417 -20.521  1.00  0.00    -0.351 OA
HETATM   34  H7  UNL     1     -17.730  42.959 -19.742  1.00  0.00     0.164 HD
HETATM   35  H10 UNL     1     -18.783  38.909 -19.742  1.00  0.00     0.128 HD
ENDROOT
BRANCH  11  36
HETATM   36  O3  UNL     1     -20.526  41.291 -22.457  1.00  0.00    -0.359 OA
HETATM   37  H11 UNL     1     -21.081  41.875 -23.006  1.00  0.00     0.213 HD
ENDBRANCH  11  36
BRANCH  15  38
HETATM   38  C11 UNL     1     -17.692  45.154 -25.823  1.00  0.00     0.245 C 
HETATM   39  O5  UNL     1     -18.552  46.038 -25.763  1.00  0.00    -0.306 OA
ENDBRANCH  15  38
BRANCH  28  40
HETATM   40  O8  UNL     1     -13.265  47.743 -27.065  1.00  0.00    -0.389 OA
HETATM   41  H36 UNL     1     -13.220  48.405 -26.355  1.00  0.00     0.210 HD
ENDBRANCH  28  40
BRANCH  25  42
HETATM   42  C22 UNL     1     -11.132  46.380 -28.946  1.00  0.00    -0.045 A 
HETATM   43  C23 UNL     1     -10.430  47.507 -28.798  1.00  0.00     0.087 A 
HETATM   44  C24 UNL     1     -10.193  48.055 -30.131  1.00  0.00     0.283 A 
HETATM   45  O6  UNL     1      -9.605  49.095 -30.363  1.00  0.00    -0.260 OA
HETATM   46  O7  UNL     1     -10.737  47.221 -31.060  1.00  0.00    -0.314 OA
HETATM   47  C25 UNL     1     -11.340  46.114 -30.393  1.00  0.00     0.213 A 
ENDBRANCH  25  42
TORSDOF 4
ENDMDL
