MODEL 1
REMARK minimizedAffinity -8.71796894
REMARK CNNscore 0.645639658
REMARK CNNaffinity 7.53707933
REMARK  6 active torsions:
REMARK  status: ('A' for Active; 'I' for Inactive)
REMARK    1  A    between atoms: C3_3  and  O1_4 
REMARK    2  A    between atoms: N1_14  and  O2_16 
REMARK    3  A    between atoms: O2_16  and  C13_17 
REMARK    4  A    between atoms: C13_17  and  C14_18 
REMARK       I    between atoms: C14_18  and  N2_20 
REMARK    5  A    between atoms: N2_20  and  C15_21 
REMARK    6  A    between atoms: C15_21  and  C17_23 
ROOT
HETATM    1  C1  UNL     1       0.847   8.525   8.704  1.00  0.00     0.015 C 
HETATM    2  C2  UNL     1       1.252   7.896   9.645  1.00  0.00    -0.078 C 
HETATM    3  C3  UNL     1       1.782   7.131  10.795  1.00  0.00     0.128 C 
HETATM    4  C4  UNL     1       2.429   5.810  10.305  1.00  0.00     0.052 C 
HETATM    5  C5  UNL     1       1.396   4.690  10.550  1.00  0.00     0.010 C 
HETATM    6  C6  UNL     1       0.136   5.416  11.021  1.00  0.00     0.002 C 
HETATM    7  C7  UNL     1      -0.903   4.624  11.823  1.00  0.00    -0.004 C 
HETATM    8  C8  UNL     1      -1.423   3.418  11.029  1.00  0.00     0.010 C 
HETATM    9  C9  UNL     1      -2.456   2.637  11.831  1.00  0.00     0.035 C 
HETATM   10  C10 UNL     1      -3.593   3.507  12.311  1.00  0.00    -0.069 C 
HETATM   11  C11 UNL     1      -4.861   3.091  12.138  1.00  0.00     0.030 C 
HETATM   12  C12 UNL     1      -6.018   3.820  12.713  1.00  0.00     0.032 C 
HETATM   13  N1  UNL     1      -7.207   3.325  12.511  1.00  0.00    -0.271 N 
ATOM     14  H1  UNL     1      -7.395   2.501  11.941  1.00  0.00     0.194 HD
HETATM   15  C23 UNL     1      -5.734   5.046  13.556  1.00  0.00     0.060 C 
HETATM   16  C24 UNL     1      -4.466   5.745  13.089  1.00  0.00     0.020 C 
HETATM   17  C25 UNL     1      -3.219   4.816  13.017  1.00  0.00    -0.016 C 
HETATM   18  C26 UNL     1      -2.761   4.474  14.452  1.00  0.00     0.020 C 
HETATM   19  C27 UNL     1      -2.093   5.561  12.199  1.00  0.00     0.002 C 
HETATM   20  C28 UNL     1      -1.613   6.886  12.854  1.00  0.00     0.007 C 
HETATM   21  C29 UNL     1      -0.486   7.587  12.074  1.00  0.00     0.014 C 
HETATM   22  C30 UNL     1       0.689   6.636  11.790  1.00  0.00     0.003 C 
HETATM   23  C31 UNL     1       1.361   6.265  13.147  1.00  0.00     0.020 C 
ENDROOT
BRANCH   3  24
HETATM   24  O1  UNL     1       2.754   7.939  11.446  1.00  0.00    -0.377 OA
HETATM   25  H2  UNL     1       3.340   8.286  10.753  1.00  0.00     0.211 HD
ENDBRANCH   3  24
BRANCH  13  26
HETATM   26  O2  UNL     1      -8.195   4.067  13.177  1.00  0.00    -0.271 OA
BRANCH  26  27
HETATM   27  C13 UNL     1      -8.087   5.425  12.776  1.00  0.00     0.303 C 
BRANCH  27  28
HETATM   28  C14 UNL     1      -8.220   6.324  13.998  1.00  0.00     0.244 C 
HETATM   29  O3  UNL     1      -9.172   6.256  14.773  1.00  0.00    -0.271 OA
HETATM   30  N2  UNL     1      -7.187   7.223  14.165  1.00  0.00    -0.351 N 
HETATM   31  H16 UNL     1      -6.364   7.155  13.580  1.00  0.00     0.163 HD
BRANCH  30  32
HETATM   32  C15 UNL     1      -7.144   8.144  15.289  1.00  0.00     0.113 C 
HETATM   33  C16 UNL     1      -8.156   9.282  15.109  1.00  0.00     0.037 C 
BRANCH  32  34
HETATM   34  C17 UNL     1      -5.717   8.628  15.487  1.00  0.00    -0.036 A 
HETATM   35  C18 UNL     1      -5.372   9.988  15.447  1.00  0.00     0.009 A 
HETATM   36  C19 UNL     1      -4.044  10.393  15.612  1.00  0.00     0.001 A 
HETATM   37  C20 UNL     1      -3.044   9.444  15.809  1.00  0.00     0.000 A 
HETATM   38  C21 UNL     1      -3.366   8.089  15.830  1.00  0.00     0.001 A 
HETATM   39  C22 UNL     1      -4.692   7.683  15.665  1.00  0.00     0.009 A 
ENDBRANCH  32  34
ENDBRANCH  30  32
ENDBRANCH  27  28
ENDBRANCH  26  27
ENDBRANCH  13  26
TORSDOF 6
ENDMDL
MODEL 2
REMARK minimizedAffinity -8.4046011
REMARK CNNscore 0.632997394
REMARK CNNaffinity 7.358356
REMARK  6 active torsions:
REMARK  status: ('A' for Active; 'I' for Inactive)
REMARK    1  A    between atoms: C3_3  and  O1_4 
REMARK    2  A    between atoms: N1_14  and  O2_16 
REMARK    3  A    between atoms: O2_16  and  C13_17 
REMARK    4  A    between atoms: C13_17  and  C14_18 
REMARK       I    between atoms: C14_18  and  N2_20 
REMARK    5  A    between atoms: N2_20  and  C15_21 
REMARK    6  A    between atoms: C15_21  and  C17_23 
ROOT
HETATM    1  C1  UNL     1       0.874  12.697  17.844  1.00  0.00     0.015 C 
HETATM    2  C2  UNL     1      -0.303  12.726  17.603  1.00  0.00    -0.078 C 
HETATM    3  C3  UNL     1      -1.755  12.789  17.325  1.00  0.00     0.128 C 
HETATM    4  C4  UNL     1      -2.555  12.254  18.541  1.00  0.00     0.052 C 
HETATM    5  C5  UNL     1      -2.960  10.804  18.203  1.00  0.00     0.010 C 
HETATM    6  C6  UNL     1      -2.252  10.496  16.884  1.00  0.00     0.002 C 
HETATM    7  C7  UNL     1      -2.807   9.368  16.006  1.00  0.00    -0.004 C 
HETATM    8  C8  UNL     1      -2.825   8.031  16.758  1.00  0.00     0.010 C 
HETATM    9  C9  UNL     1      -3.376   6.914  15.880  1.00  0.00     0.035 C 
HETATM   10  C10 UNL     1      -2.637   6.794  14.568  1.00  0.00    -0.069 C 
HETATM   11  C11 UNL     1      -2.229   5.582  14.150  1.00  0.00     0.030 C 
HETATM   12  C12 UNL     1      -1.631   5.369  12.808  1.00  0.00     0.032 C 
HETATM   13  N1  UNL     1      -1.289   4.153  12.485  1.00  0.00    -0.271 N 
ATOM     14  H1  UNL     1      -1.358   3.352  13.113  1.00  0.00     0.194 HD
HETATM   15  C23 UNL     1      -1.528   6.561  11.882  1.00  0.00     0.060 C 
HETATM   16  C24 UNL     1      -1.347   7.850  12.672  1.00  0.00     0.020 C 
HETATM   17  C25 UNL     1      -2.433   8.083  13.762  1.00  0.00    -0.016 C 
HETATM   18  C26 UNL     1      -3.771   8.436  13.075  1.00  0.00     0.020 C 
HETATM   19  C27 UNL     1      -1.936   9.237  14.718  1.00  0.00     0.002 C 
HETATM   20  C28 UNL     1      -1.736  10.602  14.002  1.00  0.00     0.007 C 
HETATM   21  C29 UNL     1      -1.291  11.733  14.946  1.00  0.00     0.014 C 
HETATM   22  C30 UNL     1      -2.224  11.862  16.163  1.00  0.00     0.003 C 
HETATM   23  C31 UNL     1      -3.623  12.333  15.663  1.00  0.00     0.020 C 
ENDROOT
BRANCH   3  24
HETATM   24  O1  UNL     1      -2.093  14.148  17.078  1.00  0.00    -0.377 OA
HETATM   25  H2  UNL     1      -1.688  14.672  17.789  1.00  0.00     0.211 HD
ENDBRANCH   3  24
BRANCH  13  26
HETATM   26  O2  UNL     1      -0.816   4.084  11.166  1.00  0.00    -0.271 OA
BRANCH  26  27
HETATM   27  C13 UNL     1      -1.883   3.675  10.323  1.00  0.00     0.303 C 
BRANCH  27  28
HETATM   28  C14 UNL     1      -2.865   2.832  11.127  1.00  0.00     0.244 C 
HETATM   29  O3  UNL     1      -2.541   1.782  11.680  1.00  0.00    -0.271 OA
HETATM   30  N2  UNL     1      -4.147   3.337  11.181  1.00  0.00    -0.351 N 
HETATM   31  H16 UNL     1      -4.335   4.265  10.823  1.00  0.00     0.163 HD
BRANCH  30  32
HETATM   32  C15 UNL     1      -5.206   2.670  11.920  1.00  0.00     0.113 C 
HETATM   33  C16 UNL     1      -5.955   1.671  11.030  1.00  0.00     0.037 C 
BRANCH  32  34
HETATM   34  C17 UNL     1      -6.110   3.714  12.554  1.00  0.00    -0.036 A 
HETATM   35  C18 UNL     1      -7.511   3.621  12.512  1.00  0.00     0.009 A 
HETATM   36  C19 UNL     1      -8.309   4.613  13.088  1.00  0.00     0.001 A 
HETATM   37  C20 UNL     1      -7.720   5.714  13.704  1.00  0.00     0.000 A 
HETATM   38  C21 UNL     1      -6.332   5.832  13.736  1.00  0.00     0.001 A 
HETATM   39  C22 UNL     1      -5.533   4.842  13.161  1.00  0.00     0.009 A 
ENDBRANCH  32  34
ENDBRANCH  30  32
ENDBRANCH  27  28
ENDBRANCH  26  27
ENDBRANCH  13  26
TORSDOF 6
ENDMDL
MODEL 3
REMARK minimizedAffinity -9.30944252
REMARK CNNscore 0.536925077
REMARK CNNaffinity 7.38604403
REMARK  6 active torsions:
REMARK  status: ('A' for Active; 'I' for Inactive)
REMARK    1  A    between atoms: C3_3  and  O1_4 
REMARK    2  A    between atoms: N1_14  and  O2_16 
REMARK    3  A    between atoms: O2_16  and  C13_17 
REMARK    4  A    between atoms: C13_17  and  C14_18 
REMARK       I    between atoms: C14_18  and  N2_20 
REMARK    5  A    between atoms: N2_20  and  C15_21 
REMARK    6  A    between atoms: C15_21  and  C17_23 
ROOT
HETATM    1  C1  UNL     1      -1.193   8.774  11.736  1.00  0.00     0.015 C 
HETATM    2  C2  UNL     1      -1.261   7.847  12.498  1.00  0.00    -0.078 C 
HETATM    3  C3  UNL     1      -1.310   6.702  13.434  1.00  0.00     0.128 C 
HETATM    4  C4  UNL     1      -1.164   5.369  12.655  1.00  0.00     0.052 C 
HETATM    5  C5  UNL     1      -2.584   4.787  12.500  1.00  0.00     0.010 C 
HETATM    6  C6  UNL     1      -3.514   5.869  13.047  1.00  0.00     0.002 C 
HETATM    7  C7  UNL     1      -4.915   5.457  13.515  1.00  0.00    -0.004 C 
HETATM    8  C8  UNL     1      -5.712   4.798  12.382  1.00  0.00     0.010 C 
HETATM    9  C9  UNL     1      -7.103   4.393  12.852  1.00  0.00     0.035 C 
HETATM   10  C10 UNL     1      -7.866   5.547  13.458  1.00  0.00    -0.069 C 
HETATM   11  C11 UNL     1      -9.137   5.771  13.075  1.00  0.00     0.030 C 
HETATM   12  C12 UNL     1      -9.992   6.790  13.733  1.00  0.00     0.032 C 
HETATM   13  N1  UNL     1     -11.217   6.916  13.306  1.00  0.00    -0.271 N 
ATOM     14  H1  UNL     1     -11.607   6.399  12.519  1.00  0.00     0.194 HD
HETATM   15  C23 UNL     1      -9.408   7.559  14.899  1.00  0.00     0.060 C 
HETATM   16  C24 UNL     1      -7.902   7.719  14.746  1.00  0.00     0.020 C 
HETATM   17  C25 UNL     1      -7.142   6.379  14.524  1.00  0.00    -0.016 C 
HETATM   18  C26 UNL     1      -7.141   5.575  15.843  1.00  0.00     0.020 C 
HETATM   19  C27 UNL     1      -5.679   6.715  14.035  1.00  0.00     0.002 C 
HETATM   20  C28 UNL     1      -4.844   7.526  15.065  1.00  0.00     0.007 C 
HETATM   21  C29 UNL     1      -3.405   7.815  14.601  1.00  0.00     0.014 C 
HETATM   22  C30 UNL     1      -2.677   6.532  14.164  1.00  0.00     0.003 C 
HETATM   23  C31 UNL     1      -2.480   5.627  15.418  1.00  0.00     0.020 C 
ENDROOT
BRANCH   3  24
HETATM   24  O1  UNL     1      -0.239   6.848  14.358  1.00  0.00    -0.377 OA
HETATM   25  H2  UNL     1       0.557   7.045  13.836  1.00  0.00     0.211 HD
ENDBRANCH   3  24
BRANCH  13  26
HETATM   26  O2  UNL     1     -11.934   7.854  14.067  1.00  0.00    -0.271 OA
BRANCH  26  27
HETATM   27  C13 UNL     1     -12.803   7.154  14.945  1.00  0.00     0.303 C 
BRANCH  27  28
HETATM   28  C14 UNL     1     -13.932   6.523  14.140  1.00  0.00     0.244 C 
HETATM   29  O3  UNL     1     -14.197   6.862  12.988  1.00  0.00    -0.271 OA
HETATM   30  N2  UNL     1     -14.637   5.542  14.807  1.00  0.00    -0.351 N 
HETATM   31  H16 UNL     1     -14.302   5.207  15.701  1.00  0.00     0.163 HD
BRANCH  30  32
HETATM   32  C15 UNL     1     -15.734   4.824  14.181  1.00  0.00     0.113 C 
HETATM   33  C16 UNL     1     -17.000   5.688  14.126  1.00  0.00     0.037 C 
BRANCH  32  34
HETATM   34  C17 UNL     1     -15.937   3.497  14.894  1.00  0.00    -0.036 A 
HETATM   35  C18 UNL     1     -17.049   3.247  15.714  1.00  0.00     0.009 A 
HETATM   36  C19 UNL     1     -17.188   2.021  16.371  1.00  0.00     0.001 A 
HETATM   37  C20 UNL     1     -16.217   1.034  16.226  1.00  0.00     0.000 A 
HETATM   38  C21 UNL     1     -15.097   1.275  15.432  1.00  0.00     0.001 A 
HETATM   39  C22 UNL     1     -14.955   2.499  14.776  1.00  0.00     0.009 A 
ENDBRANCH  32  34
ENDBRANCH  30  32
ENDBRANCH  27  28
ENDBRANCH  26  27
ENDBRANCH  13  26
TORSDOF 6
ENDMDL
MODEL 4
REMARK minimizedAffinity -8.69872379
REMARK CNNscore 0.504407048
REMARK CNNaffinity 7.18571329
REMARK  6 active torsions:
REMARK  status: ('A' for Active; 'I' for Inactive)
REMARK    1  A    between atoms: C3_3  and  O1_4 
REMARK    2  A    between atoms: N1_14  and  O2_16 
REMARK    3  A    between atoms: O2_16  and  C13_17 
REMARK    4  A    between atoms: C13_17  and  C14_18 
REMARK       I    between atoms: C14_18  and  N2_20 
REMARK    5  A    between atoms: N2_20  and  C15_21 
REMARK    6  A    between atoms: C15_21  and  C17_23 
ROOT
HETATM    1  C1  UNL     1      -8.698   5.624  10.991  1.00  0.00     0.015 C 
HETATM    2  C2  UNL     1      -8.392   5.581  12.152  1.00  0.00    -0.078 C 
HETATM    3  C3  UNL     1      -8.048   5.520  13.590  1.00  0.00     0.128 C 
HETATM    4  C4  UNL     1      -8.563   6.789  14.316  1.00  0.00     0.052 C 
HETATM    5  C5  UNL     1      -7.351   7.731  14.477  1.00  0.00     0.010 C 
HETATM    6  C6  UNL     1      -6.221   7.053  13.704  1.00  0.00     0.002 C 
HETATM    7  C7  UNL     1      -4.775   7.423  14.054  1.00  0.00    -0.004 C 
HETATM    8  C8  UNL     1      -4.522   8.925  13.871  1.00  0.00     0.010 C 
HETATM    9  C9  UNL     1      -3.084   9.286  14.219  1.00  0.00     0.035 C 
HETATM   10  C10 UNL     1      -2.080   8.465  13.446  1.00  0.00    -0.069 C 
HETATM   11  C11 UNL     1      -1.048   9.083  12.841  1.00  0.00     0.030 C 
HETATM   12  C12 UNL     1       0.053   8.329  12.191  1.00  0.00     0.032 C 
HETATM   13  N1  UNL     1       1.020   9.017  11.652  1.00  0.00    -0.271 N 
ATOM     14  H1  UNL     1       1.042  10.035  11.603  1.00  0.00     0.194 HD
HETATM   15  C23 UNL     1       0.015   6.817  12.263  1.00  0.00     0.060 C 
HETATM   16  C24 UNL     1      -1.419   6.310  12.307  1.00  0.00     0.020 C 
HETATM   17  C25 UNL     1      -2.282   6.945  13.436  1.00  0.00    -0.016 C 
HETATM   18  C26 UNL     1      -1.815   6.389  14.800  1.00  0.00     0.020 C 
HETATM   19  C27 UNL     1      -3.798   6.610  13.149  1.00  0.00     0.002 C 
HETATM   20  C28 UNL     1      -4.117   5.089  13.157  1.00  0.00     0.007 C 
HETATM   21  C29 UNL     1      -5.604   4.770  12.918  1.00  0.00     0.014 C 
HETATM   22  C30 UNL     1      -6.517   5.547  13.882  1.00  0.00     0.003 C 
HETATM   23  C31 UNL     1      -6.261   5.027  15.329  1.00  0.00     0.020 C 
ENDROOT
BRANCH   3  24
HETATM   24  O1  UNL     1      -8.663   4.361  14.137  1.00  0.00    -0.377 OA
HETATM   25  H2  UNL     1      -9.587   4.364  13.835  1.00  0.00     0.211 HD
ENDBRANCH   3  24
BRANCH  13  26
HETATM   26  O2  UNL     1       2.029   8.181  11.149  1.00  0.00    -0.271 OA
BRANCH  26  27
HETATM   27  C13 UNL     1       3.054   8.070  12.126  1.00  0.00     0.303 C 
BRANCH  27  28
HETATM   28  C14 UNL     1       4.043   6.994  11.699  1.00  0.00     0.244 C 
HETATM   29  O3  UNL     1       5.190   6.934  12.138  1.00  0.00    -0.271 OA
HETATM   30  N2  UNL     1       3.551   6.092  10.778  1.00  0.00    -0.351 N 
HETATM   31  H16 UNL     1       2.567   6.102  10.545  1.00  0.00     0.163 HD
BRANCH  30  32
HETATM   32  C15 UNL     1       4.356   4.990  10.276  1.00  0.00     0.113 C 
HETATM   33  C16 UNL     1       5.850   5.252  10.497  1.00  0.00     0.037 C 
BRANCH  32  34
HETATM   34  C17 UNL     1       3.995   4.728   8.823  1.00  0.00    -0.036 A 
HETATM   35  C18 UNL     1       3.094   5.537   8.113  1.00  0.00     0.009 A 
HETATM   36  C19 UNL     1       2.772   5.250   6.784  1.00  0.00     0.001 A 
HETATM   37  C20 UNL     1       3.337   4.148   6.149  1.00  0.00     0.000 A 
HETATM   38  C21 UNL     1       4.218   3.322   6.845  1.00  0.00     0.001 A 
HETATM   39  C22 UNL     1       4.540   3.607   8.174  1.00  0.00     0.009 A 
ENDBRANCH  32  34
ENDBRANCH  30  32
ENDBRANCH  27  28
ENDBRANCH  26  27
ENDBRANCH  13  26
TORSDOF 6
ENDMDL
MODEL 5
REMARK minimizedAffinity -7.570189
REMARK CNNscore 0.482134491
REMARK CNNaffinity 5.55800104
REMARK  6 active torsions:
REMARK  status: ('A' for Active; 'I' for Inactive)
REMARK    1  A    between atoms: C3_3  and  O1_4 
REMARK    2  A    between atoms: N1_14  and  O2_16 
REMARK    3  A    between atoms: O2_16  and  C13_17 
REMARK    4  A    between atoms: C13_17  and  C14_18 
REMARK       I    between atoms: C14_18  and  N2_20 
REMARK    5  A    between atoms: N2_20  and  C15_21 
REMARK    6  A    between atoms: C15_21  and  C17_23 
ROOT
HETATM    1  C1  UNL     1     -10.811  -8.477   8.883  1.00  0.00     0.015 C 
HETATM    2  C2  UNL     1     -11.883  -8.444   9.425  1.00  0.00    -0.078 C 
HETATM    3  C3  UNL     1     -13.218  -8.400  10.062  1.00  0.00     0.128 C 
HETATM    4  C4  UNL     1     -13.748  -6.943  10.088  1.00  0.00     0.052 C 
HETATM    5  C5  UNL     1     -13.495  -6.403  11.511  1.00  0.00     0.010 C 
HETATM    6  C6  UNL     1     -12.689  -7.499  12.208  1.00  0.00     0.002 C 
HETATM    7  C7  UNL     1     -12.692  -7.542  13.741  1.00  0.00    -0.004 C 
HETATM    8  C8  UNL     1     -12.163  -6.231  14.338  1.00  0.00     0.010 C 
HETATM    9  C9  UNL     1     -12.168  -6.281  15.861  1.00  0.00     0.035 C 
HETATM   10  C10 UNL     1     -11.413  -7.472  16.401  1.00  0.00    -0.069 C 
HETATM   11  C11 UNL     1     -10.520  -7.292  17.393  1.00  0.00     0.030 C 
HETATM   12  C12 UNL     1      -9.853  -8.431  18.071  1.00  0.00     0.032 C 
HETATM   13  N1  UNL     1      -9.021  -8.157  19.036  1.00  0.00    -0.271 N 
ATOM     14  H1  UNL     1      -8.762  -7.212  19.318  1.00  0.00     0.194 HD
HETATM   15  C23 UNL     1     -10.238  -9.832  17.646  1.00  0.00     0.060 C 
HETATM   16  C24 UNL     1     -10.640  -9.865  16.179  1.00  0.00     0.020 C 
HETATM   17  C25 UNL     1     -11.750  -8.842  15.802  1.00  0.00    -0.016 C 
HETATM   18  C26 UNL     1     -13.094  -9.312  16.403  1.00  0.00     0.020 C 
HETATM   19  C27 UNL     1     -11.813  -8.735  14.228  1.00  0.00     0.002 C 
HETATM   20  C28 UNL     1     -12.189 -10.068  13.523  1.00  0.00     0.007 C 
HETATM   21  C29 UNL     1     -12.289  -9.949  11.992  1.00  0.00     0.014 C 
HETATM   22  C30 UNL     1     -13.220  -8.800  11.568  1.00  0.00     0.003 C 
HETATM   23  C31 UNL     1     -14.674  -9.160  12.001  1.00  0.00     0.020 C 
ENDROOT
BRANCH   3  24
HETATM   24  O1  UNL     1     -14.091  -9.224   9.301  1.00  0.00    -0.377 OA
HETATM   25  H2  UNL     1     -13.964  -8.982   8.368  1.00  0.00     0.211 HD
ENDBRANCH   3  24
BRANCH  13  26
HETATM   26  O2  UNL     1      -8.528  -9.324  19.640  1.00  0.00    -0.271 OA
BRANCH  26  27
HETATM   27  C13 UNL     1      -9.269  -9.568  20.826  1.00  0.00     0.303 C 
BRANCH  27  28
HETATM   28  C14 UNL     1      -8.411 -10.360  21.803  1.00  0.00     0.244 C 
HETATM   29  O3  UNL     1      -7.439 -11.024  21.447  1.00  0.00    -0.271 OA
HETATM   30  N2  UNL     1      -8.813 -10.277  23.121  1.00  0.00    -0.351 N 
HETATM   31  H16 UNL     1      -9.534  -9.618  23.383  1.00  0.00     0.163 HD
BRANCH  30  32
HETATM   32  C15 UNL     1      -8.096 -10.956  24.187  1.00  0.00     0.113 C 
HETATM   33  C16 UNL     1      -6.660 -11.290  23.762  1.00  0.00     0.037 C 
BRANCH  32  34
HETATM   34  C17 UNL     1      -8.893 -12.172  24.632  1.00  0.00    -0.036 A 
HETATM   35  C18 UNL     1      -8.565 -12.907  25.782  1.00  0.00     0.009 A 
HETATM   36  C19 UNL     1      -9.310 -14.032  26.147  1.00  0.00     0.001 A 
HETATM   37  C20 UNL     1     -10.385 -14.442  25.364  1.00  0.00     0.000 A 
HETATM   38  C21 UNL     1     -10.712 -13.735  24.208  1.00  0.00     0.001 A 
HETATM   39  C22 UNL     1      -9.968 -12.612  23.842  1.00  0.00     0.009 A 
ENDBRANCH  32  34
ENDBRANCH  30  32
ENDBRANCH  27  28
ENDBRANCH  26  27
ENDBRANCH  13  26
TORSDOF 6
ENDMDL
MODEL 6
REMARK minimizedAffinity -10.379281
REMARK CNNscore 0.473473877
REMARK CNNaffinity 7.24886751
REMARK  6 active torsions:
REMARK  status: ('A' for Active; 'I' for Inactive)
REMARK    1  A    between atoms: C3_3  and  O1_4 
REMARK    2  A    between atoms: N1_14  and  O2_16 
REMARK    3  A    between atoms: O2_16  and  C13_17 
REMARK    4  A    between atoms: C13_17  and  C14_18 
REMARK       I    between atoms: C14_18  and  N2_20 
REMARK    5  A    between atoms: N2_20  and  C15_21 
REMARK    6  A    between atoms: C15_21  and  C17_23 
ROOT
HETATM    1  C1  UNL     1       0.076   8.486   8.730  1.00  0.00     0.015 C 
HETATM    2  C2  UNL     1       0.419   7.999   9.774  1.00  0.00    -0.078 C 
HETATM    3  C3  UNL     1       0.874   7.401  11.049  1.00  0.00     0.128 C 
HETATM    4  C4  UNL     1       1.313   5.931  10.823  1.00  0.00     0.052 C 
HETATM    5  C5  UNL     1       0.141   5.041  11.287  1.00  0.00     0.010 C 
HETATM    6  C6  UNL     1      -0.988   6.017  11.613  1.00  0.00     0.002 C 
HETATM    7  C7  UNL     1      -2.101   5.553  12.560  1.00  0.00    -0.004 C 
HETATM    8  C8  UNL     1      -2.812   4.305  12.018  1.00  0.00     0.010 C 
HETATM    9  C9  UNL     1      -3.917   3.849  12.962  1.00  0.00     0.035 C 
HETATM   10  C10 UNL     1      -4.904   4.951  13.269  1.00  0.00    -0.069 C 
HETATM   11  C11 UNL     1      -6.223   4.696  13.186  1.00  0.00     0.030 C 
HETATM   12  C12 UNL     1      -7.247   5.682  13.613  1.00  0.00     0.032 C 
HETATM   13  N1  UNL     1      -8.499   5.333  13.517  1.00  0.00    -0.271 N 
ATOM     14  H1  UNL     1      -8.820   4.450  13.120  1.00  0.00     0.194 HD
HETATM   15  C23 UNL     1      -6.767   6.992  14.199  1.00  0.00     0.060 C 
HETATM   16  C24 UNL     1      -5.428   7.399  13.599  1.00  0.00     0.020 C 
HETATM   17  C25 UNL     1      -4.328   6.303  13.704  1.00  0.00    -0.016 C 
HETATM   18  C26 UNL     1      -3.875   6.182  15.176  1.00  0.00     0.020 C 
HETATM   19  C27 UNL     1      -3.135   6.706  12.750  1.00  0.00     0.002 C 
HETATM   20  C28 UNL     1      -2.453   8.049  13.132  1.00  0.00     0.007 C 
HETATM   21  C29 UNL     1      -1.265   8.417  12.225  1.00  0.00     0.014 C 
HETATM   22  C30 UNL     1      -0.244   7.270  12.127  1.00  0.00     0.003 C 
HETATM   23  C31 UNL     1       0.413   7.075  13.527  1.00  0.00     0.020 C 
ENDROOT
BRANCH   3  24
HETATM   24  O1  UNL     1       1.970   8.171  11.525  1.00  0.00    -0.377 OA
HETATM   25  H2  UNL     1       2.576   8.291  10.774  1.00  0.00     0.211 HD
ENDBRANCH   3  24
BRANCH  13  26
HETATM   26  O2  UNL     1      -9.351   6.324  14.030  1.00  0.00    -0.271 OA
BRANCH  26  27
HETATM   27  C13 UNL     1     -10.173   6.803  12.976  1.00  0.00     0.303 C 
BRANCH  27  28
HETATM   28  C14 UNL     1     -11.440   7.413  13.561  1.00  0.00     0.244 C 
HETATM   29  O3  UNL     1     -11.468   7.952  14.666  1.00  0.00    -0.271 OA
HETATM   30  N2  UNL     1     -12.554   7.310  12.755  1.00  0.00    -0.351 N 
HETATM   31  H16 UNL     1     -12.455   6.977  11.804  1.00  0.00     0.163 HD
BRANCH  30  32
HETATM   32  C15 UNL     1     -13.842   7.856  13.151  1.00  0.00     0.113 C 
HETATM   33  C16 UNL     1     -13.680   8.909  14.253  1.00  0.00     0.037 C 
BRANCH  32  34
HETATM   34  C17 UNL     1     -14.773   6.716  13.534  1.00  0.00    -0.036 A 
HETATM   35  C18 UNL     1     -14.431   5.760  14.504  1.00  0.00     0.009 A 
HETATM   36  C19 UNL     1     -15.305   4.714  14.813  1.00  0.00     0.001 A 
HETATM   37  C20 UNL     1     -16.525   4.603  14.151  1.00  0.00     0.000 A 
HETATM   38  C21 UNL     1     -16.870   5.532  13.171  1.00  0.00     0.001 A 
HETATM   39  C22 UNL     1     -15.998   6.577  12.861  1.00  0.00     0.009 A 
ENDBRANCH  32  34
ENDBRANCH  30  32
ENDBRANCH  27  28
ENDBRANCH  26  27
ENDBRANCH  13  26
TORSDOF 6
ENDMDL
MODEL 7
REMARK minimizedAffinity -7.85930014
REMARK CNNscore 0.462584883
REMARK CNNaffinity 6.203022
REMARK  6 active torsions:
REMARK  status: ('A' for Active; 'I' for Inactive)
REMARK    1  A    between atoms: C3_3  and  O1_4 
REMARK    2  A    between atoms: N1_14  and  O2_16 
REMARK    3  A    between atoms: O2_16  and  C13_17 
REMARK    4  A    between atoms: C13_17  and  C14_18 
REMARK       I    between atoms: C14_18  and  N2_20 
REMARK    5  A    between atoms: N2_20  and  C15_21 
REMARK    6  A    between atoms: C15_21  and  C17_23 
ROOT
HETATM    1  C1  UNL     1      -3.517  17.516  18.080  1.00  0.00     0.015 C 
HETATM    2  C2  UNL     1      -4.395  16.703  18.188  1.00  0.00    -0.078 C 
HETATM    3  C3  UNL     1      -5.497  15.726  18.336  1.00  0.00     0.128 C 
HETATM    4  C4  UNL     1      -5.572  15.225  19.801  1.00  0.00     0.052 C 
HETATM    5  C5  UNL     1      -4.881  13.846  19.836  1.00  0.00     0.010 C 
HETATM    6  C6  UNL     1      -4.292  13.667  18.437  1.00  0.00     0.002 C 
HETATM    7  C7  UNL     1      -3.984  12.245  17.953  1.00  0.00    -0.004 C 
HETATM    8  C8  UNL     1      -2.990  11.540  18.886  1.00  0.00     0.010 C 
HETATM    9  C9  UNL     1      -2.687  10.129  18.399  1.00  0.00     0.035 C 
HETATM   10  C10 UNL     1      -2.207  10.103  16.968  1.00  0.00    -0.069 C 
HETATM   11  C11 UNL     1      -1.112   9.386  16.652  1.00  0.00     0.030 C 
HETATM   12  C12 UNL     1      -0.669   9.196  15.248  1.00  0.00     0.032 C 
HETATM   13  N1  UNL     1       0.390   8.465  15.043  1.00  0.00    -0.271 N 
ATOM     14  H1  UNL     1       0.962   8.062  15.785  1.00  0.00     0.194 HD
HETATM   15  C23 UNL     1      -1.518   9.800  14.150  1.00  0.00     0.060 C 
HETATM   16  C24 UNL     1      -2.213  11.065  14.633  1.00  0.00     0.020 C 
HETATM   17  C25 UNL     1      -3.040  10.876  15.938  1.00  0.00    -0.016 C 
HETATM   18  C26 UNL     1      -4.302  10.046  15.620  1.00  0.00     0.020 C 
HETATM   19  C27 UNL     1      -3.400  12.304  16.508  1.00  0.00     0.002 C 
HETATM   20  C28 UNL     1      -4.280  13.157  15.552  1.00  0.00     0.007 C 
HETATM   21  C29 UNL     1      -4.662  14.532  16.130  1.00  0.00     0.014 C 
HETATM   22  C30 UNL     1      -5.295  14.409  17.527  1.00  0.00     0.003 C 
HETATM   23  C31 UNL     1      -6.666  13.680  17.383  1.00  0.00     0.020 C 
ENDROOT
BRANCH   3  24
HETATM   24  O1  UNL     1      -6.709  16.378  17.979  1.00  0.00    -0.377 OA
HETATM   25  H2  UNL     1      -6.718  17.230  18.447  1.00  0.00     0.211 HD
ENDBRANCH   3  24
BRANCH  13  26
HETATM   26  O2  UNL     1       0.646   8.302  13.672  1.00  0.00    -0.271 OA
BRANCH  26  27
HETATM   27  C13 UNL     1       1.537   7.210  13.505  1.00  0.00     0.303 C 
BRANCH  27  28
HETATM   28  C14 UNL     1       2.546   7.544  12.414  1.00  0.00     0.244 C 
HETATM   29  O3  UNL     1       2.736   8.691  12.013  1.00  0.00    -0.271 OA
HETATM   30  N2  UNL     1       3.227   6.456  11.907  1.00  0.00    -0.351 N 
HETATM   31  H16 UNL     1       3.133   5.554  12.356  1.00  0.00     0.163 HD
BRANCH  30  32
HETATM   32  C15 UNL     1       4.239   6.597  10.873  1.00  0.00     0.113 C 
HETATM   33  C16 UNL     1       5.358   7.545  11.321  1.00  0.00     0.037 C 
BRANCH  32  34
HETATM   34  C17 UNL     1       3.572   7.019   9.574  1.00  0.00    -0.036 A 
HETATM   35  C18 UNL     1       3.585   8.347   9.118  1.00  0.00     0.009 A 
HETATM   36  C19 UNL     1       2.941   8.699   7.928  1.00  0.00     0.001 A 
HETATM   37  C20 UNL     1       2.269   7.733   7.185  1.00  0.00     0.000 A 
HETATM   38  C21 UNL     1       2.229   6.414   7.633  1.00  0.00     0.001 A 
HETATM   39  C22 UNL     1       2.871   6.061   8.822  1.00  0.00     0.009 A 
ENDBRANCH  32  34
ENDBRANCH  30  32
ENDBRANCH  27  28
ENDBRANCH  26  27
ENDBRANCH  13  26
TORSDOF 6
ENDMDL
MODEL 8
REMARK minimizedAffinity -7.83549833
REMARK CNNscore 0.415139407
REMARK CNNaffinity 6.58125639
REMARK  6 active torsions:
REMARK  status: ('A' for Active; 'I' for Inactive)
REMARK    1  A    between atoms: C3_3  and  O1_4 
REMARK    2  A    between atoms: N1_14  and  O2_16 
REMARK    3  A    between atoms: O2_16  and  C13_17 
REMARK    4  A    between atoms: C13_17  and  C14_18 
REMARK       I    between atoms: C14_18  and  N2_20 
REMARK    5  A    between atoms: N2_20  and  C15_21 
REMARK    6  A    between atoms: C15_21  and  C17_23 
ROOT
HETATM    1  C1  UNL     1       0.838   8.191   8.632  1.00  0.00     0.015 C 
HETATM    2  C2  UNL     1       1.014   7.494   9.595  1.00  0.00    -0.078 C 
HETATM    3  C3  UNL     1       1.249   6.614  10.762  1.00  0.00     0.128 C 
HETATM    4  C4  UNL     1       0.359   5.348  10.663  1.00  0.00     0.052 C 
HETATM    5  C5  UNL     1      -0.851   5.583  11.591  1.00  0.00     0.010 C 
HETATM    6  C6  UNL     1      -0.706   7.028  12.067  1.00  0.00     0.002 C 
HETATM    7  C7  UNL     1      -1.416   7.442  13.362  1.00  0.00    -0.004 C 
HETATM    8  C8  UNL     1      -2.931   7.215  13.266  1.00  0.00     0.010 C 
HETATM    9  C9  UNL     1      -3.630   7.630  14.555  1.00  0.00     0.035 C 
HETATM   10  C10 UNL     1      -3.314   9.053  14.950  1.00  0.00    -0.069 C 
HETATM   11  C11 UNL     1      -4.318   9.878  15.300  1.00  0.00     0.030 C 
HETATM   12  C12 UNL     1      -4.071  11.239  15.839  1.00  0.00     0.032 C 
HETATM   13  N1  UNL     1      -5.108  11.954  16.174  1.00  0.00    -0.271 N 
ATOM     14  H1  UNL     1      -6.075  11.660  16.039  1.00  0.00     0.194 HD
HETATM   15  C23 UNL     1      -2.634  11.673  16.033  1.00  0.00     0.060 C 
HETATM   16  C24 UNL     1      -1.723  11.012  15.009  1.00  0.00     0.020 C 
HETATM   17  C25 UNL     1      -1.836   9.461  14.966  1.00  0.00    -0.016 C 
HETATM   18  C26 UNL     1      -1.190   8.873  16.240  1.00  0.00     0.020 C 
HETATM   19  C27 UNL     1      -1.127   8.948  13.653  1.00  0.00     0.002 C 
HETATM   20  C28 UNL     1       0.391   9.277  13.590  1.00  0.00     0.007 C 
HETATM   21  C29 UNL     1       1.087   8.738  12.327  1.00  0.00     0.014 C 
HETATM   22  C30 UNL     1       0.823   7.236  12.126  1.00  0.00     0.003 C 
HETATM   23  C31 UNL     1       1.515   6.455  13.284  1.00  0.00     0.020 C 
ENDROOT
BRANCH   3  24
HETATM   24  O1  UNL     1       2.623   6.247  10.761  1.00  0.00    -0.377 OA
HETATM   25  H2  UNL     1       2.837   5.961   9.857  1.00  0.00     0.211 HD
ENDBRANCH   3  24
BRANCH  13  26
HETATM   26  O2  UNL     1      -4.728  13.180  16.742  1.00  0.00    -0.271 OA
BRANCH  26  27
HETATM   27  C13 UNL     1      -4.454  12.974  18.120  1.00  0.00     0.303 C 
BRANCH  27  28
HETATM   28  C14 UNL     1      -5.299  13.931  18.950  1.00  0.00     0.244 C 
HETATM   29  O3  UNL     1      -5.814  14.944  18.478  1.00  0.00    -0.271 OA
HETATM   30  N2  UNL     1      -5.438  13.574  20.276  1.00  0.00    -0.351 N 
HETATM   31  H16 UNL     1      -5.108  12.670  20.587  1.00  0.00     0.163 HD
BRANCH  30  32
HETATM   32  C15 UNL     1      -6.227  14.366  21.206  1.00  0.00     0.113 C 
HETATM   33  C16 UNL     1      -5.383  14.807  22.408  1.00  0.00     0.037 C 
BRANCH  32  34
HETATM   34  C17 UNL     1      -7.474  13.588  21.594  1.00  0.00    -0.036 A 
HETATM   35  C18 UNL     1      -8.472  13.255  20.665  1.00  0.00     0.009 A 
HETATM   36  C19 UNL     1      -9.615  12.557  21.065  1.00  0.00     0.001 A 
HETATM   37  C20 UNL     1      -9.780  12.192  22.398  1.00  0.00     0.000 A 
HETATM   38  C21 UNL     1      -8.809  12.532  23.337  1.00  0.00     0.001 A 
HETATM   39  C22 UNL     1      -7.666  13.230  22.939  1.00  0.00     0.009 A 
ENDBRANCH  32  34
ENDBRANCH  30  32
ENDBRANCH  27  28
ENDBRANCH  26  27
ENDBRANCH  13  26
TORSDOF 6
ENDMDL
MODEL 9
REMARK minimizedAffinity -9.46913624
REMARK CNNscore 0.404570043
REMARK CNNaffinity 7.01517439
REMARK  6 active torsions:
REMARK  status: ('A' for Active; 'I' for Inactive)
REMARK    1  A    between atoms: C3_3  and  O1_4 
REMARK    2  A    between atoms: N1_14  and  O2_16 
REMARK    3  A    between atoms: O2_16  and  C13_17 
REMARK    4  A    between atoms: C13_17  and  C14_18 
REMARK       I    between atoms: C14_18  and  N2_20 
REMARK    5  A    between atoms: N2_20  and  C15_21 
REMARK    6  A    between atoms: C15_21  and  C17_23 
ROOT
HETATM    1  C1  UNL     1       1.750   7.344   6.872  1.00  0.00     0.015 C 
HETATM    2  C2  UNL     1       2.233   7.347   7.972  1.00  0.00    -0.078 C 
HETATM    3  C3  UNL     1       2.858   7.357   9.314  1.00  0.00     0.128 C 
HETATM    4  C4  UNL     1       3.589   6.014   9.571  1.00  0.00     0.052 C 
HETATM    5  C5  UNL     1       2.655   5.160  10.453  1.00  0.00     0.010 C 
HETATM    6  C6  UNL     1       1.359   5.964  10.544  1.00  0.00     0.002 C 
HETATM    7  C7  UNL     1       0.411   5.688  11.717  1.00  0.00    -0.004 C 
HETATM    8  C8  UNL     1      -0.040   4.221  11.738  1.00  0.00     0.010 C 
HETATM    9  C9  UNL     1      -0.983   3.953  12.904  1.00  0.00     0.035 C 
HETATM   10  C10 UNL     1      -2.167   4.890  12.916  1.00  0.00    -0.069 C 
HETATM   11  C11 UNL     1      -3.404   4.387  13.084  1.00  0.00     0.030 C 
HETATM   12  C12 UNL     1      -4.595   5.257  13.253  1.00  0.00     0.032 C 
HETATM   13  N1  UNL     1      -5.748   4.675  13.434  1.00  0.00    -0.271 N 
ATOM     14  H1  UNL     1      -5.890   3.666  13.413  1.00  0.00     0.194 HD
HETATM   15  C23 UNL     1      -4.380   6.755  13.278  1.00  0.00     0.060 C 
HETATM   16  C24 UNL     1      -3.185   7.147  12.421  1.00  0.00     0.020 C 
HETATM   17  C25 UNL     1      -1.873   6.388  12.775  1.00  0.00    -0.016 C 
HETATM   18  C26 UNL     1      -1.343   6.904  14.132  1.00  0.00     0.020 C 
HETATM   19  C27 UNL     1      -0.835   6.621  11.608  1.00  0.00     0.002 C 
HETATM   20  C28 UNL     1      -0.439   8.110  11.409  1.00  0.00     0.007 C 
HETATM   21  C29 UNL     1       0.605   8.327  10.298  1.00  0.00     0.014 C 
HETATM   22  C30 UNL     1       1.840   7.431  10.492  1.00  0.00     0.003 C 
HETATM   23  C31 UNL     1       2.583   7.890  11.783  1.00  0.00     0.020 C 
ENDROOT
BRANCH   3  24
HETATM   24  O1  UNL     1       3.785   8.434   9.356  1.00  0.00    -0.377 OA
HETATM   25  H2  UNL     1       4.320   8.376   8.545  1.00  0.00     0.211 HD
ENDBRANCH   3  24
BRANCH  13  26
HETATM   26  O2  UNL     1      -6.768   5.612  13.660  1.00  0.00    -0.271 OA
BRANCH  26  27
HETATM   27  C13 UNL     1      -8.021   4.955  13.535  1.00  0.00     0.303 C 
BRANCH  27  28
HETATM   28  C14 UNL     1      -9.113   5.992  13.309  1.00  0.00     0.244 C 
HETATM   29  O3  UNL     1      -9.259   6.582  12.239  1.00  0.00    -0.271 OA
HETATM   30  N2  UNL     1      -9.925   6.220  14.401  1.00  0.00    -0.351 N 
HETATM   31  H16 UNL     1      -9.851   5.621  15.213  1.00  0.00     0.163 HD
BRANCH  30  32
HETATM   32  C15 UNL     1     -11.029   7.164  14.353  1.00  0.00     0.113 C 
HETATM   33  C16 UNL     1     -11.778   7.072  13.018  1.00  0.00     0.037 C 
BRANCH  32  34
HETATM   34  C17 UNL     1     -10.509   8.559  14.661  1.00  0.00    -0.036 A 
HETATM   35  C18 UNL     1     -11.163   9.720  14.218  1.00  0.00     0.009 A 
HETATM   36  C19 UNL     1     -10.641  10.985  14.503  1.00  0.00     0.001 A 
HETATM   37  C20 UNL     1      -9.457  11.107  15.225  1.00  0.00     0.000 A 
HETATM   38  C21 UNL     1      -8.785   9.964  15.655  1.00  0.00     0.001 A 
HETATM   39  C22 UNL     1      -9.304   8.700  15.370  1.00  0.00     0.009 A 
ENDBRANCH  32  34
ENDBRANCH  30  32
ENDBRANCH  27  28
ENDBRANCH  26  27
ENDBRANCH  13  26
TORSDOF 6
ENDMDL
