MODEL 1
REMARK minimizedAffinity -7.91483068
REMARK CNNscore 0.619646907
REMARK CNNaffinity 7.0086174
REMARK  19 active torsions:
REMARK  status: ('A' for Active; 'I' for Inactive)
REMARK    1  A    between atoms: O1_2  and  C2_3 
REMARK    2  A    between atoms: C2_3  and  C3_4 
REMARK    3  A    between atoms: C2_3  and  C28_36 
REMARK    4  A    between atoms: C3_4  and  C4_5 
REMARK    5  A    between atoms: C4_5  and  C6_7 
REMARK    6  A    between atoms: C6_7  and  O2_8 
REMARK    7  A    between atoms: C6_7  and  C7_9 
REMARK    8  A    between atoms: C8_10  and  C9_11 
REMARK    9  A    between atoms: C10_12  and  C11_13 
REMARK   10  A    between atoms: C11_13  and  N1_14 
REMARK       I    between atoms: N1_14  and  C12_15 
REMARK   11  A    between atoms: C12_15  and  C13_17 
REMARK   12  A    between atoms: C13_17  and  C16_20 
REMARK   13  A    between atoms: C16_20  and  O4_21 
REMARK   14  A    between atoms: C16_20  and  C17_22 
REMARK   15  A    between atoms: C19_24  and  C20_25 
REMARK   16  A    between atoms: C21_26  and  C22_27 
REMARK   17  A    between atoms: C23_28  and  C24_29 
REMARK   18  A    between atoms: C26_31  and  N2_33 
REMARK   19  A    between atoms: C28_36  and  O7_37 
ROOT
HETATM    1  C9  UNL     1     -12.399   7.527  13.786  1.00  0.00    -0.003 C 
HETATM    2  C10 UNL     1     -11.193   6.967  13.954  1.00  0.00    -0.007 C 
ENDROOT
BRANCH   1   3
HETATM    3  C8  UNL     1     -13.395   7.011  12.876  1.00  0.00    -0.002 C 
HETATM    4  C7  UNL     1     -14.642   7.501  12.830  1.00  0.00     0.005 C 
BRANCH   4   5
HETATM    5  C6  UNL     1     -15.727   6.992  11.926  1.00  0.00     0.144 C 
BRANCH   5   6
HETATM    6  C4  UNL     1     -17.021   6.595  12.691  1.00  0.00     0.016 C 
HETATM    7  C5  UNL     1     -17.452   7.760  13.593  1.00  0.00     0.013 C 
BRANCH   6   8
HETATM    8  C3  UNL     1     -16.848   5.307  13.518  1.00  0.00     0.042 C 
BRANCH   8   9
HETATM    9  C2  UNL     1     -17.714   4.047  13.214  1.00  0.00     0.159 C 
BRANCH   9  10
HETATM   10  O1  UNL     1     -19.052   4.579  13.070  1.00  0.00    -0.388 OA
HETATM   11  C1  UNL     1     -20.052   3.863  13.796  1.00  0.00     0.202 C 
ENDBRANCH   9  10
BRANCH   9  12
HETATM   12  C28 UNL     1     -17.814   2.951  14.346  1.00  0.00     0.133 C 
HETATM   13  C29 UNL     1     -16.583   2.945  15.315  1.00  0.00     0.114 C 
HETATM   14  C30 UNL     1     -16.898   2.527  16.751  1.00  0.00     0.023 C 
HETATM   15  C31 UNL     1     -15.632   1.941  14.726  1.00  0.00     0.227 C 
HETATM   16  O8  UNL     1     -14.428   1.915  14.924  1.00  0.00    -0.273 OA
HETATM   17  N3  UNL     1     -16.369   1.053  13.978  1.00  0.00    -0.332 N 
HETATM   18  C32 UNL     1     -15.726   0.042  13.170  1.00  0.00     0.154 C 
HETATM   19  C33 UNL     1     -17.795   1.492  13.772  1.00  0.00     0.183 A 
HETATM   20  C34 UNL     1     -18.359   1.154  12.350  1.00  0.00     0.294 A 
HETATM   21  C35 UNL     1     -18.845   0.395  14.188  1.00  0.00     0.169 A 
HETATM   22  O9  UNL     1     -18.060   1.350  11.190  1.00  0.00    -0.262 OA
HETATM   23  O10 UNL     1     -19.319   0.315  12.813  1.00  0.00    -0.311 OA
HETATM   24  C36 UNL     1     -20.029   0.586  15.117  1.00  0.00     0.043 C 
BRANCH  12  25
HETATM   25  O7  UNL     1     -19.006   3.160  15.120  1.00  0.00    -0.383 OA
HETATM   26  H42 UNL     1     -19.046   4.084  15.413  1.00  0.00     0.210 HD
ENDBRANCH  12  25
ENDBRANCH   9  12
ENDBRANCH   8   9
ENDBRANCH   6   8
ENDBRANCH   5   6
BRANCH   5  27
HETATM   27  O2  UNL     1     -16.004   8.017  10.980  1.00  0.00    -0.391 OA
HETATM   28  H12 UNL     1     -15.179   8.190  10.496  1.00  0.00     0.210 HD
ENDBRANCH   5  27
ENDBRANCH   4   5
ENDBRANCH   1   3
BRANCH   2  29
HETATM   29  C11 UNL     1     -10.177   7.477  14.924  1.00  0.00     0.149 C 
BRANCH  29  30
HETATM   30  N1  UNL     1      -9.117   6.505  15.023  1.00  0.00    -0.357 N 
HETATM   31  C12 UNL     1      -7.802   6.914  14.940  1.00  0.00     0.228 C 
HETATM   32  O3  UNL     1      -7.505   8.107  14.873  1.00  0.00    -0.273 OA
HETATM   33  H19 UNL     1      -9.347   5.534  14.868  1.00  0.00     0.162 HD
BRANCH  31  34
HETATM   34  C13 UNL     1      -6.735   5.790  14.931  1.00  0.00     0.063 C 
HETATM   35  C14 UNL     1      -7.416   4.499  15.426  1.00  0.00     0.028 C 
HETATM   36  C15 UNL     1      -5.605   6.237  15.876  1.00  0.00     0.028 C 
BRANCH  34  37
HETATM   37  C16 UNL     1      -6.224   5.658  13.452  1.00  0.00     0.164 C 
BRANCH  37  38
HETATM   38  O4  UNL     1      -6.950   4.599  12.805  1.00  0.00    -0.390 OA
HETATM   39  H27 UNL     1      -7.842   4.967  12.624  1.00  0.00     0.210 HD
ENDBRANCH  37  38
BRANCH  37  40
HETATM   40  C17 UNL     1      -4.760   5.412  13.067  1.00  0.00    -0.054 C 
HETATM   41  C18 UNL     1      -4.499   3.942  12.788  1.00  0.00     0.046 C 
HETATM   42  C19 UNL     1      -3.798   6.353  12.975  1.00  0.00     0.005 C 
BRANCH  42  43
HETATM   43  C20 UNL     1      -2.398   6.136  12.660  1.00  0.00     0.000 C 
HETATM   44  C21 UNL     1      -1.423   6.978  13.039  1.00  0.00     0.000 C 
BRANCH  44  45
HETATM   45  C22 UNL     1      -0.026   6.740  12.730  1.00  0.00     0.001 C 
HETATM   46  C23 UNL     1       0.710   7.591  11.994  1.00  0.00     0.009 C 
BRANCH  46  47
HETATM   47  C24 UNL     1       2.125   7.432  11.622  1.00  0.00    -0.034 C 
HETATM   48  C25 UNL     1       3.122   7.551  12.760  1.00  0.00     0.050 C 
HETATM   49  C26 UNL     1       2.478   7.171  10.339  1.00  0.00     0.082 C 
HETATM   50  C27 UNL     1       1.673   7.004   9.092  1.00  0.00     0.075 C 
BRANCH  49  51
HETATM   51  N2  UNL     1       3.894   7.046  10.049  1.00  0.00    -0.120 N 
HETATM   52  O5  UNL     1       4.347   5.898   9.974  1.00  0.00    -0.532 OA
HETATM   53  O6  UNL     1       4.528   8.094   9.869  1.00  0.00    -0.532 OA
ENDBRANCH  49  51
ENDBRANCH  46  47
ENDBRANCH  44  45
ENDBRANCH  42  43
ENDBRANCH  37  40
ENDBRANCH  34  37
ENDBRANCH  31  34
ENDBRANCH  29  30
ENDBRANCH   2  29
TORSDOF 19
ENDMDL
MODEL 2
REMARK minimizedAffinity -8.52196026
REMARK CNNscore 0.595198333
REMARK CNNaffinity 7.89573097
REMARK  19 active torsions:
REMARK  status: ('A' for Active; 'I' for Inactive)
REMARK    1  A    between atoms: O1_2  and  C2_3 
REMARK    2  A    between atoms: C2_3  and  C3_4 
REMARK    3  A    between atoms: C2_3  and  C28_36 
REMARK    4  A    between atoms: C3_4  and  C4_5 
REMARK    5  A    between atoms: C4_5  and  C6_7 
REMARK    6  A    between atoms: C6_7  and  O2_8 
REMARK    7  A    between atoms: C6_7  and  C7_9 
REMARK    8  A    between atoms: C8_10  and  C9_11 
REMARK    9  A    between atoms: C10_12  and  C11_13 
REMARK   10  A    between atoms: C11_13  and  N1_14 
REMARK       I    between atoms: N1_14  and  C12_15 
REMARK   11  A    between atoms: C12_15  and  C13_17 
REMARK   12  A    between atoms: C13_17  and  C16_20 
REMARK   13  A    between atoms: C16_20  and  O4_21 
REMARK   14  A    between atoms: C16_20  and  C17_22 
REMARK   15  A    between atoms: C19_24  and  C20_25 
REMARK   16  A    between atoms: C21_26  and  C22_27 
REMARK   17  A    between atoms: C23_28  and  C24_29 
REMARK   18  A    between atoms: C26_31  and  N2_33 
REMARK   19  A    between atoms: C28_36  and  O7_37 
ROOT
HETATM    1  C9  UNL     1      -6.036   2.699  11.821  1.00  0.00    -0.003 C 
HETATM    2  C10 UNL     1      -6.403   3.526  12.810  1.00  0.00    -0.007 C 
ENDROOT
BRANCH   1   3
HETATM    3  C8  UNL     1      -4.681   2.601  11.329  1.00  0.00    -0.002 C 
HETATM    4  C7  UNL     1      -3.911   3.683  11.143  1.00  0.00     0.005 C 
BRANCH   4   5
HETATM    5  C6  UNL     1      -2.507   3.648  10.612  1.00  0.00     0.144 C 
BRANCH   5   6
HETATM    6  C4  UNL     1      -1.461   4.200  11.622  1.00  0.00     0.016 C 
HETATM    7  C5  UNL     1      -2.191   4.764  12.849  1.00  0.00     0.013 C 
BRANCH   6   8
HETATM    8  C3  UNL     1      -0.546   5.272  10.999  1.00  0.00     0.042 C 
BRANCH   8   9
HETATM    9  C2  UNL     1       0.872   5.544  11.589  1.00  0.00     0.159 C 
BRANCH   9  10
HETATM   10  O1  UNL     1       0.641   6.588  12.564  1.00  0.00    -0.388 OA
HETATM   11  C1  UNL     1       0.961   6.220  13.906  1.00  0.00     0.202 C 
ENDBRANCH   9  10
BRANCH   9  12
HETATM   12  C28 UNL     1       1.964   6.120  10.604  1.00  0.00     0.133 C 
HETATM   13  C29 UNL     1       3.424   6.000  11.158  1.00  0.00     0.114 C 
HETATM   14  C30 UNL     1       4.501   5.806  10.092  1.00  0.00     0.023 C 
HETATM   15  C31 UNL     1       3.680   7.303  11.862  1.00  0.00     0.227 C 
HETATM   16  O8  UNL     1       4.505   7.474  12.744  1.00  0.00    -0.273 OA
HETATM   17  N3  UNL     1       2.857   8.251  11.300  1.00  0.00    -0.332 N 
HETATM   18  C32 UNL     1       2.768   9.585  11.851  1.00  0.00     0.154 C 
HETATM   19  C33 UNL     1       1.816   7.665  10.382  1.00  0.00     0.183 A 
HETATM   20  C34 UNL     1       0.426   8.384  10.465  1.00  0.00     0.294 A 
HETATM   21  C35 UNL     1       1.808   8.328   8.955  1.00  0.00     0.169 A 
HETATM   22  O9  UNL     1      -0.389   8.678  11.314  1.00  0.00    -0.262 OA
HETATM   23  O10 UNL     1       0.452   8.812   9.177  1.00  0.00    -0.311 OA
HETATM   24  C36 UNL     1       1.871   7.603   7.624  1.00  0.00     0.043 C 
BRANCH  12  25
HETATM   25  O7  UNL     1       1.892   5.433   9.345  1.00  0.00    -0.383 OA
HETATM   26  H42 UNL     1       1.914   4.475   9.495  1.00  0.00     0.210 HD
ENDBRANCH  12  25
ENDBRANCH   9  12
ENDBRANCH   8   9
ENDBRANCH   6   8
ENDBRANCH   5   6
BRANCH   5  27
HETATM   27  O2  UNL     1      -2.213   2.296  10.283  1.00  0.00    -0.391 OA
HETATM   28  H12 UNL     1      -2.861   2.018   9.615  1.00  0.00     0.210 HD
ENDBRANCH   5  27
ENDBRANCH   4   5
ENDBRANCH   1   3
BRANCH   2  29
HETATM   29  C11 UNL     1      -7.795   3.601  13.347  1.00  0.00     0.149 C 
BRANCH  29  30
HETATM   30  N1  UNL     1      -7.822   4.580  14.404  1.00  0.00    -0.357 N 
HETATM   31  C12 UNL     1      -8.004   5.913  14.099  1.00  0.00     0.228 C 
HETATM   32  O3  UNL     1      -8.236   6.281  12.947  1.00  0.00    -0.273 OA
HETATM   33  H19 UNL     1      -7.433   4.323  15.300  1.00  0.00     0.162 HD
BRANCH  31  34
HETATM   34  C13 UNL     1      -7.895   6.907  15.283  1.00  0.00     0.063 C 
HETATM   35  C14 UNL     1      -6.921   8.026  14.862  1.00  0.00     0.028 C 
HETATM   36  C15 UNL     1      -7.363   6.112  16.488  1.00  0.00     0.028 C 
BRANCH  34  37
HETATM   37  C16 UNL     1      -9.342   7.455  15.553  1.00  0.00     0.164 C 
BRANCH  37  38
HETATM   38  O4  UNL     1     -10.296   6.452  15.166  1.00  0.00    -0.390 OA
HETATM   39  H27 UNL     1     -10.258   5.770  15.872  1.00  0.00     0.210 HD
ENDBRANCH  37  38
BRANCH  37  40
HETATM   40  C17 UNL     1      -9.892   8.758  14.960  1.00  0.00    -0.054 C 
HETATM   41  C18 UNL     1     -10.941   8.484  13.895  1.00  0.00     0.046 C 
HETATM   42  C19 UNL     1      -9.521  10.006  15.312  1.00  0.00     0.005 C 
BRANCH  42  43
HETATM   43  C20 UNL     1      -9.993  11.249  14.732  1.00  0.00     0.000 C 
HETATM   44  C21 UNL     1     -10.432  12.281  15.470  1.00  0.00     0.000 C 
BRANCH  44  45
HETATM   45  C22 UNL     1     -10.886  13.524  14.877  1.00  0.00     0.001 C 
HETATM   46  C23 UNL     1     -10.159  14.207  13.975  1.00  0.00     0.009 C 
BRANCH  46  47
HETATM   47  C24 UNL     1     -10.530  15.476  13.328  1.00  0.00    -0.034 C 
HETATM   48  C25 UNL     1      -9.508  16.594  13.440  1.00  0.00     0.050 C 
HETATM   49  C26 UNL     1     -11.704  15.597  12.662  1.00  0.00     0.082 C 
HETATM   50  C27 UNL     1     -12.824  14.638  12.424  1.00  0.00     0.075 C 
BRANCH  49  51
HETATM   51  N2  UNL     1     -12.006  16.886  12.068  1.00  0.00    -0.120 N 
HETATM   52  O5  UNL     1     -12.316  17.797  12.845  1.00  0.00    -0.532 OA
HETATM   53  O6  UNL     1     -11.899  16.979  10.839  1.00  0.00    -0.532 OA
ENDBRANCH  49  51
ENDBRANCH  46  47
ENDBRANCH  44  45
ENDBRANCH  42  43
ENDBRANCH  37  40
ENDBRANCH  34  37
ENDBRANCH  31  34
ENDBRANCH  29  30
ENDBRANCH   2  29
TORSDOF 19
ENDMDL
MODEL 3
REMARK minimizedAffinity -8.48814964
REMARK CNNscore 0.505174398
REMARK CNNaffinity 7.410357
REMARK  19 active torsions:
REMARK  status: ('A' for Active; 'I' for Inactive)
REMARK    1  A    between atoms: O1_2  and  C2_3 
REMARK    2  A    between atoms: C2_3  and  C3_4 
REMARK    3  A    between atoms: C2_3  and  C28_36 
REMARK    4  A    between atoms: C3_4  and  C4_5 
REMARK    5  A    between atoms: C4_5  and  C6_7 
REMARK    6  A    between atoms: C6_7  and  O2_8 
REMARK    7  A    between atoms: C6_7  and  C7_9 
REMARK    8  A    between atoms: C8_10  and  C9_11 
REMARK    9  A    between atoms: C10_12  and  C11_13 
REMARK   10  A    between atoms: C11_13  and  N1_14 
REMARK       I    between atoms: N1_14  and  C12_15 
REMARK   11  A    between atoms: C12_15  and  C13_17 
REMARK   12  A    between atoms: C13_17  and  C16_20 
REMARK   13  A    between atoms: C16_20  and  O4_21 
REMARK   14  A    between atoms: C16_20  and  C17_22 
REMARK   15  A    between atoms: C19_24  and  C20_25 
REMARK   16  A    between atoms: C21_26  and  C22_27 
REMARK   17  A    between atoms: C23_28  and  C24_29 
REMARK   18  A    between atoms: C26_31  and  N2_33 
REMARK   19  A    between atoms: C28_36  and  O7_37 
ROOT
HETATM    1  C9  UNL     1      -5.979   2.646  11.882  1.00  0.00    -0.003 C 
HETATM    2  C10 UNL     1      -6.392   3.481  12.846  1.00  0.00    -0.007 C 
ENDROOT
BRANCH   1   3
HETATM    3  C8  UNL     1      -4.605   2.554  11.446  1.00  0.00    -0.002 C 
HETATM    4  C7  UNL     1      -3.902   3.635  11.073  1.00  0.00     0.005 C 
BRANCH   4   5
HETATM    5  C6  UNL     1      -2.482   3.602  10.588  1.00  0.00     0.144 C 
BRANCH   5   6
HETATM    6  C4  UNL     1      -1.472   4.172  11.624  1.00  0.00     0.016 C 
HETATM    7  C5  UNL     1      -2.243   4.722  12.832  1.00  0.00     0.013 C 
BRANCH   6   8
HETATM    8  C3  UNL     1      -0.561   5.260  11.025  1.00  0.00     0.042 C 
BRANCH   8   9
HETATM    9  C2  UNL     1       0.857   5.523  11.618  1.00  0.00     0.159 C 
BRANCH   9  10
HETATM   10  O1  UNL     1       0.620   6.521  12.638  1.00  0.00    -0.388 OA
HETATM   11  C1  UNL     1       0.939   6.096  13.964  1.00  0.00     0.202 C 
ENDBRANCH   9  10
BRANCH   9  12
HETATM   12  C28 UNL     1       1.937   6.152  10.654  1.00  0.00     0.133 C 
HETATM   13  C29 UNL     1       3.397   6.059  11.213  1.00  0.00     0.114 C 
HETATM   14  C30 UNL     1       4.485   5.921  10.150  1.00  0.00     0.023 C 
HETATM   15  C31 UNL     1       3.613   7.353  11.949  1.00  0.00     0.227 C 
HETATM   16  O8  UNL     1       4.429   7.525  12.840  1.00  0.00    -0.273 OA
HETATM   17  N3  UNL     1       2.767   8.290  11.405  1.00  0.00    -0.332 N 
HETATM   18  C32 UNL     1       2.638   9.607  11.987  1.00  0.00     0.154 C 
HETATM   19  C33 UNL     1       1.748   7.697  10.468  1.00  0.00     0.183 A 
HETATM   20  C34 UNL     1       0.338   8.376  10.559  1.00  0.00     0.294 A 
HETATM   21  C35 UNL     1       1.729   8.393   9.056  1.00  0.00     0.169 A 
HETATM   22  O9  UNL     1      -0.489   8.626  11.410  1.00  0.00    -0.262 OA
HETATM   23  O10 UNL     1       0.358   8.834   9.283  1.00  0.00    -0.311 OA
HETATM   24  C36 UNL     1       1.818   7.702   7.709  1.00  0.00     0.043 C 
BRANCH  12  25
HETATM   25  O7  UNL     1       1.892   5.494   9.379  1.00  0.00    -0.383 OA
HETATM   26  H42 UNL     1       1.939   4.533   9.506  1.00  0.00     0.210 HD
ENDBRANCH  12  25
ENDBRANCH   9  12
ENDBRANCH   8   9
ENDBRANCH   6   8
ENDBRANCH   5   6
BRANCH   5  27
HETATM   27  O2  UNL     1      -2.170   2.248  10.284  1.00  0.00    -0.391 OA
HETATM   28  H12 UNL     1      -2.796   1.958   9.599  1.00  0.00     0.210 HD
ENDBRANCH   5  27
ENDBRANCH   4   5
ENDBRANCH   1   3
BRANCH   2  29
HETATM   29  C11 UNL     1      -7.806   3.548  13.327  1.00  0.00     0.149 C 
BRANCH  29  30
HETATM   30  N1  UNL     1      -7.918   4.644  14.255  1.00  0.00    -0.357 N 
HETATM   31  C12 UNL     1      -7.947   5.941  13.785  1.00  0.00     0.228 C 
HETATM   32  O3  UNL     1      -7.970   6.185  12.578  1.00  0.00    -0.273 OA
HETATM   33  H19 UNL     1      -7.691   4.470  15.224  1.00  0.00     0.162 HD
BRANCH  31  34
HETATM   34  C13 UNL     1      -7.943   7.058  14.859  1.00  0.00     0.063 C 
HETATM   35  C14 UNL     1      -6.562   7.742  14.813  1.00  0.00     0.028 C 
HETATM   36  C15 UNL     1      -8.197   6.377  16.215  1.00  0.00     0.028 C 
BRANCH  34  37
HETATM   37  C16 UNL     1      -9.105   8.049  14.490  1.00  0.00     0.164 C 
BRANCH  37  38
HETATM   38  O4  UNL     1      -8.814   9.335  15.062  1.00  0.00    -0.390 OA
HETATM   39  H27 UNL     1      -8.106   9.717  14.498  1.00  0.00     0.210 HD
ENDBRANCH  37  38
BRANCH  37  40
HETATM   40  C17 UNL     1     -10.581   7.804  14.826  1.00  0.00    -0.054 C 
HETATM   41  C18 UNL     1     -11.085   8.788  15.867  1.00  0.00     0.046 C 
HETATM   42  C19 UNL     1     -11.366   6.850  14.285  1.00  0.00     0.005 C 
BRANCH  42  43
HETATM   43  C20 UNL     1     -12.750   6.570  14.621  1.00  0.00     0.000 C 
HETATM   44  C21 UNL     1     -13.694   6.328  13.697  1.00  0.00     0.000 C 
BRANCH  44  45
HETATM   45  C22 UNL     1     -15.070   6.034  14.049  1.00  0.00     0.001 C 
HETATM   46  C23 UNL     1     -15.436   4.894  14.660  1.00  0.00     0.009 C 
BRANCH  46  47
HETATM   47  C24 UNL     1     -16.802   4.504  15.045  1.00  0.00    -0.034 C 
HETATM   48  C25 UNL     1     -17.519   3.579  14.078  1.00  0.00     0.050 C 
HETATM   49  C26 UNL     1     -17.345   4.940  16.208  1.00  0.00     0.082 C 
HETATM   50  C27 UNL     1     -16.819   5.827  17.288  1.00  0.00     0.075 C 
BRANCH  49  51
HETATM   51  N2  UNL     1     -18.703   4.528  16.507  1.00  0.00    -0.120 N 
HETATM   52  O5  UNL     1     -19.611   5.159  15.954  1.00  0.00    -0.532 OA
HETATM   53  O6  UNL     1     -18.844   3.561  17.266  1.00  0.00    -0.532 OA
ENDBRANCH  49  51
ENDBRANCH  46  47
ENDBRANCH  44  45
ENDBRANCH  42  43
ENDBRANCH  37  40
ENDBRANCH  34  37
ENDBRANCH  31  34
ENDBRANCH  29  30
ENDBRANCH   2  29
TORSDOF 19
ENDMDL
MODEL 4
REMARK minimizedAffinity -9.31274796
REMARK CNNscore 0.288986385
REMARK CNNaffinity 7.19943428
REMARK  19 active torsions:
REMARK  status: ('A' for Active; 'I' for Inactive)
REMARK    1  A    between atoms: O1_2  and  C2_3 
REMARK    2  A    between atoms: C2_3  and  C3_4 
REMARK    3  A    between atoms: C2_3  and  C28_36 
REMARK    4  A    between atoms: C3_4  and  C4_5 
REMARK    5  A    between atoms: C4_5  and  C6_7 
REMARK    6  A    between atoms: C6_7  and  O2_8 
REMARK    7  A    between atoms: C6_7  and  C7_9 
REMARK    8  A    between atoms: C8_10  and  C9_11 
REMARK    9  A    between atoms: C10_12  and  C11_13 
REMARK   10  A    between atoms: C11_13  and  N1_14 
REMARK       I    between atoms: N1_14  and  C12_15 
REMARK   11  A    between atoms: C12_15  and  C13_17 
REMARK   12  A    between atoms: C13_17  and  C16_20 
REMARK   13  A    between atoms: C16_20  and  O4_21 
REMARK   14  A    between atoms: C16_20  and  C17_22 
REMARK   15  A    between atoms: C19_24  and  C20_25 
REMARK   16  A    between atoms: C21_26  and  C22_27 
REMARK   17  A    between atoms: C23_28  and  C24_29 
REMARK   18  A    between atoms: C26_31  and  N2_33 
REMARK   19  A    between atoms: C28_36  and  O7_37 
ROOT
HETATM    1  C9  UNL     1      -5.903   2.531  11.767  1.00  0.00    -0.003 C 
HETATM    2  C10 UNL     1      -6.509   3.491  12.480  1.00  0.00    -0.007 C 
ENDROOT
BRANCH   1   3
HETATM    3  C8  UNL     1      -4.523   2.605  11.346  1.00  0.00    -0.002 C 
HETATM    4  C7  UNL     1      -3.900   3.777  11.151  1.00  0.00     0.005 C 
BRANCH   4   5
HETATM    5  C6  UNL     1      -2.478   3.919  10.691  1.00  0.00     0.144 C 
BRANCH   5   6
HETATM    6  C4  UNL     1      -1.562   4.599  11.748  1.00  0.00     0.016 C 
HETATM    7  C5  UNL     1      -2.412   5.518  12.637  1.00  0.00     0.013 C 
BRANCH   6   8
HETATM    8  C3  UNL     1      -0.405   5.388  11.108  1.00  0.00     0.042 C 
BRANCH   8   9
HETATM    9  C2  UNL     1       1.049   5.248  11.654  1.00  0.00     0.159 C 
BRANCH   9  10
HETATM   10  O1  UNL     1       0.858   4.942  13.056  1.00  0.00    -0.388 OA
HETATM   11  C1  UNL     1       0.533   6.071  13.866  1.00  0.00     0.202 C 
ENDBRANCH   9  10
BRANCH   9  12
HETATM   12  C28 UNL     1       1.959   6.538  11.623  1.00  0.00     0.133 C 
HETATM   13  C29 UNL     1       1.149   7.863  11.420  1.00  0.00     0.114 C 
HETATM   14  C30 UNL     1       1.750   9.094  12.096  1.00  0.00     0.023 C 
HETATM   15  C31 UNL     1       1.146   8.091   9.933  1.00  0.00     0.227 C 
HETATM   16  O8  UNL     1       0.323   8.758   9.328  1.00  0.00    -0.273 OA
HETATM   17  N3  UNL     1       2.249   7.457   9.410  1.00  0.00    -0.332 N 
HETATM   18  C32 UNL     1       2.456   7.376   7.982  1.00  0.00     0.154 C 
HETATM   19  C33 UNL     1       2.938   6.553  10.398  1.00  0.00     0.183 A 
HETATM   20  C34 UNL     1       3.490   5.231   9.764  1.00  0.00     0.294 A 
HETATM   21  C35 UNL     1       4.477   6.849  10.537  1.00  0.00     0.169 A 
HETATM   22  O9  UNL     1       3.071   4.303   9.103  1.00  0.00    -0.262 OA
HETATM   23  O10 UNL     1       4.787   5.517  10.036  1.00  0.00    -0.311 OA
HETATM   24  C36 UNL     1       5.236   7.090  11.828  1.00  0.00     0.043 C 
BRANCH  12  25
HETATM   25  O7  UNL     1       2.701   6.638  12.848  1.00  0.00    -0.383 OA
HETATM   26  H42 UNL     1       2.097   6.557  13.603  1.00  0.00     0.210 HD
ENDBRANCH  12  25
ENDBRANCH   9  12
ENDBRANCH   8   9
ENDBRANCH   6   8
ENDBRANCH   5   6
BRANCH   5  27
HETATM   27  O2  UNL     1      -2.000   2.615  10.385  1.00  0.00    -0.391 OA
HETATM   28  H12 UNL     1      -2.574   2.257   9.687  1.00  0.00     0.210 HD
ENDBRANCH   5  27
ENDBRANCH   4   5
ENDBRANCH   1   3
BRANCH   2  29
HETATM   29  C11 UNL     1      -7.925   3.398  12.950  1.00  0.00     0.149 C 
BRANCH  29  30
HETATM   30  N1  UNL     1      -8.152   4.445  13.914  1.00  0.00    -0.357 N 
HETATM   31  C12 UNL     1      -8.265   5.753  13.491  1.00  0.00     0.228 C 
HETATM   32  O3  UNL     1      -8.266   6.042  12.294  1.00  0.00    -0.273 OA
HETATM   33  H19 UNL     1      -7.946   4.250  14.884  1.00  0.00     0.162 HD
BRANCH  31  34
HETATM   34  C13 UNL     1      -8.384   6.824  14.605  1.00  0.00     0.063 C 
HETATM   35  C14 UNL     1      -7.047   7.589  14.659  1.00  0.00     0.028 C 
HETATM   36  C15 UNL     1      -8.665   6.075  15.920  1.00  0.00     0.028 C 
BRANCH  34  37
HETATM   37  C16 UNL     1      -9.584   7.759  14.213  1.00  0.00     0.164 C 
BRANCH  37  38
HETATM   38  O4  UNL     1      -9.873   8.628  15.320  1.00  0.00    -0.390 OA
HETATM   39  H27 UNL     1      -9.155   9.298  15.321  1.00  0.00     0.210 HD
ENDBRANCH  37  38
BRANCH  37  40
HETATM   40  C17 UNL     1     -10.956   7.249  13.755  1.00  0.00    -0.054 C 
HETATM   41  C18 UNL     1     -11.180   7.509  12.275  1.00  0.00     0.046 C 
HETATM   42  C19 UNL     1     -11.873   6.640  14.534  1.00  0.00     0.005 C 
BRANCH  42  43
HETATM   43  C20 UNL     1     -13.194   6.193  14.133  1.00  0.00     0.000 C 
HETATM   44  C21 UNL     1     -14.021   5.525  14.954  1.00  0.00     0.000 C 
BRANCH  44  45
HETATM   45  C22 UNL     1     -15.345   5.098  14.544  1.00  0.00     0.001 C 
HETATM   46  C23 UNL     1     -15.688   3.803  14.433  1.00  0.00     0.009 C 
BRANCH  46  47
HETATM   47  C24 UNL     1     -16.998   3.275  14.017  1.00  0.00    -0.034 C 
HETATM   48  C25 UNL     1     -18.176   4.213  14.207  1.00  0.00     0.050 C 
HETATM   49  C26 UNL     1     -17.106   2.035  13.479  1.00  0.00     0.082 C 
HETATM   50  C27 UNL     1     -16.093   0.974  13.196  1.00  0.00     0.075 C 
BRANCH  49  51
HETATM   51  N2  UNL     1     -18.433   1.579  13.112  1.00  0.00    -0.120 N 
HETATM   52  O5  UNL     1     -19.089   1.013  13.993  1.00  0.00    -0.532 OA
HETATM   53  O6  UNL     1     -18.813   1.819  11.959  1.00  0.00    -0.532 OA
ENDBRANCH  49  51
ENDBRANCH  46  47
ENDBRANCH  44  45
ENDBRANCH  42  43
ENDBRANCH  37  40
ENDBRANCH  34  37
ENDBRANCH  31  34
ENDBRANCH  29  30
ENDBRANCH   2  29
TORSDOF 19
ENDMDL
MODEL 5
REMARK minimizedAffinity -8.65736485
REMARK CNNscore 0.239022046
REMARK CNNaffinity 5.3756485
REMARK  19 active torsions:
REMARK  status: ('A' for Active; 'I' for Inactive)
REMARK    1  A    between atoms: O1_2  and  C2_3 
REMARK    2  A    between atoms: C2_3  and  C3_4 
REMARK    3  A    between atoms: C2_3  and  C28_36 
REMARK    4  A    between atoms: C3_4  and  C4_5 
REMARK    5  A    between atoms: C4_5  and  C6_7 
REMARK    6  A    between atoms: C6_7  and  O2_8 
REMARK    7  A    between atoms: C6_7  and  C7_9 
REMARK    8  A    between atoms: C8_10  and  C9_11 
REMARK    9  A    between atoms: C10_12  and  C11_13 
REMARK   10  A    between atoms: C11_13  and  N1_14 
REMARK       I    between atoms: N1_14  and  C12_15 
REMARK   11  A    between atoms: C12_15  and  C13_17 
REMARK   12  A    between atoms: C13_17  and  C16_20 
REMARK   13  A    between atoms: C16_20  and  O4_21 
REMARK   14  A    between atoms: C16_20  and  C17_22 
REMARK   15  A    between atoms: C19_24  and  C20_25 
REMARK   16  A    between atoms: C21_26  and  C22_27 
REMARK   17  A    between atoms: C23_28  and  C24_29 
REMARK   18  A    between atoms: C26_31  and  N2_33 
REMARK   19  A    between atoms: C28_36  and  O7_37 
ROOT
HETATM    1  C9  UNL     1       6.424   7.024  13.560  1.00  0.00    -0.003 C 
HETATM    2  C10 UNL     1       6.661   7.222  12.256  1.00  0.00    -0.007 C 
ENDROOT
BRANCH   1   3
HETATM    3  C8  UNL     1       7.155   7.694  14.611  1.00  0.00    -0.002 C 
HETATM    4  C7  UNL     1       8.470   7.502  14.799  1.00  0.00     0.005 C 
BRANCH   4   5
HETATM    5  C6  UNL     1       9.278   8.148  15.886  1.00  0.00     0.144 C 
BRANCH   5   6
HETATM    6  C4  UNL     1       9.039   9.681  15.992  1.00  0.00     0.016 C 
HETATM    7  C5  UNL     1       9.528  10.360  14.705  1.00  0.00     0.013 C 
BRANCH   6   8
HETATM    8  C3  UNL     1       9.724  10.303  17.224  1.00  0.00     0.042 C 
BRANCH   8   9
HETATM    9  C2  UNL     1       8.898  10.650  18.500  1.00  0.00     0.159 C 
BRANCH   9  10
HETATM   10  O1  UNL     1       7.589  10.101  18.218  1.00  0.00    -0.388 OA
HETATM   11  C1  UNL     1       6.881  10.771  17.174  1.00  0.00     0.202 C 
ENDBRANCH   9  10
BRANCH   9  12
HETATM   12  C28 UNL     1       8.657  12.179  18.810  1.00  0.00     0.133 C 
HETATM   13  C29 UNL     1       8.472  13.051  17.522  1.00  0.00     0.114 C 
HETATM   14  C30 UNL     1       7.545  14.254  17.688  1.00  0.00     0.023 C 
HETATM   15  C31 UNL     1       9.850  13.555  17.194  1.00  0.00     0.227 C 
HETATM   16  O8  UNL     1      10.218  13.922  16.090  1.00  0.00    -0.273 OA
HETATM   17  N3  UNL     1      10.581  13.565  18.359  1.00  0.00    -0.332 N 
HETATM   18  C32 UNL     1      11.994  13.872  18.352  1.00  0.00     0.154 C 
HETATM   19  C33 UNL     1       9.895  12.854  19.496  1.00  0.00     0.183 A 
HETATM   20  C34 UNL     1      10.874  12.048  20.416  1.00  0.00     0.294 A 
HETATM   21  C35 UNL     1       9.779  13.736  20.794  1.00  0.00     0.169 A 
HETATM   22  O9  UNL     1      11.720  11.187  20.298  1.00  0.00    -0.262 OA
HETATM   23  O10 UNL     1      10.617  12.791  21.521  1.00  0.00    -0.311 OA
HETATM   24  C36 UNL     1       8.516  14.005  21.592  1.00  0.00     0.043 C 
BRANCH  12  25
HETATM   25  O7  UNL     1       7.494  12.330  19.637  1.00  0.00    -0.383 OA
HETATM   26  H42 UNL     1       6.748  11.850  19.242  1.00  0.00     0.210 HD
ENDBRANCH  12  25
ENDBRANCH   9  12
ENDBRANCH   8   9
ENDBRANCH   6   8
ENDBRANCH   5   6
BRANCH   5  27
HETATM   27  O2  UNL     1       8.934   7.507  17.108  1.00  0.00    -0.391 OA
HETATM   28  H12 UNL     1       9.150   6.564  17.005  1.00  0.00     0.210 HD
ENDBRANCH   5  27
ENDBRANCH   4   5
ENDBRANCH   1   3
BRANCH   2  29
HETATM   29  C11 UNL     1       5.879   6.560  11.167  1.00  0.00     0.149 C 
BRANCH  29  30
HETATM   30  N1  UNL     1       4.486   6.575  11.536  1.00  0.00    -0.357 N 
HETATM   31  C12 UNL     1       3.517   6.534  10.555  1.00  0.00     0.228 C 
HETATM   32  O3  UNL     1       3.812   6.393   9.368  1.00  0.00    -0.273 OA
HETATM   33  H19 UNL     1       4.244   6.896  12.463  1.00  0.00     0.162 HD
BRANCH  31  34
HETATM   34  C13 UNL     1       2.051   6.681  11.035  1.00  0.00     0.063 C 
HETATM   35  C14 UNL     1       1.181   6.962   9.794  1.00  0.00     0.028 C 
HETATM   36  C15 UNL     1       2.020   7.854  12.030  1.00  0.00     0.028 C 
BRANCH  34  37
HETATM   37  C16 UNL     1       1.663   5.329  11.734  1.00  0.00     0.164 C 
BRANCH  37  38
HETATM   38  O4  UNL     1       2.063   4.239  10.886  1.00  0.00    -0.390 OA
HETATM   39  H27 UNL     1       3.039   4.181  10.978  1.00  0.00     0.210 HD
ENDBRANCH  37  38
BRANCH  37  40
HETATM   40  C17 UNL     1       0.240   4.969  12.178  1.00  0.00    -0.054 C 
HETATM   41  C18 UNL     1      -0.228   3.669  11.544  1.00  0.00     0.046 C 
HETATM   42  C19 UNL     1      -0.530   5.686  13.022  1.00  0.00     0.005 C 
BRANCH  42  43
HETATM   43  C20 UNL     1      -1.894   5.389  13.418  1.00  0.00     0.000 C 
HETATM   44  C21 UNL     1      -2.959   5.686  12.655  1.00  0.00     0.000 C 
BRANCH  44  45
HETATM   45  C22 UNL     1      -4.316   5.370  13.057  1.00  0.00     0.001 C 
HETATM   46  C23 UNL     1      -5.184   6.304  13.483  1.00  0.00     0.009 C 
BRANCH  46  47
HETATM   47  C24 UNL     1      -6.572   6.079  13.919  1.00  0.00    -0.034 C 
HETATM   48  C25 UNL     1      -7.141   4.704  13.618  1.00  0.00     0.050 C 
HETATM   49  C26 UNL     1      -7.261   7.049  14.567  1.00  0.00     0.082 C 
HETATM   50  C27 UNL     1      -6.894   8.441  14.969  1.00  0.00     0.075 C 
BRANCH  49  51
HETATM   51  N2  UNL     1      -8.630   6.757  14.948  1.00  0.00    -0.120 N 
HETATM   52  O5  UNL     1      -9.496   6.931  14.083  1.00  0.00    -0.532 OA
HETATM   53  O6  UNL     1      -8.818   6.330  16.094  1.00  0.00    -0.532 OA
ENDBRANCH  49  51
ENDBRANCH  46  47
ENDBRANCH  44  45
ENDBRANCH  42  43
ENDBRANCH  37  40
ENDBRANCH  34  37
ENDBRANCH  31  34
ENDBRANCH  29  30
ENDBRANCH   2  29
TORSDOF 19
ENDMDL
MODEL 6
REMARK minimizedAffinity -8.40153885
REMARK CNNscore 0.23453103
REMARK CNNaffinity 6.2161088
REMARK  19 active torsions:
REMARK  status: ('A' for Active; 'I' for Inactive)
REMARK    1  A    between atoms: O1_2  and  C2_3 
REMARK    2  A    between atoms: C2_3  and  C3_4 
REMARK    3  A    between atoms: C2_3  and  C28_36 
REMARK    4  A    between atoms: C3_4  and  C4_5 
REMARK    5  A    between atoms: C4_5  and  C6_7 
REMARK    6  A    between atoms: C6_7  and  O2_8 
REMARK    7  A    between atoms: C6_7  and  C7_9 
REMARK    8  A    between atoms: C8_10  and  C9_11 
REMARK    9  A    between atoms: C10_12  and  C11_13 
REMARK   10  A    between atoms: C11_13  and  N1_14 
REMARK       I    between atoms: N1_14  and  C12_15 
REMARK   11  A    between atoms: C12_15  and  C13_17 
REMARK   12  A    between atoms: C13_17  and  C16_20 
REMARK   13  A    between atoms: C16_20  and  O4_21 
REMARK   14  A    between atoms: C16_20  and  C17_22 
REMARK   15  A    between atoms: C19_24  and  C20_25 
REMARK   16  A    between atoms: C21_26  and  C22_27 
REMARK   17  A    between atoms: C23_28  and  C24_29 
REMARK   18  A    between atoms: C26_31  and  N2_33 
REMARK   19  A    between atoms: C28_36  and  O7_37 
ROOT
HETATM    1  C9  UNL     1       7.417   7.520  12.891  1.00  0.00    -0.003 C 
HETATM    2  C10 UNL     1       6.335   7.090  12.226  1.00  0.00    -0.007 C 
ENDROOT
BRANCH   1   3
HETATM    3  C8  UNL     1       7.423   7.786  14.311  1.00  0.00    -0.002 C 
HETATM    4  C7  UNL     1       7.825   8.962  14.814  1.00  0.00     0.005 C 
BRANCH   4   5
HETATM    5  C6  UNL     1       7.877   9.290  16.279  1.00  0.00     0.144 C 
BRANCH   5   6
HETATM    6  C4  UNL     1       7.173  10.631  16.627  1.00  0.00     0.016 C 
HETATM    7  C5  UNL     1       6.888  11.404  15.332  1.00  0.00     0.013 C 
BRANCH   6   8
HETATM    8  C3  UNL     1       7.995  11.495  17.602  1.00  0.00     0.042 C 
BRANCH   8   9
HETATM    9  C2  UNL     1       7.397  11.930  18.975  1.00  0.00     0.159 C 
BRANCH   9  10
HETATM   10  O1  UNL     1       5.969  11.917  18.744  1.00  0.00    -0.388 OA
HETATM   11  C1  UNL     1       5.188  11.609  19.900  1.00  0.00     0.202 C 
ENDBRANCH   9  10
BRANCH   9  12
HETATM   12  C28 UNL     1       7.731  13.389  19.477  1.00  0.00     0.133 C 
HETATM   13  C29 UNL     1       7.700  14.460  18.335  1.00  0.00     0.114 C 
HETATM   14  C30 UNL     1       7.265  15.857  18.776  1.00  0.00     0.023 C 
HETATM   15  C31 UNL     1       9.117  14.539  17.839  1.00  0.00     0.227 C 
HETATM   16  O8  UNL     1       9.452  14.932  16.733  1.00  0.00    -0.273 OA
HETATM   17  N3  UNL     1       9.942  14.135  18.862  1.00  0.00    -0.332 N 
HETATM   18  C32 UNL     1      11.364  13.969  18.655  1.00  0.00     0.154 C 
HETATM   19  C33 UNL     1       9.198  13.517  20.016  1.00  0.00     0.183 A 
HETATM   20  C34 UNL     1       9.947  12.308  20.674  1.00  0.00     0.294 A 
HETATM   21  C35 UNL     1       9.546  14.180  21.401  1.00  0.00     0.169 A 
HETATM   22  O9  UNL     1      10.429  11.249  20.330  1.00  0.00    -0.262 OA
HETATM   23  O10 UNL     1      10.093  12.917  21.878  1.00  0.00    -0.311 OA
HETATM   24  C36 UNL     1       8.556  14.715  22.419  1.00  0.00     0.043 C 
BRANCH  12  25
HETATM   25  O7  UNL     1       6.797  13.777  20.496  1.00  0.00    -0.383 OA
HETATM   26  H42 UNL     1       5.891  13.629  20.181  1.00  0.00     0.210 HD
ENDBRANCH  12  25
ENDBRANCH   9  12
ENDBRANCH   8   9
ENDBRANCH   6   8
ENDBRANCH   5   6
BRANCH   5  27
HETATM   27  O2  UNL     1       7.264   8.212  16.975  1.00  0.00    -0.391 OA
HETATM   28  H12 UNL     1       7.772   7.410  16.763  1.00  0.00     0.210 HD
ENDBRANCH   5  27
ENDBRANCH   4   5
ENDBRANCH   1   3
BRANCH   2  29
HETATM   29  C11 UNL     1       6.337   6.776  10.765  1.00  0.00     0.149 C 
BRANCH  29  30
HETATM   30  N1  UNL     1       5.018   6.333  10.394  1.00  0.00    -0.357 N 
HETATM   31  C12 UNL     1       4.091   7.247   9.935  1.00  0.00     0.228 C 
HETATM   32  O3  UNL     1       4.392   8.426   9.748  1.00  0.00    -0.273 OA
HETATM   33  H19 UNL     1       4.705   5.435  10.735  1.00  0.00     0.162 HD
BRANCH  31  34
HETATM   34  C13 UNL     1       2.663   6.703   9.678  1.00  0.00     0.063 C 
HETATM   35  C14 UNL     1       2.667   6.021   8.297  1.00  0.00     0.028 C 
HETATM   36  C15 UNL     1       1.710   7.911   9.714  1.00  0.00     0.028 C 
BRANCH  34  37
HETATM   37  C16 UNL     1       2.345   5.691  10.836  1.00  0.00     0.164 C 
BRANCH  37  38
HETATM   38  O4  UNL     1       2.646   4.361  10.382  1.00  0.00    -0.390 OA
HETATM   39  H27 UNL     1       3.626   4.297  10.391  1.00  0.00     0.210 HD
ENDBRANCH  37  38
BRANCH  37  40
HETATM   40  C17 UNL     1       0.977   5.565  11.516  1.00  0.00    -0.054 C 
HETATM   41  C18 UNL     1       1.069   5.841  13.007  1.00  0.00     0.046 C 
HETATM   42  C19 UNL     1      -0.184   5.254  10.904  1.00  0.00     0.005 C 
BRANCH  42  43
HETATM   43  C20 UNL     1      -1.480   5.084  11.534  1.00  0.00     0.000 C 
HETATM   44  C21 UNL     1      -1.913   3.906  12.013  1.00  0.00     0.000 C 
BRANCH  44  45
HETATM   45  C22 UNL     1      -3.204   3.754  12.654  1.00  0.00     0.001 C 
HETATM   46  C23 UNL     1      -4.203   4.640  12.496  1.00  0.00     0.009 C 
BRANCH  46  47
HETATM   47  C24 UNL     1      -5.539   4.576  13.111  1.00  0.00    -0.034 C 
HETATM   48  C25 UNL     1      -5.878   5.709  14.064  1.00  0.00     0.050 C 
HETATM   49  C26 UNL     1      -6.395   3.572  12.805  1.00  0.00     0.082 C 
HETATM   50  C27 UNL     1      -6.271   2.388  11.902  1.00  0.00     0.075 C 
BRANCH  49  51
HETATM   51  N2  UNL     1      -7.686   3.568  13.468  1.00  0.00    -0.120 N 
HETATM   52  O5  UNL     1      -8.685   3.557  12.739  1.00  0.00    -0.532 OA
HETATM   53  O6  UNL     1      -7.685   3.547  14.705  1.00  0.00    -0.532 OA
ENDBRANCH  49  51
ENDBRANCH  46  47
ENDBRANCH  44  45
ENDBRANCH  42  43
ENDBRANCH  37  40
ENDBRANCH  34  37
ENDBRANCH  31  34
ENDBRANCH  29  30
ENDBRANCH   2  29
TORSDOF 19
ENDMDL
MODEL 7
REMARK minimizedAffinity -8.14899063
REMARK CNNscore 0.224281818
REMARK CNNaffinity 5.68950653
REMARK  19 active torsions:
REMARK  status: ('A' for Active; 'I' for Inactive)
REMARK    1  A    between atoms: O1_2  and  C2_3 
REMARK    2  A    between atoms: C2_3  and  C3_4 
REMARK    3  A    between atoms: C2_3  and  C28_36 
REMARK    4  A    between atoms: C3_4  and  C4_5 
REMARK    5  A    between atoms: C4_5  and  C6_7 
REMARK    6  A    between atoms: C6_7  and  O2_8 
REMARK    7  A    between atoms: C6_7  and  C7_9 
REMARK    8  A    between atoms: C8_10  and  C9_11 
REMARK    9  A    between atoms: C10_12  and  C11_13 
REMARK   10  A    between atoms: C11_13  and  N1_14 
REMARK       I    between atoms: N1_14  and  C12_15 
REMARK   11  A    between atoms: C12_15  and  C13_17 
REMARK   12  A    between atoms: C13_17  and  C16_20 
REMARK   13  A    between atoms: C16_20  and  O4_21 
REMARK   14  A    between atoms: C16_20  and  C17_22 
REMARK   15  A    between atoms: C19_24  and  C20_25 
REMARK   16  A    between atoms: C21_26  and  C22_27 
REMARK   17  A    between atoms: C23_28  and  C24_29 
REMARK   18  A    between atoms: C26_31  and  N2_33 
REMARK   19  A    between atoms: C28_36  and  O7_37 
ROOT
HETATM    1  C9  UNL     1       6.813   8.624  13.890  1.00  0.00    -0.003 C 
HETATM    2  C10 UNL     1       6.680   7.427  13.301  1.00  0.00    -0.007 C 
ENDROOT
BRANCH   1   3
HETATM    3  C8  UNL     1       6.787   8.812  15.322  1.00  0.00    -0.002 C 
HETATM    4  C7  UNL     1       7.184   9.957  15.898  1.00  0.00     0.005 C 
BRANCH   4   5
HETATM    5  C6  UNL     1       7.203  10.204  17.379  1.00  0.00     0.144 C 
BRANCH   5   6
HETATM    6  C4  UNL     1       8.413  11.067  17.835  1.00  0.00     0.016 C 
HETATM    7  C5  UNL     1       9.710  10.274  17.619  1.00  0.00     0.013 C 
BRANCH   6   8
HETATM    8  C3  UNL     1       8.296  11.520  19.303  1.00  0.00     0.042 C 
BRANCH   8   9
HETATM    9  C2  UNL     1       8.273  13.036  19.666  1.00  0.00     0.159 C 
BRANCH   9  10
HETATM   10  O1  UNL     1       9.407  13.192  20.551  1.00  0.00    -0.388 OA
HETATM   11  C1  UNL     1      10.633  13.503  19.888  1.00  0.00     0.202 C 
ENDBRANCH   9  10
BRANCH   9  12
HETATM   12  C28 UNL     1       7.026  13.564  20.479  1.00  0.00     0.133 C 
HETATM   13  C29 UNL     1       6.815  15.111  20.354  1.00  0.00     0.114 C 
HETATM   14  C30 UNL     1       5.358  15.567  20.426  1.00  0.00     0.023 C 
HETATM   15  C31 UNL     1       7.555  15.699  21.523  1.00  0.00     0.227 C 
HETATM   16  O8  UNL     1       7.974  16.843  21.584  1.00  0.00    -0.273 OA
HETATM   17  N3  UNL     1       7.625  14.735  22.502  1.00  0.00    -0.332 N 
HETATM   18  C32 UNL     1       8.397  14.948  23.706  1.00  0.00     0.154 C 
HETATM   19  C33 UNL     1       7.195  13.373  22.026  1.00  0.00     0.183 A 
HETATM   20  C34 UNL     1       8.040  12.199  22.628  1.00  0.00     0.294 A 
HETATM   21  C35 UNL     1       6.085  12.724  22.934  1.00  0.00     0.169 A 
HETATM   22  O9  UNL     1       9.207  11.877  22.711  1.00  0.00    -0.262 OA
HETATM   23  O10 UNL     1       6.992  11.638  23.281  1.00  0.00    -0.311 OA
HETATM   24  C36 UNL     1       4.763  12.144  22.467  1.00  0.00     0.043 C 
BRANCH  12  25
HETATM   25  O7  UNL     1       5.836  12.899  20.028  1.00  0.00    -0.383 OA
HETATM   26  H42 UNL     1       5.775  12.961  19.061  1.00  0.00     0.210 HD
ENDBRANCH  12  25
ENDBRANCH   9  12
ENDBRANCH   8   9
ENDBRANCH   6   8
ENDBRANCH   5   6
BRANCH   5  27
HETATM   27  O2  UNL     1       5.980  10.847  17.716  1.00  0.00    -0.391 OA
HETATM   28  H12 UNL     1       5.261  10.246  17.457  1.00  0.00     0.210 HD
ENDBRANCH   5  27
ENDBRANCH   4   5
ENDBRANCH   1   3
BRANCH   2  29
HETATM   29  C11 UNL     1       6.747   7.226  11.822  1.00  0.00     0.149 C 
BRANCH  29  30
HETATM   30  N1  UNL     1       5.451   7.522  11.265  1.00  0.00    -0.357 N 
HETATM   31  C12 UNL     1       4.787   6.565  10.525  1.00  0.00     0.228 C 
HETATM   32  O3  UNL     1       5.235   5.425  10.403  1.00  0.00    -0.273 OA
HETATM   33  H19 UNL     1       5.181   8.492  11.182  1.00  0.00     0.162 HD
BRANCH  31  34
HETATM   34  C13 UNL     1       3.460   7.012   9.862  1.00  0.00     0.063 C 
HETATM   35  C14 UNL     1       3.130   5.996   8.751  1.00  0.00     0.028 C 
HETATM   36  C15 UNL     1       3.696   8.423   9.292  1.00  0.00     0.028 C 
BRANCH  34  37
HETATM   37  C16 UNL     1       2.368   7.028  10.991  1.00  0.00     0.164 C 
BRANCH  37  38
HETATM   38  O4  UNL     1       2.926   6.445  12.181  1.00  0.00    -0.390 OA
HETATM   39  H27 UNL     1       3.531   7.128  12.547  1.00  0.00     0.210 HD
ENDBRANCH  37  38
BRANCH  37  40
HETATM   40  C17 UNL     1       0.985   6.379  10.857  1.00  0.00    -0.054 C 
HETATM   41  C18 UNL     1       0.000   7.307  10.168  1.00  0.00     0.046 C 
HETATM   42  C19 UNL     1       0.647   5.144  11.282  1.00  0.00     0.005 C 
BRANCH  42  43
HETATM   43  C20 UNL     1      -0.665   4.529  11.208  1.00  0.00     0.000 C 
HETATM   44  C21 UNL     1      -1.550   4.567  12.218  1.00  0.00     0.000 C 
BRANCH  44  45
HETATM   45  C22 UNL     1      -2.864   3.962  12.124  1.00  0.00     0.001 C 
HETATM   46  C23 UNL     1      -3.987   4.604  12.490  1.00  0.00     0.009 C 
BRANCH  46  47
HETATM   47  C24 UNL     1      -5.358   4.071  12.441  1.00  0.00    -0.034 C 
HETATM   48  C25 UNL     1      -5.577   2.904  11.496  1.00  0.00     0.050 C 
HETATM   49  C26 UNL     1      -6.334   4.596  13.223  1.00  0.00     0.082 C 
HETATM   50  C27 UNL     1      -6.331   5.715  14.213  1.00  0.00     0.075 C 
BRANCH  49  51
HETATM   51  N2  UNL     1      -7.664   4.029  13.103  1.00  0.00    -0.120 N 
HETATM   52  O5  UNL     1      -8.477   4.659  12.418  1.00  0.00    -0.532 OA
HETATM   53  O6  UNL     1      -7.869   2.948  13.669  1.00  0.00    -0.532 OA
ENDBRANCH  49  51
ENDBRANCH  46  47
ENDBRANCH  44  45
ENDBRANCH  42  43
ENDBRANCH  37  40
ENDBRANCH  34  37
ENDBRANCH  31  34
ENDBRANCH  29  30
ENDBRANCH   2  29
TORSDOF 19
ENDMDL
MODEL 8
REMARK minimizedAffinity -7.78109503
REMARK CNNscore 0.22305727
REMARK CNNaffinity 6.01755762
REMARK  19 active torsions:
REMARK  status: ('A' for Active; 'I' for Inactive)
REMARK    1  A    between atoms: O1_2  and  C2_3 
REMARK    2  A    between atoms: C2_3  and  C3_4 
REMARK    3  A    between atoms: C2_3  and  C28_36 
REMARK    4  A    between atoms: C3_4  and  C4_5 
REMARK    5  A    between atoms: C4_5  and  C6_7 
REMARK    6  A    between atoms: C6_7  and  O2_8 
REMARK    7  A    between atoms: C6_7  and  C7_9 
REMARK    8  A    between atoms: C8_10  and  C9_11 
REMARK    9  A    between atoms: C10_12  and  C11_13 
REMARK   10  A    between atoms: C11_13  and  N1_14 
REMARK       I    between atoms: N1_14  and  C12_15 
REMARK   11  A    between atoms: C12_15  and  C13_17 
REMARK   12  A    between atoms: C13_17  and  C16_20 
REMARK   13  A    between atoms: C16_20  and  O4_21 
REMARK   14  A    between atoms: C16_20  and  C17_22 
REMARK   15  A    between atoms: C19_24  and  C20_25 
REMARK   16  A    between atoms: C21_26  and  C22_27 
REMARK   17  A    between atoms: C23_28  and  C24_29 
REMARK   18  A    between atoms: C26_31  and  N2_33 
REMARK   19  A    between atoms: C28_36  and  O7_37 
ROOT
HETATM    1  C9  UNL     1       0.568  11.720  19.938  1.00  0.00    -0.003 C 
HETATM    2  C10 UNL     1       0.393  13.024  20.193  1.00  0.00    -0.007 C 
ENDROOT
BRANCH   1   3
HETATM    3  C8  UNL     1       1.486  10.883  20.676  1.00  0.00    -0.002 C 
HETATM    4  C7  UNL     1       2.816  11.008  20.559  1.00  0.00     0.005 C 
BRANCH   4   5
HETATM    5  C6  UNL     1       3.819  10.153  21.279  1.00  0.00     0.144 C 
BRANCH   5   6
HETATM    6  C4  UNL     1       4.426  10.851  22.529  1.00  0.00     0.016 C 
HETATM    7  C5  UNL     1       3.498  10.632  23.731  1.00  0.00     0.013 C 
BRANCH   6   8
HETATM    8  C3  UNL     1       4.674  12.355  22.305  1.00  0.00     0.042 C 
BRANCH   8   9
HETATM    9  C2  UNL     1       6.125  12.925  22.282  1.00  0.00     0.159 C 
BRANCH   9  10
HETATM   10  O1  UNL     1       6.055  14.071  23.163  1.00  0.00    -0.388 OA
HETATM   11  C1  UNL     1       4.744  14.614  23.320  1.00  0.00     0.202 C 
ENDBRANCH   9  10
BRANCH   9  12
HETATM   12  C28 UNL     1       6.660  13.482  20.905  1.00  0.00     0.133 C 
HETATM   13  C29 UNL     1       6.157  12.664  19.668  1.00  0.00     0.114 C 
HETATM   14  C30 UNL     1       5.969  13.481  18.390  1.00  0.00     0.023 C 
HETATM   15  C31 UNL     1       7.226  11.636  19.422  1.00  0.00     0.227 C 
HETATM   16  O8  UNL     1       7.061  10.578  18.836  1.00  0.00    -0.273 OA
HETATM   17  N3  UNL     1       8.405  12.127  19.933  1.00  0.00    -0.332 N 
HETATM   18  C32 UNL     1       9.599  11.313  19.973  1.00  0.00     0.154 C 
HETATM   19  C33 UNL     1       8.218  13.362  20.774  1.00  0.00     0.183 A 
HETATM   20  C34 UNL     1       9.161  13.422  22.024  1.00  0.00     0.294 A 
HETATM   21  C35 UNL     1       9.133  14.561  20.322  1.00  0.00     0.169 A 
HETATM   22  O9  UNL     1       9.436  12.729  22.981  1.00  0.00    -0.262 OA
HETATM   23  O10 UNL     1       9.816  14.536  21.609  1.00  0.00    -0.311 OA
HETATM   24  C36 UNL     1       8.680  15.977  20.021  1.00  0.00     0.043 C 
BRANCH  12  25
HETATM   25  O7  UNL     1       6.256  14.850  20.745  1.00  0.00    -0.383 OA
HETATM   26  H42 UNL     1       5.301  14.928  20.897  1.00  0.00     0.210 HD
ENDBRANCH  12  25
ENDBRANCH   9  12
ENDBRANCH   8   9
ENDBRANCH   6   8
ENDBRANCH   5   6
BRANCH   5  27
HETATM   27  O2  UNL     1       3.158   8.951  21.653  1.00  0.00    -0.391 OA
HETATM   28  H12 UNL     1       2.844   8.531  20.835  1.00  0.00     0.210 HD
ENDBRANCH   5  27
ENDBRANCH   4   5
ENDBRANCH   1   3
BRANCH   2  29
HETATM   29  C11 UNL     1      -0.584  13.883  19.457  1.00  0.00     0.149 C 
BRANCH  29  30
HETATM   30  N1  UNL     1      -1.610  13.033  18.907  1.00  0.00    -0.357 N 
HETATM   31  C12 UNL     1      -1.939  13.132  17.571  1.00  0.00     0.228 C 
HETATM   32  O3  UNL     1      -1.313  13.869  16.810  1.00  0.00    -0.273 OA
HETATM   33  H19 UNL     1      -2.255  12.591  19.548  1.00  0.00     0.162 HD
BRANCH  31  34
HETATM   34  C13 UNL     1      -3.136  12.270  17.096  1.00  0.00     0.063 C 
HETATM   35  C14 UNL     1      -4.195  13.226  16.512  1.00  0.00     0.028 C 
HETATM   36  C15 UNL     1      -3.665  11.518  18.330  1.00  0.00     0.028 C 
BRANCH  34  37
HETATM   37  C16 UNL     1      -2.580  11.274  16.015  1.00  0.00     0.164 C 
BRANCH  37  38
HETATM   38  O4  UNL     1      -2.532  11.949  14.747  1.00  0.00    -0.390 OA
HETATM   39  H27 UNL     1      -1.761  12.556  14.803  1.00  0.00     0.210 HD
ENDBRANCH  37  38
BRANCH  37  40
HETATM   40  C17 UNL     1      -3.206   9.910  15.701  1.00  0.00    -0.054 C 
HETATM   41  C18 UNL     1      -2.374   8.773  16.269  1.00  0.00     0.046 C 
HETATM   42  C19 UNL     1      -4.349   9.704  15.015  1.00  0.00     0.005 C 
BRANCH  42  43
HETATM   43  C20 UNL     1      -4.934   8.423  14.667  1.00  0.00     0.000 C 
HETATM   44  C21 UNL     1      -6.223   8.121  14.890  1.00  0.00     0.000 C 
BRANCH  44  45
HETATM   45  C22 UNL     1      -6.798   6.842  14.522  1.00  0.00     0.001 C 
HETATM   46  C23 UNL     1      -6.458   6.189  13.397  1.00  0.00     0.009 C 
BRANCH  46  47
HETATM   47  C24 UNL     1      -6.992   4.897  12.936  1.00  0.00    -0.034 C 
HETATM   48  C25 UNL     1      -8.496   4.841  12.737  1.00  0.00     0.050 C 
HETATM   49  C26 UNL     1      -6.163   3.853  12.691  1.00  0.00     0.082 C 
HETATM   50  C27 UNL     1      -4.682   3.700  12.807  1.00  0.00     0.075 C 
BRANCH  49  51
HETATM   51  N2  UNL     1      -6.768   2.607  12.257  1.00  0.00    -0.120 N 
HETATM   52  O5  UNL     1      -7.695   2.170  12.949  1.00  0.00    -0.532 OA
HETATM   53  O6  UNL     1      -6.330   2.100  11.217  1.00  0.00    -0.532 OA
ENDBRANCH  49  51
ENDBRANCH  46  47
ENDBRANCH  44  45
ENDBRANCH  42  43
ENDBRANCH  37  40
ENDBRANCH  34  37
ENDBRANCH  31  34
ENDBRANCH  29  30
ENDBRANCH   2  29
TORSDOF 19
ENDMDL
MODEL 9
REMARK minimizedAffinity -8.50722694
REMARK CNNscore 0.217483461
REMARK CNNaffinity 7.22456312
REMARK  19 active torsions:
REMARK  status: ('A' for Active; 'I' for Inactive)
REMARK    1  A    between atoms: O1_2  and  C2_3 
REMARK    2  A    between atoms: C2_3  and  C3_4 
REMARK    3  A    between atoms: C2_3  and  C28_36 
REMARK    4  A    between atoms: C3_4  and  C4_5 
REMARK    5  A    between atoms: C4_5  and  C6_7 
REMARK    6  A    between atoms: C6_7  and  O2_8 
REMARK    7  A    between atoms: C6_7  and  C7_9 
REMARK    8  A    between atoms: C8_10  and  C9_11 
REMARK    9  A    between atoms: C10_12  and  C11_13 
REMARK   10  A    between atoms: C11_13  and  N1_14 
REMARK       I    between atoms: N1_14  and  C12_15 
REMARK   11  A    between atoms: C12_15  and  C13_17 
REMARK   12  A    between atoms: C13_17  and  C16_20 
REMARK   13  A    between atoms: C16_20  and  O4_21 
REMARK   14  A    between atoms: C16_20  and  C17_22 
REMARK   15  A    between atoms: C19_24  and  C20_25 
REMARK   16  A    between atoms: C21_26  and  C22_27 
REMARK   17  A    between atoms: C23_28  and  C24_29 
REMARK   18  A    between atoms: C26_31  and  N2_33 
REMARK   19  A    between atoms: C28_36  and  O7_37 
ROOT
HETATM    1  C9  UNL     1      -5.625   4.632  13.238  1.00  0.00    -0.003 C 
HETATM    2  C10 UNL     1      -6.671   4.059  12.625  1.00  0.00    -0.007 C 
ENDROOT
BRANCH   1   3
HETATM    3  C8  UNL     1      -4.307   4.714  12.651  1.00  0.00    -0.002 C 
HETATM    4  C7  UNL     1      -3.978   4.034  11.542  1.00  0.00     0.005 C 
BRANCH   4   5
HETATM    5  C6  UNL     1      -2.622   4.059  10.899  1.00  0.00     0.144 C 
BRANCH   5   6
HETATM    6  C4  UNL     1      -1.568   4.842  11.732  1.00  0.00     0.016 C 
HETATM    7  C5  UNL     1      -2.247   6.040  12.409  1.00  0.00     0.013 C 
BRANCH   6   8
HETATM    8  C3  UNL     1      -0.371   5.309  10.882  1.00  0.00     0.042 C 
BRANCH   8   9
HETATM    9  C2  UNL     1       1.088   5.148  11.410  1.00  0.00     0.159 C 
BRANCH   9  10
HETATM   10  O1  UNL     1       0.909   4.729  12.784  1.00  0.00    -0.388 OA
HETATM   11  C1  UNL     1       0.669   5.799  13.699  1.00  0.00     0.202 C 
ENDBRANCH   9  10
BRANCH   9  12
HETATM   12  C28 UNL     1       1.978   6.451  11.478  1.00  0.00     0.133 C 
HETATM   13  C29 UNL     1       1.154   7.773  11.323  1.00  0.00     0.114 C 
HETATM   14  C30 UNL     1       1.716   8.973  12.083  1.00  0.00     0.023 C 
HETATM   15  C31 UNL     1       1.191   8.083   9.852  1.00  0.00     0.227 C 
HETATM   16  O8  UNL     1       0.376   8.771   9.259  1.00  0.00    -0.273 OA
HETATM   17  N3  UNL     1       2.318   7.494   9.328  1.00  0.00    -0.332 N 
HETATM   18  C32 UNL     1       2.569   7.495   7.904  1.00  0.00     0.154 C 
HETATM   19  C33 UNL     1       2.992   6.546  10.285  1.00  0.00     0.183 A 
HETATM   20  C34 UNL     1       3.583   5.269   9.596  1.00  0.00     0.294 A 
HETATM   21  C35 UNL     1       4.522   6.856  10.487  1.00  0.00     0.169 A 
HETATM   22  O9  UNL     1       3.198   4.374   8.873  1.00  0.00    -0.262 OA
HETATM   23  O10 UNL     1       4.867   5.558   9.923  1.00  0.00    -0.311 OA
HETATM   24  C36 UNL     1       5.239   7.036  11.811  1.00  0.00     0.043 C 
BRANCH  12  25
HETATM   25  O7  UNL     1       2.683   6.492  12.728  1.00  0.00    -0.383 OA
HETATM   26  H42 UNL     1       2.058   6.362  13.459  1.00  0.00     0.210 HD
ENDBRANCH  12  25
ENDBRANCH   9  12
ENDBRANCH   8   9
ENDBRANCH   6   8
ENDBRANCH   5   6
BRANCH   5  27
HETATM   27  O2  UNL     1      -2.213   2.708  10.724  1.00  0.00    -0.391 OA
HETATM   28  H12 UNL     1      -2.876   2.280  10.157  1.00  0.00     0.210 HD
ENDBRANCH   5  27
ENDBRANCH   4   5
ENDBRANCH   1   3
BRANCH   2  29
HETATM   29  C11 UNL     1      -8.043   4.008  13.215  1.00  0.00     0.149 C 
BRANCH  29  30
HETATM   30  N1  UNL     1      -8.076   4.879  14.362  1.00  0.00    -0.357 N 
HETATM   31  C12 UNL     1      -8.370   6.217  14.200  1.00  0.00     0.228 C 
HETATM   32  O3  UNL     1      -8.695   6.673  13.103  1.00  0.00    -0.273 OA
HETATM   33  H19 UNL     1      -7.617   4.569  15.207  1.00  0.00     0.162 HD
BRANCH  31  34
HETATM   34  C13 UNL     1      -8.261   7.101  15.468  1.00  0.00     0.063 C 
HETATM   35  C14 UNL     1      -7.383   8.317  15.113  1.00  0.00     0.028 C 
HETATM   36  C15 UNL     1      -7.617   6.234  16.565  1.00  0.00     0.028 C 
BRANCH  34  37
HETATM   37  C16 UNL     1      -9.723   7.522  15.857  1.00  0.00     0.164 C 
BRANCH  37  38
HETATM   38  O4  UNL     1     -10.649   6.768  15.057  1.00  0.00    -0.390 OA
HETATM   39  H27 UNL     1     -10.647   5.863  15.438  1.00  0.00     0.210 HD
ENDBRANCH  37  38
BRANCH  37  40
HETATM   40  C17 UNL     1     -10.247   8.962  15.798  1.00  0.00    -0.054 C 
HETATM   41  C18 UNL     1     -10.823   9.399  17.134  1.00  0.00     0.046 C 
HETATM   42  C19 UNL     1     -10.216   9.771  14.719  1.00  0.00     0.005 C 
BRANCH  42  43
HETATM   43  C20 UNL     1     -10.747  11.118  14.628  1.00  0.00     0.000 C 
HETATM   44  C21 UNL     1     -10.028  12.211  14.930  1.00  0.00     0.000 C 
BRANCH  44  45
HETATM   45  C22 UNL     1     -10.567  13.552  14.819  1.00  0.00     0.001 C 
HETATM   46  C23 UNL     1     -10.557  14.246  13.667  1.00  0.00     0.009 C 
BRANCH  46  47
HETATM   47  C24 UNL     1     -11.069  15.610  13.459  1.00  0.00    -0.034 C 
HETATM   48  C25 UNL     1     -10.630  16.640  14.484  1.00  0.00     0.050 C 
HETATM   49  C26 UNL     1     -11.860  15.899  12.397  1.00  0.00     0.082 C 
HETATM   50  C27 UNL     1     -12.391  15.056  11.284  1.00  0.00     0.075 C 
BRANCH  49  51
HETATM   51  N2  UNL     1     -12.340  17.263  12.272  1.00  0.00    -0.120 N 
HETATM   52  O5  UNL     1     -13.531  17.459  12.537  1.00  0.00    -0.532 OA
HETATM   53  O6  UNL     1     -11.514  18.123  11.941  1.00  0.00    -0.532 OA
ENDBRANCH  49  51
ENDBRANCH  46  47
ENDBRANCH  44  45
ENDBRANCH  42  43
ENDBRANCH  37  40
ENDBRANCH  34  37
ENDBRANCH  31  34
ENDBRANCH  29  30
ENDBRANCH   2  29
TORSDOF 19
ENDMDL
