MODEL 1
REMARK minimizedAffinity -7.98584366
REMARK CNNscore 0.56310606
REMARK CNNaffinity 7.40679884
REMARK  10 active torsions:
REMARK  status: ('A' for Active; 'I' for Inactive)
REMARK    1  A    between atoms: C3_3  and  O1_4 
REMARK    2  A    between atoms: N1_14  and  O2_16 
REMARK    3  A    between atoms: O2_16  and  C13_17 
REMARK    4  A    between atoms: C13_17  and  C14_18 
REMARK       I    between atoms: C14_18  and  N2_20 
REMARK    5  A    between atoms: N2_20  and  C15_21 
REMARK    6  A    between atoms: C15_21  and  C16_22 
REMARK    7  A    between atoms: C15_21  and  C19_29 
REMARK       I    between atoms: C16_22  and  N3_24 
REMARK    8  A    between atoms: N3_24  and  C17_25 
REMARK    9  A    between atoms: C17_25  and  C18_26 
REMARK   10  A    between atoms: C18_26  and  O6_28 
ROOT
HETATM    1  C1  UNL     1      -0.456  54.215  -7.722  1.00  0.00     0.015 C 
HETATM    2  C2  UNL     1       0.255  53.630  -8.491  1.00  0.00    -0.078 C 
HETATM    3  C3  UNL     1       1.143  52.948  -9.445  1.00  0.00     0.128 C 
HETATM    4  C4  UNL     1       1.917  51.796  -8.796  1.00  0.00     0.052 C 
HETATM    5  C5  UNL     1       2.511  51.076 -10.001  1.00  0.00     0.010 C 
HETATM    6  C6  UNL     1       1.366  51.059 -11.022  1.00  0.00     0.002 C 
HETATM    7  C7  UNL     1       1.769  50.913 -12.508  1.00  0.00    -0.004 C 
HETATM    8  C8  UNL     1       2.946  51.773 -12.997  1.00  0.00     0.010 C 
HETATM    9  C9  UNL     1       3.265  51.519 -14.470  1.00  0.00     0.035 C 
HETATM   10  C10 UNL     1       2.058  51.578 -15.378  1.00  0.00    -0.069 C 
HETATM   11  C11 UNL     1       2.126  52.259 -16.535  1.00  0.00     0.030 C 
HETATM   12  C12 UNL     1       1.030  52.217 -17.536  1.00  0.00     0.032 C 
HETATM   13  N1  UNL     1       1.141  52.977 -18.587  1.00  0.00    -0.271 N 
ATOM     14  H1  UNL     1       1.913  53.623 -18.750  1.00  0.00     0.194 HD
HETATM   15  C22 UNL     1      -0.106  51.240 -17.293  1.00  0.00     0.060 C 
HETATM   16  C23 UNL     1      -0.418  51.146 -15.804  1.00  0.00     0.020 C 
HETATM   17  C24 UNL     1       0.822  50.802 -14.926  1.00  0.00    -0.016 C 
HETATM   18  C25 UNL     1       1.103  49.285 -15.101  1.00  0.00     0.020 C 
HETATM   19  C26 UNL     1       0.524  51.120 -13.409  1.00  0.00     0.002 C 
HETATM   20  C27 UNL     1      -0.102  52.523 -13.180  1.00  0.00     0.007 C 
HETATM   21  C28 UNL     1       0.225  53.214 -11.854  1.00  0.00     0.014 C 
HETATM   22  C29 UNL     1       0.427  52.263 -10.663  1.00  0.00     0.003 C 
HETATM   23  C30 UNL     1      -0.957  51.685 -10.265  1.00  0.00     0.020 C 
ENDROOT
BRANCH   3  24
HETATM   24  O1  UNL     1       2.125  53.889  -9.889  1.00  0.00    -0.377 OA
HETATM   25  H2  UNL     1       1.666  54.736 -10.027  1.00  0.00     0.211 HD
ENDBRANCH   3  24
BRANCH  13  26
HETATM   26  O2  UNL     1       0.067  52.795 -19.467  1.00  0.00    -0.271 OA
BRANCH  26  27
HETATM   27  C13 UNL     1       0.568  52.357 -20.722  1.00  0.00     0.303 C 
BRANCH  27  28
HETATM   28  C14 UNL     1      -0.594  52.160 -21.688  1.00  0.00     0.244 C 
HETATM   29  O3  UNL     1      -1.779  52.210 -21.356  1.00  0.00    -0.271 OA
HETATM   30  N2  UNL     1      -0.218  51.890 -22.991  1.00  0.00    -0.346 N 
HETATM   31  H16 UNL     1       0.708  51.505 -23.131  1.00  0.00     0.163 HD
BRANCH  30  32
HETATM   32  C15 UNL     1      -1.213  51.618 -24.045  1.00  0.00     0.180 C 
BRANCH  32  33
HETATM   33  C16 UNL     1      -1.929  50.259 -23.797  1.00  0.00     0.241 C 
HETATM   34  O4  UNL     1      -1.519  49.395 -23.021  1.00  0.00    -0.271 OA
HETATM   35  N3  UNL     1      -3.008  50.031 -24.632  1.00  0.00    -0.349 N 
HETATM   36  H18 UNL     1      -3.069  50.595 -25.477  1.00  0.00     0.163 HD
BRANCH  35  37
HETATM   37  C17 UNL     1      -3.731  48.773 -24.591  1.00  0.00     0.232 C 
BRANCH  37  38
HETATM   38  C18 UNL     1      -4.438  48.411 -25.896  1.00  0.00     0.158 C 
HETATM   39  O5  UNL     1      -3.888  48.272 -26.979  1.00  0.00    -0.649 OA
BRANCH  38  40
HETATM   40  O6  UNL     1      -5.782  48.307 -25.808  1.00  0.00    -0.775 OA
HETATM   41  H21 UNL     1      -6.051  48.057 -26.715  1.00  0.00     0.167 HD
ENDBRANCH  38  40
ENDBRANCH  37  38
ENDBRANCH  35  37
ENDBRANCH  32  33
BRANCH  32  42
HETATM   42  C19 UNL     1      -0.566  51.783 -25.442  1.00  0.00     0.009 C 
HETATM   43  C20 UNL     1      -0.798  50.563 -26.339  1.00  0.00     0.012 C 
HETATM   44  C21 UNL     1       0.921  52.142 -25.404  1.00  0.00     0.012 C 
ENDBRANCH  32  42
ENDBRANCH  30  32
ENDBRANCH  27  28
ENDBRANCH  26  27
ENDBRANCH  13  26
TORSDOF 10
ENDMDL
MODEL 2
REMARK minimizedAffinity -7.39927435
REMARK CNNscore 0.415435582
REMARK CNNaffinity 7.19518471
REMARK  10 active torsions:
REMARK  status: ('A' for Active; 'I' for Inactive)
REMARK    1  A    between atoms: C3_3  and  O1_4 
REMARK    2  A    between atoms: N1_14  and  O2_16 
REMARK    3  A    between atoms: O2_16  and  C13_17 
REMARK    4  A    between atoms: C13_17  and  C14_18 
REMARK       I    between atoms: C14_18  and  N2_20 
REMARK    5  A    between atoms: N2_20  and  C15_21 
REMARK    6  A    between atoms: C15_21  and  C16_22 
REMARK    7  A    between atoms: C15_21  and  C19_29 
REMARK       I    between atoms: C16_22  and  N3_24 
REMARK    8  A    between atoms: N3_24  and  C17_25 
REMARK    9  A    between atoms: C17_25  and  C18_26 
REMARK   10  A    between atoms: C18_26  and  O6_28 
ROOT
HETATM    1  C1  UNL     1      -0.448  54.286  -7.643  1.00  0.00     0.015 C 
HETATM    2  C2  UNL     1       0.272  53.733  -8.426  1.00  0.00    -0.078 C 
HETATM    3  C3  UNL     1       1.169  53.091  -9.400  1.00  0.00     0.128 C 
HETATM    4  C4  UNL     1       2.042  52.009  -8.758  1.00  0.00     0.052 C 
HETATM    5  C5  UNL     1       2.640  51.303  -9.971  1.00  0.00     0.010 C 
HETATM    6  C6  UNL     1       1.462  51.187 -10.947  1.00  0.00     0.002 C 
HETATM    7  C7  UNL     1       1.820  51.036 -12.443  1.00  0.00    -0.004 C 
HETATM    8  C8  UNL     1       2.917  51.962 -12.993  1.00  0.00     0.010 C 
HETATM    9  C9  UNL     1       3.199  51.697 -14.472  1.00  0.00     0.035 C 
HETATM   10  C10 UNL     1       1.958  51.655 -15.335  1.00  0.00    -0.069 C 
HETATM   11  C11 UNL     1       1.938  52.313 -16.507  1.00  0.00     0.030 C 
HETATM   12  C12 UNL     1       0.811  52.175 -17.464  1.00  0.00     0.032 C 
HETATM   13  N1  UNL     1       0.833  52.918 -18.534  1.00  0.00    -0.271 N 
ATOM     14  H1  UNL     1       1.553  53.611 -18.739  1.00  0.00     0.194 HD
HETATM   15  C22 UNL     1      -0.246  51.130 -17.160  1.00  0.00     0.060 C 
HETATM   16  C23 UNL     1      -0.496  51.048 -15.659  1.00  0.00     0.020 C 
HETATM   17  C24 UNL     1       0.795  50.808 -14.821  1.00  0.00    -0.016 C 
HETATM   18  C25 UNL     1       1.172  49.310 -14.977  1.00  0.00     0.020 C 
HETATM   19  C26 UNL     1       0.532  51.139 -13.300  1.00  0.00     0.002 C 
HETATM   20  C27 UNL     1      -0.180  52.501 -13.076  1.00  0.00     0.007 C 
HETATM   21  C28 UNL     1       0.148  53.241 -11.777  1.00  0.00     0.014 C 
HETATM   22  C29 UNL     1       0.457  52.333 -10.576  1.00  0.00     0.003 C 
HETATM   23  C30 UNL     1      -0.869  51.672 -10.115  1.00  0.00     0.020 C 
ENDROOT
BRANCH   3  24
HETATM   24  O1  UNL     1       2.068  54.086  -9.899  1.00  0.00    -0.377 OA
HETATM   25  H2  UNL     1       1.548  54.897 -10.036  1.00  0.00     0.211 HD
ENDBRANCH   3  24
BRANCH  13  26
HETATM   26  O2  UNL     1      -0.258  52.645 -19.369  1.00  0.00    -0.271 OA
BRANCH  26  27
HETATM   27  C13 UNL     1       0.102  51.612 -20.275  1.00  0.00     0.303 C 
BRANCH  27  28
HETATM   28  C14 UNL     1      -0.956  51.508 -21.367  1.00  0.00     0.244 C 
HETATM   29  O3  UNL     1      -1.221  52.415 -22.156  1.00  0.00    -0.271 OA
HETATM   30  N2  UNL     1      -1.636  50.303 -21.395  1.00  0.00    -0.346 N 
HETATM   31  H16 UNL     1      -1.649  49.763 -20.538  1.00  0.00     0.163 HD
BRANCH  30  32
HETATM   32  C15 UNL     1      -2.730  50.052 -22.350  1.00  0.00     0.180 C 
BRANCH  32  33
HETATM   33  C16 UNL     1      -4.116  50.289 -21.685  1.00  0.00     0.241 C 
HETATM   34  O4  UNL     1      -4.307  50.279 -20.469  1.00  0.00    -0.271 OA
HETATM   35  N3  UNL     1      -5.164  50.379 -22.583  1.00  0.00    -0.349 N 
HETATM   36  H18 UNL     1      -5.004  50.017 -23.521  1.00  0.00     0.163 HD
BRANCH  35  37
HETATM   37  C17 UNL     1      -6.534  50.512 -22.122  1.00  0.00     0.232 C 
BRANCH  37  38
HETATM   38  C18 UNL     1      -7.497  49.479 -22.707  1.00  0.00     0.158 C 
HETATM   39  O5  UNL     1      -7.730  48.381 -22.223  1.00  0.00    -0.649 OA
BRANCH  38  40
HETATM   40  O6  UNL     1      -8.065  49.831 -23.882  1.00  0.00    -0.775 OA
HETATM   41  H21 UNL     1      -8.649  49.073 -24.086  1.00  0.00     0.167 HD
ENDBRANCH  38  40
ENDBRANCH  37  38
ENDBRANCH  35  37
ENDBRANCH  32  33
BRANCH  32  42
HETATM   42  C19 UNL     1      -2.543  48.668 -23.020  1.00  0.00     0.009 C 
HETATM   43  C20 UNL     1      -3.215  48.591 -24.395  1.00  0.00     0.012 C 
HETATM   44  C21 UNL     1      -2.976  47.488 -22.148  1.00  0.00     0.012 C 
ENDBRANCH  32  42
ENDBRANCH  30  32
ENDBRANCH  27  28
ENDBRANCH  26  27
ENDBRANCH  13  26
TORSDOF 10
ENDMDL
MODEL 3
REMARK minimizedAffinity -8.527174
REMARK CNNscore 0.391710997
REMARK CNNaffinity 7.341681
REMARK  10 active torsions:
REMARK  status: ('A' for Active; 'I' for Inactive)
REMARK    1  A    between atoms: C3_3  and  O1_4 
REMARK    2  A    between atoms: N1_14  and  O2_16 
REMARK    3  A    between atoms: O2_16  and  C13_17 
REMARK    4  A    between atoms: C13_17  and  C14_18 
REMARK       I    between atoms: C14_18  and  N2_20 
REMARK    5  A    between atoms: N2_20  and  C15_21 
REMARK    6  A    between atoms: C15_21  and  C16_22 
REMARK    7  A    between atoms: C15_21  and  C19_29 
REMARK       I    between atoms: C16_22  and  N3_24 
REMARK    8  A    between atoms: N3_24  and  C17_25 
REMARK    9  A    between atoms: C17_25  and  C18_26 
REMARK   10  A    between atoms: C18_26  and  O6_28 
ROOT
HETATM    1  C1  UNL     1      -0.206  54.410  -7.610  1.00  0.00     0.015 C 
HETATM    2  C2  UNL     1       0.469  53.787  -8.381  1.00  0.00    -0.078 C 
HETATM    3  C3  UNL     1       1.315  53.058  -9.338  1.00  0.00     0.128 C 
HETATM    4  C4  UNL     1       2.079  51.907  -8.678  1.00  0.00     0.052 C 
HETATM    5  C5  UNL     1       2.624  51.140  -9.878  1.00  0.00     0.010 C 
HETATM    6  C6  UNL     1       1.451  51.122 -10.868  1.00  0.00     0.002 C 
HETATM    7  C7  UNL     1       1.810  50.926 -12.358  1.00  0.00    -0.004 C 
HETATM    8  C8  UNL     1       2.993  51.744 -12.903  1.00  0.00     0.010 C 
HETATM    9  C9  UNL     1       3.266  51.442 -14.376  1.00  0.00     0.035 C 
HETATM   10  C10 UNL     1       2.036  51.505 -15.253  1.00  0.00    -0.069 C 
HETATM   11  C11 UNL     1       2.089  52.152 -16.430  1.00  0.00     0.030 C 
HETATM   12  C12 UNL     1       0.965  52.109 -17.400  1.00  0.00     0.032 C 
HETATM   13  N1  UNL     1       1.065  52.837 -18.475  1.00  0.00    -0.271 N 
ATOM     14  H1  UNL     1       1.847  53.460 -18.676  1.00  0.00     0.194 HD
HETATM   15  C22 UNL     1      -0.186  51.166 -17.099  1.00  0.00     0.060 C 
HETATM   16  C23 UNL     1      -0.460  51.121 -15.601  1.00  0.00     0.020 C 
HETATM   17  C24 UNL     1       0.795  50.772 -14.747  1.00  0.00    -0.016 C 
HETATM   18  C25 UNL     1       1.036  49.244 -14.887  1.00  0.00     0.020 C 
HETATM   19  C26 UNL     1       0.546  51.138 -13.231  1.00  0.00     0.002 C 
HETATM   20  C27 UNL     1      -0.041  52.561 -13.025  1.00  0.00     0.007 C 
HETATM   21  C28 UNL     1       0.339  53.280 -11.729  1.00  0.00     0.014 C 
HETATM   22  C29 UNL     1       0.550  52.358 -10.517  1.00  0.00     0.003 C 
HETATM   23  C30 UNL     1      -0.836  51.824 -10.067  1.00  0.00     0.020 C 
ENDROOT
BRANCH   3  24
HETATM   24  O1  UNL     1       2.306  53.963  -9.834  1.00  0.00    -0.377 OA
HETATM   25  H2  UNL     1       1.864  54.817  -9.984  1.00  0.00     0.211 HD
ENDBRANCH   3  24
BRANCH  13  26
HETATM   26  O2  UNL     1      -0.037  52.657 -19.320  1.00  0.00    -0.271 OA
BRANCH  26  27
HETATM   27  C13 UNL     1       0.372  52.873 -20.663  1.00  0.00     0.303 C 
BRANCH  27  28
HETATM   28  C14 UNL     1      -0.396  51.931 -21.582  1.00  0.00     0.244 C 
HETATM   29  O3  UNL     1      -0.340  50.704 -21.509  1.00  0.00    -0.271 OA
HETATM   30  N2  UNL     1      -1.158  52.565 -22.547  1.00  0.00    -0.346 N 
HETATM   31  H16 UNL     1      -0.890  53.509 -22.797  1.00  0.00     0.163 HD
BRANCH  30  32
HETATM   32  C15 UNL     1      -1.921  51.805 -23.555  1.00  0.00     0.180 C 
BRANCH  32  33
HETATM   33  C16 UNL     1      -1.185  51.805 -24.925  1.00  0.00     0.241 C 
HETATM   34  O4  UNL     1      -0.924  50.788 -25.567  1.00  0.00    -0.271 OA
HETATM   35  N3  UNL     1      -0.715  53.047 -25.312  1.00  0.00    -0.349 N 
HETATM   36  H18 UNL     1      -0.635  53.759 -24.590  1.00  0.00     0.163 HD
BRANCH  35  37
HETATM   37  C17 UNL     1       0.070  53.205 -26.524  1.00  0.00     0.232 C 
BRANCH  37  38
HETATM   38  C18 UNL     1      -0.758  53.474 -27.779  1.00  0.00     0.158 C 
HETATM   39  O5  UNL     1      -1.953  53.733 -27.792  1.00  0.00    -0.649 OA
BRANCH  38  40
HETATM   40  O6  UNL     1      -0.086  53.345 -28.944  1.00  0.00    -0.775 OA
HETATM   41  H21 UNL     1      -0.759  53.569 -29.619  1.00  0.00     0.167 HD
ENDBRANCH  38  40
ENDBRANCH  37  38
ENDBRANCH  35  37
ENDBRANCH  32  33
BRANCH  32  42
HETATM   42  C19 UNL     1      -3.389  52.296 -23.590  1.00  0.00     0.009 C 
HETATM   43  C20 UNL     1      -4.121  52.040 -22.268  1.00  0.00     0.012 C 
HETATM   44  C21 UNL     1      -4.203  51.748 -24.764  1.00  0.00     0.012 C 
ENDBRANCH  32  42
ENDBRANCH  30  32
ENDBRANCH  27  28
ENDBRANCH  26  27
ENDBRANCH  13  26
TORSDOF 10
ENDMDL
MODEL 4
REMARK minimizedAffinity -8.56436443
REMARK CNNscore 0.313212514
REMARK CNNaffinity 5.74866724
REMARK  10 active torsions:
REMARK  status: ('A' for Active; 'I' for Inactive)
REMARK    1  A    between atoms: C3_3  and  O1_4 
REMARK    2  A    between atoms: N1_14  and  O2_16 
REMARK    3  A    between atoms: O2_16  and  C13_17 
REMARK    4  A    between atoms: C13_17  and  C14_18 
REMARK       I    between atoms: C14_18  and  N2_20 
REMARK    5  A    between atoms: N2_20  and  C15_21 
REMARK    6  A    between atoms: C15_21  and  C16_22 
REMARK    7  A    between atoms: C15_21  and  C19_29 
REMARK       I    between atoms: C16_22  and  N3_24 
REMARK    8  A    between atoms: N3_24  and  C17_25 
REMARK    9  A    between atoms: C17_25  and  C18_26 
REMARK   10  A    between atoms: C18_26  and  O6_28 
ROOT
HETATM    1  C1  UNL     1      -4.651  68.754 -42.428  1.00  0.00     0.015 C 
HETATM    2  C2  UNL     1      -3.474  68.969 -42.507  1.00  0.00    -0.078 C 
HETATM    3  C3  UNL     1      -2.023  69.192 -42.614  1.00  0.00     0.128 C 
HETATM    4  C4  UNL     1      -1.684  70.367 -43.536  1.00  0.00     0.052 C 
HETATM    5  C5  UNL     1      -0.202  70.590 -43.255  1.00  0.00     0.010 C 
HETATM    6  C6  UNL     1      -0.090  70.452 -41.731  1.00  0.00     0.002 C 
HETATM    7  C7  UNL     1       1.302  70.075 -41.174  1.00  0.00    -0.004 C 
HETATM    8  C8  UNL     1       2.060  68.950 -41.897  1.00  0.00     0.010 C 
HETATM    9  C9  UNL     1       3.430  68.691 -41.271  1.00  0.00     0.035 C 
HETATM   10  C10 UNL     1       3.396  68.525 -39.769  1.00  0.00    -0.069 C 
HETATM   11  C11 UNL     1       4.076  67.518 -39.193  1.00  0.00     0.030 C 
HETATM   12  C12 UNL     1       4.209  67.404 -37.718  1.00  0.00     0.032 C 
HETATM   13  N1  UNL     1       4.809  66.349 -37.245  1.00  0.00    -0.271 N 
ATOM     14  H1  UNL     1       5.161  65.582 -37.819  1.00  0.00     0.194 HD
HETATM   15  C22 UNL     1       3.697  68.558 -36.875  1.00  0.00     0.060 C 
HETATM   16  C23 UNL     1       2.435  69.148 -37.491  1.00  0.00     0.020 C 
HETATM   17  C24 UNL     1       2.604  69.568 -38.981  1.00  0.00    -0.016 C 
HETATM   18  C25 UNL     1       3.398  70.902 -38.996  1.00  0.00     0.020 C 
HETATM   19  C26 UNL     1       1.192  69.778 -39.656  1.00  0.00     0.002 C 
HETATM   20  C27 UNL     1       0.196  68.616 -39.386  1.00  0.00     0.007 C 
HETATM   21  C28 UNL     1      -0.836  68.329 -40.478  1.00  0.00     0.014 C 
HETATM   22  C29 UNL     1      -1.297  69.562 -41.272  1.00  0.00     0.003 C 
HETATM   23  C30 UNL     1      -2.199  70.423 -40.348  1.00  0.00     0.020 C 
ENDROOT
BRANCH   3  24
HETATM   24  O1  UNL     1      -1.438  68.031 -43.213  1.00  0.00    -0.377 OA
HETATM   25  H2  UNL     1      -1.878  67.257 -42.823  1.00  0.00     0.211 HD
ENDBRANCH   3  24
BRANCH  13  26
HETATM   26  O2  UNL     1       4.910  66.400 -35.849  1.00  0.00    -0.271 OA
BRANCH  26  27
HETATM   27  C13 UNL     1       6.283  66.413 -35.487  1.00  0.00     0.303 C 
BRANCH  27  28
HETATM   28  C14 UNL     1       6.568  65.245 -34.550  1.00  0.00     0.244 C 
HETATM   29  O3  UNL     1       6.821  65.372 -33.352  1.00  0.00    -0.271 OA
HETATM   30  N2  UNL     1       6.549  64.003 -35.158  1.00  0.00    -0.346 N 
HETATM   31  H16 UNL     1       6.704  63.979 -36.159  1.00  0.00     0.163 HD
BRANCH  30  32
HETATM   32  C15 UNL     1       6.858  62.769 -34.412  1.00  0.00     0.180 C 
BRANCH  32  33
HETATM   33  C16 UNL     1       8.374  62.430 -34.502  1.00  0.00     0.241 C 
HETATM   34  O4  UNL     1       8.999  62.342 -35.559  1.00  0.00    -0.271 OA
HETATM   35  N3  UNL     1       8.948  62.093 -33.290  1.00  0.00    -0.349 N 
HETATM   36  H18 UNL     1       8.319  61.827 -32.535  1.00  0.00     0.163 HD
BRANCH  35  37
HETATM   37  C17 UNL     1      10.333  61.664 -33.213  1.00  0.00     0.232 C 
BRANCH  37  38
HETATM   38  C18 UNL     1      10.930  61.717 -31.808  1.00  0.00     0.158 C 
HETATM   39  O5  UNL     1      11.556  62.659 -31.343  1.00  0.00    -0.649 OA
BRANCH  38  40
HETATM   40  O6  UNL     1      10.780  60.587 -31.081  1.00  0.00    -0.775 OA
HETATM   41  H21 UNL     1      11.198  60.811 -30.225  1.00  0.00     0.167 HD
ENDBRANCH  38  40
ENDBRANCH  37  38
ENDBRANCH  35  37
ENDBRANCH  32  33
BRANCH  32  42
HETATM   42  C19 UNL     1       5.896  61.634 -34.840  1.00  0.00     0.009 C 
HETATM   43  C20 UNL     1       4.579  61.660 -34.058  1.00  0.00     0.012 C 
HETATM   44  C21 UNL     1       6.518  60.236 -34.791  1.00  0.00     0.012 C 
ENDBRANCH  32  42
ENDBRANCH  30  32
ENDBRANCH  27  28
ENDBRANCH  26  27
ENDBRANCH  13  26
TORSDOF 10
ENDMDL
MODEL 5
REMARK minimizedAffinity -7.74196005
REMARK CNNscore 0.224750683
REMARK CNNaffinity 6.48910475
REMARK  10 active torsions:
REMARK  status: ('A' for Active; 'I' for Inactive)
REMARK    1  A    between atoms: C3_3  and  O1_4 
REMARK    2  A    between atoms: N1_14  and  O2_16 
REMARK    3  A    between atoms: O2_16  and  C13_17 
REMARK    4  A    between atoms: C13_17  and  C14_18 
REMARK       I    between atoms: C14_18  and  N2_20 
REMARK    5  A    between atoms: N2_20  and  C15_21 
REMARK    6  A    between atoms: C15_21  and  C16_22 
REMARK    7  A    between atoms: C15_21  and  C19_29 
REMARK       I    between atoms: C16_22  and  N3_24 
REMARK    8  A    between atoms: N3_24  and  C17_25 
REMARK    9  A    between atoms: C17_25  and  C18_26 
REMARK   10  A    between atoms: C18_26  and  O6_28 
ROOT
HETATM    1  C1  UNL     1      -8.085  49.541 -23.859  1.00  0.00     0.015 C 
HETATM    2  C2  UNL     1      -6.924  49.275 -23.718  1.00  0.00    -0.078 C 
HETATM    3  C3  UNL     1      -5.510  48.925 -23.513  1.00  0.00     0.128 C 
HETATM    4  C4  UNL     1      -4.846  48.420 -24.797  1.00  0.00     0.052 C 
HETATM    5  C5  UNL     1      -3.367  48.414 -24.424  1.00  0.00     0.010 C 
HETATM    6  C6  UNL     1      -3.176  49.725 -23.650  1.00  0.00     0.002 C 
HETATM    7  C7  UNL     1      -1.978  49.782 -22.676  1.00  0.00    -0.004 C 
HETATM    8  C8  UNL     1      -1.758  48.558 -21.771  1.00  0.00     0.010 C 
HETATM    9  C9  UNL     1      -0.530  48.722 -20.877  1.00  0.00     0.035 C 
HETATM   10  C10 UNL     1      -0.486  50.037 -20.131  1.00  0.00    -0.069 C 
HETATM   11  C11 UNL     1      -0.177  50.053 -18.823  1.00  0.00     0.030 C 
HETATM   12  C12 UNL     1       0.037  51.322 -18.083  1.00  0.00     0.032 C 
HETATM   13  N1  UNL     1       0.245  51.246 -16.799  1.00  0.00    -0.271 N 
ATOM     14  H1  UNL     1       0.236  50.377 -16.266  1.00  0.00     0.194 HD
HETATM   15  C22 UNL     1       0.067  52.609 -18.888  1.00  0.00     0.060 C 
HETATM   16  C23 UNL     1      -0.939  52.544 -20.031  1.00  0.00     0.020 C 
HETATM   17  C24 UNL     1      -0.763  51.298 -20.949  1.00  0.00    -0.016 C 
HETATM   18  C25 UNL     1       0.464  51.570 -21.862  1.00  0.00     0.020 C 
HETATM   19  C26 UNL     1      -2.052  51.082 -21.834  1.00  0.00     0.002 C 
HETATM   20  C27 UNL     1      -3.377  51.148 -21.026  1.00  0.00     0.007 C 
HETATM   21  C28 UNL     1      -4.537  50.291 -21.538  1.00  0.00     0.014 C 
HETATM   22  C29 UNL     1      -4.580  50.107 -23.063  1.00  0.00     0.003 C 
HETATM   23  C30 UNL     1      -5.013  51.453 -23.702  1.00  0.00     0.020 C 
ENDROOT
BRANCH   3  24
HETATM   24  O1  UNL     1      -5.452  47.841 -22.580  1.00  0.00    -0.377 OA
HETATM   25  H2  UNL     1      -6.110  48.025 -21.888  1.00  0.00     0.211 HD
ENDBRANCH   3  24
BRANCH  13  26
HETATM   26  O2  UNL     1       0.484  52.509 -16.243  1.00  0.00    -0.271 OA
BRANCH  26  27
HETATM   27  C13 UNL     1       1.834  52.573 -15.806  1.00  0.00     0.303 C 
BRANCH  27  28
HETATM   28  C14 UNL     1       1.978  51.802 -14.500  1.00  0.00     0.244 C 
HETATM   29  O3  UNL     1       2.610  50.752 -14.387  1.00  0.00    -0.271 OA
HETATM   30  N2  UNL     1       1.310  52.364 -13.425  1.00  0.00    -0.346 N 
HETATM   31  H16 UNL     1       0.537  52.982 -13.638  1.00  0.00     0.163 HD
BRANCH  30  32
HETATM   32  C15 UNL     1       1.297  51.720 -12.099  1.00  0.00     0.180 C 
BRANCH  32  33
HETATM   33  C16 UNL     1       0.992  50.199 -12.221  1.00  0.00     0.241 C 
HETATM   34  O4  UNL     1      -0.118  49.737 -12.485  1.00  0.00    -0.271 OA
HETATM   35  N3  UNL     1       2.053  49.383 -11.872  1.00  0.00    -0.349 N 
HETATM   36  H18 UNL     1       2.800  49.802 -11.321  1.00  0.00     0.163 HD
BRANCH  35  37
HETATM   37  C17 UNL     1       1.907  47.938 -11.846  1.00  0.00     0.232 C 
BRANCH  37  38
HETATM   38  C18 UNL     1       2.847  47.195 -12.794  1.00  0.00     0.158 C 
HETATM   39  O5  UNL     1       3.171  46.022 -12.687  1.00  0.00    -0.649 OA
BRANCH  38  40
HETATM   40  O6  UNL     1       3.382  47.953 -13.777  1.00  0.00    -0.775 OA
HETATM   41  H21 UNL     1       3.928  47.317 -14.282  1.00  0.00     0.167 HD
ENDBRANCH  38  40
ENDBRANCH  37  38
ENDBRANCH  35  37
ENDBRANCH  32  33
BRANCH  32  42
HETATM   42  C19 UNL     1       0.374  52.507 -11.136  1.00  0.00     0.009 C 
HETATM   43  C20 UNL     1       0.743  53.991 -11.059  1.00  0.00     0.012 C 
HETATM   44  C21 UNL     1       0.279  51.907  -9.732  1.00  0.00     0.012 C 
ENDBRANCH  32  42
ENDBRANCH  30  32
ENDBRANCH  27  28
ENDBRANCH  26  27
ENDBRANCH  13  26
TORSDOF 10
ENDMDL
MODEL 6
REMARK minimizedAffinity -9.5783453
REMARK CNNscore 0.208337128
REMARK CNNaffinity 6.5685401
REMARK  10 active torsions:
REMARK  status: ('A' for Active; 'I' for Inactive)
REMARK    1  A    between atoms: C3_3  and  O1_4 
REMARK    2  A    between atoms: N1_14  and  O2_16 
REMARK    3  A    between atoms: O2_16  and  C13_17 
REMARK    4  A    between atoms: C13_17  and  C14_18 
REMARK       I    between atoms: C14_18  and  N2_20 
REMARK    5  A    between atoms: N2_20  and  C15_21 
REMARK    6  A    between atoms: C15_21  and  C16_22 
REMARK    7  A    between atoms: C15_21  and  C19_29 
REMARK       I    between atoms: C16_22  and  N3_24 
REMARK    8  A    between atoms: N3_24  and  C17_25 
REMARK    9  A    between atoms: C17_25  and  C18_26 
REMARK   10  A    between atoms: C18_26  and  O6_28 
ROOT
HETATM    1  C1  UNL     1      -0.347  53.888 -27.913  1.00  0.00     0.015 C 
HETATM    2  C2  UNL     1      -1.072  53.114 -27.353  1.00  0.00    -0.078 C 
HETATM    3  C3  UNL     1      -1.981  52.195 -26.650  1.00  0.00     0.128 C 
HETATM    4  C4  UNL     1      -2.549  51.118 -27.579  1.00  0.00     0.052 C 
HETATM    5  C5  UNL     1      -3.192  50.142 -26.600  1.00  0.00     0.010 C 
HETATM    6  C6  UNL     1      -2.173  50.040 -25.458  1.00  0.00     0.002 C 
HETATM    7  C7  UNL     1      -2.720  49.593 -24.083  1.00  0.00    -0.004 C 
HETATM    8  C8  UNL     1      -4.030  50.244 -23.611  1.00  0.00     0.010 C 
HETATM    9  C9  UNL     1      -4.482  49.700 -22.256  1.00  0.00     0.035 C 
HETATM   10  C10 UNL     1      -3.396  49.698 -21.203  1.00  0.00    -0.069 C 
HETATM   11  C11 UNL     1      -3.666  50.150 -19.966  1.00  0.00     0.030 C 
HETATM   12  C12 UNL     1      -2.690  50.022 -18.854  1.00  0.00     0.032 C 
HETATM   13  N1  UNL     1      -2.999  50.566 -17.712  1.00  0.00    -0.271 N 
ATOM     14  H1  UNL     1      -3.850  51.102 -17.542  1.00  0.00     0.194 HD
HETATM   15  C22 UNL     1      -1.435  49.207 -19.112  1.00  0.00     0.060 C 
HETATM   16  C23 UNL     1      -0.951  49.412 -20.542  1.00  0.00     0.020 C 
HETATM   17  C24 UNL     1      -2.041  49.128 -21.617  1.00  0.00    -0.016 C 
HETATM   18  C25 UNL     1      -2.174  47.585 -21.740  1.00  0.00     0.020 C 
HETATM   19  C26 UNL     1      -1.613  49.740 -23.008  1.00  0.00     0.002 C 
HETATM   20  C27 UNL     1      -1.120  51.210 -22.913  1.00  0.00     0.007 C 
HETATM   21  C28 UNL     1      -1.371  52.099 -24.134  1.00  0.00     0.014 C 
HETATM   22  C29 UNL     1      -1.335  51.366 -25.484  1.00  0.00     0.003 C 
HETATM   23  C30 UNL     1       0.139  50.992 -25.793  1.00  0.00     0.020 C 
ENDROOT
BRANCH   3  24
HETATM   24  O1  UNL     1      -3.103  52.952 -26.183  1.00  0.00    -0.377 OA
HETATM   25  H2  UNL     1      -2.756  53.796 -25.846  1.00  0.00     0.211 HD
ENDBRANCH   3  24
BRANCH  13  26
HETATM   26  O2  UNL     1      -2.016  50.321 -16.745  1.00  0.00    -0.271 OA
BRANCH  26  27
HETATM   27  C13 UNL     1      -2.642  49.861 -15.557  1.00  0.00     0.303 C 
BRANCH  27  28
HETATM   28  C14 UNL     1      -2.964  51.052 -14.663  1.00  0.00     0.244 C 
HETATM   29  O3  UNL     1      -3.692  51.986 -14.999  1.00  0.00    -0.271 OA
HETATM   30  N2  UNL     1      -2.346  51.024 -13.425  1.00  0.00    -0.346 N 
HETATM   31  H16 UNL     1      -1.507  50.463 -13.343  1.00  0.00     0.163 HD
BRANCH  30  32
HETATM   32  C15 UNL     1      -2.503  52.125 -12.456  1.00  0.00     0.180 C 
BRANCH  32  33
HETATM   33  C16 UNL     1      -1.221  52.293 -11.592  1.00  0.00     0.241 C 
HETATM   34  O4  UNL     1      -1.114  51.897 -10.432  1.00  0.00    -0.271 OA
HETATM   35  N3  UNL     1      -0.235  53.056 -12.191  1.00  0.00    -0.349 N 
HETATM   36  H18 UNL     1      -0.516  53.651 -12.969  1.00  0.00     0.163 HD
BRANCH  35  37
HETATM   37  C17 UNL     1       0.990  53.383 -11.484  1.00  0.00     0.232 C 
BRANCH  37  38
HETATM   38  C18 UNL     1       0.985  54.759 -10.820  1.00  0.00     0.158 C 
HETATM   39  O5  UNL     1       0.054  55.229 -10.182  1.00  0.00    -0.649 OA
BRANCH  38  40
HETATM   40  O6  UNL     1       2.095  55.500 -11.032  1.00  0.00    -0.775 OA
HETATM   41  H21 UNL     1       1.921  56.319 -10.527  1.00  0.00     0.167 HD
ENDBRANCH  38  40
ENDBRANCH  37  38
ENDBRANCH  35  37
ENDBRANCH  32  33
BRANCH  32  42
HETATM   42  C19 UNL     1      -3.821  51.948 -11.661  1.00  0.00     0.009 C 
HETATM   43  C20 UNL     1      -4.125  53.152 -10.764  1.00  0.00     0.012 C 
HETATM   44  C21 UNL     1      -3.895  50.650 -10.855  1.00  0.00     0.012 C 
ENDBRANCH  32  42
ENDBRANCH  30  32
ENDBRANCH  27  28
ENDBRANCH  26  27
ENDBRANCH  13  26
TORSDOF 10
ENDMDL
MODEL 7
REMARK minimizedAffinity -7.68155718
REMARK CNNscore 0.201510489
REMARK CNNaffinity 6.39610291
REMARK  10 active torsions:
REMARK  status: ('A' for Active; 'I' for Inactive)
REMARK    1  A    between atoms: C3_3  and  O1_4 
REMARK    2  A    between atoms: N1_14  and  O2_16 
REMARK    3  A    between atoms: O2_16  and  C13_17 
REMARK    4  A    between atoms: C13_17  and  C14_18 
REMARK       I    between atoms: C14_18  and  N2_20 
REMARK    5  A    between atoms: N2_20  and  C15_21 
REMARK    6  A    between atoms: C15_21  and  C16_22 
REMARK    7  A    between atoms: C15_21  and  C19_29 
REMARK       I    between atoms: C16_22  and  N3_24 
REMARK    8  A    between atoms: N3_24  and  C17_25 
REMARK    9  A    between atoms: C17_25  and  C18_26 
REMARK   10  A    between atoms: C18_26  and  O6_28 
ROOT
HETATM    1  C1  UNL     1      -0.267  54.118 -27.982  1.00  0.00     0.015 C 
HETATM    2  C2  UNL     1      -0.931  53.297 -27.413  1.00  0.00    -0.078 C 
HETATM    3  C3  UNL     1      -1.772  52.320 -26.704  1.00  0.00     0.128 C 
HETATM    4  C4  UNL     1      -2.171  51.141 -27.597  1.00  0.00     0.052 C 
HETATM    5  C5  UNL     1      -2.755  50.150 -26.596  1.00  0.00     0.010 C 
HETATM    6  C6  UNL     1      -1.791  50.218 -25.404  1.00  0.00     0.002 C 
HETATM    7  C7  UNL     1      -2.357  49.782 -24.034  1.00  0.00    -0.004 C 
HETATM    8  C8  UNL     1      -3.752  50.308 -23.658  1.00  0.00     0.010 C 
HETATM    9  C9  UNL     1      -4.212  49.785 -22.298  1.00  0.00     0.035 C 
HETATM   10  C10 UNL     1      -3.188  49.956 -21.198  1.00  0.00    -0.069 C 
HETATM   11  C11 UNL     1      -3.569  50.436 -20.001  1.00  0.00     0.030 C 
HETATM   12  C12 UNL     1      -2.643  50.472 -18.840  1.00  0.00     0.032 C 
HETATM   13  N1  UNL     1      -3.067  51.035 -17.745  1.00  0.00    -0.271 N 
ATOM     14  H1  UNL     1      -3.979  51.481 -17.645  1.00  0.00     0.194 HD
HETATM   15  C22 UNL     1      -1.296  49.789 -18.995  1.00  0.00     0.060 C 
HETATM   16  C23 UNL     1      -0.764  49.975 -20.410  1.00  0.00     0.020 C 
HETATM   17  C24 UNL     1      -1.759  49.519 -21.517  1.00  0.00    -0.016 C 
HETATM   18  C25 UNL     1      -1.719  47.967 -21.560  1.00  0.00     0.020 C 
HETATM   19  C26 UNL     1      -1.329  50.104 -22.918  1.00  0.00     0.002 C 
HETATM   20  C27 UNL     1      -1.003  51.623 -22.882  1.00  0.00     0.007 C 
HETATM   21  C28 UNL     1      -1.285  52.417 -24.160  1.00  0.00     0.014 C 
HETATM   22  C29 UNL     1      -1.101  51.626 -25.465  1.00  0.00     0.003 C 
HETATM   23  C30 UNL     1       0.419  51.402 -25.685  1.00  0.00     0.020 C 
ENDROOT
BRANCH   3  24
HETATM   24  O1  UNL     1      -2.991  52.970 -26.331  1.00  0.00    -0.377 OA
HETATM   25  H2  UNL     1      -2.755  53.863 -26.025  1.00  0.00     0.211 HD
ENDBRANCH   3  24
BRANCH  13  26
HETATM   26  O2  UNL     1      -2.115  50.949 -16.722  1.00  0.00    -0.271 OA
BRANCH  26  27
HETATM   27  C13 UNL     1      -2.640  50.155 -15.669  1.00  0.00     0.303 C 
BRANCH  27  28
HETATM   28  C14 UNL     1      -1.857  50.430 -14.391  1.00  0.00     0.244 C 
HETATM   29  O3  UNL     1      -2.266  51.144 -13.475  1.00  0.00    -0.271 OA
HETATM   30  N2  UNL     1      -0.612  49.830 -14.340  1.00  0.00    -0.346 N 
HETATM   31  H16 UNL     1      -0.186  49.580 -15.224  1.00  0.00     0.163 HD
BRANCH  30  32
HETATM   32  C15 UNL     1       0.302  50.036 -13.201  1.00  0.00     0.180 C 
BRANCH  32  33
HETATM   33  C16 UNL     1      -0.478  50.035 -11.855  1.00  0.00     0.241 C 
HETATM   34  O4  UNL     1      -0.322  50.873 -10.967  1.00  0.00    -0.271 OA
HETATM   35  N3  UNL     1      -1.279  48.923 -11.669  1.00  0.00    -0.349 N 
HETATM   36  H18 UNL     1      -1.087  48.109 -12.251  1.00  0.00     0.163 HD
BRANCH  35  37
HETATM   37  C17 UNL     1      -2.006  48.724 -10.428  1.00  0.00     0.232 C 
BRANCH  37  38
HETATM   38  C18 UNL     1      -1.291  47.829  -9.418  1.00  0.00     0.158 C 
HETATM   39  O5  UNL     1      -0.502  48.216  -8.568  1.00  0.00    -0.649 OA
BRANCH  38  40
HETATM   40  O6  UNL     1      -1.537  46.507  -9.552  1.00  0.00    -0.775 OA
HETATM   41  H21 UNL     1      -1.020  46.105  -8.825  1.00  0.00     0.167 HD
ENDBRANCH  38  40
ENDBRANCH  37  38
ENDBRANCH  35  37
ENDBRANCH  32  33
BRANCH  32  42
HETATM   42  C19 UNL     1       1.191  51.278 -13.452  1.00  0.00     0.009 C 
HETATM   43  C20 UNL     1       0.423  52.591 -13.271  1.00  0.00     0.012 C 
HETATM   44  C21 UNL     1       1.916  51.266 -14.799  1.00  0.00     0.012 C 
ENDBRANCH  32  42
ENDBRANCH  30  32
ENDBRANCH  27  28
ENDBRANCH  26  27
ENDBRANCH  13  26
TORSDOF 10
ENDMDL
MODEL 8
REMARK minimizedAffinity -8.10877228
REMARK CNNscore 0.188811868
REMARK CNNaffinity 5.4929328
REMARK  10 active torsions:
REMARK  status: ('A' for Active; 'I' for Inactive)
REMARK    1  A    between atoms: C3_3  and  O1_4 
REMARK    2  A    between atoms: N1_14  and  O2_16 
REMARK    3  A    between atoms: O2_16  and  C13_17 
REMARK    4  A    between atoms: C13_17  and  C14_18 
REMARK       I    between atoms: C14_18  and  N2_20 
REMARK    5  A    between atoms: N2_20  and  C15_21 
REMARK    6  A    between atoms: C15_21  and  C16_22 
REMARK    7  A    between atoms: C15_21  and  C19_29 
REMARK       I    between atoms: C16_22  and  N3_24 
REMARK    8  A    between atoms: N3_24  and  C17_25 
REMARK    9  A    between atoms: C17_25  and  C18_26 
REMARK   10  A    between atoms: C18_26  and  O6_28 
ROOT
HETATM    1  C1  UNL     1       0.166  52.286 -28.462  1.00  0.00     0.015 C 
HETATM    2  C2  UNL     1       0.180  52.248 -27.263  1.00  0.00    -0.078 C 
HETATM    3  C3  UNL     1       0.219  52.168 -25.795  1.00  0.00     0.128 C 
HETATM    4  C4  UNL     1       0.674  53.482 -25.154  1.00  0.00     0.052 C 
HETATM    5  C5  UNL     1       0.351  53.261 -23.680  1.00  0.00     0.010 C 
HETATM    6  C6  UNL     1      -1.026  52.585 -23.702  1.00  0.00     0.002 C 
HETATM    7  C7  UNL     1      -1.400  51.742 -22.461  1.00  0.00    -0.004 C 
HETATM    8  C8  UNL     1      -0.319  50.796 -21.912  1.00  0.00     0.010 C 
HETATM    9  C9  UNL     1      -0.797  50.041 -20.672  1.00  0.00     0.035 C 
HETATM   10  C10 UNL     1      -2.146  49.380 -20.841  1.00  0.00    -0.069 C 
HETATM   11  C11 UNL     1      -2.324  48.112 -20.429  1.00  0.00     0.030 C 
HETATM   12  C12 UNL     1      -3.663  47.471 -20.421  1.00  0.00     0.032 C 
HETATM   13  N1  UNL     1      -3.729  46.212 -20.091  1.00  0.00    -0.271 N 
ATOM     14  H1  UNL     1      -2.919  45.633 -19.871  1.00  0.00     0.194 HD
HETATM   15  C22 UNL     1      -4.864  48.346 -20.732  1.00  0.00     0.060 C 
HETATM   16  C23 UNL     1      -4.509  49.376 -21.798  1.00  0.00     0.020 C 
HETATM   17  C24 UNL     1      -3.259  50.235 -21.445  1.00  0.00    -0.016 C 
HETATM   18  C25 UNL     1      -3.703  51.282 -20.387  1.00  0.00     0.020 C 
HETATM   19  C26 UNL     1      -2.718  50.972 -22.732  1.00  0.00     0.002 C 
HETATM   20  C27 UNL     1      -2.575  50.039 -23.967  1.00  0.00     0.007 C 
HETATM   21  C28 UNL     1      -1.464  50.382 -24.961  1.00  0.00     0.014 C 
HETATM   22  C29 UNL     1      -1.159  51.882 -25.097  1.00  0.00     0.003 C 
HETATM   23  C30 UNL     1      -2.336  52.549 -25.857  1.00  0.00     0.020 C 
ENDROOT
BRANCH   3  24
HETATM   24  O1  UNL     1       1.193  51.186 -25.429  1.00  0.00    -0.377 OA
HETATM   25  H2  UNL     1       1.095  50.442 -26.048  1.00  0.00     0.211 HD
ENDBRANCH   3  24
BRANCH  13  26
HETATM   26  O2  UNL     1      -5.053  45.756 -20.074  1.00  0.00    -0.271 OA
BRANCH  26  27
HETATM   27  C13 UNL     1      -5.235  44.832 -21.138  1.00  0.00     0.303 C 
BRANCH  27  28
HETATM   28  C14 UNL     1      -6.651  44.967 -21.685  1.00  0.00     0.244 C 
HETATM   29  O3  UNL     1      -7.418  44.018 -21.848  1.00  0.00    -0.271 OA
HETATM   30  N2  UNL     1      -7.017  46.259 -22.021  1.00  0.00    -0.346 N 
HETATM   31  H16 UNL     1      -6.268  46.912 -22.216  1.00  0.00     0.163 HD
BRANCH  30  32
HETATM   32  C15 UNL     1      -8.331  46.562 -22.617  1.00  0.00     0.180 C 
BRANCH  32  33
HETATM   33  C16 UNL     1      -8.175  47.441 -23.891  1.00  0.00     0.241 C 
HETATM   34  O4  UNL     1      -7.495  48.466 -23.942  1.00  0.00    -0.271 OA
HETATM   35  N3  UNL     1      -8.981  47.052 -24.945  1.00  0.00    -0.349 N 
HETATM   36  H18 UNL     1      -9.771  46.447 -24.728  1.00  0.00     0.163 HD
BRANCH  35  37
HETATM   37  C17 UNL     1      -9.022  47.819 -26.178  1.00  0.00     0.232 C 
BRANCH  37  38
HETATM   38  C18 UNL     1     -10.105  48.895 -26.212  1.00  0.00     0.158 C 
HETATM   39  O5  UNL     1     -11.300  48.687 -26.365  1.00  0.00    -0.649 OA
BRANCH  38  40
HETATM   40  O6  UNL     1      -9.651  50.165 -26.122  1.00  0.00    -0.775 OA
HETATM   41  H21 UNL     1     -10.470  50.701 -26.142  1.00  0.00     0.167 HD
ENDBRANCH  38  40
ENDBRANCH  37  38
ENDBRANCH  35  37
ENDBRANCH  32  33
BRANCH  32  42
HETATM   42  C19 UNL     1      -9.287  47.123 -21.536  1.00  0.00     0.009 C 
HETATM   43  C20 UNL     1      -8.548  47.937 -20.469  1.00  0.00     0.012 C 
HETATM   44  C21 UNL     1     -10.177  46.066 -20.879  1.00  0.00     0.012 C 
ENDBRANCH  32  42
ENDBRANCH  30  32
ENDBRANCH  27  28
ENDBRANCH  26  27
ENDBRANCH  13  26
TORSDOF 10
ENDMDL
MODEL 9
REMARK minimizedAffinity -8.27913094
REMARK CNNscore 0.184727848
REMARK CNNaffinity 6.41087151
REMARK  10 active torsions:
REMARK  status: ('A' for Active; 'I' for Inactive)
REMARK    1  A    between atoms: C3_3  and  O1_4 
REMARK    2  A    between atoms: N1_14  and  O2_16 
REMARK    3  A    between atoms: O2_16  and  C13_17 
REMARK    4  A    between atoms: C13_17  and  C14_18 
REMARK       I    between atoms: C14_18  and  N2_20 
REMARK    5  A    between atoms: N2_20  and  C15_21 
REMARK    6  A    between atoms: C15_21  and  C16_22 
REMARK    7  A    between atoms: C15_21  and  C19_29 
REMARK       I    between atoms: C16_22  and  N3_24 
REMARK    8  A    between atoms: N3_24  and  C17_25 
REMARK    9  A    between atoms: C17_25  and  C18_26 
REMARK   10  A    between atoms: C18_26  and  O6_28 
ROOT
HETATM    1  C1  UNL     1      -0.266  53.978 -27.912  1.00  0.00     0.015 C 
HETATM    2  C2  UNL     1      -0.953  53.157 -27.371  1.00  0.00    -0.078 C 
HETATM    3  C3  UNL     1      -1.821  52.180 -26.696  1.00  0.00     0.128 C 
HETATM    4  C4  UNL     1      -2.219  51.024 -27.618  1.00  0.00     0.052 C 
HETATM    5  C5  UNL     1      -2.837  50.023 -26.647  1.00  0.00     0.010 C 
HETATM    6  C6  UNL     1      -1.896  50.056 -25.436  1.00  0.00     0.002 C 
HETATM    7  C7  UNL     1      -2.495  49.604 -24.085  1.00  0.00    -0.004 C 
HETATM    8  C8  UNL     1      -3.890  50.143 -23.727  1.00  0.00     0.010 C 
HETATM    9  C9  UNL     1      -4.384  49.603 -22.385  1.00  0.00     0.035 C 
HETATM   10  C10 UNL     1      -3.379  49.739 -21.263  1.00  0.00    -0.069 C 
HETATM   11  C11 UNL     1      -3.776  50.203 -20.065  1.00  0.00     0.030 C 
HETATM   12  C12 UNL     1      -2.873  50.205 -18.886  1.00  0.00     0.032 C 
HETATM   13  N1  UNL     1      -3.311  50.755 -17.789  1.00  0.00    -0.271 N 
ATOM     14  H1  UNL     1      -4.218  51.213 -17.699  1.00  0.00     0.194 HD
HETATM   15  C22 UNL     1      -1.533  49.506 -19.026  1.00  0.00     0.060 C 
HETATM   16  C23 UNL     1      -0.971  49.709 -20.428  1.00  0.00     0.020 C 
HETATM   17  C24 UNL     1      -1.951  49.287 -21.562  1.00  0.00    -0.016 C 
HETATM   18  C25 UNL     1      -1.932  47.736 -21.632  1.00  0.00     0.020 C 
HETATM   19  C26 UNL     1      -1.485  49.891 -22.944  1.00  0.00     0.002 C 
HETATM   20  C27 UNL     1      -1.138  51.404 -22.874  1.00  0.00     0.007 C 
HETATM   21  C28 UNL     1      -1.384  52.224 -24.142  1.00  0.00     0.014 C 
HETATM   22  C29 UNL     1      -1.185  51.454 -25.458  1.00  0.00     0.003 C 
HETATM   23  C30 UNL     1       0.336  51.212 -25.652  1.00  0.00     0.020 C 
ENDROOT
BRANCH   3  24
HETATM   24  O1  UNL     1      -3.038  52.841 -26.336  1.00  0.00    -0.377 OA
HETATM   25  H2  UNL     1      -2.796  53.725 -26.009  1.00  0.00     0.211 HD
ENDBRANCH   3  24
BRANCH  13  26
HETATM   26  O2  UNL     1      -2.380  50.637 -16.750  1.00  0.00    -0.271 OA
BRANCH  26  27
HETATM   27  C13 UNL     1      -3.002  51.012 -15.530  1.00  0.00     0.303 C 
BRANCH  27  28
HETATM   28  C14 UNL     1      -2.018  50.818 -14.382  1.00  0.00     0.244 C 
HETATM   29  O3  UNL     1      -1.732  51.696 -13.567  1.00  0.00    -0.271 OA
HETATM   30  N2  UNL     1      -1.434  49.565 -14.332  1.00  0.00    -0.346 N 
HETATM   31  H16 UNL     1      -1.413  49.034 -15.194  1.00  0.00     0.163 HD
BRANCH  30  32
HETATM   32  C15 UNL     1      -0.417  49.224 -13.320  1.00  0.00     0.180 C 
BRANCH  32  33
HETATM   33  C16 UNL     1       1.010  49.592 -13.819  1.00  0.00     0.241 C 
HETATM   34  O4  UNL     1       1.552  49.078 -14.797  1.00  0.00    -0.271 OA
HETATM   35  N3  UNL     1       1.692  50.458 -12.984  1.00  0.00    -0.349 N 
HETATM   36  H18 UNL     1       1.348  50.552 -12.030  1.00  0.00     0.163 HD
BRANCH  35  37
HETATM   37  C17 UNL     1       3.068  50.832 -13.259  1.00  0.00     0.232 C 
BRANCH  37  38
HETATM   38  C18 UNL     1       4.108  49.967 -12.548  1.00  0.00     0.158 C 
HETATM   39  O5  UNL     1       4.056  49.625 -11.376  1.00  0.00    -0.649 OA
BRANCH  38  40
HETATM   40  O6  UNL     1       5.178  49.629 -13.301  1.00  0.00    -0.775 OA
HETATM   41  H21 UNL     1       5.713  49.073 -12.697  1.00  0.00     0.167 HD
ENDBRANCH  38  40
ENDBRANCH  37  38
ENDBRANCH  35  37
ENDBRANCH  32  33
BRANCH  32  42
HETATM   42  C19 UNL     1      -0.601  47.759 -12.855  1.00  0.00     0.009 C 
HETATM   43  C20 UNL     1       0.594  47.250 -12.043  1.00  0.00     0.012 C 
HETATM   44  C21 UNL     1      -0.932  46.781 -13.985  1.00  0.00     0.012 C 
ENDBRANCH  32  42
ENDBRANCH  30  32
ENDBRANCH  27  28
ENDBRANCH  26  27
ENDBRANCH  13  26
TORSDOF 10
ENDMDL
