MODEL 1
REMARK minimizedAffinity -9.91051292
REMARK  5 active torsions:
REMARK  status: ('A' for Active; 'I' for Inactive)
REMARK    1  A    between atoms: C5_5  and  C6_6 
REMARK    2  A    between atoms: C6_6  and  C7_8 
REMARK    3  A    between atoms: C7_8  and  O2_9 
REMARK    4  A    between atoms: O2_9  and  C8_10 
REMARK    5  A    between atoms: C14_17  and  C15_18 
ROOT
HETATM    1  C8  UNL     1      -3.069  50.289 -27.590  1.00  0.00     0.093 A 
HETATM    2  C9  UNL     1      -2.411  51.495 -27.827  1.00  0.00     0.076 A 
HETATM    3  C10 UNL     1      -1.672  52.092 -26.802  1.00  0.00     0.093 A 
HETATM    4  C11 UNL     1      -1.558  51.526 -25.535  1.00  0.00     0.011 A 
HETATM    5  C12 UNL     1      -2.219  50.318 -25.297  1.00  0.00     0.042 A 
HETATM    6  C13 UNL     1      -2.964  49.707 -26.314  1.00  0.00     0.068 A 
HETATM    7 CL1  UNL     1      -3.760  48.216 -25.941  1.00  0.00    -0.081 Cl
HETATM    8  C14 UNL     1      -0.757  52.211 -24.509  1.00  0.00    -0.007 A 
HETATM    9  C21 UNL     1      -0.167  53.369 -24.841  1.00  0.00     0.095 A 
HETATM   10  C22 UNL     1      -0.284  53.986 -26.171  1.00  0.00     0.289 A 
HETATM   11  O3  UNL     1       0.267  55.053 -26.417  1.00  0.00    -0.260 OA
HETATM   12  O4  UNL     1      -1.039  53.311 -27.114  1.00  0.00    -0.275 OA
ENDROOT
BRANCH   1  13
HETATM   13  O2  UNL     1      -3.816  49.609 -28.515  1.00  0.00    -0.342 OA
BRANCH  13  14
HETATM   14  C7  UNL     1      -4.538  48.456 -28.119  1.00  0.00     0.254 C 
BRANCH  14  15
HETATM   15  C6  UNL     1      -5.671  48.019 -29.057  1.00  0.00     0.155 C 
HETATM   16  O1  UNL     1      -6.856  48.262 -28.825  1.00  0.00    -0.295 OA
BRANCH  15  17
HETATM   17  C5  UNL     1      -5.243  47.266 -30.311  1.00  0.00     0.062 C 
HETATM   18  C4  UNL     1      -5.180  48.225 -31.506  1.00  0.00     0.049 C 
HETATM   19  C2  UNL     1      -5.248  47.500 -32.868  1.00  0.00     0.054 C 
HETATM   20  C1  UNL     1      -4.203  48.099 -33.822  1.00  0.00     0.045 C 
HETATM   21  C3  UNL     1      -6.628  47.639 -33.529  1.00  0.00     0.045 C 
HETATM   22  O5  UNL     1      -4.887  46.124 -32.706  1.00  0.00    -0.381 OA
HETATM   23  C24 UNL     1      -5.747  45.356 -31.866  1.00  0.00     0.169 C 
HETATM   24  C23 UNL     1      -6.177  46.096 -30.606  1.00  0.00     0.038 C 
ENDBRANCH  15  17
ENDBRANCH  14  15
ENDBRANCH  13  14
ENDBRANCH   1  13
BRANCH   8  25
HETATM   25  C15 UNL     1      -0.528  51.733 -23.133  1.00  0.00    -0.025 A 
HETATM   26  C16 UNL     1      -1.249  50.636 -22.640  1.00  0.00     0.012 A 
HETATM   27  C17 UNL     1      -1.034  50.186 -21.337  1.00  0.00     0.001 A 
HETATM   28  C18 UNL     1      -0.102  50.825 -20.521  1.00  0.00     0.000 A 
HETATM   29  C19 UNL     1       0.619  51.916 -21.006  1.00  0.00     0.001 A 
HETATM   30  C20 UNL     1       0.407  52.370 -22.309  1.00  0.00     0.012 A 
ENDBRANCH   8  25
TORSDOF 5
ENDMDL
MODEL 2
REMARK minimizedAffinity -9.83265209
REMARK  5 active torsions:
REMARK  status: ('A' for Active; 'I' for Inactive)
REMARK    1  A    between atoms: C5_5  and  C6_6 
REMARK    2  A    between atoms: C6_6  and  C7_8 
REMARK    3  A    between atoms: C7_8  and  O2_9 
REMARK    4  A    between atoms: O2_9  and  C8_10 
REMARK    5  A    between atoms: C14_17  and  C15_18 
ROOT
HETATM    1  C8  UNL     1      -1.598  50.292 -23.210  1.00  0.00     0.093 A 
HETATM    2  C9  UNL     1      -0.841  51.459 -23.307  1.00  0.00     0.076 A 
HETATM    3  C10 UNL     1      -0.223  51.978 -22.166  1.00  0.00     0.093 A 
HETATM    4  C11 UNL     1      -0.327  51.370 -20.917  1.00  0.00     0.011 A 
HETATM    5  C12 UNL     1      -1.087  50.202 -20.820  1.00  0.00     0.042 A 
HETATM    6  C13 UNL     1      -1.714  49.669 -21.955  1.00  0.00     0.068 A 
HETATM    7 CL1  UNL     1      -2.643  48.223 -21.754  1.00  0.00    -0.081 Cl
HETATM    8  C14 UNL     1       0.357  51.973 -19.763  1.00  0.00    -0.007 A 
HETATM    9  C21 UNL     1       1.058  53.100 -19.965  1.00  0.00     0.095 A 
HETATM   10  C22 UNL     1       1.171  53.759 -21.274  1.00  0.00     0.289 A 
HETATM   11  O3  UNL     1       1.815  54.795 -21.400  1.00  0.00    -0.260 OA
HETATM   12  O4  UNL     1       0.521  53.161 -22.339  1.00  0.00    -0.275 OA
ENDROOT
BRANCH   1  13
HETATM   13  O2  UNL     1      -2.243  49.687 -24.256  1.00  0.00    -0.342 OA
BRANCH  13  14
HETATM   14  C7  UNL     1      -2.851  50.484 -25.258  1.00  0.00     0.254 C 
BRANCH  14  15
HETATM   15  C6  UNL     1      -2.481  50.140 -26.706  1.00  0.00     0.155 C 
HETATM   16  O1  UNL     1      -2.937  49.157 -27.292  1.00  0.00    -0.295 OA
BRANCH  15  17
HETATM   17  C5  UNL     1      -1.514  51.099 -27.392  1.00  0.00     0.062 C 
HETATM   18  C4  UNL     1      -0.098  50.901 -26.840  1.00  0.00     0.049 C 
HETATM   19  C2  UNL     1       0.823  52.116 -27.088  1.00  0.00     0.054 C 
HETATM   20  C1  UNL     1       2.198  51.630 -27.570  1.00  0.00     0.045 C 
HETATM   21  C3  UNL     1       1.034  52.951 -25.816  1.00  0.00     0.045 C 
HETATM   22  O5  UNL     1       0.296  52.917 -28.153  1.00  0.00    -0.381 OA
HETATM   23  C24 UNL     1      -0.983  53.500 -27.910  1.00  0.00     0.169 C 
HETATM   24  C23 UNL     1      -1.959  52.549 -27.231  1.00  0.00     0.038 C 
ENDBRANCH  15  17
ENDBRANCH  14  15
ENDBRANCH  13  14
ENDBRANCH   1  13
BRANCH   8  25
HETATM   25  C15 UNL     1       0.356  51.443 -18.387  1.00  0.00    -0.025 A 
HETATM   26  C16 UNL     1       0.927  52.187 -17.346  1.00  0.00     0.012 A 
HETATM   27  C17 UNL     1       0.929  51.684 -16.044  1.00  0.00     0.001 A 
HETATM   28  C18 UNL     1       0.362  50.440 -15.775  1.00  0.00     0.000 A 
HETATM   29  C19 UNL     1      -0.209  49.694 -16.807  1.00  0.00     0.001 A 
HETATM   30  C20 UNL     1      -0.213  50.193 -18.110  1.00  0.00     0.012 A 
ENDBRANCH   8  25
TORSDOF 5
ENDMDL
MODEL 3
REMARK minimizedAffinity -9.69422722
REMARK  5 active torsions:
REMARK  status: ('A' for Active; 'I' for Inactive)
REMARK    1  A    between atoms: C5_5  and  C6_6 
REMARK    2  A    between atoms: C6_6  and  C7_8 
REMARK    3  A    between atoms: C7_8  and  O2_9 
REMARK    4  A    between atoms: O2_9  and  C8_10 
REMARK    5  A    between atoms: C14_17  and  C15_18 
ROOT
HETATM    1  C8  UNL     1      -2.654  49.225 -25.208  1.00  0.00     0.093 A 
HETATM    2  C9  UNL     1      -2.010  50.185 -25.990  1.00  0.00     0.076 A 
HETATM    3  C10 UNL     1      -1.253  51.184 -25.373  1.00  0.00     0.093 A 
HETATM    4  C11 UNL     1      -1.106  51.265 -23.990  1.00  0.00     0.011 A 
HETATM    5  C12 UNL     1      -1.752  50.304 -23.207  1.00  0.00     0.042 A 
HETATM    6  C13 UNL     1      -2.516  49.296 -23.811  1.00  0.00     0.068 A 
HETATM    7 CL1  UNL     1      -3.291  48.147 -22.774  1.00  0.00    -0.081 Cl
HETATM    8  C14 UNL     1      -0.288  52.342 -23.414  1.00  0.00    -0.007 A 
HETATM    9  C21 UNL     1       0.285  53.216 -24.256  1.00  0.00     0.095 A 
HETATM   10  C22 UNL     1       0.134  53.151 -25.717  1.00  0.00     0.289 A 
HETATM   11  O3  UNL     1       0.670  53.983 -26.440  1.00  0.00    -0.260 OA
HETATM   12  O4  UNL     1      -0.637  52.120 -26.225  1.00  0.00    -0.275 OA
ENDROOT
BRANCH   1  13
HETATM   13  O2  UNL     1      -3.415  48.198 -25.698  1.00  0.00    -0.342 OA
BRANCH  13  14
HETATM   14  C7  UNL     1      -4.653  48.482 -26.326  1.00  0.00     0.254 C 
BRANCH  14  15
HETATM   15  C6  UNL     1      -4.651  48.449 -27.860  1.00  0.00     0.155 C 
HETATM   16  O1  UNL     1      -3.829  49.069 -28.537  1.00  0.00    -0.295 OA
BRANCH  15  17
HETATM   17  C5  UNL     1      -5.729  47.587 -28.508  1.00  0.00     0.062 C 
HETATM   18  C4  UNL     1      -5.956  48.031 -29.958  1.00  0.00     0.049 C 
HETATM   19  C2  UNL     1      -7.322  47.580 -30.521  1.00  0.00     0.054 C 
HETATM   20  C1  UNL     1      -7.136  47.033 -31.945  1.00  0.00     0.045 C 
HETATM   21  C3  UNL     1      -8.330  48.738 -30.586  1.00  0.00     0.045 C 
HETATM   22  O5  UNL     1      -7.832  46.490 -29.746  1.00  0.00    -0.381 OA
HETATM   23  C24 UNL     1      -8.107  46.782 -28.377  1.00  0.00     0.169 C 
HETATM   24  C23 UNL     1      -7.032  47.637 -27.717  1.00  0.00     0.038 C 
ENDBRANCH  15  17
ENDBRANCH  14  15
ENDBRANCH  13  14
ENDBRANCH   1  13
BRANCH   8  25
HETATM   25  C15 UNL     1      -0.025  52.551 -21.978  1.00  0.00    -0.025 A 
HETATM   26  C16 UNL     1       1.043  53.361 -21.570  1.00  0.00     0.012 A 
HETATM   27  C17 UNL     1       1.295  53.556 -20.211  1.00  0.00     0.001 A 
HETATM   28  C18 UNL     1       0.483  52.947 -19.255  1.00  0.00     0.000 A 
HETATM   29  C19 UNL     1      -0.583  52.140 -19.656  1.00  0.00     0.001 A 
HETATM   30  C20 UNL     1      -0.837  51.942 -21.014  1.00  0.00     0.012 A 
ENDBRANCH   8  25
TORSDOF 5
ENDMDL
MODEL 4
REMARK minimizedAffinity -9.64958763
REMARK  5 active torsions:
REMARK  status: ('A' for Active; 'I' for Inactive)
REMARK    1  A    between atoms: C5_5  and  C6_6 
REMARK    2  A    between atoms: C6_6  and  C7_8 
REMARK    3  A    between atoms: C7_8  and  O2_9 
REMARK    4  A    between atoms: O2_9  and  C8_10 
REMARK    5  A    between atoms: C14_17  and  C15_18 
ROOT
HETATM    1  C8  UNL     1      -2.783  49.250 -24.950  1.00  0.00     0.093 A 
HETATM    2  C9  UNL     1      -2.147  50.182 -25.769  1.00  0.00     0.076 A 
HETATM    3  C10 UNL     1      -1.328  51.160 -25.198  1.00  0.00     0.093 A 
HETATM    4  C11 UNL     1      -1.110  51.244 -23.825  1.00  0.00     0.011 A 
HETATM    5  C12 UNL     1      -1.748  50.310 -23.003  1.00  0.00     0.042 A 
HETATM    6  C13 UNL     1      -2.574  49.325 -23.561  1.00  0.00     0.068 A 
HETATM    7 CL1  UNL     1      -3.334  48.208 -22.478  1.00  0.00    -0.081 Cl
HETATM    8  C14 UNL     1      -0.230  52.297 -23.298  1.00  0.00    -0.007 A 
HETATM    9  C21 UNL     1       0.331  53.145 -24.174  1.00  0.00     0.095 A 
HETATM   10  C22 UNL     1       0.105  53.077 -25.626  1.00  0.00     0.289 A 
HETATM   11  O3  UNL     1       0.632  53.885 -26.381  1.00  0.00    -0.260 OA
HETATM   12  O4  UNL     1      -0.724  52.069 -26.087  1.00  0.00    -0.275 OA
ENDROOT
BRANCH   1  13
HETATM   13  O2  UNL     1      -3.601  48.245 -25.393  1.00  0.00    -0.342 OA
BRANCH  13  14
HETATM   14  C7  UNL     1      -4.739  48.564 -26.176  1.00  0.00     0.254 C 
BRANCH  14  15
HETATM   15  C6  UNL     1      -4.642  48.226 -27.669  1.00  0.00     0.155 C 
HETATM   16  O1  UNL     1      -3.570  48.186 -28.273  1.00  0.00    -0.295 OA
BRANCH  15  17
HETATM   17  C5  UNL     1      -5.963  47.931 -28.370  1.00  0.00     0.062 C 
HETATM   18  C4  UNL     1      -6.739  46.855 -27.601  1.00  0.00     0.049 C 
HETATM   19  C2  UNL     1      -7.807  46.147 -28.463  1.00  0.00     0.054 C 
HETATM   20  C1  UNL     1      -9.108  46.006 -27.657  1.00  0.00     0.045 C 
HETATM   21  C3  UNL     1      -7.364  44.741 -28.896  1.00  0.00     0.045 C 
HETATM   22  O5  UNL     1      -8.135  46.960 -29.596  1.00  0.00    -0.381 OA
HETATM   23  C24 UNL     1      -7.067  47.204 -30.509  1.00  0.00     0.169 C 
HETATM   24  C23 UNL     1      -5.743  47.507 -29.819  1.00  0.00     0.038 C 
ENDBRANCH  15  17
ENDBRANCH  14  15
ENDBRANCH  13  14
ENDBRANCH   1  13
BRANCH   8  25
HETATM   25  C15 UNL     1       0.111  52.505 -21.879  1.00  0.00    -0.025 A 
HETATM   26  C16 UNL     1      -0.453  51.686 -20.892  1.00  0.00     0.012 A 
HETATM   27  C17 UNL     1      -0.133  51.886 -19.548  1.00  0.00     0.001 A 
HETATM   28  C18 UNL     1       0.750  52.901 -19.183  1.00  0.00     0.000 A 
HETATM   29  C19 UNL     1       1.316  53.719 -20.161  1.00  0.00     0.001 A 
HETATM   30  C20 UNL     1       0.998  53.523 -21.506  1.00  0.00     0.012 A 
ENDBRANCH   8  25
TORSDOF 5
ENDMDL
MODEL 5
REMARK minimizedAffinity -9.41078091
REMARK  5 active torsions:
REMARK  status: ('A' for Active; 'I' for Inactive)
REMARK    1  A    between atoms: C5_5  and  C6_6 
REMARK    2  A    between atoms: C6_6  and  C7_8 
REMARK    3  A    between atoms: C7_8  and  O2_9 
REMARK    4  A    between atoms: O2_9  and  C8_10 
REMARK    5  A    between atoms: C14_17  and  C15_18 
ROOT
HETATM    1  C8  UNL     1      -0.811  52.089 -20.959  1.00  0.00     0.093 A 
HETATM    2  C9  UNL     1      -1.811  51.251 -21.453  1.00  0.00     0.076 A 
HETATM    3  C10 UNL     1      -1.802  50.885 -22.802  1.00  0.00     0.093 A 
HETATM    4  C11 UNL     1      -0.822  51.324 -23.690  1.00  0.00     0.011 A 
HETATM    5  C12 UNL     1       0.178  52.165 -23.195  1.00  0.00     0.042 A 
HETATM    6  C13 UNL     1       0.183  52.541 -21.846  1.00  0.00     0.068 A 
HETATM    7 CL1  UNL     1       1.452  53.590 -21.310  1.00  0.00    -0.081 Cl
HETATM    8  C14 UNL     1      -0.877  50.891 -25.094  1.00  0.00    -0.007 A 
HETATM    9  C21 UNL     1      -1.884  50.086 -25.466  1.00  0.00     0.095 A 
HETATM   10  C22 UNL     1      -2.931  49.621 -24.545  1.00  0.00     0.289 A 
HETATM   11  O3  UNL     1      -3.837  48.895 -24.940  1.00  0.00    -0.260 OA
HETATM   12  O4  UNL     1      -2.845  50.041 -23.229  1.00  0.00    -0.275 OA
ENDROOT
BRANCH   1  13
HETATM   13  O2  UNL     1      -0.712  52.509 -19.660  1.00  0.00    -0.342 OA
BRANCH  13  14
HETATM   14  C7  UNL     1      -1.342  51.763 -18.634  1.00  0.00     0.254 C 
BRANCH  14  15
HETATM   15  C6  UNL     1      -0.584  50.523 -18.143  1.00  0.00     0.155 C 
HETATM   16  O1  UNL     1      -0.900  49.379 -18.471  1.00  0.00    -0.295 OA
BRANCH  15  17
HETATM   17  C5  UNL     1       0.601  50.789 -17.222  1.00  0.00     0.062 C 
HETATM   18  C4  UNL     1       0.263  50.357 -15.790  1.00  0.00     0.049 C 
HETATM   19  C2  UNL     1       1.166  51.022 -14.729  1.00  0.00     0.054 C 
HETATM   20  C1  UNL     1       1.608  49.972 -13.698  1.00  0.00     0.045 C 
HETATM   21  C3  UNL     1       0.440  52.149 -13.976  1.00  0.00     0.045 C 
HETATM   22  O5  UNL     1       2.369  51.499 -15.342  1.00  0.00    -0.381 OA
HETATM   23  C24 UNL     1       2.197  52.514 -16.329  1.00  0.00     0.169 C 
HETATM   24  C23 UNL     1       1.018  52.255 -17.260  1.00  0.00     0.038 C 
ENDBRANCH  15  17
ENDBRANCH  14  15
ENDBRANCH  13  14
ENDBRANCH   1  13
BRANCH   8  25
HETATM   25  C15 UNL     1       0.091  51.254 -26.146  1.00  0.00    -0.025 A 
HETATM   26  C16 UNL     1      -0.362  51.639 -27.415  1.00  0.00     0.012 A 
HETATM   27  C17 UNL     1       0.554  51.980 -28.412  1.00  0.00     0.001 A 
HETATM   28  C18 UNL     1       1.922  51.939 -28.147  1.00  0.00     0.000 A 
HETATM   29  C19 UNL     1       2.379  51.557 -26.885  1.00  0.00     0.001 A 
HETATM   30  C20 UNL     1       1.466  51.216 -25.886  1.00  0.00     0.012 A 
ENDBRANCH   8  25
TORSDOF 5
ENDMDL
MODEL 6
REMARK minimizedAffinity -9.32942581
REMARK  5 active torsions:
REMARK  status: ('A' for Active; 'I' for Inactive)
REMARK    1  A    between atoms: C5_5  and  C6_6 
REMARK    2  A    between atoms: C6_6  and  C7_8 
REMARK    3  A    between atoms: C7_8  and  O2_9 
REMARK    4  A    between atoms: O2_9  and  C8_10 
REMARK    5  A    between atoms: C14_17  and  C15_18 
ROOT
HETATM    1  C8  UNL     1      -2.486  50.298 -23.623  1.00  0.00     0.093 A 
HETATM    2  C9  UNL     1      -2.810  49.125 -22.942  1.00  0.00     0.076 A 
HETATM    3  C10 UNL     1      -2.368  48.942 -21.629  1.00  0.00     0.093 A 
HETATM    4  C11 UNL     1      -1.608  49.896 -20.956  1.00  0.00     0.011 A 
HETATM    5  C12 UNL     1      -1.282  51.071 -21.639  1.00  0.00     0.042 A 
HETATM    6  C13 UNL     1      -1.717  51.269 -22.956  1.00  0.00     0.068 A 
HETATM    7 CL1  UNL     1      -1.267  52.747 -23.736  1.00  0.00    -0.081 Cl
HETATM    8  C14 UNL     1      -1.185  49.635 -19.573  1.00  0.00    -0.007 A 
HETATM    9  C21 UNL     1      -1.549  48.471 -19.012  1.00  0.00     0.095 A 
HETATM   10  C22 UNL     1      -2.343  47.449 -19.711  1.00  0.00     0.289 A 
HETATM   11  O3  UNL     1      -2.638  46.397 -19.155  1.00  0.00    -0.260 OA
HETATM   12  O4  UNL     1      -2.730  47.731 -21.009  1.00  0.00    -0.275 OA
ENDROOT
BRANCH   1  13
HETATM   13  O2  UNL     1      -2.866  50.591 -24.905  1.00  0.00    -0.342 OA
BRANCH  13  14
HETATM   14  C7  UNL     1      -2.417  49.774 -25.972  1.00  0.00     0.254 C 
BRANCH  14  15
HETATM   15  C6  UNL     1      -2.325  50.453 -27.345  1.00  0.00     0.155 C 
HETATM   16  O1  UNL     1      -3.173  50.292 -28.223  1.00  0.00    -0.295 OA
BRANCH  15  17
HETATM   17  C5  UNL     1      -1.115  51.355 -27.560  1.00  0.00     0.062 C 
HETATM   18  C4  UNL     1       0.078  50.838 -26.748  1.00  0.00     0.049 C 
HETATM   19  C2  UNL     1       1.157  51.917 -26.505  1.00  0.00     0.054 C 
HETATM   20  C1  UNL     1       2.550  51.314 -26.744  1.00  0.00     0.045 C 
HETATM   21  C3  UNL     1       1.116  52.462 -25.069  1.00  0.00     0.045 C 
HETATM   22  O5  UNL     1       1.017  52.970 -27.465  1.00  0.00    -0.381 OA
HETATM   23  C24 UNL     1      -0.211  53.695 -27.408  1.00  0.00     0.169 C 
HETATM   24  C23 UNL     1      -1.427  52.803 -27.199  1.00  0.00     0.038 C 
ENDBRANCH  15  17
ENDBRANCH  14  15
ENDBRANCH  13  14
ENDBRANCH   1  13
BRANCH   8  25
HETATM   25  C15 UNL     1      -0.396  50.548 -18.726  1.00  0.00    -0.025 A 
HETATM   26  C16 UNL     1      -0.063  51.827 -19.191  1.00  0.00     0.012 A 
HETATM   27  C17 UNL     1       0.687  52.691 -18.391  1.00  0.00     0.001 A 
HETATM   28  C18 UNL     1       1.106  52.284 -17.125  1.00  0.00     0.000 A 
HETATM   29  C19 UNL     1       0.776  51.012 -16.656  1.00  0.00     0.001 A 
HETATM   30  C20 UNL     1       0.027  50.145 -17.453  1.00  0.00     0.012 A 
ENDBRANCH   8  25
TORSDOF 5
ENDMDL
MODEL 7
REMARK minimizedAffinity -9.27577496
REMARK  5 active torsions:
REMARK  status: ('A' for Active; 'I' for Inactive)
REMARK    1  A    between atoms: C5_5  and  C6_6 
REMARK    2  A    between atoms: C6_6  and  C7_8 
REMARK    3  A    between atoms: C7_8  and  O2_9 
REMARK    4  A    between atoms: O2_9  and  C8_10 
REMARK    5  A    between atoms: C14_17  and  C15_18 
ROOT
HETATM    1  C8  UNL     1       0.438  52.097 -21.960  1.00  0.00     0.093 A 
HETATM    2  C9  UNL     1       0.641  53.050 -22.959  1.00  0.00     0.076 A 
HETATM    3  C10 UNL     1       0.044  52.877 -24.211  1.00  0.00     0.093 A 
HETATM    4  C11 UNL     1      -0.760  51.780 -24.510  1.00  0.00     0.011 A 
HETATM    5  C12 UNL     1      -0.962  50.825 -23.510  1.00  0.00     0.042 A 
HETATM    6  C13 UNL     1      -0.370  50.983 -22.251  1.00  0.00     0.068 A 
HETATM    7 CL1  UNL     1      -0.661  49.754 -21.067  1.00  0.00    -0.081 Cl
HETATM    8  C14 UNL     1      -1.359  51.670 -25.849  1.00  0.00    -0.007 A 
HETATM    9  C21 UNL     1      -1.098  52.642 -26.737  1.00  0.00     0.095 A 
HETATM   10  C22 UNL     1      -0.244  53.802 -26.440  1.00  0.00     0.289 A 
HETATM   11  O3  UNL     1      -0.029  54.655 -27.293  1.00  0.00    -0.260 OA
HETATM   12  O4  UNL     1       0.297  53.877 -25.169  1.00  0.00    -0.275 OA
ENDROOT
BRANCH   1  13
HETATM   13  O2  UNL     1       0.964  52.161 -20.697  1.00  0.00    -0.342 OA
BRANCH  13  14
HETATM   14  C7  UNL     1       0.296  52.913 -19.699  1.00  0.00     0.254 C 
BRANCH  14  15
HETATM   15  C6  UNL     1      -0.403  52.100 -18.602  1.00  0.00     0.155 C 
HETATM   16  O1  UNL     1      -1.619  51.902 -18.595  1.00  0.00    -0.295 OA
BRANCH  15  17
HETATM   17  C5  UNL     1       0.502  51.538 -17.512  1.00  0.00     0.062 C 
HETATM   18  C4  UNL     1      -0.343  50.985 -16.359  1.00  0.00     0.049 C 
HETATM   19  C2  UNL     1       0.445  50.859 -15.037  1.00  0.00     0.054 C 
HETATM   20  C1  UNL     1       0.127  49.511 -14.374  1.00  0.00     0.045 C 
HETATM   21  C3  UNL     1       0.086  51.973 -14.041  1.00  0.00     0.045 C 
HETATM   22  O5  UNL     1       1.852  50.840 -15.309  1.00  0.00    -0.381 OA
HETATM   23  C24 UNL     1       2.379  52.021 -15.911  1.00  0.00     0.169 C 
HETATM   24  C23 UNL     1       1.485  52.588 -17.006  1.00  0.00     0.038 C 
ENDBRANCH  15  17
ENDBRANCH  14  15
ENDBRANCH  13  14
ENDBRANCH   1  13
BRANCH   8  25
HETATM   25  C15 UNL     1      -2.242  50.584 -26.311  1.00  0.00    -0.025 A 
HETATM   26  C16 UNL     1      -2.483  49.475 -25.489  1.00  0.00     0.012 A 
HETATM   27  C17 UNL     1      -3.316  48.444 -25.929  1.00  0.00     0.001 A 
HETATM   28  C18 UNL     1      -3.912  48.516 -27.187  1.00  0.00     0.000 A 
HETATM   29  C19 UNL     1      -3.677  49.618 -28.010  1.00  0.00     0.001 A 
HETATM   30  C20 UNL     1      -2.844  50.650 -27.574  1.00  0.00     0.012 A 
ENDBRANCH   8  25
TORSDOF 5
ENDMDL
MODEL 8
REMARK minimizedAffinity -9.26578522
REMARK  5 active torsions:
REMARK  status: ('A' for Active; 'I' for Inactive)
REMARK    1  A    between atoms: C5_5  and  C6_6 
REMARK    2  A    between atoms: C6_6  and  C7_8 
REMARK    3  A    between atoms: C7_8  and  O2_9 
REMARK    4  A    between atoms: O2_9  and  C8_10 
REMARK    5  A    between atoms: C14_17  and  C15_18 
ROOT
HETATM    1  C8  UNL     1      -1.376  51.700 -20.747  1.00  0.00     0.093 A 
HETATM    2  C9  UNL     1      -2.233  51.294 -19.724  1.00  0.00     0.076 A 
HETATM    3  C10 UNL     1      -1.746  51.175 -18.420  1.00  0.00     0.093 A 
HETATM    4  C11 UNL     1      -0.422  51.453 -18.087  1.00  0.00     0.011 A 
HETATM    5  C12 UNL     1       0.437  51.859 -19.112  1.00  0.00     0.042 A 
HETATM    6  C13 UNL     1      -0.036  51.982 -20.425  1.00  0.00     0.068 A 
HETATM    7 CL1  UNL     1       1.091  52.483 -21.640  1.00  0.00    -0.081 Cl
HETATM    8  C14 UNL     1       0.015  51.311 -16.691  1.00  0.00    -0.007 A 
HETATM    9  C21 UNL     1      -0.891  50.911 -15.785  1.00  0.00     0.095 A 
HETATM   10  C22 UNL     1      -2.290  50.605 -16.120  1.00  0.00     0.289 A 
HETATM   11  O3  UNL     1      -3.073  50.230 -15.255  1.00  0.00    -0.260 OA
HETATM   12  O4  UNL     1      -2.669  50.756 -17.442  1.00  0.00    -0.275 OA
ENDROOT
BRANCH   1  13
HETATM   13  O2  UNL     1      -1.738  51.858 -22.058  1.00  0.00    -0.342 OA
BRANCH  13  14
HETATM   14  C7  UNL     1      -1.449  50.833 -22.991  1.00  0.00     0.254 C 
BRANCH  14  15
HETATM   15  C6  UNL     1      -2.027  51.024 -24.399  1.00  0.00     0.155 C 
HETATM   16  O1  UNL     1      -3.058  50.464 -24.776  1.00  0.00    -0.295 OA
BRANCH  15  17
HETATM   17  C5  UNL     1      -1.251  51.963 -25.315  1.00  0.00     0.062 C 
HETATM   18  C4  UNL     1      -0.373  51.154 -26.277  1.00  0.00     0.049 C 
HETATM   19  C2  UNL     1       0.786  51.980 -26.877  1.00  0.00     0.054 C 
HETATM   20  C1  UNL     1       0.899  51.691 -28.382  1.00  0.00     0.045 C 
HETATM   21  C3  UNL     1       2.136  51.639 -26.228  1.00  0.00     0.045 C 
HETATM   22  O5  UNL     1       0.496  53.378 -26.768  1.00  0.00    -0.381 OA
HETATM   23  C24 UNL     1       0.372  53.879 -25.438  1.00  0.00     0.169 C 
HETATM   24  C23 UNL     1      -0.408  52.951 -24.515  1.00  0.00     0.038 C 
ENDBRANCH  15  17
ENDBRANCH  14  15
ENDBRANCH  13  14
ENDBRANCH   1  13
BRANCH   8  25
HETATM   25  C15 UNL     1       1.371  51.582 -16.181  1.00  0.00    -0.025 A 
HETATM   26  C16 UNL     1       2.191  52.520 -16.824  1.00  0.00     0.012 A 
HETATM   27  C17 UNL     1       3.476  52.774 -16.342  1.00  0.00     0.001 A 
HETATM   28  C18 UNL     1       3.949  52.096 -15.220  1.00  0.00     0.000 A 
HETATM   29  C19 UNL     1       3.138  51.162 -14.575  1.00  0.00     0.001 A 
HETATM   30  C20 UNL     1       1.852  50.905 -15.053  1.00  0.00     0.012 A 
ENDBRANCH   8  25
TORSDOF 5
ENDMDL
MODEL 9
REMARK minimizedAffinity -9.21465874
REMARK  5 active torsions:
REMARK  status: ('A' for Active; 'I' for Inactive)
REMARK    1  A    between atoms: C5_5  and  C6_6 
REMARK    2  A    between atoms: C6_6  and  C7_8 
REMARK    3  A    between atoms: C7_8  and  O2_9 
REMARK    4  A    between atoms: O2_9  and  C8_10 
REMARK    5  A    between atoms: C14_17  and  C15_18 
ROOT
HETATM    1  C8  UNL     1      -0.212  52.656 -20.782  1.00  0.00     0.093 A 
HETATM    2  C9  UNL     1      -1.196  51.708 -21.061  1.00  0.00     0.076 A 
HETATM    3  C10 UNL     1      -1.328  51.210 -22.360  1.00  0.00     0.093 A 
HETATM    4  C11 UNL     1      -0.504  51.621 -23.406  1.00  0.00     0.011 A 
HETATM    5  C12 UNL     1       0.482  52.572 -23.126  1.00  0.00     0.042 A 
HETATM    6  C13 UNL     1       0.625  53.081 -21.828  1.00  0.00     0.068 A 
HETATM    7 CL1  UNL     1       1.864  54.261 -21.562  1.00  0.00    -0.081 Cl
HETATM    8  C14 UNL     1      -0.699  51.047 -24.745  1.00  0.00    -0.007 A 
HETATM    9  C21 UNL     1      -1.678  50.144 -24.906  1.00  0.00     0.095 A 
HETATM   10  C22 UNL     1      -2.563  49.705 -23.816  1.00  0.00     0.289 A 
HETATM   11  O3  UNL     1      -3.450  48.885 -24.021  1.00  0.00    -0.260 OA
HETATM   12  O4  UNL     1      -2.346  50.260 -22.567  1.00  0.00    -0.275 OA
ENDROOT
BRANCH   1  13
HETATM   13  O2  UNL     1       0.016  53.210 -19.550  1.00  0.00    -0.342 OA
BRANCH  13  14
HETATM   14  C7  UNL     1       1.143  52.800 -18.796  1.00  0.00     0.254 C 
BRANCH  14  15
HETATM   15  C6  UNL     1       0.849  52.245 -17.397  1.00  0.00     0.155 C 
HETATM   16  O1  UNL     1       1.133  52.857 -16.366  1.00  0.00    -0.295 OA
BRANCH  15  17
HETATM   17  C5  UNL     1       0.168  50.881 -17.351  1.00  0.00     0.062 C 
HETATM   18  C4  UNL     1      -1.355  51.052 -17.382  1.00  0.00     0.049 C 
HETATM   19  C2  UNL     1      -2.113  49.816 -16.850  1.00  0.00     0.054 C 
HETATM   20  C1  UNL     1      -3.298  49.501 -17.776  1.00  0.00     0.045 C 
HETATM   21  C3  UNL     1      -2.666  50.042 -15.434  1.00  0.00     0.045 C 
HETATM   22  O5  UNL     1      -1.262  48.665 -16.898  1.00  0.00    -0.381 OA
HETATM   23  C24 UNL     1      -0.094  48.728 -16.081  1.00  0.00     0.169 C 
HETATM   24  C23 UNL     1       0.598  50.084 -16.124  1.00  0.00     0.038 C 
ENDBRANCH  15  17
ENDBRANCH  14  15
ENDBRANCH  13  14
ENDBRANCH   1  13
BRANCH   8  25
HETATM   25  C15 UNL     1       0.098  51.366 -25.944  1.00  0.00    -0.025 A 
HETATM   26  C16 UNL     1       1.498  51.311 -25.893  1.00  0.00     0.012 A 
HETATM   27  C17 UNL     1       2.252  51.616 -27.027  1.00  0.00     0.001 A 
HETATM   28  C18 UNL     1       1.616  51.975 -28.214  1.00  0.00     0.000 A 
HETATM   29  C19 UNL     1       0.223  52.031 -28.271  1.00  0.00     0.001 A 
HETATM   30  C20 UNL     1      -0.535  51.727 -27.139  1.00  0.00     0.012 A 
ENDBRANCH   8  25
TORSDOF 5
ENDMDL
