MODEL 1
REMARK minimizedAffinity -10.0331249
REMARK CNNscore 0.495827168
REMARK CNNaffinity 7.50325823
REMARK  18 active torsions:
REMARK  status: ('A' for Active; 'I' for Inactive)
REMARK    1  A    between atoms: C2_2  and  C4_4 
REMARK    2  A    between atoms: C4_4  and  N1_5 
REMARK    3  A    between atoms: C4_4  and  C30_38 
REMARK       I    between atoms: N1_5  and  C5_6 
REMARK    4  A    between atoms: C5_6  and  C6_8 
REMARK    5  A    between atoms: C6_8  and  C7_9 
REMARK    6  A    between atoms: C7_9  and  C8_10 
REMARK    7  A    between atoms: C8_10  and  O3_12 
REMARK    8  A    between atoms: O3_12  and  C9_13 
REMARK    9  A    between atoms: C9_13  and  C10_14 
REMARK   10  A    between atoms: C10_14  and  C11_16 
REMARK   11  A    between atoms: C11_16  and  O5_17 
REMARK   12  A    between atoms: C26_33  and  O7_34 
REMARK       I    between atoms: C30_38  and  N2_40 
REMARK   13  A    between atoms: N2_40  and  C31_41 
REMARK   14  A    between atoms: C31_41  and  C32_42 
REMARK   15  A    between atoms: C32_42  and  C33_43 
REMARK   16  A    between atoms: C32_42  and  C35_47 
REMARK   17  A    between atoms: C33_43  and  C34_44 
REMARK   18  A    between atoms: C34_44  and  O10_46 
ROOT
HETATM    1  C8  UNL     1      -4.869  48.180 -26.801  1.00  0.00     0.259 C 
HETATM    2  O2  UNL     1      -5.120  48.339 -25.614  1.00  0.00    -0.265 OA
ENDROOT
BRANCH   1   3
HETATM    3  C7  UNL     1      -3.518  48.459 -27.414  1.00  0.00     0.120 C 
BRANCH   3   4
HETATM    4  C6  UNL     1      -3.173  49.940 -27.429  1.00  0.00     0.112 C 
BRANCH   4   5
HETATM    5  C5  UNL     1      -2.085  50.241 -26.421  1.00  0.00     0.218 C 
HETATM    6  N1  UNL     1      -1.095  51.073 -26.889  1.00  0.00    -0.347 N 
HETATM    7  H9  UNL     1      -1.172  51.478 -27.813  1.00  0.00     0.163 HD
HETATM    8  O1  UNL     1      -2.084  49.749 -25.298  1.00  0.00    -0.274 OA
BRANCH   6   9
HETATM    9  C4  UNL     1       0.067  51.429 -26.054  1.00  0.00     0.179 C 
BRANCH   9  10
HETATM   10  C2  UNL     1       1.187  52.030 -26.942  1.00  0.00     0.009 C 
HETATM   11  C1  UNL     1       2.570  51.441 -26.641  1.00  0.00     0.012 C 
HETATM   12  C3  UNL     1       0.881  51.817 -28.432  1.00  0.00     0.012 C 
ENDBRANCH   9  10
BRANCH   9  13
HETATM   13  C30 UNL     1      -0.366  52.423 -24.944  1.00  0.00     0.240 C 
HETATM   14  O8  UNL     1      -0.677  53.587 -25.183  1.00  0.00    -0.271 OA
HETATM   15  N2  UNL     1      -0.513  51.865 -23.690  1.00  0.00    -0.359 N 
HETATM   16  H43 UNL     1      -0.407  50.864 -23.610  1.00  0.00     0.162 HD
BRANCH  15  17
HETATM   17  C31 UNL     1      -1.132  52.584 -22.595  1.00  0.00     0.132 C 
BRANCH  17  18
HETATM   18  C32 UNL     1      -0.824  51.931 -21.229  1.00  0.00     0.046 C 
BRANCH  18  19
HETATM   19  C33 UNL     1       0.661  52.119 -20.884  1.00  0.00     0.120 C 
BRANCH  19  20
HETATM   20  C34 UNL     1       0.942  53.477 -20.300  1.00  0.00     0.140 C 
HETATM   21  O9  UNL     1       1.440  54.444 -20.853  1.00  0.00    -0.650 OA
BRANCH  20  22
HETATM   22  O10 UNL     1       0.541  53.561 -19.014  1.00  0.00    -0.776 OA
HETATM   23  H49 UNL     1       0.762  54.480 -18.757  1.00  0.00     0.167 HD
ENDBRANCH  20  22
ENDBRANCH  19  20
ENDBRANCH  18  19
BRANCH  18  24
HETATM   24  C35 UNL     1      -1.255  50.467 -21.224  1.00  0.00    -0.052 A 
HETATM   25  C36 UNL     1      -0.423  49.447 -20.733  1.00  0.00     0.007 A 
HETATM   26  C37 UNL     1      -0.829  48.112 -20.788  1.00  0.00     0.001 A 
HETATM   27  C38 UNL     1      -2.069  47.780 -21.324  1.00  0.00     0.000 A 
HETATM   28  C39 UNL     1      -2.911  48.781 -21.802  1.00  0.00     0.001 A 
HETATM   29  C40 UNL     1      -2.507  50.115 -21.755  1.00  0.00     0.007 A 
ENDBRANCH  18  24
ENDBRANCH  17  18
ENDBRANCH  15  17
ENDBRANCH   9  13
ENDBRANCH   6   9
ENDBRANCH   4   5
ENDBRANCH   3   4
ENDBRANCH   1   3
BRANCH   1  30
HETATM   30  O3  UNL     1      -5.738  47.700 -27.728  1.00  0.00    -0.314 OA
BRANCH  30  31
HETATM   31  C9  UNL     1      -5.428  48.061 -29.075  1.00  0.00     0.260 C 
BRANCH  31  32
HETATM   32  C10 UNL     1      -6.419  47.465 -30.065  1.00  0.00     0.185 C 
HETATM   33  O4  UNL     1      -6.058  46.710 -30.980  1.00  0.00    -0.292 OA
BRANCH  32  34
HETATM   34  C11 UNL     1      -7.915  47.811 -29.938  1.00  0.00     0.128 C 
HETATM   35  C12 UNL     1      -8.694  48.107 -31.241  1.00  0.00     0.047 C 
HETATM   36  C13 UNL     1     -10.141  47.622 -31.001  1.00  0.00     0.009 C 
HETATM   37  C14 UNL     1     -10.180  47.252 -29.521  1.00  0.00     0.002 C 
HETATM   38  C15 UNL     1     -11.301  46.332 -29.020  1.00  0.00    -0.002 C 
HETATM   39  C28 UNL     1      -8.763  46.701 -29.243  1.00  0.00     0.001 C 
HETATM   40  C16 UNL     1     -12.686  46.894 -29.410  1.00  0.00     0.010 C 
HETATM   41  C25 UNL     1     -11.151  46.171 -27.464  1.00  0.00     0.031 C 
HETATM   42  C17 UNL     1     -13.849  46.137 -28.769  1.00  0.00     0.035 C 
HETATM   43  C18 UNL     1     -13.614  46.049 -27.282  1.00  0.00    -0.068 C 
HETATM   44  C19 UNL     1     -14.419  46.706 -26.428  1.00  0.00     0.053 C 
HETATM   45  C23 UNL     1     -12.330  45.315 -26.864  1.00  0.00    -0.014 C 
HETATM   46  C20 UNL     1     -14.050  46.872 -25.001  1.00  0.00     0.149 C 
HETATM   47  O6  UNL     1     -14.839  47.412 -24.230  1.00  0.00    -0.293 OA
HETATM   48  C21 UNL     1     -12.663  46.458 -24.582  1.00  0.00     0.084 C 
HETATM   49  C22 UNL     1     -12.272  45.188 -25.315  1.00  0.00     0.022 C 
HETATM   50  C24 UNL     1     -12.371  43.858 -27.397  1.00  0.00     0.020 C 
HETATM   51  C26 UNL     1      -9.714  45.748 -27.040  1.00  0.00     0.124 C 
HETATM   52  C27 UNL     1      -8.604  46.585 -27.712  1.00  0.00     0.045 C 
HETATM   53  C29 UNL     1      -8.495  45.332 -29.921  1.00  0.00     0.019 C 
BRANCH  34  54
HETATM   54  O5  UNL     1      -7.958  49.018 -29.150  1.00  0.00    -0.381 OA
HETATM   55  H16 UNL     1      -7.227  48.953 -28.500  1.00  0.00     0.211 HD
ENDBRANCH  34  54
BRANCH  51  56
HETATM   56  O7  UNL     1      -9.487  44.369 -27.288  1.00  0.00    -0.395 OA
HETATM   57  H37 UNL     1      -8.612  44.141 -26.929  1.00  0.00     0.210 HD
ENDBRANCH  51  56
ENDBRANCH  32  34
ENDBRANCH  31  32
ENDBRANCH  30  31
ENDBRANCH   1  30
TORSDOF 18
ENDMDL
MODEL 2
REMARK minimizedAffinity -9.42916965
REMARK CNNscore 0.341214955
REMARK CNNaffinity 6.41742182
REMARK  18 active torsions:
REMARK  status: ('A' for Active; 'I' for Inactive)
REMARK    1  A    between atoms: C2_2  and  C4_4 
REMARK    2  A    between atoms: C4_4  and  N1_5 
REMARK    3  A    between atoms: C4_4  and  C30_38 
REMARK       I    between atoms: N1_5  and  C5_6 
REMARK    4  A    between atoms: C5_6  and  C6_8 
REMARK    5  A    between atoms: C6_8  and  C7_9 
REMARK    6  A    between atoms: C7_9  and  C8_10 
REMARK    7  A    between atoms: C8_10  and  O3_12 
REMARK    8  A    between atoms: O3_12  and  C9_13 
REMARK    9  A    between atoms: C9_13  and  C10_14 
REMARK   10  A    between atoms: C10_14  and  C11_16 
REMARK   11  A    between atoms: C11_16  and  O5_17 
REMARK   12  A    between atoms: C26_33  and  O7_34 
REMARK       I    between atoms: C30_38  and  N2_40 
REMARK   13  A    between atoms: N2_40  and  C31_41 
REMARK   14  A    between atoms: C31_41  and  C32_42 
REMARK   15  A    between atoms: C32_42  and  C33_43 
REMARK   16  A    between atoms: C32_42  and  C35_47 
REMARK   17  A    between atoms: C33_43  and  C34_44 
REMARK   18  A    between atoms: C34_44  and  O10_46 
ROOT
HETATM    1  C8  UNL     1      -9.176  49.006 -25.495  1.00  0.00     0.259 C 
HETATM    2  O2  UNL     1      -9.831  49.967 -25.872  1.00  0.00    -0.265 OA
ENDROOT
BRANCH   1   3
HETATM    3  C7  UNL     1      -9.198  47.660 -26.180  1.00  0.00     0.120 C 
BRANCH   3   4
HETATM    4  C6  UNL     1     -10.221  47.588 -27.304  1.00  0.00     0.112 C 
BRANCH   4   5
HETATM    5  C5  UNL     1     -11.381  46.701 -26.908  1.00  0.00     0.218 C 
HETATM    6  N1  UNL     1     -12.603  47.131 -27.369  1.00  0.00    -0.347 N 
HETATM    7  H9  UNL     1     -12.658  47.939 -27.975  1.00  0.00     0.163 HD
HETATM    8  O1  UNL     1     -11.230  45.707 -26.208  1.00  0.00    -0.274 OA
BRANCH   6   9
HETATM    9  C4  UNL     1     -13.846  46.413 -27.032  1.00  0.00     0.179 C 
BRANCH   9  10
HETATM   10  C2  UNL     1     -13.621  44.884 -27.163  1.00  0.00     0.009 C 
HETATM   11  C1  UNL     1     -14.767  44.058 -26.567  1.00  0.00     0.012 C 
HETATM   12  C3  UNL     1     -13.442  44.479 -28.634  1.00  0.00     0.012 C 
ENDBRANCH   9  10
BRANCH   9  13
HETATM   13  C30 UNL     1     -14.303  46.794 -25.599  1.00  0.00     0.240 C 
HETATM   14  O8  UNL     1     -13.574  47.387 -24.808  1.00  0.00    -0.271 OA
HETATM   15  N2  UNL     1     -15.633  46.546 -25.328  1.00  0.00    -0.359 N 
HETATM   16  H43 UNL     1     -16.211  46.216 -26.088  1.00  0.00     0.162 HD
BRANCH  15  17
HETATM   17  C31 UNL     1     -16.284  47.049 -24.135  1.00  0.00     0.132 C 
BRANCH  17  18
HETATM   18  C32 UNL     1     -16.883  45.911 -23.281  1.00  0.00     0.046 C 
BRANCH  18  19
HETATM   19  C33 UNL     1     -18.117  45.325 -23.983  1.00  0.00     0.120 C 
BRANCH  19  20
HETATM   20  C34 UNL     1     -18.709  46.280 -24.984  1.00  0.00     0.140 C 
HETATM   21  O9  UNL     1     -19.237  47.358 -24.772  1.00  0.00    -0.650 OA
BRANCH  20  22
HETATM   22  O10 UNL     1     -18.575  45.824 -26.249  1.00  0.00    -0.776 OA
HETATM   23  H49 UNL     1     -18.979  46.528 -26.797  1.00  0.00     0.167 HD
ENDBRANCH  20  22
ENDBRANCH  19  20
ENDBRANCH  18  19
BRANCH  18  24
HETATM   24  C35 UNL     1     -17.182  46.401 -21.866  1.00  0.00    -0.052 A 
HETATM   25  C36 UNL     1     -16.160  46.683 -20.944  1.00  0.00     0.007 A 
HETATM   26  C37 UNL     1     -16.469  47.083 -19.642  1.00  0.00     0.001 A 
HETATM   27  C38 UNL     1     -17.797  47.215 -19.248  1.00  0.00     0.000 A 
HETATM   28  C39 UNL     1     -18.821  46.953 -20.155  1.00  0.00     0.001 A 
HETATM   29  C40 UNL     1     -18.517  46.547 -21.454  1.00  0.00     0.007 A 
ENDBRANCH  18  24
ENDBRANCH  17  18
ENDBRANCH  15  17
ENDBRANCH   9  13
ENDBRANCH   6   9
ENDBRANCH   4   5
ENDBRANCH   3   4
ENDBRANCH   1   3
BRANCH   1  30
HETATM   30  O3  UNL     1      -8.316  49.007 -24.443  1.00  0.00    -0.314 OA
BRANCH  30  31
HETATM   31  C9  UNL     1      -6.986  48.597 -24.766  1.00  0.00     0.260 C 
BRANCH  31  32
HETATM   32  C10 UNL     1      -6.091  48.558 -23.534  1.00  0.00     0.185 C 
HETATM   33  O4  UNL     1      -6.093  47.594 -22.754  1.00  0.00    -0.292 OA
BRANCH  32  34
HETATM   34  C11 UNL     1      -5.159  49.748 -23.240  1.00  0.00     0.128 C 
HETATM   35  C12 UNL     1      -4.644  49.912 -21.791  1.00  0.00     0.047 C 
HETATM   36  C13 UNL     1      -3.236  50.539 -21.898  1.00  0.00     0.009 C 
HETATM   37  C14 UNL     1      -3.083  50.886 -23.377  1.00  0.00     0.002 C 
HETATM   38  C15 UNL     1      -1.675  51.116 -23.939  1.00  0.00    -0.002 C 
HETATM   39  C28 UNL     1      -3.857  49.758 -24.099  1.00  0.00     0.001 C 
HETATM   40  C16 UNL     1      -0.925  52.188 -23.116  1.00  0.00     0.010 C 
HETATM   41  C25 UNL     1      -1.806  51.524 -25.451  1.00  0.00     0.031 C 
HETATM   42  C17 UNL     1       0.403  52.611 -23.742  1.00  0.00     0.035 C 
HETATM   43  C18 UNL     1       0.165  52.992 -25.182  1.00  0.00    -0.068 C 
HETATM   44  C19 UNL     1       0.313  54.268 -25.579  1.00  0.00     0.053 C 
HETATM   45  C23 UNL     1      -0.400  51.872 -26.070  1.00  0.00    -0.014 C 
HETATM   46  C20 UNL     1      -0.184  54.721 -26.902  1.00  0.00     0.149 C 
HETATM   47  O6  UNL     1       0.031  55.874 -27.267  1.00  0.00    -0.293 OA
HETATM   48  C21 UNL     1      -1.030  53.763 -27.700  1.00  0.00     0.084 C 
HETATM   49  C22 UNL     1      -0.480  52.356 -27.546  1.00  0.00     0.022 C 
HETATM   50  C24 UNL     1       0.586  50.675 -26.082  1.00  0.00     0.020 C 
HETATM   51  C26 UNL     1      -2.685  50.530 -26.266  1.00  0.00     0.124 C 
HETATM   52  C27 UNL     1      -4.021  50.182 -25.574  1.00  0.00     0.045 C 
HETATM   53  C29 UNL     1      -3.154  48.378 -24.007  1.00  0.00     0.019 C 
BRANCH  34  54
HETATM   54  O5  UNL     1      -5.941  50.923 -23.533  1.00  0.00    -0.381 OA
HETATM   55  H16 UNL     1      -6.516  50.692 -24.294  1.00  0.00     0.211 HD
ENDBRANCH  34  54
BRANCH  51  56
HETATM   56  O7  UNL     1      -1.976  49.337 -26.564  1.00  0.00    -0.395 OA
HETATM   57  H37 UNL     1      -2.538  48.793 -27.143  1.00  0.00     0.210 HD
ENDBRANCH  51  56
ENDBRANCH  32  34
ENDBRANCH  31  32
ENDBRANCH  30  31
ENDBRANCH   1  30
TORSDOF 18
ENDMDL
MODEL 3
REMARK minimizedAffinity -9.61980152
REMARK CNNscore 0.318774164
REMARK CNNaffinity 6.29737854
REMARK  18 active torsions:
REMARK  status: ('A' for Active; 'I' for Inactive)
REMARK    1  A    between atoms: C2_2  and  C4_4 
REMARK    2  A    between atoms: C4_4  and  N1_5 
REMARK    3  A    between atoms: C4_4  and  C30_38 
REMARK       I    between atoms: N1_5  and  C5_6 
REMARK    4  A    between atoms: C5_6  and  C6_8 
REMARK    5  A    between atoms: C6_8  and  C7_9 
REMARK    6  A    between atoms: C7_9  and  C8_10 
REMARK    7  A    between atoms: C8_10  and  O3_12 
REMARK    8  A    between atoms: O3_12  and  C9_13 
REMARK    9  A    between atoms: C9_13  and  C10_14 
REMARK   10  A    between atoms: C10_14  and  C11_16 
REMARK   11  A    between atoms: C11_16  and  O5_17 
REMARK   12  A    between atoms: C26_33  and  O7_34 
REMARK       I    between atoms: C30_38  and  N2_40 
REMARK   13  A    between atoms: N2_40  and  C31_41 
REMARK   14  A    between atoms: C31_41  and  C32_42 
REMARK   15  A    between atoms: C32_42  and  C33_43 
REMARK   16  A    between atoms: C32_42  and  C35_47 
REMARK   17  A    between atoms: C33_43  and  C34_44 
REMARK   18  A    between atoms: C34_44  and  O10_46 
ROOT
HETATM    1  C8  UNL     1      -7.891  47.005 -25.595  1.00  0.00     0.259 C 
HETATM    2  O2  UNL     1      -8.177  45.854 -25.297  1.00  0.00    -0.265 OA
ENDROOT
BRANCH   1   3
HETATM    3  C7  UNL     1      -7.016  47.895 -24.743  1.00  0.00     0.120 C 
BRANCH   3   4
HETATM    4  C6  UNL     1      -7.792  49.025 -24.083  1.00  0.00     0.112 C 
BRANCH   4   5
HETATM    5  C5  UNL     1      -6.869  49.883 -23.246  1.00  0.00     0.218 C 
HETATM    6  N1  UNL     1      -5.813  50.423 -23.942  1.00  0.00    -0.347 N 
HETATM    7  H9  UNL     1      -5.744  50.284 -24.942  1.00  0.00     0.163 HD
HETATM    8  O1  UNL     1      -7.044  50.045 -22.044  1.00  0.00    -0.274 OA
BRANCH   6   9
HETATM    9  C4  UNL     1      -4.789  51.243 -23.270  1.00  0.00     0.179 C 
BRANCH   9  10
HETATM   10  C2  UNL     1      -4.229  50.480 -22.042  1.00  0.00     0.009 C 
HETATM   11  C1  UNL     1      -3.029  49.590 -22.386  1.00  0.00     0.012 C 
HETATM   12  C3  UNL     1      -3.807  51.457 -20.933  1.00  0.00     0.012 C 
ENDBRANCH   9  10
BRANCH   9  13
HETATM   13  C30 UNL     1      -3.660  51.602 -24.272  1.00  0.00     0.240 C 
HETATM   14  O8  UNL     1      -3.747  51.372 -25.476  1.00  0.00    -0.271 OA
HETATM   15  N2  UNL     1      -2.615  52.326 -23.735  1.00  0.00    -0.359 N 
HETATM   16  H43 UNL     1      -2.700  52.626 -22.774  1.00  0.00     0.162 HD
BRANCH  15  17
HETATM   17  C31 UNL     1      -1.599  52.943 -24.564  1.00  0.00     0.132 C 
BRANCH  17  18
HETATM   18  C32 UNL     1      -0.220  52.273 -24.383  1.00  0.00     0.046 C 
BRANCH  18  19
HETATM   19  C33 UNL     1       0.629  53.082 -23.392  1.00  0.00     0.120 C 
BRANCH  19  20
HETATM   20  C34 UNL     1       0.668  52.451 -22.027  1.00  0.00     0.140 C 
HETATM   21  O9  UNL     1       0.230  51.364 -21.689  1.00  0.00    -0.650 OA
BRANCH  20  22
HETATM   22  O10 UNL     1       1.306  53.235 -21.132  1.00  0.00    -0.776 OA
HETATM   23  H49 UNL     1       1.278  52.717 -20.301  1.00  0.00     0.167 HD
ENDBRANCH  20  22
ENDBRANCH  19  20
ENDBRANCH  18  19
BRANCH  18  24
HETATM   24  C35 UNL     1       0.465  52.080 -25.734  1.00  0.00    -0.052 A 
HETATM   25  C36 UNL     1      -0.246  52.135 -26.944  1.00  0.00     0.007 A 
HETATM   26  C37 UNL     1       0.403  51.907 -28.159  1.00  0.00     0.001 A 
HETATM   27  C38 UNL     1       1.767  51.630 -28.183  1.00  0.00     0.000 A 
HETATM   28  C39 UNL     1       2.489  51.587 -26.992  1.00  0.00     0.001 A 
HETATM   29  C40 UNL     1       1.843  51.809 -25.776  1.00  0.00     0.007 A 
ENDBRANCH  18  24
ENDBRANCH  17  18
ENDBRANCH  15  17
ENDBRANCH   9  13
ENDBRANCH   6   9
ENDBRANCH   4   5
ENDBRANCH   3   4
ENDBRANCH   1   3
BRANCH   1  30
HETATM   30  O3  UNL     1      -8.274  47.640 -26.733  1.00  0.00    -0.314 OA
BRANCH  30  31
HETATM   31  C9  UNL     1      -9.474  47.135 -27.319  1.00  0.00     0.260 C 
BRANCH  31  32
HETATM   32  C10 UNL     1     -10.701  47.909 -26.855  1.00  0.00     0.185 C 
HETATM   33  O4  UNL     1     -10.625  48.807 -26.004  1.00  0.00    -0.292 OA
BRANCH  32  34
HETATM   34  C11 UNL     1     -12.079  47.568 -27.451  1.00  0.00     0.128 C 
HETATM   35  C12 UNL     1     -12.114  46.944 -28.865  1.00  0.00     0.047 C 
HETATM   36  C13 UNL     1     -13.337  46.000 -28.895  1.00  0.00     0.009 C 
HETATM   37  C14 UNL     1     -14.058  46.268 -27.577  1.00  0.00     0.002 C 
HETATM   38  C15 UNL     1     -15.055  45.225 -27.056  1.00  0.00    -0.002 C 
HETATM   39  C28 UNL     1     -12.911  46.570 -26.586  1.00  0.00     0.001 C 
HETATM   40  C16 UNL     1     -16.120  44.902 -28.128  1.00  0.00     0.010 C 
HETATM   41  C25 UNL     1     -15.703  45.775 -25.734  1.00  0.00     0.031 C 
HETATM   42  C17 UNL     1     -17.258  44.026 -27.606  1.00  0.00     0.035 C 
HETATM   43  C18 UNL     1     -17.815  44.645 -26.349  1.00  0.00    -0.068 C 
HETATM   44  C19 UNL     1     -19.061  45.148 -26.335  1.00  0.00     0.053 C 
HETATM   45  C23 UNL     1     -16.812  44.795 -25.193  1.00  0.00    -0.014 C 
HETATM   46  C20 UNL     1     -19.529  46.008 -25.221  1.00  0.00     0.149 C 
HETATM   47  O6  UNL     1     -20.696  46.392 -25.199  1.00  0.00    -0.293 OA
HETATM   48  C21 UNL     1     -18.508  46.462 -24.209  1.00  0.00     0.084 C 
HETATM   49  C22 UNL     1     -17.539  45.329 -23.927  1.00  0.00     0.022 C 
HETATM   50  C24 UNL     1     -16.266  43.398 -24.799  1.00  0.00     0.020 C 
HETATM   51  C26 UNL     1     -14.641  46.245 -24.697  1.00  0.00     0.124 C 
HETATM   52  C27 UNL     1     -13.547  47.150 -25.304  1.00  0.00     0.045 C 
HETATM   53  C29 UNL     1     -12.052  45.324 -26.247  1.00  0.00     0.019 C 
BRANCH  34  54
HETATM   54  O5  UNL     1     -12.776  48.827 -27.540  1.00  0.00    -0.381 OA
HETATM   55  H16 UNL     1     -12.492  49.358 -26.766  1.00  0.00     0.211 HD
ENDBRANCH  34  54
BRANCH  51  56
HETATM   56  O7  UNL     1     -14.036  45.142 -24.040  1.00  0.00    -0.395 OA
HETATM   57  H37 UNL     1     -13.449  45.492 -23.348  1.00  0.00     0.210 HD
ENDBRANCH  51  56
ENDBRANCH  32  34
ENDBRANCH  31  32
ENDBRANCH  30  31
ENDBRANCH   1  30
TORSDOF 18
ENDMDL
MODEL 4
REMARK minimizedAffinity -9.72622585
REMARK CNNscore 0.317799419
REMARK CNNaffinity 6.94813967
REMARK  18 active torsions:
REMARK  status: ('A' for Active; 'I' for Inactive)
REMARK    1  A    between atoms: C2_2  and  C4_4 
REMARK    2  A    between atoms: C4_4  and  N1_5 
REMARK    3  A    between atoms: C4_4  and  C30_38 
REMARK       I    between atoms: N1_5  and  C5_6 
REMARK    4  A    between atoms: C5_6  and  C6_8 
REMARK    5  A    between atoms: C6_8  and  C7_9 
REMARK    6  A    between atoms: C7_9  and  C8_10 
REMARK    7  A    between atoms: C8_10  and  O3_12 
REMARK    8  A    between atoms: O3_12  and  C9_13 
REMARK    9  A    between atoms: C9_13  and  C10_14 
REMARK   10  A    between atoms: C10_14  and  C11_16 
REMARK   11  A    between atoms: C11_16  and  O5_17 
REMARK   12  A    between atoms: C26_33  and  O7_34 
REMARK       I    between atoms: C30_38  and  N2_40 
REMARK   13  A    between atoms: N2_40  and  C31_41 
REMARK   14  A    between atoms: C31_41  and  C32_42 
REMARK   15  A    between atoms: C32_42  and  C33_43 
REMARK   16  A    between atoms: C32_42  and  C35_47 
REMARK   17  A    between atoms: C33_43  and  C34_44 
REMARK   18  A    between atoms: C34_44  and  O10_46 
ROOT
HETATM    1  C8  UNL     1       0.304  50.147 -16.474  1.00  0.00     0.259 C 
HETATM    2  O2  UNL     1       0.722  51.153 -17.031  1.00  0.00    -0.265 OA
ENDROOT
BRANCH   1   3
HETATM    3  C7  UNL     1       0.426  49.904 -14.989  1.00  0.00     0.120 C 
BRANCH   3   4
HETATM    4  C6  UNL     1      -0.717  50.519 -14.196  1.00  0.00     0.112 C 
BRANCH   4   5
HETATM    5  C5  UNL     1      -0.284  51.826 -13.568  1.00  0.00     0.218 C 
HETATM    6  N1  UNL     1      -0.788  52.042 -12.307  1.00  0.00    -0.347 N 
HETATM    7  H9  UNL     1      -1.339  51.324 -11.855  1.00  0.00     0.163 HD
HETATM    8  O1  UNL     1       0.428  52.628 -14.162  1.00  0.00    -0.274 OA
BRANCH   6   9
HETATM    9  C4  UNL     1      -0.507  53.289 -11.571  1.00  0.00     0.179 C 
BRANCH   9  10
HETATM   10  C2  UNL     1      -1.675  53.600 -10.601  1.00  0.00     0.009 C 
HETATM   11  C1  UNL     1      -1.700  55.063 -10.145  1.00  0.00     0.012 C 
HETATM   12  C3  UNL     1      -3.029  53.269 -11.247  1.00  0.00     0.012 C 
ENDBRANCH   9  10
BRANCH   9  13
HETATM   13  C30 UNL     1       0.839  53.158 -10.809  1.00  0.00     0.240 C 
HETATM   14  O8  UNL     1       1.165  52.134 -10.214  1.00  0.00    -0.271 OA
HETATM   15  N2  UNL     1       1.702  54.223 -10.968  1.00  0.00    -0.359 N 
HETATM   16  H43 UNL     1       1.431  54.951 -11.614  1.00  0.00     0.162 HD
BRANCH  15  17
HETATM   17  C31 UNL     1       3.081  54.170 -10.526  1.00  0.00     0.132 C 
BRANCH  17  18
HETATM   18  C32 UNL     1       3.696  55.579 -10.382  1.00  0.00     0.046 C 
BRANCH  18  19
HETATM   19  C33 UNL     1       5.228  55.485 -10.408  1.00  0.00     0.120 C 
BRANCH  19  20
HETATM   20  C34 UNL     1       5.756  54.490  -9.410  1.00  0.00     0.140 C 
HETATM   21  O9  UNL     1       5.119  53.737  -8.692  1.00  0.00    -0.650 OA
BRANCH  20  22
HETATM   22  O10 UNL     1       7.106  54.473  -9.387  1.00  0.00    -0.776 OA
HETATM   23  H49 UNL     1       7.322  53.789  -8.721  1.00  0.00     0.167 HD
ENDBRANCH  20  22
ENDBRANCH  19  20
ENDBRANCH  18  19
BRANCH  18  24
HETATM   24  C35 UNL     1       3.164  56.271  -9.129  1.00  0.00    -0.052 A 
HETATM   25  C36 UNL     1       3.854  57.327  -8.511  1.00  0.00     0.007 A 
HETATM   26  C37 UNL     1       3.365  57.906  -7.339  1.00  0.00     0.001 A 
HETATM   27  C38 UNL     1       2.179  57.444  -6.774  1.00  0.00     0.000 A 
HETATM   28  C39 UNL     1       1.475  56.408  -7.382  1.00  0.00     0.001 A 
HETATM   29  C40 UNL     1       1.965  55.823  -8.550  1.00  0.00     0.007 A 
ENDBRANCH  18  24
ENDBRANCH  17  18
ENDBRANCH  15  17
ENDBRANCH   9  13
ENDBRANCH   6   9
ENDBRANCH   4   5
ENDBRANCH   3   4
ENDBRANCH   1   3
BRANCH   1  30
HETATM   30  O3  UNL     1      -0.356  49.129 -17.085  1.00  0.00    -0.314 OA
BRANCH  30  31
HETATM   31  C9  UNL     1      -0.818  49.427 -18.403  1.00  0.00     0.260 C 
BRANCH  31  32
HETATM   32  C10 UNL     1      -1.758  48.353 -18.932  1.00  0.00     0.185 C 
HETATM   33  O4  UNL     1      -2.489  47.694 -18.177  1.00  0.00    -0.292 OA
BRANCH  32  34
HETATM   34  C11 UNL     1      -1.802  48.064 -20.444  1.00  0.00     0.128 C 
HETATM   35  C12 UNL     1      -2.751  46.945 -20.932  1.00  0.00     0.047 C 
HETATM   36  C13 UNL     1      -3.233  47.366 -22.338  1.00  0.00     0.009 C 
HETATM   37  C14 UNL     1      -2.397  48.597 -22.676  1.00  0.00     0.002 C 
HETATM   38  C15 UNL     1      -2.887  49.541 -23.781  1.00  0.00    -0.002 C 
HETATM   39  C28 UNL     1      -2.206  49.297 -21.310  1.00  0.00     0.001 C 
HETATM   40  C16 UNL     1      -3.144  48.763 -25.091  1.00  0.00     0.010 C 
HETATM   41  C25 UNL     1      -1.817  50.676 -23.975  1.00  0.00     0.031 C 
HETATM   42  C17 UNL     1      -3.438  49.670 -26.286  1.00  0.00     0.035 C 
HETATM   43  C18 UNL     1      -2.351  50.711 -26.389  1.00  0.00    -0.068 C 
HETATM   44  C19 UNL     1      -1.500  50.702 -27.429  1.00  0.00     0.053 C 
HETATM   45  C23 UNL     1      -2.208  51.631 -25.165  1.00  0.00    -0.014 C 
HETATM   46  C20 UNL     1      -0.263  51.520 -27.414  1.00  0.00     0.149 C 
HETATM   47  O6  UNL     1       0.457  51.548 -28.409  1.00  0.00    -0.293 OA
HETATM   48  C21 UNL     1       0.112  52.203 -26.124  1.00  0.00     0.084 C 
HETATM   49  C22 UNL     1      -1.143  52.728 -25.449  1.00  0.00     0.022 C 
HETATM   50  C24 UNL     1      -3.538  52.395 -24.935  1.00  0.00     0.020 C 
HETATM   51  C26 UNL     1      -1.434  51.373 -22.636  1.00  0.00     0.124 C 
HETATM   52  C27 UNL     1      -1.124  50.382 -21.493  1.00  0.00     0.045 C 
HETATM   53  C29 UNL     1      -3.513  49.924 -20.757  1.00  0.00     0.019 C 
BRANCH  34  54
HETATM   54  O5  UNL     1      -0.465  47.648 -20.789  1.00  0.00    -0.381 OA
HETATM   55  H16 UNL     1       0.143  48.167 -20.222  1.00  0.00     0.211 HD
ENDBRANCH  34  54
BRANCH  51  56
HETATM   56  O7  UNL     1      -2.442  52.281 -22.220  1.00  0.00    -0.395 OA
HETATM   57  H37 UNL     1      -2.115  52.748 -21.431  1.00  0.00     0.210 HD
ENDBRANCH  51  56
ENDBRANCH  32  34
ENDBRANCH  31  32
ENDBRANCH  30  31
ENDBRANCH   1  30
TORSDOF 18
ENDMDL
MODEL 5
REMARK minimizedAffinity -10.0163784
REMARK CNNscore 0.286889821
REMARK CNNaffinity 7.22142649
REMARK  18 active torsions:
REMARK  status: ('A' for Active; 'I' for Inactive)
REMARK    1  A    between atoms: C2_2  and  C4_4 
REMARK    2  A    between atoms: C4_4  and  N1_5 
REMARK    3  A    between atoms: C4_4  and  C30_38 
REMARK       I    between atoms: N1_5  and  C5_6 
REMARK    4  A    between atoms: C5_6  and  C6_8 
REMARK    5  A    between atoms: C6_8  and  C7_9 
REMARK    6  A    between atoms: C7_9  and  C8_10 
REMARK    7  A    between atoms: C8_10  and  O3_12 
REMARK    8  A    between atoms: O3_12  and  C9_13 
REMARK    9  A    between atoms: C9_13  and  C10_14 
REMARK   10  A    between atoms: C10_14  and  C11_16 
REMARK   11  A    between atoms: C11_16  and  O5_17 
REMARK   12  A    between atoms: C26_33  and  O7_34 
REMARK       I    between atoms: C30_38  and  N2_40 
REMARK   13  A    between atoms: N2_40  and  C31_41 
REMARK   14  A    between atoms: C31_41  and  C32_42 
REMARK   15  A    between atoms: C32_42  and  C33_43 
REMARK   16  A    between atoms: C32_42  and  C35_47 
REMARK   17  A    between atoms: C33_43  and  C34_44 
REMARK   18  A    between atoms: C34_44  and  O10_46 
ROOT
HETATM    1  C8  UNL     1      -4.784  48.306 -27.928  1.00  0.00     0.259 C 
HETATM    2  O2  UNL     1      -4.230  48.523 -28.996  1.00  0.00    -0.265 OA
ENDROOT
BRANCH   1   3
HETATM    3  C7  UNL     1      -4.205  48.702 -26.591  1.00  0.00     0.120 C 
BRANCH   3   4
HETATM    4  C6  UNL     1      -2.685  48.664 -26.573  1.00  0.00     0.112 C 
BRANCH   4   5
HETATM    5  C5  UNL     1      -2.118  50.066 -26.617  1.00  0.00     0.218 C 
HETATM    6  N1  UNL     1      -0.817  50.164 -26.181  1.00  0.00    -0.347 N 
HETATM    7  H9  UNL     1      -0.306  49.329 -25.929  1.00  0.00     0.163 HD
HETATM    8  O1  UNL     1      -2.787  51.027 -26.981  1.00  0.00    -0.274 OA
BRANCH   6   9
HETATM    9  C4  UNL     1      -0.128  51.466 -26.110  1.00  0.00     0.179 C 
BRANCH   9  10
HETATM   10  C2  UNL     1      -0.186  52.167 -27.491  1.00  0.00     0.009 C 
HETATM   11  C1  UNL     1      -0.202  53.696 -27.385  1.00  0.00     0.012 C 
HETATM   12  C3  UNL     1       1.005  51.753 -28.368  1.00  0.00     0.012 C 
ENDBRANCH   9  10
BRANCH   9  13
HETATM   13  C30 UNL     1      -0.774  52.344 -25.005  1.00  0.00     0.240 C 
HETATM   14  O8  UNL     1      -1.602  53.216 -25.253  1.00  0.00    -0.271 OA
HETATM   15  N2  UNL     1      -0.458  51.976 -23.713  1.00  0.00    -0.359 N 
HETATM   16  H43 UNL     1       0.093  51.139 -23.587  1.00  0.00     0.162 HD
BRANCH  15  17
HETATM   17  C31 UNL     1      -1.147  52.529 -22.564  1.00  0.00     0.132 C 
BRANCH  17  18
HETATM   18  C32 UNL     1      -0.404  52.228 -21.244  1.00  0.00     0.046 C 
BRANCH  18  19
HETATM   19  C33 UNL     1       1.103  52.458 -21.430  1.00  0.00     0.120 C 
BRANCH  19  20
HETATM   20  C34 UNL     1       1.519  53.850 -21.036  1.00  0.00     0.140 C 
HETATM   21  O9  UNL     1       1.865  54.765 -21.764  1.00  0.00    -0.650 OA
BRANCH  20  22
HETATM   22  O10 UNL     1       1.446  54.034 -19.700  1.00  0.00    -0.776 OA
HETATM   23  H49 UNL     1       1.723  54.965 -19.574  1.00  0.00     0.167 HD
ENDBRANCH  20  22
ENDBRANCH  19  20
ENDBRANCH  18  19
BRANCH  18  24
HETATM   24  C35 UNL     1      -0.734  50.821 -20.751  1.00  0.00    -0.052 A 
HETATM   25  C36 UNL     1      -0.564  50.443 -19.408  1.00  0.00     0.007 A 
HETATM   26  C37 UNL     1      -0.830  49.135 -19.000  1.00  0.00     0.001 A 
HETATM   27  C38 UNL     1      -1.274  48.191 -19.922  1.00  0.00     0.000 A 
HETATM   28  C39 UNL     1      -1.460  48.554 -21.254  1.00  0.00     0.001 A 
HETATM   29  C40 UNL     1      -1.191  49.858 -21.666  1.00  0.00     0.007 A 
ENDBRANCH  18  24
ENDBRANCH  17  18
ENDBRANCH  15  17
ENDBRANCH   9  13
ENDBRANCH   6   9
ENDBRANCH   4   5
ENDBRANCH   3   4
ENDBRANCH   1   3
BRANCH   1  30
HETATM   30  O3  UNL     1      -6.001  47.719 -27.780  1.00  0.00    -0.314 OA
BRANCH  30  31
HETATM   31  C9  UNL     1      -6.399  46.894 -28.876  1.00  0.00     0.260 C 
BRANCH  31  32
HETATM   32  C10 UNL     1      -7.757  47.303 -29.430  1.00  0.00     0.185 C 
HETATM   33  O4  UNL     1      -8.786  47.260 -28.739  1.00  0.00    -0.292 OA
BRANCH  32  34
HETATM   34  C11 UNL     1      -7.865  47.776 -30.892  1.00  0.00     0.128 C 
HETATM   35  C12 UNL     1      -6.552  48.126 -31.630  1.00  0.00     0.047 C 
HETATM   36  C13 UNL     1      -6.780  47.767 -33.116  1.00  0.00     0.009 C 
HETATM   37  C14 UNL     1      -8.263  47.415 -33.201  1.00  0.00     0.002 C 
HETATM   38  C15 UNL     1      -8.760  46.598 -34.400  1.00  0.00    -0.002 C 
HETATM   39  C28 UNL     1      -8.560  46.748 -31.838  1.00  0.00     0.001 C 
HETATM   40  C16 UNL     1      -8.350  47.272 -35.729  1.00  0.00     0.010 C 
HETATM   41  C25 UNL     1     -10.318  46.439 -34.280  1.00  0.00     0.031 C 
HETATM   42  C17 UNL     1      -8.985  46.622 -36.958  1.00  0.00     0.035 C 
HETATM   43  C18 UNL     1     -10.475  46.528 -36.746  1.00  0.00    -0.068 C 
HETATM   44  C19 UNL     1     -11.315  47.258 -37.500  1.00  0.00     0.053 C 
HETATM   45  C23 UNL     1     -10.912  45.691 -35.533  1.00  0.00    -0.014 C 
HETATM   46  C20 UNL     1     -12.744  47.405 -37.132  1.00  0.00     0.149 C 
HETATM   47  O6  UNL     1     -13.503  48.017 -37.881  1.00  0.00    -0.293 OA
HETATM   48  C21 UNL     1     -13.181  46.879 -35.790  1.00  0.00     0.084 C 
HETATM   49  C22 UNL     1     -12.463  45.573 -35.501  1.00  0.00     0.022 C 
HETATM   50  C24 UNL     1     -10.391  44.239 -35.693  1.00  0.00     0.020 C 
HETATM   51  C26 UNL     1     -10.760  45.899 -32.888  1.00  0.00     0.124 C 
HETATM   52  C27 UNL     1     -10.094  46.633 -31.704  1.00  0.00     0.045 C 
HETATM   53  C29 UNL     1      -7.897  45.355 -31.681  1.00  0.00     0.019 C 
BRANCH  34  54
HETATM   54  O5  UNL     1      -8.643  48.989 -30.840  1.00  0.00    -0.381 OA
HETATM   55  H16 UNL     1      -9.301  48.868 -30.123  1.00  0.00     0.211 HD
ENDBRANCH  34  54
BRANCH  51  56
HETATM   56  O7  UNL     1     -10.526  44.503 -32.777  1.00  0.00    -0.395 OA
HETATM   57  H37 UNL     1     -10.896  44.205 -31.928  1.00  0.00     0.210 HD
ENDBRANCH  51  56
ENDBRANCH  32  34
ENDBRANCH  31  32
ENDBRANCH  30  31
ENDBRANCH   1  30
TORSDOF 18
ENDMDL
MODEL 6
REMARK minimizedAffinity -8.55385399
REMARK CNNscore 0.268715322
REMARK CNNaffinity 6.60910463
REMARK  18 active torsions:
REMARK  status: ('A' for Active; 'I' for Inactive)
REMARK    1  A    between atoms: C2_2  and  C4_4 
REMARK    2  A    between atoms: C4_4  and  N1_5 
REMARK    3  A    between atoms: C4_4  and  C30_38 
REMARK       I    between atoms: N1_5  and  C5_6 
REMARK    4  A    between atoms: C5_6  and  C6_8 
REMARK    5  A    between atoms: C6_8  and  C7_9 
REMARK    6  A    between atoms: C7_9  and  C8_10 
REMARK    7  A    between atoms: C8_10  and  O3_12 
REMARK    8  A    between atoms: O3_12  and  C9_13 
REMARK    9  A    between atoms: C9_13  and  C10_14 
REMARK   10  A    between atoms: C10_14  and  C11_16 
REMARK   11  A    between atoms: C11_16  and  O5_17 
REMARK   12  A    between atoms: C26_33  and  O7_34 
REMARK       I    between atoms: C30_38  and  N2_40 
REMARK   13  A    between atoms: N2_40  and  C31_41 
REMARK   14  A    between atoms: C31_41  and  C32_42 
REMARK   15  A    between atoms: C32_42  and  C33_43 
REMARK   16  A    between atoms: C32_42  and  C35_47 
REMARK   17  A    between atoms: C33_43  and  C34_44 
REMARK   18  A    between atoms: C34_44  and  O10_46 
ROOT
HETATM    1  C8  UNL     1       0.128  50.244 -17.139  1.00  0.00     0.259 C 
HETATM    2  O2  UNL     1      -0.079  49.062 -16.905  1.00  0.00    -0.265 OA
ENDROOT
BRANCH   1   3
HETATM    3  C7  UNL     1      -0.064  50.873 -18.499  1.00  0.00     0.120 C 
BRANCH   3   4
HETATM    4  C6  UNL     1      -1.455  51.461 -18.684  1.00  0.00     0.112 C 
BRANCH   4   5
HETATM    5  C5  UNL     1      -2.135  50.844 -19.887  1.00  0.00     0.218 C 
HETATM    6  N1  UNL     1      -1.732  49.559 -20.167  1.00  0.00    -0.347 N 
HETATM    7  H9  UNL     1      -1.086  49.087 -19.549  1.00  0.00     0.163 HD
HETATM    8  O1  UNL     1      -2.948  51.464 -20.563  1.00  0.00    -0.274 OA
BRANCH   6   9
HETATM    9  C4  UNL     1      -2.257  48.828 -21.335  1.00  0.00     0.179 C 
BRANCH   9  10
HETATM   10  C2  UNL     1      -3.667  48.270 -21.016  1.00  0.00     0.009 C 
HETATM   11  C1  UNL     1      -3.859  47.946 -19.530  1.00  0.00     0.012 C 
HETATM   12  C3  UNL     1      -4.760  49.261 -21.443  1.00  0.00     0.012 C 
ENDBRANCH   9  10
BRANCH   9  13
HETATM   13  C30 UNL     1      -2.289  49.765 -22.572  1.00  0.00     0.240 C 
HETATM   14  O8  UNL     1      -3.305  49.947 -23.238  1.00  0.00    -0.271 OA
HETATM   15  N2  UNL     1      -1.133  50.489 -22.782  1.00  0.00    -0.359 N 
HETATM   16  H43 UNL     1      -0.403  50.414 -22.088  1.00  0.00     0.162 HD
BRANCH  15  17
HETATM   17  C31 UNL     1      -1.067  51.576 -23.739  1.00  0.00     0.132 C 
BRANCH  17  18
HETATM   18  C32 UNL     1       0.385  52.036 -23.991  1.00  0.00     0.046 C 
BRANCH  18  19
HETATM   19  C33 UNL     1       0.580  53.463 -23.456  1.00  0.00     0.120 C 
BRANCH  19  20
HETATM   20  C34 UNL     1       1.170  53.476 -22.072  1.00  0.00     0.140 C 
HETATM   21  O9  UNL     1       1.599  54.432 -21.447  1.00  0.00    -0.650 OA
BRANCH  20  22
HETATM   22  O10 UNL     1       1.162  52.247 -21.513  1.00  0.00    -0.776 OA
HETATM   23  H49 UNL     1       1.551  52.388 -20.625  1.00  0.00     0.167 HD
ENDBRANCH  20  22
ENDBRANCH  19  20
ENDBRANCH  18  19
BRANCH  18  24
HETATM   24  C35 UNL     1       0.743  51.901 -25.469  1.00  0.00    -0.052 A 
HETATM   25  C36 UNL     1       2.070  51.750 -25.903  1.00  0.00     0.007 A 
HETATM   26  C37 UNL     1       2.367  51.677 -27.266  1.00  0.00     0.001 A 
HETATM   27  C38 UNL     1       1.345  51.747 -28.209  1.00  0.00     0.000 A 
HETATM   28  C39 UNL     1       0.023  51.883 -27.793  1.00  0.00     0.001 A 
HETATM   29  C40 UNL     1      -0.277  51.962 -26.433  1.00  0.00     0.007 A 
ENDBRANCH  18  24
ENDBRANCH  17  18
ENDBRANCH  15  17
ENDBRANCH   9  13
ENDBRANCH   6   9
ENDBRANCH   4   5
ENDBRANCH   3   4
ENDBRANCH   1   3
BRANCH   1  30
HETATM   30  O3  UNL     1       0.518  51.169 -16.223  1.00  0.00    -0.314 OA
BRANCH  30  31
HETATM   31  C9  UNL     1       1.096  50.622 -15.037  1.00  0.00     0.260 C 
BRANCH  31  32
HETATM   32  C10 UNL     1       0.099  50.583 -13.886  1.00  0.00     0.185 C 
HETATM   33  O4  UNL     1      -0.511  49.547 -13.583  1.00  0.00    -0.292 OA
BRANCH  32  34
HETATM   34  C11 UNL     1      -0.171  51.865 -13.077  1.00  0.00     0.128 C 
HETATM   35  C12 UNL     1      -1.639  52.182 -12.707  1.00  0.00     0.047 C 
HETATM   36  C13 UNL     1      -1.596  52.913 -11.346  1.00  0.00     0.009 C 
HETATM   37  C14 UNL     1      -0.112  53.156 -11.089  1.00  0.00     0.002 C 
HETATM   38  C15 UNL     1       0.350  53.458  -9.658  1.00  0.00    -0.002 C 
HETATM   39  C28 UNL     1       0.575  51.917 -11.708  1.00  0.00     0.001 C 
HETATM   40  C16 UNL     1      -0.440  54.648  -9.067  1.00  0.00     0.010 C 
HETATM   41  C25 UNL     1       1.896  53.736  -9.684  1.00  0.00     0.031 C 
HETATM   42  C17 UNL     1       0.107  55.130  -7.724  1.00  0.00     0.035 C 
HETATM   43  C18 UNL     1       1.589  55.378  -7.861  1.00  0.00    -0.068 C 
HETATM   44  C19 UNL     1       2.078  56.627  -7.775  1.00  0.00     0.053 C 
HETATM   45  C23 UNL     1       2.424  54.150  -8.259  1.00  0.00    -0.014 C 
HETATM   46  C20 UNL     1       3.470  56.935  -8.185  1.00  0.00     0.149 C 
HETATM   47  O6  UNL     1       3.912  58.070  -8.026  1.00  0.00    -0.293 OA
HETATM   48  C21 UNL     1       4.252  55.852  -8.882  1.00  0.00     0.084 C 
HETATM   49  C22 UNL     1       3.937  54.511  -8.244  1.00  0.00     0.022 C 
HETATM   50  C24 UNL     1       2.254  53.041  -7.188  1.00  0.00     0.020 C 
HETATM   51  C26 UNL     1       2.695  52.614 -10.409  1.00  0.00     0.124 C 
HETATM   52  C27 UNL     1       2.089  52.211 -11.772  1.00  0.00     0.045 C 
HETATM   53  C29 UNL     1       0.310  50.611 -10.914  1.00  0.00     0.019 C 
BRANCH  34  54
HETATM   54  O5  UNL     1       0.283  52.946 -13.917  1.00  0.00    -0.381 OA
HETATM   55  H16 UNL     1       1.066  52.611 -14.402  1.00  0.00     0.211 HD
ENDBRANCH  34  54
BRANCH  51  56
HETATM   56  O7  UNL     1       2.832  51.464  -9.589  1.00  0.00    -0.395 OA
HETATM   57  H37 UNL     1       3.408  50.833 -10.055  1.00  0.00     0.210 HD
ENDBRANCH  51  56
ENDBRANCH  32  34
ENDBRANCH  31  32
ENDBRANCH  30  31
ENDBRANCH   1  30
TORSDOF 18
ENDMDL
MODEL 7
REMARK minimizedAffinity -9.72392654
REMARK CNNscore 0.26023525
REMARK CNNaffinity 7.46185827
REMARK  18 active torsions:
REMARK  status: ('A' for Active; 'I' for Inactive)
REMARK    1  A    between atoms: C2_2  and  C4_4 
REMARK    2  A    between atoms: C4_4  and  N1_5 
REMARK    3  A    between atoms: C4_4  and  C30_38 
REMARK       I    between atoms: N1_5  and  C5_6 
REMARK    4  A    between atoms: C5_6  and  C6_8 
REMARK    5  A    between atoms: C6_8  and  C7_9 
REMARK    6  A    between atoms: C7_9  and  C8_10 
REMARK    7  A    between atoms: C8_10  and  O3_12 
REMARK    8  A    between atoms: O3_12  and  C9_13 
REMARK    9  A    between atoms: C9_13  and  C10_14 
REMARK   10  A    between atoms: C10_14  and  C11_16 
REMARK   11  A    between atoms: C11_16  and  O5_17 
REMARK   12  A    between atoms: C26_33  and  O7_34 
REMARK       I    between atoms: C30_38  and  N2_40 
REMARK   13  A    between atoms: N2_40  and  C31_41 
REMARK   14  A    between atoms: C31_41  and  C32_42 
REMARK   15  A    between atoms: C32_42  and  C33_43 
REMARK   16  A    between atoms: C32_42  and  C35_47 
REMARK   17  A    between atoms: C33_43  and  C34_44 
REMARK   18  A    between atoms: C34_44  and  O10_46 
ROOT
HETATM    1  C8  UNL     1      -6.249  49.901 -20.945  1.00  0.00     0.259 C 
HETATM    2  O2  UNL     1      -6.037  51.016 -21.400  1.00  0.00    -0.265 OA
ENDROOT
BRANCH   1   3
HETATM    3  C7  UNL     1      -7.271  48.947 -21.517  1.00  0.00     0.120 C 
BRANCH   3   4
HETATM    4  C6  UNL     1      -7.200  48.848 -23.033  1.00  0.00     0.112 C 
BRANCH   4   5
HETATM    5  C5  UNL     1      -5.764  48.702 -23.488  1.00  0.00     0.218 C 
HETATM    6  N1  UNL     1      -5.340  49.693 -24.343  1.00  0.00    -0.347 N 
HETATM    7  H9  UNL     1      -5.952  50.467 -24.561  1.00  0.00     0.163 HD
HETATM    8  O1  UNL     1      -5.065  47.757 -23.142  1.00  0.00    -0.274 OA
BRANCH   6   9
HETATM    9  C4  UNL     1      -3.984  49.677 -24.923  1.00  0.00     0.179 C 
BRANCH   9  10
HETATM   10  C2  UNL     1      -4.038  49.123 -26.369  1.00  0.00     0.009 C 
HETATM   11  C1  UNL     1      -2.728  48.457 -26.805  1.00  0.00     0.012 C 
HETATM   12  C3  UNL     1      -5.177  48.103 -26.526  1.00  0.00     0.012 C 
ENDBRANCH   9  10
BRANCH   9  13
HETATM   13  C30 UNL     1      -3.380  51.106 -24.889  1.00  0.00     0.240 C 
HETATM   14  O8  UNL     1      -4.024  52.103 -25.206  1.00  0.00    -0.271 OA
HETATM   15  N2  UNL     1      -2.116  51.190 -24.343  1.00  0.00    -0.359 N 
HETATM   16  H43 UNL     1      -1.722  50.349 -23.946  1.00  0.00     0.162 HD
BRANCH  15  17
HETATM   17  C31 UNL     1      -1.499  52.460 -24.019  1.00  0.00     0.132 C 
BRANCH  17  18
HETATM   18  C32 UNL     1       0.042  52.390 -24.094  1.00  0.00     0.046 C 
BRANCH  18  19
HETATM   19  C33 UNL     1       0.653  53.661 -23.485  1.00  0.00     0.120 C 
BRANCH  19  20
HETATM   20  C34 UNL     1       1.196  53.425 -22.102  1.00  0.00     0.140 C 
HETATM   21  O9  UNL     1       1.526  54.257 -21.273  1.00  0.00    -0.650 OA
BRANCH  20  22
HETATM   22  O10 UNL     1       1.269  52.108 -21.811  1.00  0.00    -0.776 OA
HETATM   23  H49 UNL     1       1.617  52.087 -20.896  1.00  0.00     0.167 HD
ENDBRANCH  20  22
ENDBRANCH  19  20
ENDBRANCH  18  19
BRANCH  18  24
HETATM   24  C35 UNL     1       0.499  52.140 -25.530  1.00  0.00    -0.052 A 
HETATM   25  C36 UNL     1       1.820  51.777 -25.839  1.00  0.00     0.007 A 
HETATM   26  C37 UNL     1       2.216  51.603 -27.166  1.00  0.00     0.001 A 
HETATM   27  C38 UNL     1       1.299  51.780 -28.198  1.00  0.00     0.000 A 
HETATM   28  C39 UNL     1      -0.018  52.125 -27.907  1.00  0.00     0.001 A 
HETATM   29  C40 UNL     1      -0.416  52.306 -26.583  1.00  0.00     0.007 A 
ENDBRANCH  18  24
ENDBRANCH  17  18
ENDBRANCH  15  17
ENDBRANCH   9  13
ENDBRANCH   6   9
ENDBRANCH   4   5
ENDBRANCH   3   4
ENDBRANCH   1   3
BRANCH   1  30
HETATM   30  O3  UNL     1      -5.588  49.340 -19.899  1.00  0.00    -0.314 OA
BRANCH  30  31
HETATM   31  C9  UNL     1      -4.274  48.875 -20.210  1.00  0.00     0.260 C 
BRANCH  31  32
HETATM   32  C10 UNL     1      -3.450  48.622 -18.955  1.00  0.00     0.185 C 
HETATM   33  O4  UNL     1      -3.907  47.998 -17.986  1.00  0.00    -0.292 OA
BRANCH  32  34
HETATM   34  C11 UNL     1      -2.009  49.161 -18.875  1.00  0.00     0.128 C 
HETATM   35  C12 UNL     1      -1.584  50.224 -19.915  1.00  0.00     0.047 C 
HETATM   36  C13 UNL     1      -0.558  51.137 -19.207  1.00  0.00     0.009 C 
HETATM   37  C14 UNL     1      -0.293  50.452 -17.870  1.00  0.00     0.002 C 
HETATM   38  C15 UNL     1       0.323  51.272 -16.730  1.00  0.00    -0.002 C 
HETATM   39  C28 UNL     1      -1.657  49.820 -17.505  1.00  0.00     0.001 C 
HETATM   40  C16 UNL     1       1.634  51.949 -17.189  1.00  0.00     0.010 C 
HETATM   41  C25 UNL     1       0.555  50.318 -15.502  1.00  0.00     0.031 C 
HETATM   42  C17 UNL     1       2.404  52.613 -16.048  1.00  0.00     0.035 C 
HETATM   43  C18 UNL     1       2.582  51.614 -14.932  1.00  0.00    -0.068 C 
HETATM   44  C19 UNL     1       3.806  51.151 -14.625  1.00  0.00     0.053 C 
HETATM   45  C23 UNL     1       1.278  51.072 -14.323  1.00  0.00    -0.014 C 
HETATM   46  C20 UNL     1       3.981  49.972 -13.741  1.00  0.00     0.149 C 
HETATM   47  O6  UNL     1       5.112  49.619 -13.419  1.00  0.00    -0.293 OA
HETATM   48  C21 UNL     1       2.749  49.193 -13.360  1.00  0.00     0.084 C 
HETATM   49  C22 UNL     1       1.600  50.154 -13.111  1.00  0.00     0.022 C 
HETATM   50  C24 UNL     1       0.452  52.250 -13.742  1.00  0.00     0.020 C 
HETATM   51  C26 UNL     1      -0.722  49.514 -15.118  1.00  0.00     0.124 C 
HETATM   52  C27 UNL     1      -1.418  48.851 -16.328  1.00  0.00     0.045 C 
HETATM   53  C29 UNL     1      -2.736  50.870 -17.133  1.00  0.00     0.019 C 
BRANCH  34  54
HETATM   54  O5  UNL     1      -1.163  48.013 -19.091  1.00  0.00    -0.381 OA
HETATM   55  H16 UNL     1      -1.618  47.250 -18.677  1.00  0.00     0.211 HD
ENDBRANCH  34  54
BRANCH  51  56
HETATM   56  O7  UNL     1      -1.652  50.325 -14.418  1.00  0.00    -0.395 OA
HETATM   57  H37 UNL     1      -2.387  49.755 -14.129  1.00  0.00     0.210 HD
ENDBRANCH  51  56
ENDBRANCH  32  34
ENDBRANCH  31  32
ENDBRANCH  30  31
ENDBRANCH   1  30
TORSDOF 18
ENDMDL
MODEL 8
REMARK minimizedAffinity -9.64313602
REMARK CNNscore 0.259096473
REMARK CNNaffinity 6.44348526
REMARK  18 active torsions:
REMARK  status: ('A' for Active; 'I' for Inactive)
REMARK    1  A    between atoms: C2_2  and  C4_4 
REMARK    2  A    between atoms: C4_4  and  N1_5 
REMARK    3  A    between atoms: C4_4  and  C30_38 
REMARK       I    between atoms: N1_5  and  C5_6 
REMARK    4  A    between atoms: C5_6  and  C6_8 
REMARK    5  A    between atoms: C6_8  and  C7_9 
REMARK    6  A    between atoms: C7_9  and  C8_10 
REMARK    7  A    between atoms: C8_10  and  O3_12 
REMARK    8  A    between atoms: O3_12  and  C9_13 
REMARK    9  A    between atoms: C9_13  and  C10_14 
REMARK   10  A    between atoms: C10_14  and  C11_16 
REMARK   11  A    between atoms: C11_16  and  O5_17 
REMARK   12  A    between atoms: C26_33  and  O7_34 
REMARK       I    between atoms: C30_38  and  N2_40 
REMARK   13  A    between atoms: N2_40  and  C31_41 
REMARK   14  A    between atoms: C31_41  and  C32_42 
REMARK   15  A    between atoms: C32_42  and  C33_43 
REMARK   16  A    between atoms: C32_42  and  C35_47 
REMARK   17  A    between atoms: C33_43  and  C34_44 
REMARK   18  A    between atoms: C34_44  and  O10_46 
ROOT
HETATM    1  C8  UNL     1      -8.090  48.121 -23.405  1.00  0.00     0.259 C 
HETATM    2  O2  UNL     1      -7.533  47.332 -22.655  1.00  0.00    -0.265 OA
ENDROOT
BRANCH   1   3
HETATM    3  C7  UNL     1      -7.531  49.482 -23.748  1.00  0.00     0.120 C 
BRANCH   3   4
HETATM    4  C6  UNL     1      -6.751  50.105 -22.600  1.00  0.00     0.112 C 
BRANCH   4   5
HETATM    5  C5  UNL     1      -5.263  49.934 -22.816  1.00  0.00     0.218 C 
HETATM    6  N1  UNL     1      -4.834  50.261 -24.080  1.00  0.00    -0.347 N 
HETATM    7  H9  UNL     1      -5.487  50.646 -24.751  1.00  0.00     0.163 HD
HETATM    8  O1  UNL     1      -4.524  49.506 -21.936  1.00  0.00    -0.274 OA
BRANCH   6   9
HETATM    9  C4  UNL     1      -3.422  50.105 -24.476  1.00  0.00     0.179 C 
BRANCH   9  10
HETATM   10  C2  UNL     1      -3.265  48.852 -25.376  1.00  0.00     0.009 C 
HETATM   11  C1  UNL     1      -4.600  48.348 -25.937  1.00  0.00     0.012 C 
HETATM   12  C3  UNL     1      -2.319  49.136 -26.553  1.00  0.00     0.012 C 
ENDBRANCH   9  10
BRANCH   9  13
HETATM   13  C30 UNL     1      -2.935  51.386 -25.204  1.00  0.00     0.240 C 
HETATM   14  O8  UNL     1      -3.704  52.266 -25.582  1.00  0.00    -0.271 OA
HETATM   15  N2  UNL     1      -1.564  51.531 -25.267  1.00  0.00    -0.359 N 
HETATM   16  H43 UNL     1      -0.999  50.850 -24.780  1.00  0.00     0.162 HD
BRANCH  15  17
HETATM   17  C31 UNL     1      -0.939  52.766 -25.697  1.00  0.00     0.132 C 
BRANCH  17  18
HETATM   18  C32 UNL     1       0.561  52.812 -25.331  1.00  0.00     0.046 C 
BRANCH  18  19
HETATM   19  C33 UNL     1       1.250  51.520 -25.792  1.00  0.00     0.120 C 
BRANCH  19  20
HETATM   20  C34 UNL     1       1.876  51.662 -27.153  1.00  0.00     0.140 C 
HETATM   21  O9  UNL     1       1.333  51.971 -28.201  1.00  0.00    -0.650 OA
BRANCH  20  22
HETATM   22  O10 UNL     1       3.205  51.428 -27.119  1.00  0.00    -0.776 OA
HETATM   23  H49 UNL     1       3.493  51.563 -28.045  1.00  0.00     0.167 HD
ENDBRANCH  20  22
ENDBRANCH  19  20
ENDBRANCH  18  19
BRANCH  18  24
HETATM   24  C35 UNL     1       0.742  53.083 -23.839  1.00  0.00    -0.052 A 
HETATM   25  C36 UNL     1       0.359  52.151 -22.861  1.00  0.00     0.007 A 
HETATM   26  C37 UNL     1       0.494  52.451 -21.504  1.00  0.00     0.001 A 
HETATM   27  C38 UNL     1       1.019  53.678 -21.107  1.00  0.00     0.000 A 
HETATM   28  C39 UNL     1       1.417  54.606 -22.066  1.00  0.00     0.001 A 
HETATM   29  C40 UNL     1       1.278  54.313 -23.422  1.00  0.00     0.007 A 
ENDBRANCH  18  24
ENDBRANCH  17  18
ENDBRANCH  15  17
ENDBRANCH   9  13
ENDBRANCH   6   9
ENDBRANCH   4   5
ENDBRANCH   3   4
ENDBRANCH   1   3
BRANCH   1  30
HETATM   30  O3  UNL     1      -9.255  47.890 -24.065  1.00  0.00    -0.314 OA
BRANCH  30  31
HETATM   31  C9  UNL     1      -9.439  48.681 -25.239  1.00  0.00     0.260 C 
BRANCH  31  32
HETATM   32  C10 UNL     1      -9.633  47.819 -26.479  1.00  0.00     0.185 C 
HETATM   33  O4  UNL     1      -8.691  47.213 -27.010  1.00  0.00    -0.292 OA
BRANCH  32  34
HETATM   34  C11 UNL     1     -11.036  47.698 -27.103  1.00  0.00     0.128 C 
HETATM   35  C12 UNL     1     -11.123  47.395 -28.617  1.00  0.00     0.047 C 
HETATM   36  C13 UNL     1     -12.405  46.556 -28.820  1.00  0.00     0.009 C 
HETATM   37  C14 UNL     1     -13.096  46.579 -27.460  1.00  0.00     0.002 C 
HETATM   38  C15 UNL     1     -14.153  45.511 -27.151  1.00  0.00    -0.002 C 
HETATM   39  C28 UNL     1     -11.923  46.591 -26.452  1.00  0.00     0.001 C 
HETATM   40  C16 UNL     1     -15.246  45.491 -28.243  1.00  0.00     0.010 C 
HETATM   41  C25 UNL     1     -14.753  45.804 -25.728  1.00  0.00     0.031 C 
HETATM   42  C17 UNL     1     -16.434  44.595 -27.895  1.00  0.00     0.035 C 
HETATM   43  C18 UNL     1     -16.939  44.964 -26.523  1.00  0.00    -0.068 C 
HETATM   44  C19 UNL     1     -18.150  45.528 -26.374  1.00  0.00     0.053 C 
HETATM   45  C23 UNL     1     -15.918  44.801 -25.384  1.00  0.00    -0.014 C 
HETATM   46  C20 UNL     1     -18.551  46.156 -25.092  1.00  0.00     0.149 C 
HETATM   47  O6  UNL     1     -19.691  46.597 -24.963  1.00  0.00    -0.293 OA
HETATM   48  C21 UNL     1     -17.495  46.320 -24.030  1.00  0.00     0.084 C 
HETATM   49  C22 UNL     1     -16.599  45.095 -24.017  1.00  0.00     0.022 C 
HETATM   50  C24 UNL     1     -15.460  43.321 -25.309  1.00  0.00     0.020 C 
HETATM   51  C26 UNL     1     -13.654  45.975 -24.639  1.00  0.00     0.124 C 
HETATM   52  C27 UNL     1     -12.509  46.921 -25.063  1.00  0.00     0.045 C 
HETATM   53  C29 UNL     1     -11.143  45.251 -26.406  1.00  0.00     0.019 C 
BRANCH  34  54
HETATM   54  O5  UNL     1     -11.651  48.987 -26.907  1.00  0.00    -0.381 OA
HETATM   55  H16 UNL     1     -11.327  49.322 -26.044  1.00  0.00     0.211 HD
ENDBRANCH  34  54
BRANCH  51  56
HETATM   56  O7  UNL     1     -13.116  44.722 -24.245  1.00  0.00    -0.395 OA
HETATM   57  H37 UNL     1     -12.501  44.880 -23.507  1.00  0.00     0.210 HD
ENDBRANCH  51  56
ENDBRANCH  32  34
ENDBRANCH  31  32
ENDBRANCH  30  31
ENDBRANCH   1  30
TORSDOF 18
ENDMDL
MODEL 9
REMARK minimizedAffinity -8.49399471
REMARK CNNscore 0.237946883
REMARK CNNaffinity 6.69997931
REMARK  18 active torsions:
REMARK  status: ('A' for Active; 'I' for Inactive)
REMARK    1  A    between atoms: C2_2  and  C4_4 
REMARK    2  A    between atoms: C4_4  and  N1_5 
REMARK    3  A    between atoms: C4_4  and  C30_38 
REMARK       I    between atoms: N1_5  and  C5_6 
REMARK    4  A    between atoms: C5_6  and  C6_8 
REMARK    5  A    between atoms: C6_8  and  C7_9 
REMARK    6  A    between atoms: C7_9  and  C8_10 
REMARK    7  A    between atoms: C8_10  and  O3_12 
REMARK    8  A    between atoms: O3_12  and  C9_13 
REMARK    9  A    between atoms: C9_13  and  C10_14 
REMARK   10  A    between atoms: C10_14  and  C11_16 
REMARK   11  A    between atoms: C11_16  and  O5_17 
REMARK   12  A    between atoms: C26_33  and  O7_34 
REMARK       I    between atoms: C30_38  and  N2_40 
REMARK   13  A    between atoms: N2_40  and  C31_41 
REMARK   14  A    between atoms: C31_41  and  C32_42 
REMARK   15  A    between atoms: C32_42  and  C33_43 
REMARK   16  A    between atoms: C32_42  and  C35_47 
REMARK   17  A    between atoms: C33_43  and  C34_44 
REMARK   18  A    between atoms: C34_44  and  O10_46 
ROOT
HETATM    1  C8  UNL     1      -8.071  45.479 -27.437  1.00  0.00     0.259 C 
HETATM    2  O2  UNL     1      -7.660  44.362 -27.717  1.00  0.00    -0.265 OA
ENDROOT
BRANCH   1   3
HETATM    3  C7  UNL     1      -7.963  46.087 -26.059  1.00  0.00     0.120 C 
BRANCH   3   4
HETATM    4  C6  UNL     1      -8.554  47.487 -25.985  1.00  0.00     0.112 C 
BRANCH   4   5
HETATM    5  C5  UNL     1      -7.672  48.392 -25.152  1.00  0.00     0.218 C 
HETATM    6  N1  UNL     1      -6.329  48.113 -25.246  1.00  0.00    -0.347 N 
HETATM    7  H9  UNL     1      -6.005  47.400 -25.885  1.00  0.00     0.163 HD
HETATM    8  O1  UNL     1      -8.136  49.271 -24.434  1.00  0.00    -0.274 OA
BRANCH   6   9
HETATM    9  C4  UNL     1      -5.333  48.865 -24.460  1.00  0.00     0.179 C 
BRANCH   9  10
HETATM   10  C2  UNL     1      -5.076  48.145 -23.111  1.00  0.00     0.009 C 
HETATM   11  C1  UNL     1      -3.597  48.143 -22.707  1.00  0.00     0.012 C 
HETATM   12  C3  UNL     1      -5.889  48.792 -21.979  1.00  0.00     0.012 C 
ENDBRANCH   9  10
BRANCH   9  13
HETATM   13  C30 UNL     1      -4.021  49.014 -25.277  1.00  0.00     0.240 C 
HETATM   14  O8  UNL     1      -3.558  48.102 -25.957  1.00  0.00    -0.271 OA
HETATM   15  N2  UNL     1      -3.492  50.288 -25.298  1.00  0.00    -0.359 N 
HETATM   16  H43 UNL     1      -4.026  51.023 -24.857  1.00  0.00     0.162 HD
BRANCH  15  17
HETATM   17  C31 UNL     1      -2.414  50.660 -26.192  1.00  0.00     0.132 C 
BRANCH  17  18
HETATM   18  C32 UNL     1      -1.214  51.264 -25.430  1.00  0.00     0.046 C 
BRANCH  18  19
HETATM   19  C33 UNL     1      -1.638  52.566 -24.736  1.00  0.00     0.120 C 
BRANCH  19  20
HETATM   20  C34 UNL     1      -0.462  53.442 -24.400  1.00  0.00     0.140 C 
HETATM   21  O9  UNL     1      -0.050  54.414 -25.010  1.00  0.00    -0.650 OA
BRANCH  20  22
HETATM   22  O10 UNL     1       0.140  53.053 -23.255  1.00  0.00    -0.776 OA
HETATM   23  H49 UNL     1       0.868  53.698 -23.140  1.00  0.00     0.167 HD
ENDBRANCH  20  22
ENDBRANCH  19  20
ENDBRANCH  18  19
BRANCH  18  24
HETATM   24  C35 UNL     1      -0.022  51.450 -26.366  1.00  0.00    -0.052 A 
HETATM   25  C36 UNL     1      -0.182  51.817 -27.713  1.00  0.00     0.007 A 
HETATM   26  C37 UNL     1       0.926  51.932 -28.554  1.00  0.00     0.001 A 
HETATM   27  C38 UNL     1       2.205  51.690 -28.062  1.00  0.00     0.000 A 
HETATM   28  C39 UNL     1       2.382  51.339 -26.725  1.00  0.00     0.001 A 
HETATM   29  C40 UNL     1       1.276  51.218 -25.884  1.00  0.00     0.007 A 
ENDBRANCH  18  24
ENDBRANCH  17  18
ENDBRANCH  15  17
ENDBRANCH   9  13
ENDBRANCH   6   9
ENDBRANCH   4   5
ENDBRANCH   3   4
ENDBRANCH   1   3
BRANCH   1  30
HETATM   30  O3  UNL     1      -8.644  46.347 -28.311  1.00  0.00    -0.314 OA
BRANCH  30  31
HETATM   31  C9  UNL     1      -7.844  46.651 -29.455  1.00  0.00     0.260 C 
BRANCH  31  32
HETATM   32  C10 UNL     1      -8.459  46.108 -30.738  1.00  0.00     0.185 C 
HETATM   33  O4  UNL     1      -9.035  45.011 -30.775  1.00  0.00    -0.292 OA
BRANCH  32  34
HETATM   34  C11 UNL     1      -8.360  46.936 -32.033  1.00  0.00     0.128 C 
HETATM   35  C12 UNL     1      -6.955  47.403 -32.478  1.00  0.00     0.047 C 
HETATM   36  C13 UNL     1      -6.977  47.438 -34.022  1.00  0.00     0.009 C 
HETATM   37  C14 UNL     1      -8.436  47.182 -34.389  1.00  0.00     0.002 C 
HETATM   38  C15 UNL     1      -8.768  46.713 -35.812  1.00  0.00    -0.002 C 
HETATM   39  C28 UNL     1      -8.925  46.208 -33.292  1.00  0.00     0.001 C 
HETATM   40  C16 UNL     1      -8.173  47.680 -36.860  1.00  0.00     0.010 C 
HETATM   41  C25 UNL     1     -10.330  46.595 -35.943  1.00  0.00     0.031 C 
HETATM   42  C17 UNL     1      -8.636  47.386 -38.286  1.00  0.00     0.035 C 
HETATM   43  C18 UNL     1     -10.143  47.306 -38.304  1.00  0.00    -0.068 C 
HETATM   44  C19 UNL     1     -10.864  48.237 -38.952  1.00  0.00     0.053 C 
HETATM   45  C23 UNL     1     -10.750  46.211 -37.412  1.00  0.00    -0.014 C 
HETATM   46  C20 UNL     1     -12.329  48.347 -38.752  1.00  0.00     0.149 C 
HETATM   47  O6  UNL     1     -12.972  49.159 -39.413  1.00  0.00    -0.293 OA
HETATM   48  C21 UNL     1     -12.952  47.521 -37.656  1.00  0.00     0.084 C 
HETATM   49  C22 UNL     1     -12.291  46.155 -37.616  1.00  0.00     0.022 C 
HETATM   50  C24 UNL     1     -10.223  44.824 -37.865  1.00  0.00     0.020 C 
HETATM   51  C26 UNL     1     -10.965  45.743 -34.805  1.00  0.00     0.124 C 
HETATM   52  C27 UNL     1     -10.463  46.128 -33.396  1.00  0.00     0.045 C 
HETATM   53  C29 UNL     1      -8.300  44.793 -33.407  1.00  0.00     0.019 C 
BRANCH  34  54
HETATM   54  O5  UNL     1      -9.128  48.130 -31.778  1.00  0.00    -0.381 OA
HETATM   55  H16 UNL     1      -9.880  47.861 -31.209  1.00  0.00     0.211 HD
ENDBRANCH  34  54
BRANCH  51  56
HETATM   56  O7  UNL     1     -10.759  44.356 -35.022  1.00  0.00    -0.395 OA
HETATM   57  H37 UNL     1     -11.246  43.871 -34.333  1.00  0.00     0.210 HD
ENDBRANCH  51  56
ENDBRANCH  32  34
ENDBRANCH  31  32
ENDBRANCH  30  31
ENDBRANCH   1  30
TORSDOF 18
ENDMDL
