MODEL 1
REMARK minimizedAffinity -8.01205635
REMARK  12 active torsions:
REMARK  status: ('A' for Active; 'I' for Inactive)
REMARK    1  A    between atoms: O1_2  and  C2_3 
REMARK    2  A    between atoms: C3_6  and  C4_7 
REMARK    3  A    between atoms: C4_7  and  C5_8 
REMARK    4  A    between atoms: C6_9  and  C8_11 
REMARK    5  A    between atoms: C8_11  and  C9_12 
REMARK    6  A    between atoms: C10_13  and  C11_14 
REMARK    7  A    between atoms: C13_16  and  C14_17 
REMARK    8  A    between atoms: C14_17  and  C16_19 
REMARK    9  A    between atoms: C16_19  and  O2_20 
REMARK   10  A    between atoms: C16_19  and  C18_22 
REMARK   11  A    between atoms: C24_29  and  O4_30 
REMARK   12  A    between atoms: C25_31  and  O5_32 
ROOT
HETATM    1  C5  UNL     1       0.106  51.854 -24.662  1.00  0.00    -0.018 C 
HETATM    2  C6  UNL     1      -0.889  51.613 -25.542  1.00  0.00    -0.084 C 
HETATM    3  C7  UNL     1      -2.140  52.443 -25.661  1.00  0.00     0.043 C 
ENDROOT
BRANCH   2   4
HETATM    4  C8  UNL     1      -0.828  50.410 -26.465  1.00  0.00     0.060 C 
BRANCH   4   5
HETATM    5  C9  UNL     1      -2.200  49.914 -26.836  1.00  0.00    -0.022 C 
HETATM    6  C10 UNL     1      -2.844  48.948 -26.159  1.00  0.00     0.003 C 
BRANCH   6   7
HETATM    7  C11 UNL     1      -4.181  48.421 -26.443  1.00  0.00    -0.066 C 
HETATM    8  C12 UNL     1      -5.100  48.202 -25.271  1.00  0.00     0.048 C 
HETATM    9  C13 UNL     1      -4.506  48.177 -27.732  1.00  0.00    -0.013 C 
BRANCH   9  10
HETATM   10  C14 UNL     1      -5.782  47.613 -28.350  1.00  0.00     0.037 C 
HETATM   11  C15 UNL     1      -6.951  47.626 -27.359  1.00  0.00     0.017 C 
BRANCH  10  12
HETATM   12  C16 UNL     1      -6.091  48.249 -29.736  1.00  0.00     0.165 C 
BRANCH  12  13
HETATM   13  O2  UNL     1      -4.899  48.132 -30.541  1.00  0.00    -0.387 OA
HETATM   14  C17 UNL     1      -4.876  46.945 -31.322  1.00  0.00     0.202 C 
ENDBRANCH  12  13
BRANCH  12  15
HETATM   15  C18 UNL     1      -7.225  47.573 -30.492  1.00  0.00     0.110 A 
HETATM   16  C19 UNL     1      -7.301  46.075 -30.450  1.00  0.00     0.051 C 
HETATM   17  O3  UNL     1      -8.498  48.238 -30.388  1.00  0.00    -0.367 OA
HETATM   18  C20 UNL     1      -7.848  48.335 -31.658  1.00  0.00     0.155 A 
HETATM   19  C21 UNL     1      -8.573  47.679 -32.777  1.00  0.00     0.042 C 
ENDBRANCH  12  15
ENDBRANCH  10  12
ENDBRANCH   9  10
ENDBRANCH   6   7
ENDBRANCH   4   5
ENDBRANCH   2   4
BRANCH   1  20
HETATM   20  C4  UNL     1       0.226  52.989 -23.672  1.00  0.00     0.085 C 
BRANCH  20  21
HETATM   21  C3  UNL     1      -0.052  52.601 -22.226  1.00  0.00     0.023 A 
HETATM   22  N1  UNL     1      -0.978  51.622 -22.025  1.00  0.00    -0.337 N 
HETATM   23  C2  UNL     1      -1.269  51.251 -20.757  1.00  0.00     0.179 A 
ATOM     24  H1  UNL     1      -1.444  51.177 -22.816  1.00  0.00     0.168 HD
HETATM   25  C25 UNL     1      -0.636  51.792 -19.647  1.00  0.00     0.153 A 
HETATM   26  C24 UNL     1       0.309  52.791 -19.875  1.00  0.00     0.111 A 
HETATM   27  C22 UNL     1       0.652  53.196 -21.167  1.00  0.00    -0.003 A 
HETATM   28  C23 UNL     1       1.678  54.271 -21.384  1.00  0.00     0.053 C 
BRANCH  23  29
HETATM   29  O1  UNL     1      -2.257  50.311 -20.552  1.00  0.00    -0.339 OA
HETATM   30  C1  UNL     1      -3.570  50.815 -20.771  1.00  0.00     0.211 C 
ENDBRANCH  23  29
BRANCH  25  31
HETATM   31  O5  UNL     1      -0.898  51.477 -18.338  1.00  0.00    -0.349 OA
HETATM   32  C26 UNL     1      -0.140  50.350 -17.896  1.00  0.00     0.210 C 
ENDBRANCH  25  31
BRANCH  26  33
HETATM   33  O4  UNL     1       0.920  53.382 -18.796  1.00  0.00    -0.357 OA
HETATM   34  H36 UNL     1       0.444  53.046 -18.009  1.00  0.00     0.217 HD
ENDBRANCH  26  33
ENDBRANCH  20  21
ENDBRANCH   1  20
TORSDOF 12
ENDMDL
MODEL 2
REMARK minimizedAffinity -7.91441393
REMARK  12 active torsions:
REMARK  status: ('A' for Active; 'I' for Inactive)
REMARK    1  A    between atoms: O1_2  and  C2_3 
REMARK    2  A    between atoms: C3_6  and  C4_7 
REMARK    3  A    between atoms: C4_7  and  C5_8 
REMARK    4  A    between atoms: C6_9  and  C8_11 
REMARK    5  A    between atoms: C8_11  and  C9_12 
REMARK    6  A    between atoms: C10_13  and  C11_14 
REMARK    7  A    between atoms: C13_16  and  C14_17 
REMARK    8  A    between atoms: C14_17  and  C16_19 
REMARK    9  A    between atoms: C16_19  and  O2_20 
REMARK   10  A    between atoms: C16_19  and  C18_22 
REMARK   11  A    between atoms: C24_29  and  O4_30 
REMARK   12  A    between atoms: C25_31  and  O5_32 
ROOT
HETATM    1  C5  UNL     1      -0.219  51.688 -24.430  1.00  0.00    -0.018 C 
HETATM    2  C6  UNL     1      -1.220  51.499 -25.315  1.00  0.00    -0.084 C 
HETATM    3  C7  UNL     1      -2.402  52.419 -25.471  1.00  0.00     0.043 C 
ENDROOT
BRANCH   2   4
HETATM    4  C8  UNL     1      -1.243  50.270 -26.204  1.00  0.00     0.060 C 
BRANCH   4   5
HETATM    5  C9  UNL     1      -2.565  49.552 -26.141  1.00  0.00    -0.022 C 
HETATM    6  C10 UNL     1      -3.223  49.119 -27.229  1.00  0.00     0.003 C 
BRANCH   6   7
HETATM    7  C11 UNL     1      -4.501  48.402 -27.254  1.00  0.00    -0.066 C 
HETATM    8  C12 UNL     1      -5.208  48.204 -25.939  1.00  0.00     0.048 C 
HETATM    9  C13 UNL     1      -4.966  47.976 -28.449  1.00  0.00    -0.013 C 
BRANCH   9  10
HETATM   10  C14 UNL     1      -6.225  47.193 -28.809  1.00  0.00     0.037 C 
HETATM   11  C15 UNL     1      -7.495  48.026 -28.599  1.00  0.00     0.017 C 
BRANCH  10  12
HETATM   12  C16 UNL     1      -6.112  46.514 -30.204  1.00  0.00     0.165 C 
BRANCH  12  13
HETATM   13  O2  UNL     1      -7.276  45.678 -30.374  1.00  0.00    -0.387 OA
HETATM   14  C17 UNL     1      -6.973  44.291 -30.311  1.00  0.00     0.202 C 
ENDBRANCH  12  13
BRANCH  12  15
HETATM   15  C18 UNL     1      -6.072  47.490 -31.370  1.00  0.00     0.110 A 
HETATM   16  C19 UNL     1      -7.368  48.102 -31.816  1.00  0.00     0.051 C 
HETATM   17  O3  UNL     1      -4.956  48.399 -31.355  1.00  0.00    -0.367 OA
HETATM   18  C20 UNL     1      -4.907  47.372 -32.349  1.00  0.00     0.155 A 
HETATM   19  C21 UNL     1      -4.957  47.863 -33.751  1.00  0.00     0.042 C 
ENDBRANCH  12  15
ENDBRANCH  10  12
ENDBRANCH   9  10
ENDBRANCH   6   7
ENDBRANCH   4   5
ENDBRANCH   2   4
BRANCH   1  20
HETATM   20  C4  UNL     1      -0.022  52.837 -23.469  1.00  0.00     0.085 C 
BRANCH  20  21
HETATM   21  C3  UNL     1      -0.214  52.477 -22.002  1.00  0.00     0.023 A 
HETATM   22  N1  UNL     1      -1.125  51.501 -21.728  1.00  0.00    -0.337 N 
HETATM   23  C2  UNL     1      -1.340  51.155 -20.438  1.00  0.00     0.179 A 
ATOM     24  H1  UNL     1      -1.635  51.040 -22.482  1.00  0.00     0.168 HD
HETATM   25  C25 UNL     1      -0.645  51.719 -19.378  1.00  0.00     0.153 A 
HETATM   26  C24 UNL     1       0.282  52.714 -19.680  1.00  0.00     0.111 A 
HETATM   27  C22 UNL     1       0.549  53.094 -20.998  1.00  0.00    -0.003 A 
HETATM   28  C23 UNL     1       1.558  54.166 -21.296  1.00  0.00     0.053 C 
BRANCH  23  29
HETATM   29  O1  UNL     1      -2.313  50.219 -20.157  1.00  0.00    -0.339 OA
HETATM   30  C1  UNL     1      -3.615  50.777 -20.029  1.00  0.00     0.211 C 
ENDBRANCH  23  29
BRANCH  25  31
HETATM   31  O5  UNL     1      -0.830  51.429 -18.050  1.00  0.00    -0.349 OA
HETATM   32  C26 UNL     1      -0.073  50.289 -17.639  1.00  0.00     0.210 C 
ENDBRANCH  25  31
BRANCH  26  33
HETATM   33  O4  UNL     1       0.954  53.327 -18.651  1.00  0.00    -0.357 OA
HETATM   34  H36 UNL     1       0.526  53.006 -17.831  1.00  0.00     0.217 HD
ENDBRANCH  26  33
ENDBRANCH  20  21
ENDBRANCH   1  20
TORSDOF 12
ENDMDL
MODEL 3
REMARK minimizedAffinity -7.89857626
REMARK  12 active torsions:
REMARK  status: ('A' for Active; 'I' for Inactive)
REMARK    1  A    between atoms: O1_2  and  C2_3 
REMARK    2  A    between atoms: C3_6  and  C4_7 
REMARK    3  A    between atoms: C4_7  and  C5_8 
REMARK    4  A    between atoms: C6_9  and  C8_11 
REMARK    5  A    between atoms: C8_11  and  C9_12 
REMARK    6  A    between atoms: C10_13  and  C11_14 
REMARK    7  A    between atoms: C13_16  and  C14_17 
REMARK    8  A    between atoms: C14_17  and  C16_19 
REMARK    9  A    between atoms: C16_19  and  O2_20 
REMARK   10  A    between atoms: C16_19  and  C18_22 
REMARK   11  A    between atoms: C24_29  and  O4_30 
REMARK   12  A    between atoms: C25_31  and  O5_32 
ROOT
HETATM    1  C5  UNL     1      -4.053  48.344 -23.435  1.00  0.00    -0.018 C 
HETATM    2  C6  UNL     1      -3.530  48.075 -22.220  1.00  0.00    -0.084 C 
HETATM    3  C7  UNL     1      -4.329  47.595 -21.037  1.00  0.00     0.043 C 
ENDROOT
BRANCH   2   4
HETATM    4  C8  UNL     1      -2.055  48.302 -21.948  1.00  0.00     0.060 C 
BRANCH   4   5
HETATM    5  C9  UNL     1      -1.572  49.611 -22.514  1.00  0.00    -0.022 C 
HETATM    6  C10 UNL     1      -0.802  50.473 -21.829  1.00  0.00     0.003 C 
BRANCH   6   7
HETATM    7  C11 UNL     1      -0.278  51.754 -22.309  1.00  0.00    -0.066 C 
HETATM    8  C12 UNL     1       0.225  52.726 -21.276  1.00  0.00     0.048 C 
HETATM    9  C13 UNL     1      -0.269  51.976 -23.642  1.00  0.00    -0.013 C 
BRANCH   9  10
HETATM   10  C14 UNL     1       0.176  53.192 -24.450  1.00  0.00     0.037 C 
HETATM   11  C15 UNL     1       1.072  54.126 -23.628  1.00  0.00     0.017 C 
BRANCH  10  12
HETATM   12  C16 UNL     1       0.748  52.793 -25.840  1.00  0.00     0.165 C 
BRANCH  12  13
HETATM   13  O2  UNL     1       1.366  51.496 -25.698  1.00  0.00    -0.387 OA
HETATM   14  C17 UNL     1       2.571  51.375 -26.441  1.00  0.00     0.202 C 
ENDBRANCH  12  13
BRANCH  12  15
HETATM   15  C18 UNL     1      -0.301  52.684 -26.936  1.00  0.00     0.110 A 
HETATM   16  C19 UNL     1      -0.366  53.783 -27.957  1.00  0.00     0.051 C 
HETATM   17  O3  UNL     1      -0.476  51.359 -27.473  1.00  0.00    -0.367 OA
HETATM   18  C20 UNL     1      -1.540  51.840 -26.646  1.00  0.00     0.155 A 
HETATM   19  C21 UNL     1      -2.839  52.015 -27.346  1.00  0.00     0.042 C 
ENDBRANCH  12  15
ENDBRANCH  10  12
ENDBRANCH   9  10
ENDBRANCH   6   7
ENDBRANCH   4   5
ENDBRANCH   2   4
BRANCH   1  20
HETATM   20  C4  UNL     1      -5.483  48.184 -23.896  1.00  0.00     0.085 C 
BRANCH  20  21
HETATM   21  C3  UNL     1      -5.654  48.063 -25.404  1.00  0.00     0.023 A 
HETATM   22  N1  UNL     1      -6.907  47.773 -25.854  1.00  0.00    -0.337 N 
HETATM   23  C2  UNL     1      -7.107  47.643 -27.185  1.00  0.00     0.179 A 
ATOM     24  H1  UNL     1      -7.681  47.656 -25.199  1.00  0.00     0.168 HD
HETATM   25  C25 UNL     1      -6.102  47.832 -28.123  1.00  0.00     0.153 A 
HETATM   26  C24 UNL     1      -4.829  48.129 -27.642  1.00  0.00     0.111 A 
HETATM   27  C22 UNL     1      -4.577  48.287 -26.276  1.00  0.00    -0.003 A 
HETATM   28  C23 UNL     1      -3.196  48.613 -25.786  1.00  0.00     0.053 C 
BRANCH  23  29
HETATM   29  O1  UNL     1      -8.360  47.279 -27.635  1.00  0.00    -0.339 OA
HETATM   30  C1  UNL     1      -9.298  48.348 -27.619  1.00  0.00     0.211 C 
ENDBRANCH  23  29
BRANCH  25  31
HETATM   31  O5  UNL     1      -6.233  47.695 -29.481  1.00  0.00    -0.349 OA
HETATM   32  C26 UNL     1      -6.357  46.327 -29.873  1.00  0.00     0.210 C 
ENDBRANCH  25  31
BRANCH  26  33
HETATM   33  O4  UNL     1      -3.799  48.275 -28.540  1.00  0.00    -0.357 OA
HETATM   34  H36 UNL     1      -4.166  47.998 -29.405  1.00  0.00     0.217 HD
ENDBRANCH  26  33
ENDBRANCH  20  21
ENDBRANCH   1  20
TORSDOF 12
ENDMDL
MODEL 4
REMARK minimizedAffinity -7.84323215
REMARK  12 active torsions:
REMARK  status: ('A' for Active; 'I' for Inactive)
REMARK    1  A    between atoms: O1_2  and  C2_3 
REMARK    2  A    between atoms: C3_6  and  C4_7 
REMARK    3  A    between atoms: C4_7  and  C5_8 
REMARK    4  A    between atoms: C6_9  and  C8_11 
REMARK    5  A    between atoms: C8_11  and  C9_12 
REMARK    6  A    between atoms: C10_13  and  C11_14 
REMARK    7  A    between atoms: C13_16  and  C14_17 
REMARK    8  A    between atoms: C14_17  and  C16_19 
REMARK    9  A    between atoms: C16_19  and  O2_20 
REMARK   10  A    between atoms: C16_19  and  C18_22 
REMARK   11  A    between atoms: C24_29  and  O4_30 
REMARK   12  A    between atoms: C25_31  and  O5_32 
ROOT
HETATM    1  C5  UNL     1       0.008  51.922 -24.730  1.00  0.00    -0.018 C 
HETATM    2  C6  UNL     1       0.478  51.394 -25.880  1.00  0.00    -0.084 C 
HETATM    3  C7  UNL     1       1.880  51.591 -26.395  1.00  0.00     0.043 C 
ENDROOT
BRANCH   2   4
HETATM    4  C8  UNL     1      -0.430  50.583 -26.785  1.00  0.00     0.060 C 
BRANCH   4   5
HETATM    5  C9  UNL     1      -1.741  50.255 -26.121  1.00  0.00    -0.022 C 
HETATM    6  C10 UNL     1      -2.317  49.043 -26.182  1.00  0.00     0.003 C 
BRANCH   6   7
HETATM    7  C11 UNL     1      -3.577  48.637 -25.554  1.00  0.00    -0.066 C 
HETATM    8  C12 UNL     1      -4.703  48.229 -26.466  1.00  0.00     0.048 C 
HETATM    9  C13 UNL     1      -3.644  48.644 -24.205  1.00  0.00    -0.013 C 
BRANCH   9  10
HETATM   10  C14 UNL     1      -4.795  48.309 -23.260  1.00  0.00     0.037 C 
HETATM   11  C15 UNL     1      -4.364  47.333 -22.160  1.00  0.00     0.017 C 
BRANCH  10  12
HETATM   12  C16 UNL     1      -5.526  49.585 -22.753  1.00  0.00     0.165 C 
BRANCH  12  13
HETATM   13  O2  UNL     1      -5.752  50.437 -23.897  1.00  0.00    -0.387 OA
HETATM   14  C17 UNL     1      -5.245  51.751 -23.713  1.00  0.00     0.202 C 
ENDBRANCH  12  13
BRANCH  12  15
HETATM   15  C18 UNL     1      -6.876  49.313 -22.108  1.00  0.00     0.110 A 
HETATM   16  C19 UNL     1      -7.055  49.697 -20.668  1.00  0.00     0.051 C 
HETATM   17  O3  UNL     1      -8.012  49.595 -22.947  1.00  0.00    -0.367 OA
HETATM   18  C20 UNL     1      -7.739  48.211 -22.716  1.00  0.00     0.155 A 
HETATM   19  C21 UNL     1      -8.799  47.487 -21.967  1.00  0.00     0.042 C 
ENDBRANCH  12  15
ENDBRANCH  10  12
ENDBRANCH   9  10
ENDBRANCH   6   7
ENDBRANCH   4   5
ENDBRANCH   2   4
BRANCH   1  20
HETATM   20  C4  UNL     1       0.750  52.749 -23.706  1.00  0.00     0.085 C 
BRANCH  20  21
HETATM   21  C3  UNL     1       0.354  52.474 -22.262  1.00  0.00     0.023 A 
HETATM   22  N1  UNL     1      -0.503  51.435 -22.051  1.00  0.00    -0.337 N 
HETATM   23  C2  UNL     1      -0.893  51.160 -20.786  1.00  0.00     0.179 A 
ATOM     24  H1  UNL     1      -0.842  50.875 -22.833  1.00  0.00     0.168 HD
HETATM   25  C25 UNL     1      -0.430  51.860 -19.682  1.00  0.00     0.153 A 
HETATM   26  C24 UNL     1       0.445  52.918 -19.919  1.00  0.00     0.111 A 
HETATM   27  C22 UNL     1       0.888  53.231 -21.207  1.00  0.00    -0.003 A 
HETATM   28  C23 UNL     1       1.837  54.373 -21.433  1.00  0.00     0.053 C 
BRANCH  23  29
HETATM   29  O1  UNL     1      -1.815  50.154 -20.582  1.00  0.00    -0.339 OA
HETATM   30  C1  UNL     1      -3.153  50.626 -20.478  1.00  0.00     0.211 C 
ENDBRANCH  23  29
BRANCH  25  31
HETATM   31  O5  UNL     1      -0.802  51.646 -18.379  1.00  0.00    -0.349 OA
HETATM   32  C26 UNL     1       0.061  50.717 -17.721  1.00  0.00     0.210 C 
ENDBRANCH  25  31
BRANCH  26  33
HETATM   33  O4  UNL     1       0.886  53.664 -18.853  1.00  0.00    -0.357 OA
HETATM   34  H36 UNL     1       0.360  53.359 -18.085  1.00  0.00     0.217 HD
ENDBRANCH  26  33
ENDBRANCH  20  21
ENDBRANCH   1  20
TORSDOF 12
ENDMDL
MODEL 5
REMARK minimizedAffinity -7.55730534
REMARK  12 active torsions:
REMARK  status: ('A' for Active; 'I' for Inactive)
REMARK    1  A    between atoms: O1_2  and  C2_3 
REMARK    2  A    between atoms: C3_6  and  C4_7 
REMARK    3  A    between atoms: C4_7  and  C5_8 
REMARK    4  A    between atoms: C6_9  and  C8_11 
REMARK    5  A    between atoms: C8_11  and  C9_12 
REMARK    6  A    between atoms: C10_13  and  C11_14 
REMARK    7  A    between atoms: C13_16  and  C14_17 
REMARK    8  A    between atoms: C14_17  and  C16_19 
REMARK    9  A    between atoms: C16_19  and  O2_20 
REMARK   10  A    between atoms: C16_19  and  C18_22 
REMARK   11  A    between atoms: C24_29  and  O4_30 
REMARK   12  A    between atoms: C25_31  and  O5_32 
ROOT
HETATM    1  C5  UNL     1      -0.014  51.996 -21.169  1.00  0.00    -0.018 C 
HETATM    2  C6  UNL     1      -0.439  52.267 -19.917  1.00  0.00    -0.084 C 
HETATM    3  C7  UNL     1      -1.712  51.730 -19.316  1.00  0.00     0.043 C 
ENDROOT
BRANCH   2   4
HETATM    4  C8  UNL     1       0.344  53.210 -19.023  1.00  0.00     0.060 C 
BRANCH   4   5
HETATM    5  C9  UNL     1       0.878  52.515 -17.799  1.00  0.00    -0.022 C 
HETATM    6  C10 UNL     1       2.104  52.739 -17.298  1.00  0.00     0.003 C 
BRANCH   6   7
HETATM    7  C11 UNL     1       2.692  52.119 -16.108  1.00  0.00    -0.066 C 
HETATM    8  C12 UNL     1       4.194  52.104 -16.008  1.00  0.00     0.048 C 
HETATM    9  C13 UNL     1       1.854  51.614 -15.176  1.00  0.00    -0.013 C 
BRANCH   9  10
HETATM   10  C14 UNL     1       2.140  50.894 -13.860  1.00  0.00     0.037 C 
HETATM   11  C15 UNL     1       2.560  51.870 -12.756  1.00  0.00     0.017 C 
BRANCH  10  12
HETATM   12  C16 UNL     1       0.996  49.915 -13.469  1.00  0.00     0.165 C 
BRANCH  12  13
HETATM   13  O2  UNL     1      -0.142  50.713 -13.080  1.00  0.00    -0.387 OA
HETATM   14  C17 UNL     1      -0.152  51.995 -13.693  1.00  0.00     0.202 C 
ENDBRANCH  12  13
BRANCH  12  15
HETATM   15  C18 UNL     1       0.549  48.998 -14.598  1.00  0.00     0.110 A 
HETATM   16  C19 UNL     1       1.462  47.873 -14.990  1.00  0.00     0.051 C 
HETATM   17  O3  UNL     1      -0.848  48.653 -14.576  1.00  0.00    -0.367 OA
HETATM   18  C20 UNL     1      -0.448  49.558 -15.609  1.00  0.00     0.155 A 
HETATM   19  C21 UNL     1      -0.605  49.031 -16.990  1.00  0.00     0.042 C 
ENDBRANCH  12  15
ENDBRANCH  10  12
ENDBRANCH   9  10
ENDBRANCH   6   7
ENDBRANCH   4   5
ENDBRANCH   2   4
BRANCH   1  20
HETATM   20  C4  UNL     1      -0.648  51.091 -22.199  1.00  0.00     0.085 C 
BRANCH  20  21
HETATM   21  C3  UNL     1      -0.672  51.657 -23.612  1.00  0.00     0.023 A 
HETATM   22  N1  UNL     1       0.534  51.803 -24.231  1.00  0.00    -0.337 N 
HETATM   23  C2  UNL     1       0.566  52.314 -25.482  1.00  0.00     0.179 A 
ATOM     24  H1  UNL     1       1.397  51.532 -23.758  1.00  0.00     0.168 HD
HETATM   25  C25 UNL     1      -0.578  52.660 -26.188  1.00  0.00     0.153 A 
HETATM   26  C24 UNL     1      -1.800  52.501 -25.537  1.00  0.00     0.111 A 
HETATM   27  C22 UNL     1      -1.884  51.964 -24.250  1.00  0.00    -0.003 A 
HETATM   28  C23 UNL     1      -3.215  51.800 -23.575  1.00  0.00     0.053 C 
BRANCH  23  29
HETATM   29  O1  UNL     1       1.791  52.528 -26.080  1.00  0.00    -0.339 OA
HETATM   30  C1  UNL     1       2.460  51.326 -26.441  1.00  0.00     0.211 C 
ENDBRANCH  23  29
BRANCH  25  31
HETATM   31  O5  UNL     1      -0.614  53.200 -27.448  1.00  0.00    -0.349 OA
HETATM   32  C26 UNL     1      -0.139  54.548 -27.467  1.00  0.00     0.210 C 
ENDBRANCH  25  31
BRANCH  26  33
HETATM   33  O4  UNL     1      -2.950  52.879 -26.189  1.00  0.00    -0.357 OA
HETATM   34  H36 UNL     1      -2.652  53.337 -27.001  1.00  0.00     0.217 HD
ENDBRANCH  26  33
ENDBRANCH  20  21
ENDBRANCH   1  20
TORSDOF 12
ENDMDL
MODEL 6
REMARK minimizedAffinity -7.53355551
REMARK  12 active torsions:
REMARK  status: ('A' for Active; 'I' for Inactive)
REMARK    1  A    between atoms: O1_2  and  C2_3 
REMARK    2  A    between atoms: C3_6  and  C4_7 
REMARK    3  A    between atoms: C4_7  and  C5_8 
REMARK    4  A    between atoms: C6_9  and  C8_11 
REMARK    5  A    between atoms: C8_11  and  C9_12 
REMARK    6  A    between atoms: C10_13  and  C11_14 
REMARK    7  A    between atoms: C13_16  and  C14_17 
REMARK    8  A    between atoms: C14_17  and  C16_19 
REMARK    9  A    between atoms: C16_19  and  O2_20 
REMARK   10  A    between atoms: C16_19  and  C18_22 
REMARK   11  A    between atoms: C24_29  and  O4_30 
REMARK   12  A    between atoms: C25_31  and  O5_32 
ROOT
HETATM    1  C5  UNL     1      -2.622  49.239 -23.961  1.00  0.00    -0.018 C 
HETATM    2  C6  UNL     1      -3.653  48.806 -24.718  1.00  0.00    -0.084 C 
HETATM    3  C7  UNL     1      -4.974  48.336 -24.168  1.00  0.00     0.043 C 
ENDROOT
BRANCH   2   4
HETATM    4  C8  UNL     1      -3.516  48.712 -26.226  1.00  0.00     0.060 C 
BRANCH   4   5
HETATM    5  C9  UNL     1      -4.768  48.182 -26.874  1.00  0.00    -0.022 C 
HETATM    6  C10 UNL     1      -4.927  48.087 -28.205  1.00  0.00     0.003 C 
BRANCH   6   7
HETATM    7  C11 UNL     1      -6.101  47.571 -28.913  1.00  0.00    -0.066 C 
HETATM    8  C12 UNL     1      -7.120  46.815 -28.102  1.00  0.00     0.048 C 
HETATM    9  C13 UNL     1      -6.201  47.816 -30.238  1.00  0.00    -0.013 C 
BRANCH   9  10
HETATM   10  C14 UNL     1      -7.264  47.404 -31.253  1.00  0.00     0.037 C 
HETATM   11  C15 UNL     1      -8.179  48.575 -31.628  1.00  0.00     0.017 C 
BRANCH  10  12
HETATM   12  C16 UNL     1      -6.652  46.638 -32.461  1.00  0.00     0.165 C 
BRANCH  12  13
HETATM   13  O2  UNL     1      -5.872  47.584 -33.223  1.00  0.00    -0.387 OA
HETATM   14  C17 UNL     1      -4.840  48.190 -32.457  1.00  0.00     0.202 C 
ENDBRANCH  12  13
BRANCH  12  15
HETATM   15  C18 UNL     1      -5.732  45.492 -32.069  1.00  0.00     0.110 A 
HETATM   16  C19 UNL     1      -4.256  45.760 -32.031  1.00  0.00     0.051 C 
HETATM   17  O3  UNL     1      -6.218  44.672 -30.990  1.00  0.00    -0.367 OA
HETATM   18  C20 UNL     1      -6.243  44.071 -32.288  1.00  0.00     0.155 A 
HETATM   19  C21 UNL     1      -5.354  42.890 -32.441  1.00  0.00     0.042 C 
ENDBRANCH  12  15
ENDBRANCH  10  12
ENDBRANCH   9  10
ENDBRANCH   6   7
ENDBRANCH   4   5
ENDBRANCH   2   4
BRANCH   1  20
HETATM   20  C4  UNL     1      -2.566  49.402 -22.460  1.00  0.00     0.085 C 
BRANCH  20  21
HETATM   21  C3  UNL     1      -1.633  50.504 -21.976  1.00  0.00     0.023 A 
HETATM   22  N1  UNL     1      -1.576  50.706 -20.629  1.00  0.00    -0.337 N 
HETATM   23  C2  UNL     1      -0.771  51.682 -20.151  1.00  0.00     0.179 A 
ATOM     24  H1  UNL     1      -2.131  50.132 -19.993  1.00  0.00     0.168 HD
HETATM   25  C25 UNL     1       0.035  52.464 -20.966  1.00  0.00     0.153 A 
HETATM   26  C24 UNL     1      -0.037  52.240 -22.339  1.00  0.00     0.111 A 
HETATM   27  C22 UNL     1      -0.843  51.234 -22.878  1.00  0.00    -0.003 A 
HETATM   28  C23 UNL     1      -0.898  51.010 -24.362  1.00  0.00     0.053 C 
BRANCH  23  29
HETATM   29  O1  UNL     1      -0.769  51.933 -18.795  1.00  0.00    -0.339 OA
HETATM   30  C1  UNL     1      -0.028  50.978 -18.045  1.00  0.00     0.211 C 
ENDBRANCH  23  29
BRANCH  25  31
HETATM   31  O5  UNL     1       0.856  53.481 -20.548  1.00  0.00    -0.349 OA
HETATM   32  C26 UNL     1       1.377  54.234 -21.644  1.00  0.00     0.210 C 
ENDBRANCH  25  31
BRANCH  26  33
HETATM   33  O4  UNL     1       0.712  53.028 -23.178  1.00  0.00    -0.357 OA
HETATM   34  H36 UNL     1       1.087  53.732 -22.610  1.00  0.00     0.217 HD
ENDBRANCH  26  33
ENDBRANCH  20  21
ENDBRANCH   1  20
TORSDOF 12
ENDMDL
MODEL 7
REMARK minimizedAffinity -7.53252029
REMARK  12 active torsions:
REMARK  status: ('A' for Active; 'I' for Inactive)
REMARK    1  A    between atoms: O1_2  and  C2_3 
REMARK    2  A    between atoms: C3_6  and  C4_7 
REMARK    3  A    between atoms: C4_7  and  C5_8 
REMARK    4  A    between atoms: C6_9  and  C8_11 
REMARK    5  A    between atoms: C8_11  and  C9_12 
REMARK    6  A    between atoms: C10_13  and  C11_14 
REMARK    7  A    between atoms: C13_16  and  C14_17 
REMARK    8  A    between atoms: C14_17  and  C16_19 
REMARK    9  A    between atoms: C16_19  and  O2_20 
REMARK   10  A    between atoms: C16_19  and  C18_22 
REMARK   11  A    between atoms: C24_29  and  O4_30 
REMARK   12  A    between atoms: C25_31  and  O5_32 
ROOT
HETATM    1  C5  UNL     1      -2.655  48.288 -23.284  1.00  0.00    -0.018 C 
HETATM    2  C6  UNL     1      -2.764  47.879 -22.002  1.00  0.00    -0.084 C 
HETATM    3  C7  UNL     1      -4.052  47.858 -21.222  1.00  0.00     0.043 C 
ENDROOT
BRANCH   2   4
HETATM    4  C8  UNL     1      -1.535  47.450 -21.222  1.00  0.00     0.060 C 
BRANCH   4   5
HETATM    5  C9  UNL     1      -1.256  48.367 -20.061  1.00  0.00    -0.022 C 
HETATM    6  C10 UNL     1      -0.863  49.644 -20.205  1.00  0.00     0.003 C 
BRANCH   6   7
HETATM    7  C11 UNL     1      -0.587  50.603 -19.133  1.00  0.00    -0.066 C 
HETATM    8  C12 UNL     1      -0.991  52.034 -19.366  1.00  0.00     0.048 C 
HETATM    9  C13 UNL     1      -0.002  50.143 -18.005  1.00  0.00    -0.013 C 
BRANCH   9  10
HETATM   10  C14 UNL     1       0.435  50.872 -16.737  1.00  0.00     0.037 C 
HETATM   11  C15 UNL     1       1.203  52.159 -17.055  1.00  0.00     0.017 C 
BRANCH  10  12
HETATM   12  C16 UNL     1      -0.737  51.040 -15.727  1.00  0.00     0.165 C 
BRANCH  12  13
HETATM   13  O2  UNL     1      -1.562  49.860 -15.820  1.00  0.00    -0.387 OA
HETATM   14  C17 UNL     1      -1.330  48.941 -14.761  1.00  0.00     0.202 C 
ENDBRANCH  12  13
BRANCH  12  15
HETATM   15  C18 UNL     1      -0.293  51.178 -14.279  1.00  0.00     0.110 A 
HETATM   16  C19 UNL     1       0.794  50.268 -13.788  1.00  0.00     0.051 C 
HETATM   17  O3  UNL     1      -0.194  52.535 -13.807  1.00  0.00    -0.367 OA
HETATM   18  C20 UNL     1      -1.291  51.776 -13.290  1.00  0.00     0.155 A 
HETATM   19  C21 UNL     1      -1.242  51.536 -11.824  1.00  0.00     0.042 C 
ENDBRANCH  12  15
ENDBRANCH  10  12
ENDBRANCH   9  10
ENDBRANCH   6   7
ENDBRANCH   4   5
ENDBRANCH   2   4
BRANCH   1  20
HETATM   20  C4  UNL     1      -3.751  48.748 -24.217  1.00  0.00     0.085 C 
BRANCH  20  21
HETATM   21  C3  UNL     1      -3.356  49.887 -25.147  1.00  0.00     0.023 A 
HETATM   22  N1  UNL     1      -2.829  50.999 -24.560  1.00  0.00    -0.337 N 
HETATM   23  C2  UNL     1      -2.475  52.043 -25.344  1.00  0.00     0.179 A 
ATOM     24  H1  UNL     1      -2.705  51.043 -23.548  1.00  0.00     0.168 HD
HETATM   25  C25 UNL     1      -2.583  52.021 -26.727  1.00  0.00     0.153 A 
HETATM   26  C24 UNL     1      -3.122  50.875 -27.306  1.00  0.00     0.111 A 
HETATM   27  C22 UNL     1      -3.489  49.766 -26.539  1.00  0.00    -0.003 A 
HETATM   28  C23 UNL     1      -4.063  48.541 -27.191  1.00  0.00     0.053 C 
BRANCH  23  29
HETATM   29  O1  UNL     1      -2.009  53.194 -24.742  1.00  0.00    -0.339 OA
HETATM   30  C1  UNL     1      -0.696  53.062 -24.211  1.00  0.00     0.211 C 
ENDBRANCH  23  29
BRANCH  25  31
HETATM   31  O5  UNL     1      -2.262  53.050 -27.575  1.00  0.00    -0.349 OA
HETATM   32  C26 UNL     1      -0.860  53.109 -27.841  1.00  0.00     0.210 C 
ENDBRANCH  25  31
BRANCH  26  33
HETATM   33  O4  UNL     1      -3.287  50.838 -28.670  1.00  0.00    -0.357 OA
HETATM   34  H36 UNL     1      -3.093  51.746 -28.981  1.00  0.00     0.217 HD
ENDBRANCH  26  33
ENDBRANCH  20  21
ENDBRANCH   1  20
TORSDOF 12
ENDMDL
MODEL 8
REMARK minimizedAffinity -7.51051283
REMARK  12 active torsions:
REMARK  status: ('A' for Active; 'I' for Inactive)
REMARK    1  A    between atoms: O1_2  and  C2_3 
REMARK    2  A    between atoms: C3_6  and  C4_7 
REMARK    3  A    between atoms: C4_7  and  C5_8 
REMARK    4  A    between atoms: C6_9  and  C8_11 
REMARK    5  A    between atoms: C8_11  and  C9_12 
REMARK    6  A    between atoms: C10_13  and  C11_14 
REMARK    7  A    between atoms: C13_16  and  C14_17 
REMARK    8  A    between atoms: C14_17  and  C16_19 
REMARK    9  A    between atoms: C16_19  and  O2_20 
REMARK   10  A    between atoms: C16_19  and  C18_22 
REMARK   11  A    between atoms: C24_29  and  O4_30 
REMARK   12  A    between atoms: C25_31  and  O5_32 
ROOT
HETATM    1  C5  UNL     1      -2.374  49.476 -23.274  1.00  0.00    -0.018 C 
HETATM    2  C6  UNL     1      -3.664  49.359 -22.895  1.00  0.00    -0.084 C 
HETATM    3  C7  UNL     1      -4.289  50.123 -21.757  1.00  0.00     0.043 C 
ENDROOT
BRANCH   2   4
HETATM    4  C8  UNL     1      -4.584  48.370 -23.585  1.00  0.00     0.060 C 
BRANCH   4   5
HETATM    5  C9  UNL     1      -4.459  48.435 -25.084  1.00  0.00    -0.022 C 
HETATM    6  C10 UNL     1      -5.423  48.021 -25.925  1.00  0.00     0.003 C 
BRANCH   6   7
HETATM    7  C11 UNL     1      -5.388  48.063 -27.388  1.00  0.00    -0.066 C 
HETATM    8  C12 UNL     1      -4.134  48.589 -28.034  1.00  0.00     0.048 C 
HETATM    9  C13 UNL     1      -6.472  47.620 -28.062  1.00  0.00    -0.013 C 
BRANCH   9  10
HETATM   10  C14 UNL     1      -6.761  47.554 -29.559  1.00  0.00     0.037 C 
HETATM   11  C15 UNL     1      -5.549  47.055 -30.352  1.00  0.00     0.017 C 
BRANCH  10  12
HETATM   12  C16 UNL     1      -8.094  46.814 -29.866  1.00  0.00     0.165 C 
BRANCH  12  13
HETATM   13  O2  UNL     1      -8.795  47.582 -30.867  1.00  0.00    -0.387 OA
HETATM   14  C17 UNL     1      -9.962  48.214 -30.359  1.00  0.00     0.202 C 
ENDBRANCH  12  13
BRANCH  12  15
HETATM   15  C18 UNL     1      -7.913  45.405 -30.410  1.00  0.00     0.110 A 
HETATM   16  C19 UNL     1      -7.351  44.364 -29.487  1.00  0.00     0.051 C 
HETATM   17  O3  UNL     1      -8.986  44.942 -31.251  1.00  0.00    -0.367 OA
HETATM   18  C20 UNL     1      -7.760  45.248 -31.921  1.00  0.00     0.155 A 
HETATM   19  C21 UNL     1      -7.099  44.083 -32.565  1.00  0.00     0.042 C 
ENDBRANCH  12  15
ENDBRANCH  10  12
ENDBRANCH   9  10
ENDBRANCH   6   7
ENDBRANCH   4   5
ENDBRANCH   2   4
BRANCH   1  20
HETATM   20  C4  UNL     1      -1.313  50.395 -22.716  1.00  0.00     0.085 C 
BRANCH  20  21
HETATM   21  C3  UNL     1      -0.806  51.447 -23.693  1.00  0.00     0.023 A 
HETATM   22  N1  UNL     1      -1.262  51.359 -24.974  1.00  0.00    -0.337 N 
HETATM   23  C2  UNL     1      -0.831  52.263 -25.883  1.00  0.00     0.179 A 
ATOM     24  H1  UNL     1      -1.917  50.624 -25.243  1.00  0.00     0.168 HD
HETATM   25  C25 UNL     1       0.024  53.308 -25.563  1.00  0.00     0.153 A 
HETATM   26  C24 UNL     1       0.477  53.381 -24.247  1.00  0.00     0.111 A 
HETATM   27  C22 UNL     1       0.049  52.478 -23.271  1.00  0.00    -0.003 A 
HETATM   28  C23 UNL     1       0.549  52.583 -21.859  1.00  0.00     0.053 C 
BRANCH  23  29
HETATM   29  O1  UNL     1      -1.237  52.130 -27.194  1.00  0.00    -0.339 OA
HETATM   30  C1  UNL     1      -2.566  51.639 -27.328  1.00  0.00     0.211 C 
ENDBRANCH  23  29
BRANCH  25  31
HETATM   31  O5  UNL     1       0.515  54.243 -26.438  1.00  0.00    -0.349 OA
HETATM   32  C26 UNL     1      -0.345  54.427 -27.564  1.00  0.00     0.210 C 
ENDBRANCH  25  31
BRANCH  26  33
HETATM   33  O4  UNL     1       1.364  54.374 -23.907  1.00  0.00    -0.357 OA
HETATM   34  H36 UNL     1       1.621  54.796 -24.752  1.00  0.00     0.217 HD
ENDBRANCH  26  33
ENDBRANCH  20  21
ENDBRANCH   1  20
TORSDOF 12
ENDMDL
MODEL 9
REMARK minimizedAffinity -7.50571871
REMARK  12 active torsions:
REMARK  status: ('A' for Active; 'I' for Inactive)
REMARK    1  A    between atoms: O1_2  and  C2_3 
REMARK    2  A    between atoms: C3_6  and  C4_7 
REMARK    3  A    between atoms: C4_7  and  C5_8 
REMARK    4  A    between atoms: C6_9  and  C8_11 
REMARK    5  A    between atoms: C8_11  and  C9_12 
REMARK    6  A    between atoms: C10_13  and  C11_14 
REMARK    7  A    between atoms: C13_16  and  C14_17 
REMARK    8  A    between atoms: C14_17  and  C16_19 
REMARK    9  A    between atoms: C16_19  and  O2_20 
REMARK   10  A    between atoms: C16_19  and  C18_22 
REMARK   11  A    between atoms: C24_29  and  O4_30 
REMARK   12  A    between atoms: C25_31  and  O5_32 
ROOT
HETATM    1  C5  UNL     1       0.163  52.546 -22.505  1.00  0.00    -0.018 C 
HETATM    2  C6  UNL     1       0.486  53.043 -21.292  1.00  0.00    -0.084 C 
HETATM    3  C7  UNL     1       1.554  54.078 -21.054  1.00  0.00     0.043 C 
ENDROOT
BRANCH   2   4
HETATM    4  C8  UNL     1      -0.198  52.527 -20.040  1.00  0.00     0.060 C 
BRANCH   4   5
HETATM    5  C9  UNL     1      -1.065  51.329 -20.323  1.00  0.00    -0.022 C 
HETATM    6  C10 UNL     1      -0.672  50.299 -21.091  1.00  0.00     0.003 C 
BRANCH   6   7
HETATM    7  C11 UNL     1      -1.444  49.093 -21.403  1.00  0.00    -0.066 C 
HETATM    8  C12 UNL     1      -0.918  47.783 -20.881  1.00  0.00     0.048 C 
HETATM    9  C13 UNL     1      -2.578  49.235 -22.124  1.00  0.00    -0.013 C 
BRANCH   9  10
HETATM   10  C14 UNL     1      -3.576  48.198 -22.630  1.00  0.00     0.037 C 
HETATM   11  C15 UNL     1      -3.959  47.194 -21.538  1.00  0.00     0.017 C 
BRANCH  10  12
HETATM   12  C16 UNL     1      -4.778  48.854 -23.367  1.00  0.00     0.165 C 
BRANCH  12  13
HETATM   13  O2  UNL     1      -5.247  47.913 -24.356  1.00  0.00    -0.387 OA
HETATM   14  C17 UNL     1      -4.999  48.342 -25.687  1.00  0.00     0.202 C 
ENDBRANCH  12  13
BRANCH  12  15
HETATM   15  C18 UNL     1      -5.953  49.193 -22.461  1.00  0.00     0.110 A 
HETATM   16  C19 UNL     1      -7.112  49.933 -23.063  1.00  0.00     0.051 C 
HETATM   17  O3  UNL     1      -6.323  48.150 -21.541  1.00  0.00    -0.367 OA
HETATM   18  C20 UNL     1      -5.682  49.290 -20.962  1.00  0.00     0.155 A 
HETATM   19  C21 UNL     1      -6.530  50.066 -20.020  1.00  0.00     0.042 C 
ENDBRANCH  12  15
ENDBRANCH  10  12
ENDBRANCH   9  10
ENDBRANCH   6   7
ENDBRANCH   4   5
ENDBRANCH   2   4
BRANCH   1  20
HETATM   20  C4  UNL     1       0.726  52.928 -23.854  1.00  0.00     0.085 C 
BRANCH  20  21
HETATM   21  C3  UNL     1      -0.189  52.624 -25.032  1.00  0.00     0.023 A 
HETATM   22  N1  UNL     1      -1.517  52.879 -24.854  1.00  0.00    -0.337 N 
HETATM   23  C2  UNL     1      -2.372  52.614 -25.868  1.00  0.00     0.179 A 
ATOM     24  H1  UNL     1      -1.859  53.263 -23.973  1.00  0.00     0.168 HD
HETATM   25  C25 UNL     1      -1.957  52.132 -27.101  1.00  0.00     0.153 A 
HETATM   26  C24 UNL     1      -0.596  51.880 -27.262  1.00  0.00     0.111 A 
HETATM   27  C22 UNL     1       0.326  52.151 -26.249  1.00  0.00    -0.003 A 
HETATM   28  C23 UNL     1       1.789  51.874 -26.452  1.00  0.00     0.053 C 
BRANCH  23  29
HETATM   29  O1  UNL     1      -3.723  52.805 -25.662  1.00  0.00    -0.339 OA
HETATM   30  C1  UNL     1      -4.288  51.889 -24.732  1.00  0.00     0.211 C 
ENDBRANCH  23  29
BRANCH  25  31
HETATM   31  O5  UNL     1      -2.772  51.824 -28.160  1.00  0.00    -0.349 OA
HETATM   32  C26 UNL     1      -3.277  50.490 -28.079  1.00  0.00     0.210 C 
ENDBRANCH  25  31
BRANCH  26  33
HETATM   33  O4  UNL     1      -0.157  51.357 -28.454  1.00  0.00    -0.357 OA
HETATM   34  H36 UNL     1      -0.968  51.130 -28.955  1.00  0.00     0.217 HD
ENDBRANCH  26  33
ENDBRANCH  20  21
ENDBRANCH   1  20
TORSDOF 12
ENDMDL
