MODEL 1
REMARK minimizedAffinity -9.24342728
REMARK  10 active torsions:
REMARK  status: ('A' for Active; 'I' for Inactive)
REMARK    1  A    between atoms: C12_14  and  C13_15 
REMARK    2  A    between atoms: C13_15  and  C15_17 
REMARK    3  A    between atoms: C15_17  and  C16_18 
REMARK    4  A    between atoms: C16_18  and  C17_19 
REMARK    5  A    between atoms: C18_20  and  C20_22 
REMARK    6  A    between atoms: C20_22  and  O3_23 
REMARK    7  A    between atoms: C26_29  and  C27_30 
REMARK    8  A    between atoms: C27_30  and  C28_31 
REMARK    9  A    between atoms: C28_31  and  C29_32 
REMARK   10  A    between atoms: C29_32  and  O5_34 
ROOT
HETATM    1  C1  UNL     1      -3.016  51.260 -27.961  1.00  0.00     0.025 C 
HETATM    2  C2  UNL     1      -2.954  50.146 -27.221  1.00  0.00     0.015 C 
HETATM    3  C3  UNL     1      -3.743  48.947 -27.592  1.00  0.00     0.289 C 
HETATM    4  O1  UNL     1      -4.328  48.756 -28.642  1.00  0.00    -0.260 OA
HETATM    5  O2  UNL     1      -3.690  48.080 -26.546  1.00  0.00    -0.311 OA
HETATM    6  C4  UNL     1      -3.085  48.717 -25.405  1.00  0.00     0.142 C 
HETATM    7  C5  UNL     1      -4.196  49.185 -24.473  1.00  0.00     0.039 C 
HETATM    8  C6  UNL     1      -3.747  50.025 -23.269  1.00  0.00     0.006 C 
HETATM    9  C7  UNL     1      -2.661  51.081 -23.613  1.00  0.00    -0.027 A 
HETATM   10  C8  UNL     1      -2.161  51.879 -22.388  1.00  0.00     0.011 C 
HETATM   11  C9  UNL     1      -1.892  51.053 -21.122  1.00  0.00     0.011 C 
HETATM   12  C10 UNL     1      -3.097  50.164 -20.772  1.00  0.00    -0.032 C 
HETATM   13  C11 UNL     1      -4.309  51.087 -20.460  1.00  0.00     0.016 C 
HETATM   14  C12 UNL     1      -2.921  49.141 -19.603  1.00  0.00    -0.002 C 
HETATM   15  C21 UNL     1      -3.925  48.006 -19.974  1.00  0.00     0.006 C 
HETATM   16  C22 UNL     1      -4.371  48.243 -21.431  1.00  0.00     0.011 C 
HETATM   17  C23 UNL     1      -3.316  49.199 -22.010  1.00  0.00    -0.032 C 
HETATM   18  C24 UNL     1      -2.066  48.329 -22.361  1.00  0.00     0.016 C 
HETATM   19  C25 UNL     1      -2.904  52.017 -24.771  1.00  0.00     0.022 A 
HETATM   20  C26 UNL     1      -1.864  50.934 -24.958  1.00  0.00    -0.021 A 
HETATM   21  C30 UNL     1      -2.210  49.826 -25.963  1.00  0.00     0.063 C 
ENDROOT
BRANCH  14  22
HETATM   22  C13 UNL     1      -2.963  49.528 -18.092  1.00  0.00    -0.014 C 
HETATM   23  C14 UNL     1      -3.018  51.026 -17.754  1.00  0.00     0.010 C 
BRANCH  22  24
HETATM   24  C15 UNL     1      -1.856  48.876 -17.231  1.00  0.00     0.008 C 
BRANCH  24  25
HETATM   25  C16 UNL     1      -0.407  49.163 -17.649  1.00  0.00     0.028 C 
BRANCH  25  26
HETATM   26  C17 UNL     1       0.322  50.068 -16.696  1.00  0.00    -0.022 C 
HETATM   27  C18 UNL     1       0.723  51.340 -16.906  1.00  0.00    -0.064 C 
HETATM   28  C19 UNL     1       0.461  52.103 -18.179  1.00  0.00     0.045 C 
BRANCH  27  29
HETATM   29  C20 UNL     1       1.490  52.149 -15.880  1.00  0.00     0.197 C 
BRANCH  29  30
HETATM   30  O3  UNL     1       2.044  53.333 -16.435  1.00  0.00    -0.397 OA
HETATM   31  H29 UNL     1       2.659  53.045 -17.129  1.00  0.00     0.209 HD
ENDBRANCH  29  30
ENDBRANCH  27  29
ENDBRANCH  25  26
ENDBRANCH  24  25
ENDBRANCH  22  24
ENDBRANCH  14  22
BRANCH  20  32
HETATM   32  C27 UNL     1      -0.364  51.267 -24.933  1.00  0.00     0.021 C 
BRANCH  32  33
HETATM   33  C28 UNL     1       0.184  51.865 -26.227  1.00  0.00     0.111 C 
BRANCH  33  34
HETATM   34  C29 UNL     1      -0.004  53.349 -26.384  1.00  0.00     0.139 C 
HETATM   35  O4  UNL     1      -0.713  53.885 -27.220  1.00  0.00    -0.650 OA
BRANCH  34  36
HETATM   36  O5  UNL     1       0.616  54.088 -25.448  1.00  0.00    -0.776 OA
HETATM   37  H43 UNL     1       0.348  55.008 -25.658  1.00  0.00     0.167 HD
ENDBRANCH  34  36
ENDBRANCH  33  34
ENDBRANCH  32  33
ENDBRANCH  20  32
TORSDOF 10
ENDMDL
MODEL 2
REMARK minimizedAffinity -9.03067303
REMARK  10 active torsions:
REMARK  status: ('A' for Active; 'I' for Inactive)
REMARK    1  A    between atoms: C12_14  and  C13_15 
REMARK    2  A    between atoms: C13_15  and  C15_17 
REMARK    3  A    between atoms: C15_17  and  C16_18 
REMARK    4  A    between atoms: C16_18  and  C17_19 
REMARK    5  A    between atoms: C18_20  and  C20_22 
REMARK    6  A    between atoms: C20_22  and  O3_23 
REMARK    7  A    between atoms: C26_29  and  C27_30 
REMARK    8  A    between atoms: C27_30  and  C28_31 
REMARK    9  A    between atoms: C28_31  and  C29_32 
REMARK   10  A    between atoms: C29_32  and  O5_34 
ROOT
HETATM    1  C1  UNL     1      -3.290  50.591 -27.740  1.00  0.00     0.025 C 
HETATM    2  C2  UNL     1      -3.010  51.373 -26.690  1.00  0.00     0.015 C 
HETATM    3  C3  UNL     1      -2.071  52.513 -26.824  1.00  0.00     0.289 C 
HETATM    4  O1  UNL     1      -1.638  52.981 -27.861  1.00  0.00    -0.260 OA
HETATM    5  O2  UNL     1      -1.781  52.957 -25.572  1.00  0.00    -0.311 OA
HETATM    6  C4  UNL     1      -2.307  52.046 -24.590  1.00  0.00     0.142 C 
HETATM    7  C5  UNL     1      -1.173  51.140 -24.123  1.00  0.00     0.039 C 
HETATM    8  C6  UNL     1      -1.578  49.997 -23.180  1.00  0.00     0.006 C 
HETATM    9  C7  UNL     1      -2.891  49.280 -23.594  1.00  0.00    -0.027 A 
HETATM   10  C8  UNL     1      -3.334  48.176 -22.607  1.00  0.00     0.011 C 
HETATM   11  C9  UNL     1      -3.225  48.534 -21.119  1.00  0.00     0.011 C 
HETATM   12  C10 UNL     1      -1.829  49.078 -20.778  1.00  0.00    -0.032 C 
HETATM   13  C11 UNL     1      -0.787  47.955 -21.050  1.00  0.00     0.016 C 
HETATM   14  C12 UNL     1      -1.607  49.641 -19.337  1.00  0.00    -0.002 C 
HETATM   15  C21 UNL     1      -0.472  50.692 -19.539  1.00  0.00     0.006 C 
HETATM   16  C22 UNL     1      -0.324  50.925 -21.056  1.00  0.00     0.011 C 
HETATM   17  C23 UNL     1      -1.627  50.379 -21.662  1.00  0.00    -0.032 C 
HETATM   18  C24 UNL     1      -2.721  51.472 -21.434  1.00  0.00     0.016 C 
HETATM   19  C25 UNL     1      -3.029  48.786 -25.013  1.00  0.00     0.022 A 
HETATM   20  C26 UNL     1      -3.852  49.991 -24.614  1.00  0.00    -0.021 A 
HETATM   21  C30 UNL     1      -3.462  51.326 -25.264  1.00  0.00     0.063 C 
ENDROOT
BRANCH  14  22
HETATM   22  C13 UNL     1      -1.397  48.746 -18.074  1.00  0.00    -0.014 C 
HETATM   23  C14 UNL     1      -2.624  48.490 -17.186  1.00  0.00     0.010 C 
BRANCH  22  24
HETATM   24  C15 UNL     1      -0.222  49.181 -17.168  1.00  0.00     0.008 C 
BRANCH  24  25
HETATM   25  C16 UNL     1      -0.398  50.504 -16.409  1.00  0.00     0.028 C 
BRANCH  25  26
HETATM   26  C17 UNL     1       0.651  51.528 -16.742  1.00  0.00    -0.022 C 
HETATM   27  C18 UNL     1       1.801  51.778 -16.081  1.00  0.00    -0.064 C 
HETATM   28  C19 UNL     1       2.255  51.011 -14.866  1.00  0.00     0.045 C 
BRANCH  27  29
HETATM   29  C20 UNL     1       2.772  52.868 -16.487  1.00  0.00     0.197 C 
BRANCH  29  30
HETATM   30  O3  UNL     1       3.824  53.029 -15.547  1.00  0.00    -0.397 OA
HETATM   31  H29 UNL     1       3.403  53.282 -14.709  1.00  0.00     0.209 HD
ENDBRANCH  29  30
ENDBRANCH  27  29
ENDBRANCH  25  26
ENDBRANCH  24  25
ENDBRANCH  22  24
ENDBRANCH  14  22
BRANCH  20  32
HETATM   32  C27 UNL     1      -5.363  49.869 -24.366  1.00  0.00     0.021 C 
BRANCH  32  33
HETATM   33  C28 UNL     1      -5.916  50.802 -23.290  1.00  0.00     0.111 C 
BRANCH  33  34
HETATM   34  C29 UNL     1      -6.853  50.164 -22.301  1.00  0.00     0.139 C 
HETATM   35  O4  UNL     1      -7.748  49.384 -22.581  1.00  0.00    -0.650 OA
BRANCH  34  36
HETATM   36  O5  UNL     1      -6.581  50.450 -21.016  1.00  0.00    -0.776 OA
HETATM   37  H43 UNL     1      -7.236  49.920 -20.513  1.00  0.00     0.167 HD
ENDBRANCH  34  36
ENDBRANCH  33  34
ENDBRANCH  32  33
ENDBRANCH  20  32
TORSDOF 10
ENDMDL
MODEL 3
REMARK minimizedAffinity -8.93822956
REMARK  10 active torsions:
REMARK  status: ('A' for Active; 'I' for Inactive)
REMARK    1  A    between atoms: C12_14  and  C13_15 
REMARK    2  A    between atoms: C13_15  and  C15_17 
REMARK    3  A    between atoms: C15_17  and  C16_18 
REMARK    4  A    between atoms: C16_18  and  C17_19 
REMARK    5  A    between atoms: C18_20  and  C20_22 
REMARK    6  A    between atoms: C20_22  and  O3_23 
REMARK    7  A    between atoms: C26_29  and  C27_30 
REMARK    8  A    between atoms: C27_30  and  C28_31 
REMARK    9  A    between atoms: C28_31  and  C29_32 
REMARK   10  A    between atoms: C29_32  and  O5_34 
ROOT
HETATM    1  C1  UNL     1       0.797  50.891 -16.688  1.00  0.00     0.025 C 
HETATM    2  C2  UNL     1      -0.528  50.996 -16.847  1.00  0.00     0.015 C 
HETATM    3  C3  UNL     1      -1.457  50.510 -15.800  1.00  0.00     0.289 C 
HETATM    4  O1  UNL     1      -1.167  50.182 -14.664  1.00  0.00    -0.260 OA
HETATM    5  O2  UNL     1      -2.710  50.504 -16.330  1.00  0.00    -0.311 OA
HETATM    6  C4  UNL     1      -2.648  50.759 -17.746  1.00  0.00     0.142 C 
HETATM    7  C5  UNL     1      -2.740  49.424 -18.476  1.00  0.00     0.039 C 
HETATM    8  C6  UNL     1      -2.540  49.481 -19.997  1.00  0.00     0.006 C 
HETATM    9  C7  UNL     1      -1.384  50.417 -20.441  1.00  0.00    -0.027 A 
HETATM   10  C8  UNL     1      -1.226  50.526 -21.975  1.00  0.00     0.011 C 
HETATM   11  C9  UNL     1      -2.533  50.679 -22.766  1.00  0.00     0.011 C 
HETATM   12  C10 UNL     1      -3.552  49.598 -22.371  1.00  0.00    -0.032 C 
HETATM   13  C11 UNL     1      -2.959  48.209 -22.743  1.00  0.00     0.016 C 
HETATM   14  C12 UNL     1      -4.991  49.714 -22.969  1.00  0.00    -0.002 C 
HETATM   15  C21 UNL     1      -5.877  49.008 -21.896  1.00  0.00     0.006 C 
HETATM   16  C22 UNL     1      -5.010  48.821 -20.634  1.00  0.00     0.011 C 
HETATM   17  C23 UNL     1      -3.833  49.791 -20.824  1.00  0.00    -0.032 C 
HETATM   18  C24 UNL     1      -4.360  51.215 -20.451  1.00  0.00     0.016 C 
HETATM   19  C25 UNL     1      -0.029  50.249 -19.797  1.00  0.00     0.022 A 
HETATM   20  C26 UNL     1      -0.832  51.474 -19.419  1.00  0.00    -0.021 A 
HETATM   21  C30 UNL     1      -1.357  51.524 -17.976  1.00  0.00     0.063 C 
ENDROOT
BRANCH  14  22
HETATM   22  C13 UNL     1      -5.364  49.312 -24.431  1.00  0.00    -0.014 C 
HETATM   23  C14 UNL     1      -5.974  47.918 -24.641  1.00  0.00     0.010 C 
BRANCH  22  24
HETATM   24  C15 UNL     1      -4.224  49.504 -25.459  1.00  0.00     0.008 C 
BRANCH  24  25
HETATM   25  C16 UNL     1      -3.862  48.281 -26.313  1.00  0.00     0.028 C 
BRANCH  25  26
HETATM   26  C17 UNL     1      -4.000  48.522 -27.791  1.00  0.00    -0.022 C 
HETATM   27  C18 UNL     1      -5.066  48.257 -28.576  1.00  0.00    -0.064 C 
HETATM   28  C19 UNL     1      -6.362  47.682 -28.066  1.00  0.00     0.045 C 
BRANCH  27  29
HETATM   29  C20 UNL     1      -5.079  48.507 -30.071  1.00  0.00     0.197 C 
BRANCH  29  30
HETATM   30  O3  UNL     1      -4.562  49.786 -30.406  1.00  0.00    -0.397 OA
HETATM   31  H29 UNL     1      -5.143  50.435 -29.975  1.00  0.00     0.209 HD
ENDBRANCH  29  30
ENDBRANCH  27  29
ENDBRANCH  25  26
ENDBRANCH  24  25
ENDBRANCH  22  24
ENDBRANCH  14  22
BRANCH  20  32
HETATM   32  C27 UNL     1      -0.462  52.861 -19.965  1.00  0.00     0.021 C 
BRANCH  32  33
HETATM   33  C28 UNL     1       1.013  53.039 -20.323  1.00  0.00     0.111 C 
BRANCH  33  34
HETATM   34  C29 UNL     1       1.282  53.640 -21.676  1.00  0.00     0.139 C 
HETATM   35  O4  UNL     1       0.888  53.188 -22.739  1.00  0.00    -0.650 OA
BRANCH  34  36
HETATM   36  O5  UNL     1       1.940  54.811 -21.640  1.00  0.00    -0.776 OA
HETATM   37  H43 UNL     1       1.981  55.087 -22.581  1.00  0.00     0.167 HD
ENDBRANCH  34  36
ENDBRANCH  33  34
ENDBRANCH  32  33
ENDBRANCH  20  32
TORSDOF 10
ENDMDL
MODEL 4
REMARK minimizedAffinity -8.78885651
REMARK  10 active torsions:
REMARK  status: ('A' for Active; 'I' for Inactive)
REMARK    1  A    between atoms: C12_14  and  C13_15 
REMARK    2  A    between atoms: C13_15  and  C15_17 
REMARK    3  A    between atoms: C15_17  and  C16_18 
REMARK    4  A    between atoms: C16_18  and  C17_19 
REMARK    5  A    between atoms: C18_20  and  C20_22 
REMARK    6  A    between atoms: C20_22  and  O3_23 
REMARK    7  A    between atoms: C26_29  and  C27_30 
REMARK    8  A    between atoms: C27_30  and  C28_31 
REMARK    9  A    between atoms: C28_31  and  C29_32 
REMARK   10  A    between atoms: C29_32  and  O5_34 
ROOT
HETATM    1  C1  UNL     1       0.302  53.897 -25.550  1.00  0.00     0.025 C 
HETATM    2  C2  UNL     1       0.007  52.608 -25.759  1.00  0.00     0.015 C 
HETATM    3  C3  UNL     1       0.067  52.029 -27.122  1.00  0.00     0.289 C 
HETATM    4  O1  UNL     1       0.560  52.542 -28.109  1.00  0.00    -0.260 OA
HETATM    5  O2  UNL     1      -0.520  50.804 -27.076  1.00  0.00    -0.311 OA
HETATM    6  C4  UNL     1      -1.164  50.612 -25.803  1.00  0.00     0.142 C 
HETATM    7  C5  UNL     1      -2.651  50.902 -25.970  1.00  0.00     0.039 C 
HETATM    8  C6  UNL     1      -3.481  50.895 -24.678  1.00  0.00     0.006 C 
HETATM    9  C7  UNL     1      -2.784  51.600 -23.483  1.00  0.00    -0.027 A 
HETATM   10  C8  UNL     1      -3.590  51.533 -22.166  1.00  0.00     0.011 C 
HETATM   11  C9  UNL     1      -4.224  50.173 -21.844  1.00  0.00     0.011 C 
HETATM   12  C10 UNL     1      -5.033  49.641 -23.037  1.00  0.00    -0.032 C 
HETATM   13  C11 UNL     1      -6.202  50.629 -23.314  1.00  0.00     0.016 C 
HETATM   14  C12 UNL     1      -5.608  48.191 -22.928  1.00  0.00    -0.002 C 
HETATM   15  C21 UNL     1      -5.691  47.732 -24.417  1.00  0.00     0.006 C 
HETATM   16  C22 UNL     1      -4.893  48.748 -25.258  1.00  0.00     0.011 C 
HETATM   17  C23 UNL     1      -4.012  49.489 -24.240  1.00  0.00    -0.032 C 
HETATM   18  C24 UNL     1      -2.802  48.550 -23.925  1.00  0.00     0.016 C 
HETATM   19  C25 UNL     1      -2.239  52.993 -23.682  1.00  0.00     0.022 A 
HETATM   20  C26 UNL     1      -1.237  51.866 -23.560  1.00  0.00    -0.021 A 
HETATM   21  C30 UNL     1      -0.441  51.525 -24.828  1.00  0.00     0.063 C 
ENDROOT
BRANCH  14  22
HETATM   22  C13 UNL     1      -6.875  47.815 -22.098  1.00  0.00    -0.014 C 
HETATM   23  C14 UNL     1      -6.697  47.658 -20.580  1.00  0.00     0.010 C 
BRANCH  22  24
HETATM   24  C15 UNL     1      -7.648  46.584 -22.627  1.00  0.00     0.008 C 
BRANCH  24  25
HETATM   25  C16 UNL     1      -9.094  46.828 -23.080  1.00  0.00     0.028 C 
BRANCH  25  26
HETATM   26  C17 UNL     1      -9.214  47.858 -24.168  1.00  0.00    -0.022 C 
HETATM   27  C18 UNL     1      -9.240  47.653 -25.502  1.00  0.00    -0.064 C 
HETATM   28  C19 UNL     1      -9.185  46.290 -26.142  1.00  0.00     0.045 C 
BRANCH  27  29
HETATM   29  C20 UNL     1      -9.326  48.778 -26.514  1.00  0.00     0.197 C 
BRANCH  29  30
HETATM   30  O3  UNL     1      -9.607  50.029 -25.904  1.00  0.00    -0.397 OA
HETATM   31  H29 UNL     1     -10.470  49.932 -25.470  1.00  0.00     0.209 HD
ENDBRANCH  29  30
ENDBRANCH  27  29
ENDBRANCH  25  26
ENDBRANCH  24  25
ENDBRANCH  22  24
ENDBRANCH  14  22
BRANCH  20  32
HETATM   32  C27 UNL     1      -0.420  51.671 -22.274  1.00  0.00     0.021 C 
BRANCH  32  33
HETATM   33  C28 UNL     1       0.527  52.821 -21.932  1.00  0.00     0.111 C 
BRANCH  33  34
HETATM   34  C29 UNL     1       0.455  53.317 -20.514  1.00  0.00     0.139 C 
HETATM   35  O4  UNL     1      -0.243  52.839 -19.635  1.00  0.00    -0.650 OA
BRANCH  34  36
HETATM   36  O5  UNL     1       1.312  54.313 -20.232  1.00  0.00    -0.776 OA
HETATM   37  H43 UNL     1       1.179  54.475 -19.274  1.00  0.00     0.167 HD
ENDBRANCH  34  36
ENDBRANCH  33  34
ENDBRANCH  32  33
ENDBRANCH  20  32
TORSDOF 10
ENDMDL
MODEL 5
REMARK minimizedAffinity -8.76648617
REMARK  10 active torsions:
REMARK  status: ('A' for Active; 'I' for Inactive)
REMARK    1  A    between atoms: C12_14  and  C13_15 
REMARK    2  A    between atoms: C13_15  and  C15_17 
REMARK    3  A    between atoms: C15_17  and  C16_18 
REMARK    4  A    between atoms: C16_18  and  C17_19 
REMARK    5  A    between atoms: C18_20  and  C20_22 
REMARK    6  A    between atoms: C20_22  and  O3_23 
REMARK    7  A    between atoms: C26_29  and  C27_30 
REMARK    8  A    between atoms: C27_30  and  C28_31 
REMARK    9  A    between atoms: C28_31  and  C29_32 
REMARK   10  A    between atoms: C29_32  and  O5_34 
ROOT
HETATM    1  C1  UNL     1       0.274  53.811 -25.609  1.00  0.00     0.025 C 
HETATM    2  C2  UNL     1      -0.056  52.525 -25.780  1.00  0.00     0.015 C 
HETATM    3  C3  UNL     1      -0.098  51.930 -27.137  1.00  0.00     0.289 C 
HETATM    4  O1  UNL     1       0.334  52.423 -28.162  1.00  0.00    -0.260 OA
HETATM    5  O2  UNL     1      -0.702  50.715 -27.036  1.00  0.00    -0.311 OA
HETATM    6  C4  UNL     1      -1.260  50.550 -25.719  1.00  0.00     0.142 C 
HETATM    7  C5  UNL     1      -2.750  50.864 -25.788  1.00  0.00     0.039 C 
HETATM    8  C6  UNL     1      -3.490  50.887 -24.443  1.00  0.00     0.006 C 
HETATM    9  C7  UNL     1      -2.701  51.593 -23.307  1.00  0.00    -0.027 A 
HETATM   10  C8  UNL     1      -3.417  51.556 -21.938  1.00  0.00     0.011 C 
HETATM   11  C9  UNL     1      -4.050  50.211 -21.556  1.00  0.00     0.011 C 
HETATM   12  C10 UNL     1      -4.948  49.679 -22.685  1.00  0.00    -0.032 C 
HETATM   13  C11 UNL     1      -6.116  50.685 -22.894  1.00  0.00     0.016 C 
HETATM   14  C12 UNL     1      -5.538  48.241 -22.518  1.00  0.00    -0.002 C 
HETATM   15  C21 UNL     1      -5.730  47.766 -23.992  1.00  0.00     0.006 C 
HETATM   16  C22 UNL     1      -4.974  48.758 -24.898  1.00  0.00     0.011 C 
HETATM   17  C23 UNL     1      -4.014  49.495 -23.952  1.00  0.00    -0.032 C 
HETATM   18  C24 UNL     1      -2.801  48.539 -23.708  1.00  0.00     0.016 C 
HETATM   19  C25 UNL     1      -2.148  52.974 -23.561  1.00  0.00     0.022 A 
HETATM   20  C26 UNL     1      -1.159  51.831 -23.493  1.00  0.00    -0.021 A 
HETATM   21  C30 UNL     1      -0.457  51.461 -24.807  1.00  0.00     0.063 C 
ENDROOT
BRANCH  14  22
HETATM   22  C13 UNL     1      -6.752  47.897 -21.599  1.00  0.00    -0.014 C 
HETATM   23  C14 UNL     1      -8.139  48.363 -22.068  1.00  0.00     0.010 C 
BRANCH  22  24
HETATM   24  C15 UNL     1      -6.574  48.311 -20.120  1.00  0.00     0.008 C 
BRANCH  24  25
HETATM   25  C16 UNL     1      -7.671  49.205 -19.524  1.00  0.00     0.028 C 
BRANCH  25  26
HETATM   26  C17 UNL     1      -8.370  48.588 -18.345  1.00  0.00    -0.022 C 
HETATM   27  C18 UNL     1      -9.639  48.130 -18.282  1.00  0.00    -0.064 C 
HETATM   28  C19 UNL     1     -10.591  48.134 -19.449  1.00  0.00     0.045 C 
BRANCH  27  29
HETATM   29  C20 UNL     1     -10.254  47.560 -17.020  1.00  0.00     0.197 C 
BRANCH  29  30
HETATM   30  O3  UNL     1     -10.168  48.461 -15.926  1.00  0.00    -0.397 OA
HETATM   31  H29 UNL     1      -9.221  48.610 -15.772  1.00  0.00     0.209 HD
ENDBRANCH  29  30
ENDBRANCH  27  29
ENDBRANCH  25  26
ENDBRANCH  24  25
ENDBRANCH  22  24
ENDBRANCH  14  22
BRANCH  20  32
HETATM   32  C27 UNL     1      -0.260  51.637 -22.263  1.00  0.00     0.021 C 
BRANCH  32  33
HETATM   33  C28 UNL     1       0.701  52.791 -21.979  1.00  0.00     0.111 C 
BRANCH  33  34
HETATM   34  C29 UNL     1       0.835  53.178 -20.532  1.00  0.00     0.139 C 
HETATM   35  O4  UNL     1       0.539  52.472 -19.583  1.00  0.00    -0.650 OA
BRANCH  34  36
HETATM   36  O5  UNL     1       1.412  54.375 -20.331  1.00  0.00    -0.776 OA
HETATM   37  H43 UNL     1       1.474  54.446 -19.355  1.00  0.00     0.167 HD
ENDBRANCH  34  36
ENDBRANCH  33  34
ENDBRANCH  32  33
ENDBRANCH  20  32
TORSDOF 10
ENDMDL
MODEL 6
REMARK minimizedAffinity -8.64377785
REMARK  10 active torsions:
REMARK  status: ('A' for Active; 'I' for Inactive)
REMARK    1  A    between atoms: C12_14  and  C13_15 
REMARK    2  A    between atoms: C13_15  and  C15_17 
REMARK    3  A    between atoms: C15_17  and  C16_18 
REMARK    4  A    between atoms: C16_18  and  C17_19 
REMARK    5  A    between atoms: C18_20  and  C20_22 
REMARK    6  A    between atoms: C20_22  and  O3_23 
REMARK    7  A    between atoms: C26_29  and  C27_30 
REMARK    8  A    between atoms: C27_30  and  C28_31 
REMARK    9  A    between atoms: C28_31  and  C29_32 
REMARK   10  A    between atoms: C29_32  and  O5_34 
ROOT
HETATM    1  C1  UNL     1      -0.575  51.461 -27.853  1.00  0.00     0.025 C 
HETATM    2  C2  UNL     1      -1.035  52.174 -26.818  1.00  0.00     0.015 C 
HETATM    3  C3  UNL     1      -0.456  53.500 -26.495  1.00  0.00     0.289 C 
HETATM    4  O1  UNL     1       0.294  54.156 -27.194  1.00  0.00    -0.260 OA
HETATM    5  O2  UNL     1      -0.923  53.867 -25.272  1.00  0.00    -0.311 OA
HETATM    6  C4  UNL     1      -1.619  52.766 -24.658  1.00  0.00     0.142 C 
HETATM    7  C5  UNL     1      -0.670  52.090 -23.675  1.00  0.00     0.039 C 
HETATM    8  C6  UNL     1      -1.189  50.796 -23.031  1.00  0.00     0.006 C 
HETATM    9  C7  UNL     1      -1.921  49.853 -24.023  1.00  0.00    -0.027 A 
HETATM   10  C8  UNL     1      -2.501  48.583 -23.360  1.00  0.00     0.011 C 
HETATM   11  C9  UNL     1      -3.214  48.802 -22.018  1.00  0.00     0.011 C 
HETATM   12  C10 UNL     1      -2.334  49.604 -21.046  1.00  0.00    -0.032 C 
HETATM   13  C11 UNL     1      -1.055  48.772 -20.746  1.00  0.00     0.016 C 
HETATM   14  C12 UNL     1      -2.979  50.051 -19.693  1.00  0.00    -0.002 C 
HETATM   15  C21 UNL     1      -2.181  51.342 -19.332  1.00  0.00     0.006 C 
HETATM   16  C22 UNL     1      -1.381  51.755 -20.584  1.00  0.00     0.011 C 
HETATM   17  C23 UNL     1      -2.054  51.000 -21.741  1.00  0.00    -0.032 C 
HETATM   18  C24 UNL     1      -3.349  51.795 -22.104  1.00  0.00     0.016 C 
HETATM   19  C25 UNL     1      -1.233  49.488 -25.316  1.00  0.00     0.022 A 
HETATM   20  C26 UNL     1      -2.411  50.435 -25.398  1.00  0.00    -0.021 A 
HETATM   21  C30 UNL     1      -2.092  51.882 -25.799  1.00  0.00     0.063 C 
ENDROOT
BRANCH  14  22
HETATM   22  C13 UNL     1      -3.194  49.101 -18.474  1.00  0.00    -0.014 C 
HETATM   23  C14 UNL     1      -4.643  48.732 -18.120  1.00  0.00     0.010 C 
BRANCH  22  24
HETATM   24  C15 UNL     1      -2.476  49.546 -17.179  1.00  0.00     0.008 C 
BRANCH  24  25
HETATM   25  C16 UNL     1      -1.056  49.004 -16.964  1.00  0.00     0.028 C 
BRANCH  25  26
HETATM   26  C17 UNL     1       0.019  50.019 -17.240  1.00  0.00    -0.022 C 
HETATM   27  C18 UNL     1       0.474  50.986 -16.415  1.00  0.00    -0.064 C 
HETATM   28  C19 UNL     1      -0.023  51.191 -15.008  1.00  0.00     0.045 C 
BRANCH  27  29
HETATM   29  C20 UNL     1       1.541  51.984 -16.815  1.00  0.00     0.197 C 
BRANCH  29  30
HETATM   30  O3  UNL     1       1.406  53.220 -16.129  1.00  0.00    -0.397 OA
HETATM   31  H29 UNL     1       0.537  53.575 -16.377  1.00  0.00     0.209 HD
ENDBRANCH  29  30
ENDBRANCH  27  29
ENDBRANCH  25  26
ENDBRANCH  24  25
ENDBRANCH  22  24
ENDBRANCH  14  22
BRANCH  20  32
HETATM   32  C27 UNL     1      -3.773  49.958 -25.924  1.00  0.00     0.021 C 
BRANCH  32  33
HETATM   33  C28 UNL     1      -3.733  48.660 -26.728  1.00  0.00     0.111 C 
BRANCH  33  34
HETATM   34  C29 UNL     1      -4.495  48.680 -28.025  1.00  0.00     0.139 C 
HETATM   35  O4  UNL     1      -5.475  47.998 -28.277  1.00  0.00    -0.650 OA
BRANCH  34  36
HETATM   36  O5  UNL     1      -4.067  49.601 -28.905  1.00  0.00    -0.776 OA
HETATM   37  H43 UNL     1      -4.694  49.520 -29.655  1.00  0.00     0.167 HD
ENDBRANCH  34  36
ENDBRANCH  33  34
ENDBRANCH  32  33
ENDBRANCH  20  32
TORSDOF 10
ENDMDL
MODEL 7
REMARK minimizedAffinity -8.57944393
REMARK  10 active torsions:
REMARK  status: ('A' for Active; 'I' for Inactive)
REMARK    1  A    between atoms: C12_14  and  C13_15 
REMARK    2  A    between atoms: C13_15  and  C15_17 
REMARK    3  A    between atoms: C15_17  and  C16_18 
REMARK    4  A    between atoms: C16_18  and  C17_19 
REMARK    5  A    between atoms: C18_20  and  C20_22 
REMARK    6  A    between atoms: C20_22  and  O3_23 
REMARK    7  A    between atoms: C26_29  and  C27_30 
REMARK    8  A    between atoms: C27_30  and  C28_31 
REMARK    9  A    between atoms: C28_31  and  C29_32 
REMARK   10  A    between atoms: C29_32  and  O5_34 
ROOT
HETATM    1  C1  UNL     1      -8.750  47.547 -20.657  1.00  0.00     0.025 C 
HETATM    2  C2  UNL     1      -7.555  47.109 -21.073  1.00  0.00     0.015 C 
HETATM    3  C3  UNL     1      -7.086  45.746 -20.727  1.00  0.00     0.289 C 
HETATM    4  O1  UNL     1      -7.752  44.846 -20.250  1.00  0.00    -0.260 OA
HETATM    5  O2  UNL     1      -5.768  45.669 -21.051  1.00  0.00    -0.311 OA
HETATM    6  C4  UNL     1      -5.268  46.974 -21.399  1.00  0.00     0.142 C 
HETATM    7  C5  UNL     1      -4.550  47.551 -20.185  1.00  0.00     0.039 C 
HETATM    8  C6  UNL     1      -4.077  49.006 -20.319  1.00  0.00     0.006 C 
HETATM    9  C7  UNL     1      -5.113  49.940 -21.000  1.00  0.00    -0.027 A 
HETATM   10  C8  UNL     1      -4.610  51.388 -21.196  1.00  0.00     0.011 C 
HETATM   11  C9  UNL     1      -3.170  51.526 -21.707  1.00  0.00     0.011 C 
HETATM   12  C10 UNL     1      -2.196  50.693 -20.858  1.00  0.00    -0.032 C 
HETATM   13  C11 UNL     1      -2.216  51.250 -19.406  1.00  0.00     0.016 C 
HETATM   14  C12 UNL     1      -0.714  50.598 -21.347  1.00  0.00    -0.002 C 
HETATM   15  C21 UNL     1      -0.242  49.225 -20.776  1.00  0.00     0.006 C 
HETATM   16  C22 UNL     1      -1.497  48.470 -20.294  1.00  0.00     0.011 C 
HETATM   17  C23 UNL     1      -2.670  49.186 -20.983  1.00  0.00    -0.032 C 
HETATM   18  C24 UNL     1      -2.717  48.659 -22.454  1.00  0.00     0.016 C 
HETATM   19  C25 UNL     1      -6.529  49.954 -20.476  1.00  0.00     0.022 A 
HETATM   20  C26 UNL     1      -6.290  49.295 -21.817  1.00  0.00    -0.021 A 
HETATM   21  C30 UNL     1      -6.473  47.771 -21.867  1.00  0.00     0.063 C 
ENDROOT
BRANCH  14  22
HETATM   22  C13 UNL     1       0.340  51.734 -21.163  1.00  0.00    -0.014 C 
HETATM   23  C14 UNL     1      -0.111  52.991 -20.402  1.00  0.00     0.010 C 
BRANCH  22  24
HETATM   24  C15 UNL     1       1.038  52.181 -22.468  1.00  0.00     0.008 C 
BRANCH  24  25
HETATM   25  C16 UNL     1       0.158  52.251 -23.724  1.00  0.00     0.028 C 
BRANCH  25  26
HETATM   26  C17 UNL     1       0.943  52.422 -24.995  1.00  0.00    -0.022 C 
HETATM   27  C18 UNL     1       0.826  51.716 -26.140  1.00  0.00    -0.064 C 
HETATM   28  C19 UNL     1      -0.180  50.615 -26.348  1.00  0.00     0.045 C 
BRANCH  27  29
HETATM   29  C20 UNL     1       1.703  51.952 -27.353  1.00  0.00     0.197 C 
BRANCH  29  30
HETATM   30  O3  UNL     1       3.085  51.955 -27.025  1.00  0.00    -0.397 OA
HETATM   31  H29 UNL     1       3.213  52.687 -26.400  1.00  0.00     0.209 HD
ENDBRANCH  29  30
ENDBRANCH  27  29
ENDBRANCH  25  26
ENDBRANCH  24  25
ENDBRANCH  22  24
ENDBRANCH  14  22
BRANCH  20  32
HETATM   32  C27 UNL     1      -6.708  49.987 -23.123  1.00  0.00     0.021 C 
BRANCH  32  33
HETATM   33  C28 UNL     1      -7.018  49.041 -24.282  1.00  0.00     0.111 C 
BRANCH  33  34
HETATM   34  C29 UNL     1      -8.472  48.927 -24.652  1.00  0.00     0.139 C 
HETATM   35  O4  UNL     1      -9.280  48.186 -24.117  1.00  0.00    -0.650 OA
BRANCH  34  36
HETATM   36  O5  UNL     1      -8.872  49.795 -25.597  1.00  0.00    -0.776 OA
HETATM   37  H43 UNL     1      -9.836  49.630 -25.677  1.00  0.00     0.167 HD
ENDBRANCH  34  36
ENDBRANCH  33  34
ENDBRANCH  32  33
ENDBRANCH  20  32
TORSDOF 10
ENDMDL
MODEL 8
REMARK minimizedAffinity -8.54265213
REMARK  10 active torsions:
REMARK  status: ('A' for Active; 'I' for Inactive)
REMARK    1  A    between atoms: C12_14  and  C13_15 
REMARK    2  A    between atoms: C13_15  and  C15_17 
REMARK    3  A    between atoms: C15_17  and  C16_18 
REMARK    4  A    between atoms: C16_18  and  C17_19 
REMARK    5  A    between atoms: C18_20  and  C20_22 
REMARK    6  A    between atoms: C20_22  and  O3_23 
REMARK    7  A    between atoms: C26_29  and  C27_30 
REMARK    8  A    between atoms: C27_30  and  C28_31 
REMARK    9  A    between atoms: C28_31  and  C29_32 
REMARK   10  A    between atoms: C29_32  and  O5_34 
ROOT
HETATM    1  C1  UNL     1       0.487  53.160 -18.854  1.00  0.00     0.025 C 
HETATM    2  C2  UNL     1       0.499  52.579 -20.059  1.00  0.00     0.015 C 
HETATM    3  C3  UNL     1       1.116  53.261 -21.222  1.00  0.00     0.289 C 
HETATM    4  O1  UNL     1       1.823  54.251 -21.194  1.00  0.00    -0.260 OA
HETATM    5  O2  UNL     1       0.760  52.573 -22.340  1.00  0.00    -0.311 OA
HETATM    6  C4  UNL     1      -0.239  51.588 -22.017  1.00  0.00     0.142 C 
HETATM    7  C5  UNL     1      -1.606  52.153 -22.385  1.00  0.00     0.039 C 
HETATM    8  C6  UNL     1      -2.813  51.298 -21.971  1.00  0.00     0.006 C 
HETATM    9  C7  UNL     1      -2.692  50.692 -20.547  1.00  0.00    -0.027 A 
HETATM   10  C8  UNL     1      -3.877  49.778 -20.159  1.00  0.00     0.011 C 
HETATM   11  C9  UNL     1      -4.347  48.803 -21.247  1.00  0.00     0.011 C 
HETATM   12  C10 UNL     1      -4.601  49.534 -22.575  1.00  0.00    -0.032 C 
HETATM   13  C11 UNL     1      -5.752  50.558 -22.357  1.00  0.00     0.016 C 
HETATM   14  C12 UNL     1      -4.930  48.658 -23.827  1.00  0.00    -0.002 C 
HETATM   15  C21 UNL     1      -4.423  49.535 -25.014  1.00  0.00     0.006 C 
HETATM   16  C22 UNL     1      -3.566  50.668 -24.417  1.00  0.00     0.011 C 
HETATM   17  C23 UNL     1      -3.221  50.189 -22.998  1.00  0.00    -0.032 C 
HETATM   18  C24 UNL     1      -2.054  49.159 -23.143  1.00  0.00     0.016 C 
HETATM   19  C25 UNL     1      -2.352  51.608 -19.397  1.00  0.00     0.022 A 
HETATM   20  C26 UNL     1      -1.279  50.647 -19.862  1.00  0.00    -0.021 A 
HETATM   21  C30 UNL     1      -0.053  51.274 -20.542  1.00  0.00     0.063 C 
ENDROOT
BRANCH  14  22
HETATM   22  C13 UNL     1      -6.324  48.008 -24.096  1.00  0.00    -0.014 C 
HETATM   23  C14 UNL     1      -6.678  46.751 -23.287  1.00  0.00     0.010 C 
BRANCH  22  24
HETATM   24  C15 UNL     1      -6.625  47.727 -25.586  1.00  0.00     0.008 C 
BRANCH  24  25
HETATM   25  C16 UNL     1      -7.919  46.960 -25.889  1.00  0.00     0.028 C 
BRANCH  25  26
HETATM   26  C17 UNL     1      -8.650  47.474 -27.099  1.00  0.00    -0.022 C 
HETATM   27  C18 UNL     1      -8.147  47.712 -28.329  1.00  0.00    -0.064 C 
HETATM   28  C19 UNL     1      -6.713  47.455 -28.713  1.00  0.00     0.045 C 
BRANCH  27  29
HETATM   29  C20 UNL     1      -8.973  48.270 -29.470  1.00  0.00     0.197 C 
BRANCH  29  30
HETATM   30  O3  UNL     1      -8.773  49.665 -29.646  1.00  0.00    -0.397 OA
HETATM   31  H29 UNL     1      -9.058  50.086 -28.818  1.00  0.00     0.209 HD
ENDBRANCH  29  30
ENDBRANCH  27  29
ENDBRANCH  25  26
ENDBRANCH  24  25
ENDBRANCH  22  24
ENDBRANCH  14  22
BRANCH  20  32
HETATM   32  C27 UNL     1      -0.929  49.397 -19.042  1.00  0.00     0.021 C 
BRANCH  32  33
HETATM   33  C28 UNL     1      -1.149  49.533 -17.536  1.00  0.00     0.111 C 
BRANCH  33  34
HETATM   34  C29 UNL     1       0.097  49.490 -16.695  1.00  0.00     0.139 C 
HETATM   35  O4  UNL     1       0.787  50.455 -16.407  1.00  0.00    -0.650 OA
BRANCH  34  36
HETATM   36  O5  UNL     1       0.376  48.281 -16.179  1.00  0.00    -0.776 OA
HETATM   37  H43 UNL     1       1.169  48.439 -15.623  1.00  0.00     0.167 HD
ENDBRANCH  34  36
ENDBRANCH  33  34
ENDBRANCH  32  33
ENDBRANCH  20  32
TORSDOF 10
ENDMDL
MODEL 9
REMARK minimizedAffinity -8.44923401
REMARK  10 active torsions:
REMARK  status: ('A' for Active; 'I' for Inactive)
REMARK    1  A    between atoms: C12_14  and  C13_15 
REMARK    2  A    between atoms: C13_15  and  C15_17 
REMARK    3  A    between atoms: C15_17  and  C16_18 
REMARK    4  A    between atoms: C16_18  and  C17_19 
REMARK    5  A    between atoms: C18_20  and  C20_22 
REMARK    6  A    between atoms: C20_22  and  O3_23 
REMARK    7  A    between atoms: C26_29  and  C27_30 
REMARK    8  A    between atoms: C27_30  and  C28_31 
REMARK    9  A    between atoms: C28_31  and  C29_32 
REMARK   10  A    between atoms: C29_32  and  O5_34 
ROOT
HETATM    1  C1  UNL     1       0.206  53.863 -25.520  1.00  0.00     0.025 C 
HETATM    2  C2  UNL     1      -0.107  52.577 -25.721  1.00  0.00     0.015 C 
HETATM    3  C3  UNL     1      -0.101  52.002 -27.087  1.00  0.00     0.289 C 
HETATM    4  O1  UNL     1       0.359  52.514 -28.091  1.00  0.00    -0.260 OA
HETATM    5  O2  UNL     1      -0.697  50.781 -27.023  1.00  0.00    -0.311 OA
HETATM    6  C4  UNL     1      -1.295  50.591 -25.727  1.00  0.00     0.142 C 
HETATM    7  C5  UNL     1      -2.785  50.894 -25.839  1.00  0.00     0.039 C 
HETATM    8  C6  UNL     1      -3.567  50.891 -24.518  1.00  0.00     0.006 C 
HETATM    9  C7  UNL     1      -2.821  51.586 -23.347  1.00  0.00    -0.027 A 
HETATM   10  C8  UNL     1      -3.579  51.522 -22.002  1.00  0.00     0.011 C 
HETATM   11  C9  UNL     1      -4.212  50.166 -21.661  1.00  0.00     0.011 C 
HETATM   12  C10 UNL     1      -5.069  49.644 -22.825  1.00  0.00    -0.032 C 
HETATM   13  C11 UNL     1      -6.239  50.643 -23.056  1.00  0.00     0.016 C 
HETATM   14  C12 UNL     1      -5.651  48.199 -22.698  1.00  0.00    -0.002 C 
HETATM   15  C21 UNL     1      -5.793  47.744 -24.185  1.00  0.00     0.006 C 
HETATM   16  C22 UNL     1      -5.017  48.756 -25.052  1.00  0.00     0.011 C 
HETATM   17  C23 UNL     1      -4.094  49.487 -24.064  1.00  0.00    -0.032 C 
HETATM   18  C24 UNL     1      -2.881  48.538 -23.797  1.00  0.00     0.016 C 
HETATM   19  C25 UNL     1      -2.272  52.975 -23.563  1.00  0.00     0.022 A 
HETATM   20  C26 UNL     1      -1.276  51.839 -23.480  1.00  0.00    -0.021 A 
HETATM   21  C30 UNL     1      -0.529  51.495 -24.777  1.00  0.00     0.063 C 
ENDROOT
BRANCH  14  22
HETATM   22  C13 UNL     1      -6.891  47.831 -21.824  1.00  0.00    -0.014 C 
HETATM   23  C14 UNL     1      -7.502  48.952 -20.970  1.00  0.00     0.010 C 
BRANCH  22  24
HETATM   24  C15 UNL     1      -6.697  46.587 -20.926  1.00  0.00     0.008 C 
BRANCH  24  25
HETATM   25  C16 UNL     1      -6.215  46.848 -19.492  1.00  0.00     0.028 C 
BRANCH  25  26
HETATM   26  C17 UNL     1      -4.805  47.364 -19.420  1.00  0.00    -0.022 C 
HETATM   27  C18 UNL     1      -3.693  46.812 -19.951  1.00  0.00    -0.064 C 
HETATM   28  C19 UNL     1      -3.694  45.546 -20.769  1.00  0.00     0.045 C 
BRANCH  27  29
HETATM   29  C20 UNL     1      -2.309  47.404 -19.782  1.00  0.00     0.197 C 
BRANCH  29  30
HETATM   30  O3  UNL     1      -1.955  47.559 -18.416  1.00  0.00    -0.397 OA
HETATM   31  H29 UNL     1      -2.605  48.171 -18.035  1.00  0.00     0.209 HD
ENDBRANCH  29  30
ENDBRANCH  27  29
ENDBRANCH  25  26
ENDBRANCH  24  25
ENDBRANCH  22  24
ENDBRANCH  14  22
BRANCH  20  32
HETATM   32  C27 UNL     1      -0.414  51.634 -22.225  1.00  0.00     0.021 C 
BRANCH  32  33
HETATM   33  C28 UNL     1       0.505  52.804 -21.878  1.00  0.00     0.111 C 
BRANCH  33  34
HETATM   34  C29 UNL     1       0.417  53.295 -20.459  1.00  0.00     0.139 C 
HETATM   35  O4  UNL     1      -0.287  52.811 -19.588  1.00  0.00    -0.650 OA
BRANCH  34  36
HETATM   36  O5  UNL     1       1.267  54.294 -20.165  1.00  0.00    -0.776 OA
HETATM   37  H43 UNL     1       1.123  54.452 -19.207  1.00  0.00     0.167 HD
ENDBRANCH  34  36
ENDBRANCH  33  34
ENDBRANCH  32  33
ENDBRANCH  20  32
TORSDOF 10
ENDMDL
