MODEL 1
REMARK minimizedAffinity -8.13750744
REMARK CNNscore 0.536471546
REMARK CNNaffinity 6.70238161
REMARK  13 active torsions:
REMARK  status: ('A' for Active; 'I' for Inactive)
REMARK    1  A    between atoms: C12_13  and  O2_14 
REMARK    2  A    between atoms: C19_21  and  O3_22 
REMARK    3  A    between atoms: C19_21  and  C20_23 
REMARK    4  A    between atoms: C20_23  and  C21_25 
REMARK    5  A    between atoms: C21_25  and  O5_26 
REMARK    6  A    between atoms: O5_26  and  C22_27 
REMARK    7  A    between atoms: C22_27  and  C23_29 
REMARK    8  A    between atoms: C23_29  and  C24_30 
REMARK    9  A    between atoms: C24_30  and  C25_31 
REMARK       I    between atoms: C25_31  and  N1_33 
REMARK   10  A    between atoms: N1_33  and  C26_34 
REMARK   11  A    between atoms: C26_34  and  C27_35 
REMARK   12  A    between atoms: C30_38  and  C31_39 
REMARK   13  A    between atoms: C31_39  and  O9_41 
ROOT
HETATM    1  C1  UNL     1      -8.977  45.403 -24.943  1.00  0.00     0.020 C 
HETATM    2  C2  UNL     1      -8.439  46.801 -25.330  1.00  0.00    -0.014 C 
HETATM    3  C3  UNL     1      -9.390  47.901 -24.787  1.00  0.00     0.022 C 
HETATM    4  C4  UNL     1     -10.776  47.873 -25.430  1.00  0.00     0.084 C 
HETATM    5  C5  UNL     1     -10.713  47.818 -26.936  1.00  0.00     0.149 C 
HETATM    6  O1  UNL     1     -11.682  48.100 -27.638  1.00  0.00    -0.293 OA
HETATM    7  C6  UNL     1      -9.456  47.376 -27.582  1.00  0.00     0.053 C 
HETATM    8  C7  UNL     1      -8.420  46.913 -26.861  1.00  0.00    -0.068 C 
HETATM    9  C8  UNL     1      -7.117  46.560 -27.527  1.00  0.00     0.035 C 
HETATM   10  C9  UNL     1      -5.995  47.487 -27.043  1.00  0.00     0.010 C 
HETATM   11  C10 UNL     1      -6.188  48.000 -25.592  1.00  0.00    -0.002 C 
HETATM   12  C11 UNL     1      -6.965  46.937 -24.770  1.00  0.00     0.031 C 
HETATM   13  C12 UNL     1      -6.875  47.148 -23.242  1.00  0.00     0.124 C 
HETATM   14  C13 UNL     1      -6.373  48.541 -22.855  1.00  0.00     0.045 C 
HETATM   15  C14 UNL     1      -5.001  48.921 -23.475  1.00  0.00     0.001 C 
HETATM   16  C15 UNL     1      -3.857  48.317 -22.616  1.00  0.00     0.019 C 
HETATM   17  C16 UNL     1      -4.846  48.392 -24.938  1.00  0.00     0.002 C 
HETATM   18  C17 UNL     1      -4.117  49.510 -25.718  1.00  0.00     0.009 C 
HETATM   19  C18 UNL     1      -3.738  50.583 -24.703  1.00  0.00     0.047 C 
HETATM   20  C19 UNL     1      -4.818  50.466 -23.632  1.00  0.00     0.128 C 
ENDROOT
BRANCH  20  21
HETATM   21  O3  UNL     1      -6.009  51.050 -24.195  1.00  0.00    -0.381 OA
HETATM   22  H27 UNL     1      -6.557  51.344 -23.437  1.00  0.00     0.211 HD
ENDBRANCH  20  21
BRANCH  20  23
HETATM   23  C20 UNL     1      -4.552  51.219 -22.314  1.00  0.00     0.185 C 
HETATM   24  O4  UNL     1      -5.372  51.119 -21.391  1.00  0.00    -0.292 OA
BRANCH  23  25
HETATM   25  C21 UNL     1      -3.284  52.059 -22.184  1.00  0.00     0.260 C 
BRANCH  25  26
HETATM   26  O5  UNL     1      -2.296  51.427 -21.369  1.00  0.00    -0.314 OA
BRANCH  26  27
HETATM   27  C22 UNL     1      -1.199  50.997 -22.051  1.00  0.00     0.259 C 
HETATM   28  O6  UNL     1      -0.853  49.828 -22.158  1.00  0.00    -0.265 OA
BRANCH  27  29
HETATM   29  C23 UNL     1      -0.492  52.169 -22.688  1.00  0.00     0.120 C 
BRANCH  29  30
HETATM   30  C24 UNL     1       0.928  52.300 -22.148  1.00  0.00     0.112 C 
BRANCH  30  31
HETATM   31  C25 UNL     1       0.953  53.079 -20.847  1.00  0.00     0.218 C 
HETATM   32  O7  UNL     1       1.450  54.196 -20.747  1.00  0.00    -0.274 OA
HETATM   33  N1  UNL     1       0.400  52.391 -19.791  1.00  0.00    -0.357 N 
HETATM   34  H34 UNL     1      -0.159  51.573 -19.996  1.00  0.00     0.162 HD
BRANCH  33  35
HETATM   35  C26 UNL     1       0.175  53.030 -18.515  1.00  0.00     0.161 C 
BRANCH  35  36
HETATM   36  C27 UNL     1       0.790  52.220 -17.400  1.00  0.00    -0.040 A 
HETATM   37  C28 UNL     1       1.922  52.699 -16.724  1.00  0.00     0.010 A 
HETATM   38  C29 UNL     1       2.474  51.979 -15.663  1.00  0.00     0.019 A 
HETATM   39  C30 UNL     1       1.898  50.769 -15.259  1.00  0.00     0.037 A 
HETATM   40  C32 UNL     1       0.767  50.286 -15.929  1.00  0.00     0.019 A 
HETATM   41  C33 UNL     1       0.215  51.009 -16.991  1.00  0.00     0.010 A 
BRANCH  39  42
HETATM   42  C31 UNL     1       2.510  50.045 -14.119  1.00  0.00     0.176 C 
HETATM   43  O8  UNL     1       3.463  50.420 -13.462  1.00  0.00    -0.646 OA
BRANCH  42  44
HETATM   44  O9  UNL     1       1.891  48.882 -13.847  1.00  0.00    -0.773 OA
HETATM   45  H39 UNL     1       2.387  48.531 -13.079  1.00  0.00     0.167 HD
ENDBRANCH  42  44
ENDBRANCH  39  42
ENDBRANCH  35  36
ENDBRANCH  33  35
ENDBRANCH  30  31
ENDBRANCH  29  30
ENDBRANCH  27  29
ENDBRANCH  26  27
ENDBRANCH  25  26
ENDBRANCH  23  25
ENDBRANCH  20  23
BRANCH  13  46
HETATM   46  O2  UNL     1      -5.993  46.171 -22.686  1.00  0.00    -0.395 OA
HETATM   47  H16 UNL     1      -6.394  45.295 -22.825  1.00  0.00     0.210 HD
ENDBRANCH  13  46
TORSDOF 13
ENDMDL
MODEL 2
REMARK minimizedAffinity -7.65687084
REMARK CNNscore 0.535618722
REMARK CNNaffinity 6.37242889
REMARK  13 active torsions:
REMARK  status: ('A' for Active; 'I' for Inactive)
REMARK    1  A    between atoms: C12_13  and  O2_14 
REMARK    2  A    between atoms: C19_21  and  O3_22 
REMARK    3  A    between atoms: C19_21  and  C20_23 
REMARK    4  A    between atoms: C20_23  and  C21_25 
REMARK    5  A    between atoms: C21_25  and  O5_26 
REMARK    6  A    between atoms: O5_26  and  C22_27 
REMARK    7  A    between atoms: C22_27  and  C23_29 
REMARK    8  A    between atoms: C23_29  and  C24_30 
REMARK    9  A    between atoms: C24_30  and  C25_31 
REMARK       I    between atoms: C25_31  and  N1_33 
REMARK   10  A    between atoms: N1_33  and  C26_34 
REMARK   11  A    between atoms: C26_34  and  C27_35 
REMARK   12  A    between atoms: C30_38  and  C31_39 
REMARK   13  A    between atoms: C31_39  and  O9_41 
ROOT
HETATM    1  C1  UNL     1      -0.056  57.097  -7.520  1.00  0.00     0.020 C 
HETATM    2  C2  UNL     1       0.912  55.903  -7.699  1.00  0.00    -0.014 C 
HETATM    3  C3  UNL     1       0.582  54.796  -6.662  1.00  0.00     0.022 C 
HETATM    4  C4  UNL     1       0.827  55.227  -5.217  1.00  0.00     0.084 C 
HETATM    5  C5  UNL     1       2.187  55.850  -5.024  1.00  0.00     0.149 C 
HETATM    6  O1  UNL     1       2.694  55.972  -3.910  1.00  0.00    -0.293 OA
HETATM    7  C6  UNL     1       2.915  56.359  -6.209  1.00  0.00     0.053 C 
HETATM    8  C7  UNL     1       2.343  56.387  -7.426  1.00  0.00    -0.068 C 
HETATM    9  C8  UNL     1       3.131  56.817  -8.634  1.00  0.00     0.035 C 
HETATM   10  C9  UNL     1       3.282  55.652  -9.622  1.00  0.00     0.010 C 
HETATM   11  C10 UNL     1       2.102  54.648  -9.592  1.00  0.00    -0.002 C 
HETATM   12  C11 UNL     1       0.801  55.395  -9.193  1.00  0.00     0.031 C 
HETATM   13  C12 UNL     1      -0.489  54.604  -9.508  1.00  0.00     0.124 C 
HETATM   14  C13 UNL     1      -0.233  53.122  -9.789  1.00  0.00     0.045 C 
HETATM   15  C14 UNL     1       0.785  52.854 -10.930  1.00  0.00     0.001 C 
HETATM   16  C15 UNL     1       0.066  52.946 -12.302  1.00  0.00     0.019 C 
HETATM   17  C16 UNL     1       1.962  53.884 -10.925  1.00  0.00     0.002 C 
HETATM   18  C17 UNL     1       3.234  53.076 -11.273  1.00  0.00     0.009 C 
HETATM   19  C18 UNL     1       2.780  51.658 -11.609  1.00  0.00     0.047 C 
HETATM   20  C19 UNL     1       1.513  51.478 -10.778  1.00  0.00     0.128 C 
ENDROOT
BRANCH  20  21
HETATM   21  O3  UNL     1       1.947  51.296  -9.417  1.00  0.00    -0.381 OA
HETATM   22  H27 UNL     1       1.234  50.799  -8.964  1.00  0.00     0.211 HD
ENDBRANCH  20  21
BRANCH  20  23
HETATM   23  C20 UNL     1       0.646  50.251 -11.121  1.00  0.00     0.185 C 
HETATM   24  O4  UNL     1      -0.321  49.980 -10.395  1.00  0.00    -0.292 OA
BRANCH  23  25
HETATM   25  C21 UNL     1       0.999  49.413 -12.346  1.00  0.00     0.260 C 
BRANCH  25  26
HETATM   26  O5  UNL     1       0.010  49.507 -13.371  1.00  0.00    -0.314 OA
BRANCH  26  27
HETATM   27  C22 UNL     1       0.450  50.085 -14.523  1.00  0.00     0.259 C 
HETATM   28  O6  UNL     1       1.617  50.360 -14.769  1.00  0.00    -0.265 OA
BRANCH  27  29
HETATM   29  C23 UNL     1      -0.706  50.303 -15.469  1.00  0.00     0.120 C 
BRANCH  29  30
HETATM   30  C24 UNL     1      -0.255  51.073 -16.705  1.00  0.00     0.112 C 
BRANCH  30  31
HETATM   31  C25 UNL     1      -0.617  50.333 -17.978  1.00  0.00     0.218 C 
HETATM   32  O7  UNL     1      -0.549  49.114 -18.083  1.00  0.00    -0.274 OA
HETATM   33  N1  UNL     1      -0.990  51.171 -19.005  1.00  0.00    -0.357 N 
HETATM   34  H34 UNL     1      -1.210  52.132 -18.781  1.00  0.00     0.162 HD
BRANCH  33  35
HETATM   35  C26 UNL     1      -1.535  50.648 -20.238  1.00  0.00     0.161 C 
BRANCH  35  36
HETATM   36  C27 UNL     1      -1.014  51.428 -21.420  1.00  0.00    -0.040 A 
HETATM   37  C28 UNL     1       0.301  51.915 -21.418  1.00  0.00     0.010 A 
HETATM   38  C29 UNL     1       0.807  52.601 -22.524  1.00  0.00     0.019 A 
HETATM   39  C30 UNL     1       0.005  52.805 -23.652  1.00  0.00     0.037 A 
HETATM   40  C32 UNL     1      -1.309  52.321 -23.662  1.00  0.00     0.019 A 
HETATM   41  C33 UNL     1      -1.813  51.633 -22.553  1.00  0.00     0.010 A 
BRANCH  39  42
HETATM   42  C31 UNL     1       0.588  53.527 -24.808  1.00  0.00     0.176 C 
HETATM   43  O8  UNL     1       0.533  54.727 -25.003  1.00  0.00    -0.646 OA
BRANCH  42  44
HETATM   44  O9  UNL     1       1.224  52.711 -25.667  1.00  0.00    -0.773 OA
HETATM   45  H39 UNL     1       1.561  53.319 -26.357  1.00  0.00     0.167 HD
ENDBRANCH  42  44
ENDBRANCH  39  42
ENDBRANCH  35  36
ENDBRANCH  33  35
ENDBRANCH  30  31
ENDBRANCH  29  30
ENDBRANCH  27  29
ENDBRANCH  26  27
ENDBRANCH  25  26
ENDBRANCH  23  25
ENDBRANCH  20  23
BRANCH  13  46
HETATM   46  O2  UNL     1      -1.128  55.184 -10.647  1.00  0.00    -0.395 OA
HETATM   47  H16 UNL     1      -1.403  56.086 -10.406  1.00  0.00     0.210 HD
ENDBRANCH  13  46
TORSDOF 13
ENDMDL
MODEL 3
REMARK minimizedAffinity -7.62376213
REMARK CNNscore 0.497937977
REMARK CNNaffinity 6.34850931
REMARK  13 active torsions:
REMARK  status: ('A' for Active; 'I' for Inactive)
REMARK    1  A    between atoms: C12_13  and  O2_14 
REMARK    2  A    between atoms: C19_21  and  O3_22 
REMARK    3  A    between atoms: C19_21  and  C20_23 
REMARK    4  A    between atoms: C20_23  and  C21_25 
REMARK    5  A    between atoms: C21_25  and  O5_26 
REMARK    6  A    between atoms: O5_26  and  C22_27 
REMARK    7  A    between atoms: C22_27  and  C23_29 
REMARK    8  A    between atoms: C23_29  and  C24_30 
REMARK    9  A    between atoms: C24_30  and  C25_31 
REMARK       I    between atoms: C25_31  and  N1_33 
REMARK   10  A    between atoms: N1_33  and  C26_34 
REMARK   11  A    between atoms: C26_34  and  C27_35 
REMARK   12  A    between atoms: C30_38  and  C31_39 
REMARK   13  A    between atoms: C31_39  and  O9_41 
ROOT
HETATM    1  C1  UNL     1      -4.636  46.338 -20.764  1.00  0.00     0.020 C 
HETATM    2  C2  UNL     1      -4.185  47.798 -20.523  1.00  0.00    -0.014 C 
HETATM    3  C3  UNL     1      -5.352  48.617 -19.908  1.00  0.00     0.022 C 
HETATM    4  C4  UNL     1      -6.544  48.774 -20.850  1.00  0.00     0.084 C 
HETATM    5  C5  UNL     1      -6.134  49.243 -22.224  1.00  0.00     0.149 C 
HETATM    6  O1  UNL     1      -6.944  49.723 -23.016  1.00  0.00    -0.293 OA
HETATM    7  C6  UNL     1      -4.722  49.086 -22.642  1.00  0.00     0.053 C 
HETATM    8  C7  UNL     1      -3.832  48.431 -21.876  1.00  0.00    -0.068 C 
HETATM    9  C8  UNL     1      -2.381  48.367 -22.271  1.00  0.00     0.035 C 
HETATM   10  C9  UNL     1      -1.508  49.101 -21.244  1.00  0.00     0.010 C 
HETATM   11  C10 UNL     1      -2.082  49.076 -19.804  1.00  0.00    -0.002 C 
HETATM   12  C11 UNL     1      -2.901  47.774 -19.598  1.00  0.00     0.031 C 
HETATM   13  C12 UNL     1      -3.184  47.447 -18.115  1.00  0.00     0.124 C 
HETATM   14  C13 UNL     1      -2.942  48.634 -17.180  1.00  0.00     0.045 C 
HETATM   15  C14 UNL     1      -1.517  49.242 -17.275  1.00  0.00     0.001 C 
HETATM   16  C15 UNL     1      -0.537  48.412 -16.404  1.00  0.00     0.019 C 
HETATM   17  C16 UNL     1      -0.976  49.255 -18.742  1.00  0.00     0.002 C 
HETATM   18  C17 UNL     1      -0.219  50.593 -18.904  1.00  0.00     0.009 C 
HETATM   19  C18 UNL     1      -0.202  51.261 -17.532  1.00  0.00     0.047 C 
HETATM   20  C19 UNL     1      -1.477  50.752 -16.866  1.00  0.00     0.128 C 
ENDROOT
BRANCH  20  21
HETATM   21  O3  UNL     1      -2.567  51.460 -17.487  1.00  0.00    -0.381 OA
HETATM   22  H27 UNL     1      -3.302  51.460 -16.839  1.00  0.00     0.211 HD
ENDBRANCH  20  21
BRANCH  20  23
HETATM   23  C20 UNL     1      -1.603  51.011 -15.353  1.00  0.00     0.185 C 
HETATM   24  O4  UNL     1      -0.571  51.162 -14.684  1.00  0.00    -0.292 OA
BRANCH  23  25
HETATM   25  C21 UNL     1      -2.992  51.080 -14.726  1.00  0.00     0.260 C 
BRANCH  25  26
HETATM   26  O5  UNL     1      -3.054  52.012 -13.646  1.00  0.00    -0.314 OA
BRANCH  26  27
HETATM   27  C22 UNL     1      -2.905  51.453 -12.413  1.00  0.00     0.259 C 
HETATM   28  O6  UNL     1      -2.968  50.254 -12.175  1.00  0.00    -0.265 OA
BRANCH  27  29
HETATM   29  C23 UNL     1      -2.613  52.523 -11.389  1.00  0.00     0.120 C 
BRANCH  29  30
HETATM   30  C24 UNL     1      -1.245  52.303 -10.753  1.00  0.00     0.112 C 
BRANCH  30  31
HETATM   31  C25 UNL     1      -0.208  53.244 -11.338  1.00  0.00     0.218 C 
HETATM   32  O7  UNL     1       0.198  53.155 -12.491  1.00  0.00    -0.274 OA
HETATM   33  N1  UNL     1       0.252  54.174 -10.433  1.00  0.00    -0.357 N 
HETATM   34  H34 UNL     1      -0.270  54.306  -9.577  1.00  0.00     0.162 HD
BRANCH  33  35
HETATM   35  C26 UNL     1       1.110  55.260 -10.847  1.00  0.00     0.161 C 
BRANCH  35  36
HETATM   36  C27 UNL     1       2.448  55.174 -10.153  1.00  0.00    -0.040 A 
HETATM   37  C28 UNL     1       3.509  54.481 -10.756  1.00  0.00     0.010 A 
HETATM   38  C29 UNL     1       4.763  54.430 -10.144  1.00  0.00     0.019 A 
HETATM   39  C30 UNL     1       4.976  55.077  -8.921  1.00  0.00     0.037 A 
HETATM   40  C32 UNL     1       3.922  55.771  -8.315  1.00  0.00     0.019 A 
HETATM   41  C33 UNL     1       2.666  55.821  -8.930  1.00  0.00     0.010 A 
BRANCH  39  42
HETATM   42  C31 UNL     1       6.326  55.007  -8.315  1.00  0.00     0.176 C 
HETATM   43  O8  UNL     1       6.579  55.057  -7.126  1.00  0.00    -0.646 OA
BRANCH  42  44
HETATM   44  O9  UNL     1       7.303  54.868  -9.229  1.00  0.00    -0.773 OA
HETATM   45  H39 UNL     1       8.120  54.824  -8.690  1.00  0.00     0.167 HD
ENDBRANCH  42  44
ENDBRANCH  39  42
ENDBRANCH  35  36
ENDBRANCH  33  35
ENDBRANCH  30  31
ENDBRANCH  29  30
ENDBRANCH  27  29
ENDBRANCH  26  27
ENDBRANCH  25  26
ENDBRANCH  23  25
ENDBRANCH  20  23
BRANCH  13  46
HETATM   46  O2  UNL     1      -2.348  46.363 -17.706  1.00  0.00    -0.395 OA
HETATM   47  H16 UNL     1      -2.606  45.578 -18.220  1.00  0.00     0.210 HD
ENDBRANCH  13  46
TORSDOF 13
ENDMDL
MODEL 4
REMARK minimizedAffinity -8.33896828
REMARK CNNscore 0.342554361
REMARK CNNaffinity 6.58582306
REMARK  13 active torsions:
REMARK  status: ('A' for Active; 'I' for Inactive)
REMARK    1  A    between atoms: C12_13  and  O2_14 
REMARK    2  A    between atoms: C19_21  and  O3_22 
REMARK    3  A    between atoms: C19_21  and  C20_23 
REMARK    4  A    between atoms: C20_23  and  C21_25 
REMARK    5  A    between atoms: C21_25  and  O5_26 
REMARK    6  A    between atoms: O5_26  and  C22_27 
REMARK    7  A    between atoms: C22_27  and  C23_29 
REMARK    8  A    between atoms: C23_29  and  C24_30 
REMARK    9  A    between atoms: C24_30  and  C25_31 
REMARK       I    between atoms: C25_31  and  N1_33 
REMARK   10  A    between atoms: N1_33  and  C26_34 
REMARK   11  A    between atoms: C26_34  and  C27_35 
REMARK   12  A    between atoms: C30_38  and  C31_39 
REMARK   13  A    between atoms: C31_39  and  O9_41 
ROOT
HETATM    1  C1  UNL     1      -8.042  42.748 -34.588  1.00  0.00     0.020 C 
HETATM    2  C2  UNL     1      -8.850  43.854 -33.869  1.00  0.00    -0.014 C 
HETATM    3  C3  UNL     1      -9.816  43.216 -32.835  1.00  0.00     0.022 C 
HETATM    4  C4  UNL     1     -10.903  42.354 -33.475  1.00  0.00     0.084 C 
HETATM    5  C5  UNL     1     -11.608  43.060 -34.605  1.00  0.00     0.149 C 
HETATM    6  O1  UNL     1     -12.695  42.677 -35.035  1.00  0.00    -0.293 OA
HETATM    7  C6  UNL     1     -10.953  44.228 -35.238  1.00  0.00     0.053 C 
HETATM    8  C7  UNL     1      -9.702  44.594 -34.910  1.00  0.00    -0.068 C 
HETATM    9  C8  UNL     1      -9.089  45.840 -35.492  1.00  0.00     0.035 C 
HETATM   10  C9  UNL     1      -8.815  46.872 -34.390  1.00  0.00     0.010 C 
HETATM   11  C10 UNL     1      -8.508  46.245 -33.006  1.00  0.00    -0.002 C 
HETATM   12  C11 UNL     1      -7.827  44.864 -33.207  1.00  0.00     0.031 C 
HETATM   13  C12 UNL     1      -7.125  44.328 -31.939  1.00  0.00     0.124 C 
HETATM   14  C13 UNL     1      -7.550  45.057 -30.662  1.00  0.00     0.045 C 
HETATM   15  C14 UNL     1      -7.351  46.596 -30.709  1.00  0.00     0.001 C 
HETATM   16  C15 UNL     1      -5.877  46.941 -30.363  1.00  0.00     0.019 C 
HETATM   17  C16 UNL     1      -7.675  47.192 -32.117  1.00  0.00     0.002 C 
HETATM   18  C17 UNL     1      -8.397  48.534 -31.854  1.00  0.00     0.009 C 
HETATM   19  C18 UNL     1      -8.360  48.769 -30.347  1.00  0.00     0.047 C 
HETATM   20  C19 UNL     1      -8.334  47.360 -29.762  1.00  0.00     0.128 C 
ENDROOT
BRANCH  20  21
HETATM   21  O3  UNL     1      -9.668  46.838 -29.910  1.00  0.00    -0.381 OA
HETATM   22  H27 UNL     1      -9.775  46.152 -29.218  1.00  0.00     0.211 HD
ENDBRANCH  20  21
BRANCH  20  23
HETATM   23  C20 UNL     1      -7.995  47.254 -28.262  1.00  0.00     0.185 C 
HETATM   24  O4  UNL     1      -8.917  47.287 -27.436  1.00  0.00    -0.292 OA
BRANCH  23  25
HETATM   25  C21 UNL     1      -6.535  47.106 -27.842  1.00  0.00     0.260 C 
BRANCH  25  26
HETATM   26  O5  UNL     1      -5.912  48.367 -27.594  1.00  0.00    -0.314 OA
BRANCH  26  27
HETATM   27  C22 UNL     1      -4.922  48.329 -26.660  1.00  0.00     0.259 C 
HETATM   28  O6  UNL     1      -5.086  48.075 -25.474  1.00  0.00    -0.265 OA
BRANCH  27  29
HETATM   29  C23 UNL     1      -3.587  48.609 -27.306  1.00  0.00     0.120 C 
BRANCH  29  30
HETATM   30  C24 UNL     1      -2.532  48.926 -26.252  1.00  0.00     0.112 C 
BRANCH  30  31
HETATM   31  C25 UNL     1      -2.414  50.420 -26.023  1.00  0.00     0.218 C 
HETATM   32  O7  UNL     1      -3.310  51.210 -26.298  1.00  0.00    -0.274 OA
HETATM   33  N1  UNL     1      -1.191  50.796 -25.515  1.00  0.00    -0.357 N 
HETATM   34  H34 UNL     1      -0.591  50.077 -25.135  1.00  0.00     0.162 HD
BRANCH  33  35
HETATM   35  C26 UNL     1      -0.949  52.150 -25.069  1.00  0.00     0.161 C 
BRANCH  35  36
HETATM   36  C27 UNL     1      -0.661  52.176 -23.588  1.00  0.00    -0.040 A 
HETATM   37  C28 UNL     1      -1.673  51.861 -22.669  1.00  0.00     0.010 A 
HETATM   38  C29 UNL     1      -1.408  51.840 -21.299  1.00  0.00     0.019 A 
HETATM   39  C30 UNL     1      -0.122  52.130 -20.826  1.00  0.00     0.037 A 
HETATM   40  C32 UNL     1       0.893  52.445 -21.738  1.00  0.00     0.019 A 
HETATM   41  C33 UNL     1       0.625  52.464 -23.111  1.00  0.00     0.010 A 
BRANCH  39  42
HETATM   42  C31 UNL     1       0.117  52.084 -19.365  1.00  0.00     0.176 C 
HETATM   43  O8  UNL     1       0.591  52.978 -18.689  1.00  0.00    -0.646 OA
BRANCH  42  44
HETATM   44  O9  UNL     1      -0.259  50.917 -18.810  1.00  0.00    -0.773 OA
HETATM   45  H39 UNL     1      -0.057  51.037 -17.859  1.00  0.00     0.167 HD
ENDBRANCH  42  44
ENDBRANCH  39  42
ENDBRANCH  35  36
ENDBRANCH  33  35
ENDBRANCH  30  31
ENDBRANCH  29  30
ENDBRANCH  27  29
ENDBRANCH  26  27
ENDBRANCH  25  26
ENDBRANCH  23  25
ENDBRANCH  20  23
BRANCH  13  46
HETATM   46  O2  UNL     1      -5.711  44.461 -32.094  1.00  0.00    -0.395 OA
HETATM   47  H16 UNL     1      -5.437  43.886 -32.830  1.00  0.00     0.210 HD
ENDBRANCH  13  46
TORSDOF 13
ENDMDL
MODEL 5
REMARK minimizedAffinity -8.17154598
REMARK CNNscore 0.292804569
REMARK CNNaffinity 6.58375502
REMARK  13 active torsions:
REMARK  status: ('A' for Active; 'I' for Inactive)
REMARK    1  A    between atoms: C12_13  and  O2_14 
REMARK    2  A    between atoms: C19_21  and  O3_22 
REMARK    3  A    between atoms: C19_21  and  C20_23 
REMARK    4  A    between atoms: C20_23  and  C21_25 
REMARK    5  A    between atoms: C21_25  and  O5_26 
REMARK    6  A    between atoms: O5_26  and  C22_27 
REMARK    7  A    between atoms: C22_27  and  C23_29 
REMARK    8  A    between atoms: C23_29  and  C24_30 
REMARK    9  A    between atoms: C24_30  and  C25_31 
REMARK       I    between atoms: C25_31  and  N1_33 
REMARK   10  A    between atoms: N1_33  and  C26_34 
REMARK   11  A    between atoms: C26_34  and  C27_35 
REMARK   12  A    between atoms: C30_38  and  C31_39 
REMARK   13  A    between atoms: C31_39  and  O9_41 
ROOT
HETATM    1  C1  UNL     1       3.838  53.036  -6.746  1.00  0.00     0.020 C 
HETATM    2  C2  UNL     1       3.189  53.694  -7.986  1.00  0.00    -0.014 C 
HETATM    3  C3  UNL     1       3.784  53.080  -9.282  1.00  0.00     0.022 C 
HETATM    4  C4  UNL     1       5.271  53.381  -9.467  1.00  0.00     0.084 C 
HETATM    5  C5  UNL     1       5.588  54.845  -9.290  1.00  0.00     0.149 C 
HETATM    6  O1  UNL     1       6.640  55.336  -9.697  1.00  0.00    -0.293 OA
HETATM    7  C6  UNL     1       4.619  55.706  -8.575  1.00  0.00     0.053 C 
HETATM    8  C7  UNL     1       3.529  55.191  -7.980  1.00  0.00    -0.068 C 
HETATM    9  C8  UNL     1       2.505  56.092  -7.342  1.00  0.00     0.035 C 
HETATM   10  C9  UNL     1       1.161  55.988  -8.075  1.00  0.00     0.010 C 
HETATM   11  C10 UNL     1       0.906  54.601  -8.720  1.00  0.00    -0.002 C 
HETATM   12  C11 UNL     1       1.621  53.506  -7.884  1.00  0.00     0.031 C 
HETATM   13  C12 UNL     1       1.126  52.073  -8.186  1.00  0.00     0.124 C 
HETATM   14  C13 UNL     1       0.322  51.975  -9.484  1.00  0.00     0.045 C 
HETATM   15  C14 UNL     1      -0.899  52.931  -9.554  1.00  0.00     0.001 C 
HETATM   16  C15 UNL     1      -2.103  52.293  -8.812  1.00  0.00     0.019 C 
HETATM   17  C16 UNL     1      -0.601  54.320  -8.900  1.00  0.00     0.002 C 
HETATM   18  C17 UNL     1      -1.290  55.370  -9.801  1.00  0.00     0.009 C 
HETATM   19  C18 UNL     1      -2.078  54.600 -10.856  1.00  0.00     0.047 C 
HETATM   20  C19 UNL     1      -1.289  53.305 -11.022  1.00  0.00     0.128 C 
ENDROOT
BRANCH  20  21
HETATM   21  O3  UNL     1      -0.109  53.644 -11.776  1.00  0.00    -0.381 OA
HETATM   22  H27 UNL     1       0.180  52.821 -12.222  1.00  0.00     0.211 HD
ENDBRANCH  20  21
BRANCH  20  23
HETATM   23  C20 UNL     1      -1.990  52.179 -11.807  1.00  0.00     0.185 C 
HETATM   24  O4  UNL     1      -3.227  52.114 -11.783  1.00  0.00    -0.292 OA
BRANCH  23  25
HETATM   25  C21 UNL     1      -1.141  51.183 -12.593  1.00  0.00     0.260 C 
BRANCH  25  26
HETATM   26  O5  UNL     1      -0.968  51.576 -13.955  1.00  0.00    -0.314 OA
BRANCH  26  27
HETATM   27  C22 UNL     1      -1.679  50.832 -14.847  1.00  0.00     0.259 C 
HETATM   28  O6  UNL     1      -2.779  50.341 -14.632  1.00  0.00    -0.265 OA
BRANCH  27  29
HETATM   29  C23 UNL     1      -0.929  50.732 -16.153  1.00  0.00     0.120 C 
BRANCH  29  30
HETATM   30  C24 UNL     1       0.577  50.768 -15.915  1.00  0.00     0.112 C 
BRANCH  30  31
HETATM   31  C25 UNL     1       1.238  51.858 -16.737  1.00  0.00     0.218 C 
HETATM   32  O7  UNL     1       2.253  52.443 -16.375  1.00  0.00    -0.274 OA
HETATM   33  N1  UNL     1       0.563  52.146 -17.901  1.00  0.00    -0.357 N 
HETATM   34  H34 UNL     1      -0.141  51.493 -18.218  1.00  0.00     0.162 HD
BRANCH  33  35
HETATM   35  C26 UNL     1       1.127  53.030 -18.896  1.00  0.00     0.161 C 
BRANCH  35  36
HETATM   36  C27 UNL     1       0.503  52.775 -20.247  1.00  0.00    -0.040 A 
HETATM   37  C28 UNL     1       1.151  53.207 -21.413  1.00  0.00     0.010 A 
HETATM   38  C29 UNL     1       0.605  52.940 -22.670  1.00  0.00     0.019 A 
HETATM   39  C30 UNL     1      -0.596  52.229 -22.779  1.00  0.00     0.037 A 
HETATM   40  C32 UNL     1      -1.247  51.793 -21.618  1.00  0.00     0.019 A 
HETATM   41  C33 UNL     1      -0.698  52.062 -20.360  1.00  0.00     0.010 A 
BRANCH  39  42
HETATM   42  C31 UNL     1      -1.132  51.957 -24.133  1.00  0.00     0.176 C 
HETATM   43  O8  UNL     1      -0.910  50.966 -24.804  1.00  0.00    -0.646 OA
BRANCH  42  44
HETATM   44  O9  UNL     1      -1.933  52.938 -24.585  1.00  0.00    -0.773 OA
HETATM   45  H39 UNL     1      -2.216  52.618 -25.467  1.00  0.00     0.167 HD
ENDBRANCH  42  44
ENDBRANCH  39  42
ENDBRANCH  35  36
ENDBRANCH  33  35
ENDBRANCH  30  31
ENDBRANCH  29  30
ENDBRANCH  27  29
ENDBRANCH  26  27
ENDBRANCH  25  26
ENDBRANCH  23  25
ENDBRANCH  20  23
BRANCH  13  46
HETATM   46  O2  UNL     1       0.308  51.623  -7.104  1.00  0.00    -0.395 OA
HETATM   47  H16 UNL     1       0.868  51.565  -6.311  1.00  0.00     0.210 HD
ENDBRANCH  13  46
TORSDOF 13
ENDMDL
MODEL 6
REMARK minimizedAffinity -9.21572876
REMARK CNNscore 0.285810649
REMARK CNNaffinity 6.2832222
REMARK  13 active torsions:
REMARK  status: ('A' for Active; 'I' for Inactive)
REMARK    1  A    between atoms: C12_13  and  O2_14 
REMARK    2  A    between atoms: C19_21  and  O3_22 
REMARK    3  A    between atoms: C19_21  and  C20_23 
REMARK    4  A    between atoms: C20_23  and  C21_25 
REMARK    5  A    between atoms: C21_25  and  O5_26 
REMARK    6  A    between atoms: O5_26  and  C22_27 
REMARK    7  A    between atoms: C22_27  and  C23_29 
REMARK    8  A    between atoms: C23_29  and  C24_30 
REMARK    9  A    between atoms: C24_30  and  C25_31 
REMARK       I    between atoms: C25_31  and  N1_33 
REMARK   10  A    between atoms: N1_33  and  C26_34 
REMARK   11  A    between atoms: C26_34  and  C27_35 
REMARK   12  A    between atoms: C30_38  and  C31_39 
REMARK   13  A    between atoms: C31_39  and  O9_41 
ROOT
HETATM    1  C1  UNL     1      -3.057  52.451 -26.281  1.00  0.00     0.020 C 
HETATM    2  C2  UNL     1      -2.349  51.546 -25.245  1.00  0.00    -0.014 C 
HETATM    3  C3  UNL     1      -1.184  52.324 -24.575  1.00  0.00     0.022 C 
HETATM    4  C4  UNL     1      -0.060  52.685 -25.545  1.00  0.00     0.084 C 
HETATM    5  C5  UNL     1       0.394  51.503 -26.366  1.00  0.00     0.149 C 
HETATM    6  O1  UNL     1       1.470  51.501 -26.963  1.00  0.00    -0.293 OA
HETATM    7  C6  UNL     1      -0.499  50.328 -26.483  1.00  0.00     0.053 C 
HETATM    8  C7  UNL     1      -1.745  50.340 -25.978  1.00  0.00    -0.068 C 
HETATM    9  C8  UNL     1      -2.603  49.104 -26.021  1.00  0.00     0.035 C 
HETATM   10  C9  UNL     1      -2.901  48.603 -24.601  1.00  0.00     0.010 C 
HETATM   11  C10 UNL     1      -2.947  49.730 -23.537  1.00  0.00    -0.002 C 
HETATM   12  C11 UNL     1      -3.430  51.047 -24.202  1.00  0.00     0.031 C 
HETATM   13  C12 UNL     1      -3.890  52.121 -23.191  1.00  0.00     0.124 C 
HETATM   14  C13 UNL     1      -3.436  51.832 -21.758  1.00  0.00     0.045 C 
HETATM   15  C14 UNL     1      -3.870  50.443 -21.217  1.00  0.00     0.001 C 
HETATM   16  C15 UNL     1      -5.329  50.522 -20.693  1.00  0.00     0.019 C 
HETATM   17  C16 UNL     1      -3.805  49.334 -22.317  1.00  0.00     0.002 C 
HETATM   18  C17 UNL     1      -3.269  48.067 -21.610  1.00  0.00     0.009 C 
HETATM   19  C18 UNL     1      -3.167  48.398 -20.125  1.00  0.00     0.047 C 
HETATM   20  C19 UNL     1      -2.911  49.902 -20.106  1.00  0.00     0.128 C 
ENDROOT
BRANCH  20  21
HETATM   21  O3  UNL     1      -1.539  50.082 -20.507  1.00  0.00    -0.381 OA
HETATM   22  H27 UNL     1      -1.251  50.939 -20.128  1.00  0.00     0.211 HD
ENDBRANCH  20  21
BRANCH  20  23
HETATM   23  C20 UNL     1      -3.054  50.598 -18.739  1.00  0.00     0.185 C 
HETATM   24  O4  UNL     1      -2.948  51.831 -18.681  1.00  0.00    -0.292 OA
BRANCH  23  25
HETATM   25  C21 UNL     1      -3.329  49.749 -17.501  1.00  0.00     0.260 C 
BRANCH  25  26
HETATM   26  O5  UNL     1      -2.127  49.340 -16.847  1.00  0.00    -0.314 OA
BRANCH  26  27
HETATM   27  C22 UNL     1      -1.740  50.154 -15.826  1.00  0.00     0.259 C 
HETATM   28  O6  UNL     1      -0.743  50.864 -15.834  1.00  0.00    -0.265 OA
BRANCH  27  29
HETATM   29  C23 UNL     1      -2.740  50.081 -14.697  1.00  0.00     0.120 C 
BRANCH  29  30
HETATM   30  C24 UNL     1      -3.193  51.477 -14.286  1.00  0.00     0.112 C 
BRANCH  30  31
HETATM   31  C25 UNL     1      -3.163  51.645 -12.779  1.00  0.00     0.218 C 
HETATM   32  O7  UNL     1      -3.118  50.697 -12.003  1.00  0.00    -0.274 OA
HETATM   33  N1  UNL     1      -3.231  52.960 -12.377  1.00  0.00    -0.357 N 
HETATM   34  H34 UNL     1      -3.066  53.679 -13.069  1.00  0.00     0.162 HD
BRANCH  33  35
HETATM   35  C26 UNL     1      -3.042  53.331 -10.993  1.00  0.00     0.161 C 
BRANCH  35  36
HETATM   36  C27 UNL     1      -1.648  53.866 -10.774  1.00  0.00    -0.040 A 
HETATM   37  C28 UNL     1      -0.544  53.202 -11.330  1.00  0.00     0.010 A 
HETATM   38  C29 UNL     1       0.746  53.711 -11.170  1.00  0.00     0.019 A 
HETATM   39  C30 UNL     1       0.951  54.896 -10.454  1.00  0.00     0.037 A 
HETATM   40  C32 UNL     1      -0.146  55.564  -9.897  1.00  0.00     0.019 A 
HETATM   41  C33 UNL     1      -1.438  55.053 -10.060  1.00  0.00     0.010 A 
BRANCH  39  42
HETATM   42  C31 UNL     1       2.337  55.405 -10.320  1.00  0.00     0.176 C 
HETATM   43  O8  UNL     1       2.794  55.988  -9.355  1.00  0.00    -0.646 OA
BRANCH  42  44
HETATM   44  O9  UNL     1       3.093  55.153 -11.403  1.00  0.00    -0.773 OA
HETATM   45  H39 UNL     1       3.967  55.528 -11.168  1.00  0.00     0.167 HD
ENDBRANCH  42  44
ENDBRANCH  39  42
ENDBRANCH  35  36
ENDBRANCH  33  35
ENDBRANCH  30  31
ENDBRANCH  29  30
ENDBRANCH  27  29
ENDBRANCH  26  27
ENDBRANCH  25  26
ENDBRANCH  23  25
ENDBRANCH  20  23
BRANCH  13  46
HETATM   46  O2  UNL     1      -5.316  52.203 -23.212  1.00  0.00    -0.395 OA
HETATM   47  H16 UNL     1      -5.583  52.516 -24.094  1.00  0.00     0.210 HD
ENDBRANCH  13  46
TORSDOF 13
ENDMDL
MODEL 7
REMARK minimizedAffinity -9.15941715
REMARK CNNscore 0.252688527
REMARK CNNaffinity 6.5589695
REMARK  13 active torsions:
REMARK  status: ('A' for Active; 'I' for Inactive)
REMARK    1  A    between atoms: C12_13  and  O2_14 
REMARK    2  A    between atoms: C19_21  and  O3_22 
REMARK    3  A    between atoms: C19_21  and  C20_23 
REMARK    4  A    between atoms: C20_23  and  C21_25 
REMARK    5  A    between atoms: C21_25  and  O5_26 
REMARK    6  A    between atoms: O5_26  and  C22_27 
REMARK    7  A    between atoms: C22_27  and  C23_29 
REMARK    8  A    between atoms: C23_29  and  C24_30 
REMARK    9  A    between atoms: C24_30  and  C25_31 
REMARK       I    between atoms: C25_31  and  N1_33 
REMARK   10  A    between atoms: N1_33  and  C26_34 
REMARK   11  A    between atoms: C26_34  and  C27_35 
REMARK   12  A    between atoms: C30_38  and  C31_39 
REMARK   13  A    between atoms: C31_39  and  O9_41 
ROOT
HETATM    1  C1  UNL     1      -3.324  52.534 -25.374  1.00  0.00     0.020 C 
HETATM    2  C2  UNL     1      -2.421  51.439 -24.758  1.00  0.00    -0.014 C 
HETATM    3  C3  UNL     1      -1.038  52.042 -24.391  1.00  0.00     0.022 C 
HETATM    4  C4  UNL     1      -0.238  52.507 -25.607  1.00  0.00     0.084 C 
HETATM    5  C5  UNL     1      -0.174  51.458 -26.690  1.00  0.00     0.149 C 
HETATM    6  O1  UNL     1       0.660  51.506 -27.593  1.00  0.00    -0.293 OA
HETATM    7  C6  UNL     1      -1.167  50.361 -26.682  1.00  0.00     0.053 C 
HETATM    8  C7  UNL     1      -2.190  50.345 -25.809  1.00  0.00    -0.068 C 
HETATM    9  C8  UNL     1      -3.133  49.173 -25.752  1.00  0.00     0.035 C 
HETATM   10  C9  UNL     1      -3.025  48.458 -24.399  1.00  0.00     0.010 C 
HETATM   11  C10 UNL     1      -2.634  49.394 -23.226  1.00  0.00    -0.002 C 
HETATM   12  C11 UNL     1      -3.170  50.824 -23.507  1.00  0.00     0.031 C 
HETATM   13  C12 UNL     1      -3.192  51.735 -22.259  1.00  0.00     0.124 C 
HETATM   14  C13 UNL     1      -2.349  51.193 -21.103  1.00  0.00     0.045 C 
HETATM   15  C14 UNL     1      -2.725  49.755 -20.657  1.00  0.00     0.001 C 
HETATM   16  C15 UNL     1      -3.937  49.811 -19.688  1.00  0.00     0.019 C 
HETATM   17  C16 UNL     1      -3.108  48.841 -21.866  1.00  0.00     0.002 C 
HETATM   18  C17 UNL     1      -2.504  47.452 -21.556  1.00  0.00     0.009 C 
HETATM   19  C18 UNL     1      -1.918  47.527 -20.149  1.00  0.00     0.047 C 
HETATM   20  C19 UNL     1      -1.527  48.994 -19.999  1.00  0.00     0.128 C 
ENDROOT
BRANCH  20  21
HETATM   21  O3  UNL     1      -0.335  49.176 -20.786  1.00  0.00    -0.381 OA
HETATM   22  H27 UNL     1       0.137  49.944 -20.401  1.00  0.00     0.211 HD
ENDBRANCH  20  21
BRANCH  20  23
HETATM   23  C20 UNL     1      -1.175  49.461 -18.573  1.00  0.00     0.185 C 
HETATM   24  O4  UNL     1      -1.619  48.823 -17.608  1.00  0.00    -0.292 OA
BRANCH  23  25
HETATM   25  C21 UNL     1      -0.286  50.688 -18.393  1.00  0.00     0.260 C 
BRANCH  25  26
HETATM   26  O5  UNL     1       0.367  50.703 -17.123  1.00  0.00    -0.314 OA
BRANCH  26  27
HETATM   27  C22 UNL     1       1.114  51.817 -16.890  1.00  0.00     0.259 C 
HETATM   28  O6  UNL     1       1.496  52.598 -17.752  1.00  0.00    -0.265 OA
BRANCH  27  29
HETATM   29  C23 UNL     1       1.371  51.970 -15.410  1.00  0.00     0.120 C 
BRANCH  29  30
HETATM   30  C24 UNL     1       2.861  51.865 -15.107  1.00  0.00     0.112 C 
BRANCH  30  31
HETATM   31  C25 UNL     1       3.106  51.178 -13.778  1.00  0.00     0.218 C 
HETATM   32  O7  UNL     1       3.760  50.147 -13.670  1.00  0.00    -0.274 OA
HETATM   33  N1  UNL     1       2.488  51.806 -12.720  1.00  0.00    -0.357 N 
HETATM   34  H34 UNL     1       2.141  52.746 -12.860  1.00  0.00     0.162 HD
BRANCH  33  35
HETATM   35  C26 UNL     1       2.744  51.403 -11.356  1.00  0.00     0.161 C 
BRANCH  35  36
HETATM   36  C27 UNL     1       3.638  52.405 -10.666  1.00  0.00    -0.040 A 
HETATM   37  C28 UNL     1       3.441  53.779 -10.866  1.00  0.00     0.010 A 
HETATM   38  C29 UNL     1       4.234  54.716 -10.201  1.00  0.00     0.019 A 
HETATM   39  C30 UNL     1       5.234  54.291  -9.319  1.00  0.00     0.037 A 
HETATM   40  C32 UNL     1       5.436  52.921  -9.113  1.00  0.00     0.019 A 
HETATM   41  C33 UNL     1       4.640  51.984  -9.781  1.00  0.00     0.010 A 
BRANCH  39  42
HETATM   42  C31 UNL     1       6.043  55.320  -8.624  1.00  0.00     0.176 C 
HETATM   43  O8  UNL     1       5.622  56.152  -7.842  1.00  0.00    -0.646 OA
BRANCH  42  44
HETATM   44  O9  UNL     1       7.350  55.255  -8.934  1.00  0.00    -0.773 OA
HETATM   45  H39 UNL     1       7.750  55.972  -8.401  1.00  0.00     0.167 HD
ENDBRANCH  42  44
ENDBRANCH  39  42
ENDBRANCH  35  36
ENDBRANCH  33  35
ENDBRANCH  30  31
ENDBRANCH  29  30
ENDBRANCH  27  29
ENDBRANCH  26  27
ENDBRANCH  25  26
ENDBRANCH  23  25
ENDBRANCH  20  23
BRANCH  13  46
HETATM   46  O2  UNL     1      -4.541  51.884 -21.813  1.00  0.00    -0.395 OA
HETATM   47  H16 UNL     1      -5.036  52.350 -22.509  1.00  0.00     0.210 HD
ENDBRANCH  13  46
TORSDOF 13
ENDMDL
MODEL 8
REMARK minimizedAffinity -7.93883371
REMARK CNNscore 0.247015744
REMARK CNNaffinity 5.58270979
REMARK  13 active torsions:
REMARK  status: ('A' for Active; 'I' for Inactive)
REMARK    1  A    between atoms: C12_13  and  O2_14 
REMARK    2  A    between atoms: C19_21  and  O3_22 
REMARK    3  A    between atoms: C19_21  and  C20_23 
REMARK    4  A    between atoms: C20_23  and  C21_25 
REMARK    5  A    between atoms: C21_25  and  O5_26 
REMARK    6  A    between atoms: O5_26  and  C22_27 
REMARK    7  A    between atoms: C22_27  and  C23_29 
REMARK    8  A    between atoms: C23_29  and  C24_30 
REMARK    9  A    between atoms: C24_30  and  C25_31 
REMARK       I    between atoms: C25_31  and  N1_33 
REMARK   10  A    between atoms: N1_33  and  C26_34 
REMARK   11  A    between atoms: C26_34  and  C27_35 
REMARK   12  A    between atoms: C30_38  and  C31_39 
REMARK   13  A    between atoms: C31_39  and  O9_41 
ROOT
HETATM    1  C1  UNL     1      -8.363  45.651 -33.216  1.00  0.00     0.020 C 
HETATM    2  C2  UNL     1      -8.120  45.974 -31.723  1.00  0.00    -0.014 C 
HETATM    3  C3  UNL     1      -8.017  47.511 -31.526  1.00  0.00     0.022 C 
HETATM    4  C4  UNL     1      -6.803  48.130 -32.216  1.00  0.00     0.084 C 
HETATM    5  C5  UNL     1      -5.524  47.393 -31.903  1.00  0.00     0.149 C 
HETATM    6  O1  UNL     1      -4.419  47.898 -32.095  1.00  0.00    -0.293 OA
HETATM    7  C6  UNL     1      -5.606  46.009 -31.384  1.00  0.00     0.053 C 
HETATM    8  C7  UNL     1      -6.779  45.358 -31.300  1.00  0.00    -0.068 C 
HETATM    9  C8  UNL     1      -6.854  43.989 -30.679  1.00  0.00     0.035 C 
HETATM   10  C9  UNL     1      -7.703  44.021 -29.401  1.00  0.00     0.010 C 
HETATM   11  C10 UNL     1      -8.820  45.097 -29.418  1.00  0.00    -0.002 C 
HETATM   12  C11 UNL     1      -9.291  45.326 -30.879  1.00  0.00     0.031 C 
HETATM   13  C12 UNL     1     -10.644  46.065 -30.985  1.00  0.00     0.124 C 
HETATM   14  C13 UNL     1     -11.061  46.749 -29.681  1.00  0.00     0.045 C 
HETATM   15  C14 UNL     1     -11.126  45.799 -28.454  1.00  0.00     0.001 C 
HETATM   16  C15 UNL     1     -12.486  45.051 -28.446  1.00  0.00     0.019 C 
HETATM   17  C16 UNL     1      -9.982  44.733 -28.470  1.00  0.00     0.002 C 
HETATM   18  C17 UNL     1      -9.518  44.587 -27.002  1.00  0.00     0.009 C 
HETATM   19  C18 UNL     1     -10.461  45.433 -26.153  1.00  0.00     0.047 C 
HETATM   20  C19 UNL     1     -10.898  46.548 -27.100  1.00  0.00     0.128 C 
ENDROOT
BRANCH  20  21
HETATM   21  O3  UNL     1      -9.777  47.444 -27.213  1.00  0.00    -0.381 OA
HETATM   22  H27 UNL     1     -10.145  48.318 -27.461  1.00  0.00     0.211 HD
ENDBRANCH  20  21
BRANCH  20  23
HETATM   23  C20 UNL     1     -12.089  47.407 -26.633  1.00  0.00     0.185 C 
HETATM   24  O4  UNL     1     -12.318  48.478 -27.211  1.00  0.00    -0.292 OA
BRANCH  23  25
HETATM   25  C21 UNL     1     -12.954  46.909 -25.478  1.00  0.00     0.260 C 
BRANCH  25  26
HETATM   26  O5  UNL     1     -14.323  47.290 -25.622  1.00  0.00    -0.314 OA
BRANCH  26  27
HETATM   27  C22 UNL     1     -15.198  46.247 -25.613  1.00  0.00     0.259 C 
HETATM   28  O6  UNL     1     -14.992  45.153 -26.122  1.00  0.00    -0.265 OA
BRANCH  27  29
HETATM   29  C23 UNL     1     -16.446  46.624 -24.852  1.00  0.00     0.120 C 
BRANCH  29  30
HETATM   30  C24 UNL     1     -17.536  45.575 -25.048  1.00  0.00     0.112 C 
BRANCH  30  31
HETATM   31  C25 UNL     1     -18.018  45.027 -23.719  1.00  0.00     0.218 C 
HETATM   32  O7  UNL     1     -17.939  43.842 -23.418  1.00  0.00    -0.274 OA
HETATM   33  N1  UNL     1     -18.584  45.986 -22.909  1.00  0.00    -0.357 N 
HETATM   34  H34 UNL     1     -18.431  46.958 -23.143  1.00  0.00     0.162 HD
BRANCH  33  35
HETATM   35  C26 UNL     1     -18.942  45.694 -21.540  1.00  0.00     0.161 C 
BRANCH  35  36
HETATM   36  C27 UNL     1     -18.010  46.399 -20.585  1.00  0.00    -0.040 A 
HETATM   37  C28 UNL     1     -16.638  46.108 -20.599  1.00  0.00     0.010 A 
HETATM   38  C29 UNL     1     -15.759  46.784 -19.750  1.00  0.00     0.019 A 
HETATM   39  C30 UNL     1     -16.241  47.767 -18.878  1.00  0.00     0.037 A 
HETATM   40  C32 UNL     1     -17.609  48.063 -18.860  1.00  0.00     0.019 A 
HETATM   41  C33 UNL     1     -18.487  47.385 -19.712  1.00  0.00     0.010 A 
BRANCH  39  42
HETATM   42  C31 UNL     1     -15.270  48.469 -18.004  1.00  0.00     0.176 C 
HETATM   43  O8  UNL     1     -15.505  49.441 -17.311  1.00  0.00    -0.646 OA
BRANCH  42  44
HETATM   44  O9  UNL     1     -14.046  47.912 -18.032  1.00  0.00    -0.773 OA
HETATM   45  H39 UNL     1     -13.528  48.464 -17.409  1.00  0.00     0.167 HD
ENDBRANCH  42  44
ENDBRANCH  39  42
ENDBRANCH  35  36
ENDBRANCH  33  35
ENDBRANCH  30  31
ENDBRANCH  29  30
ENDBRANCH  27  29
ENDBRANCH  26  27
ENDBRANCH  25  26
ENDBRANCH  23  25
ENDBRANCH  20  23
BRANCH  13  46
HETATM   46  O2  UNL     1     -11.659  45.132 -31.359  1.00  0.00    -0.395 OA
HETATM   47  H16 UNL     1     -11.448  44.804 -32.251  1.00  0.00     0.210 HD
ENDBRANCH  13  46
TORSDOF 13
ENDMDL
MODEL 9
REMARK minimizedAffinity -8.35042477
REMARK CNNscore 0.24530673
REMARK CNNaffinity 6.45668983
REMARK  13 active torsions:
REMARK  status: ('A' for Active; 'I' for Inactive)
REMARK    1  A    between atoms: C12_13  and  O2_14 
REMARK    2  A    between atoms: C19_21  and  O3_22 
REMARK    3  A    between atoms: C19_21  and  C20_23 
REMARK    4  A    between atoms: C20_23  and  C21_25 
REMARK    5  A    between atoms: C21_25  and  O5_26 
REMARK    6  A    between atoms: O5_26  and  C22_27 
REMARK    7  A    between atoms: C22_27  and  C23_29 
REMARK    8  A    between atoms: C23_29  and  C24_30 
REMARK    9  A    between atoms: C24_30  and  C25_31 
REMARK       I    between atoms: C25_31  and  N1_33 
REMARK   10  A    between atoms: N1_33  and  C26_34 
REMARK   11  A    between atoms: C26_34  and  C27_35 
REMARK   12  A    between atoms: C30_38  and  C31_39 
REMARK   13  A    between atoms: C31_39  and  O9_41 
ROOT
HETATM    1  C1  UNL     1      -3.714  52.289 -25.166  1.00  0.00     0.020 C 
HETATM    2  C2  UNL     1      -2.715  51.321 -24.488  1.00  0.00    -0.014 C 
HETATM    3  C3  UNL     1      -1.404  52.075 -24.138  1.00  0.00     0.022 C 
HETATM    4  C4  UNL     1      -0.637  52.558 -25.369  1.00  0.00     0.084 C 
HETATM    5  C5  UNL     1      -0.454  51.470 -26.397  1.00  0.00     0.149 C 
HETATM    6  O1  UNL     1       0.385  51.556 -27.293  1.00  0.00    -0.293 OA
HETATM    7  C6  UNL     1      -1.334  50.280 -26.344  1.00  0.00     0.053 C 
HETATM    8  C7  UNL     1      -2.362  50.206 -25.481  1.00  0.00    -0.068 C 
HETATM    9  C8  UNL     1      -3.186  48.950 -25.375  1.00  0.00     0.035 C 
HETATM   10  C9  UNL     1      -3.027  48.316 -23.986  1.00  0.00     0.010 C 
HETATM   11  C10 UNL     1      -2.747  49.342 -22.858  1.00  0.00    -0.002 C 
HETATM   12  C11 UNL     1      -3.418  50.696 -23.216  1.00  0.00     0.031 C 
HETATM   13  C12 UNL     1      -3.548  51.660 -22.015  1.00  0.00     0.124 C 
HETATM   14  C13 UNL     1      -2.672  51.262 -20.825  1.00  0.00     0.045 C 
HETATM   15  C14 UNL     1      -2.911  49.816 -20.311  1.00  0.00     0.001 C 
HETATM   16  C15 UNL     1      -4.136  49.799 -19.358  1.00  0.00     0.019 C 
HETATM   17  C16 UNL     1      -3.184  48.811 -21.477  1.00  0.00     0.002 C 
HETATM   18  C17 UNL     1      -2.450  47.506 -21.092  1.00  0.00     0.009 C 
HETATM   19  C18 UNL     1      -1.895  47.707 -19.685  1.00  0.00     0.047 C 
HETATM   20  C19 UNL     1      -1.653  49.212 -19.605  1.00  0.00     0.128 C 
ENDROOT
BRANCH  20  21
HETATM   21  O3  UNL     1      -0.473  49.473 -20.389  1.00  0.00    -0.381 OA
HETATM   22  H27 UNL     1      -0.085  50.302 -20.038  1.00  0.00     0.211 HD
ENDBRANCH  20  21
BRANCH  20  23
HETATM   23  C20 UNL     1      -1.369  49.780 -18.200  1.00  0.00     0.185 C 
HETATM   24  O4  UNL     1      -2.305  50.266 -17.551  1.00  0.00    -0.292 OA
BRANCH  23  25
HETATM   25  C21 UNL     1       0.053  49.719 -17.650  1.00  0.00     0.260 C 
BRANCH  25  26
HETATM   26  O5  UNL     1       0.146  50.254 -16.329  1.00  0.00    -0.314 OA
BRANCH  26  27
HETATM   27  C22 UNL     1       0.142  49.315 -15.343  1.00  0.00     0.259 C 
HETATM   28  O6  UNL     1      -0.719  48.458 -15.193  1.00  0.00    -0.265 OA
BRANCH  27  29
HETATM   29  C23 UNL     1       1.374  49.461 -14.483  1.00  0.00     0.120 C 
BRANCH  29  30
HETATM   30  C24 UNL     1       1.885  50.897 -14.511  1.00  0.00     0.112 C 
BRANCH  30  31
HETATM   31  C25 UNL     1       0.789  51.879 -14.144  1.00  0.00     0.218 C 
HETATM   32  O7  UNL     1       0.478  52.828 -14.855  1.00  0.00    -0.274 OA
HETATM   33  N1  UNL     1       0.213  51.618 -12.921  1.00  0.00    -0.357 N 
HETATM   34  H34 UNL     1       0.384  50.716 -12.497  1.00  0.00     0.162 HD
BRANCH  33  35
HETATM   35  C26 UNL     1      -0.961  52.334 -12.478  1.00  0.00     0.161 C 
BRANCH  35  36
HETATM   36  C27 UNL     1      -0.618  53.259 -11.335  1.00  0.00    -0.040 A 
HETATM   37  C28 UNL     1       0.723  53.485 -10.992  1.00  0.00     0.010 A 
HETATM   38  C29 UNL     1       1.055  54.371  -9.965  1.00  0.00     0.019 A 
HETATM   39  C30 UNL     1       0.048  55.049  -9.268  1.00  0.00     0.037 A 
HETATM   40  C32 UNL     1      -1.293  54.828  -9.607  1.00  0.00     0.019 A 
HETATM   41  C33 UNL     1      -1.623  53.941 -10.636  1.00  0.00     0.010 A 
BRANCH  39  42
HETATM   42  C31 UNL     1       0.446  55.989  -8.194  1.00  0.00     0.176 C 
HETATM   43  O8  UNL     1      -0.308  56.563  -7.431  1.00  0.00    -0.646 OA
BRANCH  42  44
HETATM   44  O9  UNL     1       1.778  56.161  -8.118  1.00  0.00    -0.773 OA
HETATM   45  H39 UNL     1       1.888  56.785  -7.371  1.00  0.00     0.167 HD
ENDBRANCH  42  44
ENDBRANCH  39  42
ENDBRANCH  35  36
ENDBRANCH  33  35
ENDBRANCH  30  31
ENDBRANCH  29  30
ENDBRANCH  27  29
ENDBRANCH  26  27
ENDBRANCH  25  26
ENDBRANCH  23  25
ENDBRANCH  20  23
BRANCH  13  46
HETATM   46  O2  UNL     1      -4.912  51.696 -21.589  1.00  0.00    -0.395 OA
HETATM   47  H16 UNL     1      -5.439  52.076 -22.312  1.00  0.00     0.210 HD
ENDBRANCH  13  46
TORSDOF 13
ENDMDL
