MODEL 1
REMARK minimizedAffinity -8.28189182
REMARK CNNscore 0.520492136
REMARK CNNaffinity 6.07164717
REMARK  12 active torsions:
REMARK  status: ('A' for Active; 'I' for Inactive)
REMARK    1  A    between atoms: O1_2  and  C2_3 
REMARK    2  A    between atoms: C4_5  and  O2_6 
REMARK    3  A    between atoms: O2_6  and  C5_7 
REMARK    4  A    between atoms: C8_10  and  C9_11 
REMARK    5  A    between atoms: N1_12  and  C10_14 
REMARK    6  A    between atoms: C10_14  and  C11_15 
REMARK    7  A    between atoms: C11_15  and  C12_16 
REMARK    8  A    between atoms: C12_16  and  O3_17 
REMARK    9  A    between atoms: C18_23  and  C19_24 
REMARK   10  A    between atoms: C25_32  and  O6_33 
REMARK   11  A    between atoms: C29_37  and  O7_38 
REMARK   12  A    between atoms: C33_43  and  O9_44 
ROOT
HETATM    1  C5  UNL     1      -7.566  48.122 -25.549  1.00  0.00     0.127 C 
HETATM    2  C6  UNL     1      -8.912  48.700 -25.115  1.00  0.00     0.033 C 
HETATM    3  C7  UNL     1      -9.913  48.702 -26.265  1.00  0.00     0.021 C 
HETATM    4  C8  UNL     1     -10.240  47.275 -26.831  1.00  0.00     0.026 C 
HETATM    5  C13 UNL     1     -11.566  46.745 -26.141  1.00  0.00     0.009 C 
HETATM    6  C14 UNL     1     -12.840  47.351 -26.781  1.00  0.00     0.007 C 
HETATM    7  C15 UNL     1     -14.135  46.836 -26.157  1.00  0.00     0.013 C 
HETATM    8  C16 UNL     1     -14.249  45.292 -26.193  1.00  0.00    -0.005 C 
HETATM    9  C17 UNL     1     -14.471  44.814 -27.641  1.00  0.00     0.019 C 
HETATM   10  C18 UNL     1     -15.371  44.767 -25.239  1.00  0.00     0.028 C 
HETATM   11  C23 UNL     1     -14.741  44.911 -23.837  1.00  0.00     0.013 C 
HETATM   12  C24 UNL     1     -13.220  44.860 -24.036  1.00  0.00     0.040 C 
HETATM   13  C25 UNL     1     -12.988  44.648 -25.549  1.00  0.00     0.070 C 
HETATM   14  C26 UNL     1     -11.640  45.200 -26.094  1.00  0.00     0.026 C 
HETATM   15  C27 UNL     1     -10.441  44.584 -25.341  1.00  0.00     0.011 C 
HETATM   16  C28 UNL     1      -9.180  45.447 -25.342  1.00  0.00     0.039 C 
HETATM   17  C29 UNL     1      -9.031  46.287 -26.618  1.00  0.00     0.073 C 
HETATM   18  C30 UNL     1      -7.695  47.054 -26.641  1.00  0.00     0.071 C 
ENDROOT
BRANCH   1  19
HETATM   19  O2  UNL     1      -6.902  47.505 -24.442  1.00  0.00    -0.356 OA
BRANCH  19  20
HETATM   20  C4  UNL     1      -5.586  48.004 -24.203  1.00  0.00     0.263 C 
HETATM   21  C3  UNL     1      -5.742  49.357 -23.511  1.00  0.00     0.095 C 
HETATM   22  C2  UNL     1      -4.379  50.011 -23.281  1.00  0.00     0.156 C 
HETATM   23  C33 UNL     1      -3.577  50.037 -24.595  1.00  0.00     0.175 C 
HETATM   24  C31 UNL     1      -3.538  48.625 -25.218  1.00  0.00     0.151 C 
HETATM   25  O8  UNL     1      -4.883  48.164 -25.435  1.00  0.00    -0.354 OA
HETATM   26  C32 UNL     1      -2.825  48.625 -26.567  1.00  0.00     0.042 C 
BRANCH  22  27
HETATM   27  O1  UNL     1      -3.698  49.238 -22.281  1.00  0.00    -0.388 OA
HETATM   28  C1  UNL     1      -2.459  49.815 -21.883  1.00  0.00     0.202 C 
ENDBRANCH  22  27
BRANCH  23  29
HETATM   29  O9  UNL     1      -4.195  50.972 -25.491  1.00  0.00    -0.390 OA
HETATM   30  H51 UNL     1      -4.848  50.470 -26.019  1.00  0.00     0.210 HD
ENDBRANCH  23  29
ENDBRANCH  19  20
ENDBRANCH   1  19
BRANCH  17  31
HETATM   31  O7  UNL     1      -8.984  45.316 -27.693  1.00  0.00    -0.389 OA
HETATM   32  H43 UNL     1      -8.084  44.947 -27.718  1.00  0.00     0.210 HD
ENDBRANCH  17  31
BRANCH   4  33
HETATM   33  C9  UNL     1     -10.460  47.356 -28.357  1.00  0.00     0.068 C 
HETATM   34  N1  UNL     1      -9.820  48.185 -29.109  1.00  0.00    -0.401 N 
ATOM     35  H1  UNL     1      -9.144  48.853 -28.739  1.00  0.00     0.158 HD
BRANCH  34  36
HETATM   36  C10 UNL     1     -10.140  48.097 -30.534  1.00  0.00     0.121 C 
BRANCH  36  37
HETATM   37  C11 UNL     1      -8.848  48.138 -31.346  1.00  0.00     0.045 C 
BRANCH  37  38
HETATM   38  C12 UNL     1      -7.985  49.342 -30.995  1.00  0.00     0.165 C 
BRANCH  38  39
HETATM   39  O3  UNL     1      -8.833  50.426 -30.631  1.00  0.00    -0.401 OA
HETATM   40  H20 UNL     1      -8.251  51.168 -30.393  1.00  0.00     0.209 HD
ENDBRANCH  38  39
ENDBRANCH  37  38
ENDBRANCH  36  37
ENDBRANCH  34  36
ENDBRANCH   4  33
BRANCH  13  41
HETATM   41  O6  UNL     1     -13.012  43.226 -25.755  1.00  0.00    -0.389 OA
HETATM   42  H37 UNL     1     -12.641  43.035 -26.635  1.00  0.00     0.210 HD
ENDBRANCH  13  41
BRANCH  10  43
HETATM   43  C19 UNL     1     -16.747  45.351 -25.408  1.00  0.00    -0.045 A 
HETATM   44  C20 UNL     1     -17.373  46.281 -24.682  1.00  0.00     0.087 A 
HETATM   45  C21 UNL     1     -18.723  46.421 -25.232  1.00  0.00     0.283 A 
HETATM   46  O4  UNL     1     -19.562  47.201 -24.817  1.00  0.00    -0.260 OA
HETATM   47  O5  UNL     1     -18.880  45.554 -26.269  1.00  0.00    -0.314 OA
HETATM   48  C22 UNL     1     -17.668  44.828 -26.451  1.00  0.00     0.213 A 
ENDBRANCH  10  43
TORSDOF 12
ENDMDL
MODEL 2
REMARK minimizedAffinity -6.77364206
REMARK CNNscore 0.427971423
REMARK CNNaffinity 6.23813057
REMARK  12 active torsions:
REMARK  status: ('A' for Active; 'I' for Inactive)
REMARK    1  A    between atoms: O1_2  and  C2_3 
REMARK    2  A    between atoms: C4_5  and  O2_6 
REMARK    3  A    between atoms: O2_6  and  C5_7 
REMARK    4  A    between atoms: C8_10  and  C9_11 
REMARK    5  A    between atoms: N1_12  and  C10_14 
REMARK    6  A    between atoms: C10_14  and  C11_15 
REMARK    7  A    between atoms: C11_15  and  C12_16 
REMARK    8  A    between atoms: C12_16  and  O3_17 
REMARK    9  A    between atoms: C18_23  and  C19_24 
REMARK   10  A    between atoms: C25_32  and  O6_33 
REMARK   11  A    between atoms: C29_37  and  O7_38 
REMARK   12  A    between atoms: C33_43  and  O9_44 
ROOT
HETATM    1  C5  UNL     1      -3.678  49.325 -11.557  1.00  0.00     0.127 C 
HETATM    2  C6  UNL     1      -2.521  49.285 -10.559  1.00  0.00     0.033 C 
HETATM    3  C7  UNL     1      -1.222  49.767 -11.192  1.00  0.00     0.021 C 
HETATM    4  C8  UNL     1      -1.273  51.250 -11.705  1.00  0.00     0.026 C 
HETATM    5  C13 UNL     1      -0.669  52.197 -10.585  1.00  0.00     0.009 C 
HETATM    6  C14 UNL     1       0.880  52.191 -10.588  1.00  0.00     0.007 C 
HETATM    7  C15 UNL     1       1.492  53.118  -9.540  1.00  0.00     0.013 C 
HETATM    8  C16 UNL     1       1.002  54.581  -9.670  1.00  0.00    -0.005 C 
HETATM    9  C17 UNL     1       1.596  55.225 -10.937  1.00  0.00     0.019 C 
HETATM   10  C18 UNL     1       1.331  55.422  -8.393  1.00  0.00     0.028 C 
HETATM   11  C23 UNL     1       0.290  54.929  -7.365  1.00  0.00     0.013 C 
HETATM   12  C24 UNL     1      -0.902  54.399  -8.173  1.00  0.00     0.040 C 
HETATM   13  C25 UNL     1      -0.553  54.627  -9.660  1.00  0.00     0.070 C 
HETATM   14  C26 UNL     1      -1.226  53.639 -10.655  1.00  0.00     0.026 C 
HETATM   15  C27 UNL     1      -2.764  53.674 -10.520  1.00  0.00     0.011 C 
HETATM   16  C28 UNL     1      -3.469  52.391 -10.957  1.00  0.00     0.039 C 
HETATM   17  C29 UNL     1      -2.742  51.667 -12.098  1.00  0.00     0.073 C 
HETATM   18  C30 UNL     1      -3.536  50.445 -12.595  1.00  0.00     0.071 C 
ENDROOT
BRANCH   1  19
HETATM   19  O2  UNL     1      -4.920  49.541 -10.881  1.00  0.00    -0.356 OA
BRANCH  19  20
HETATM   20  C4  UNL     1      -5.778  48.400 -10.865  1.00  0.00     0.263 C 
HETATM   21  C3  UNL     1      -5.190  47.387 -11.845  1.00  0.00     0.095 C 
HETATM   22  C2  UNL     1      -6.087  46.153 -11.956  1.00  0.00     0.156 C 
HETATM   23  C33 UNL     1      -7.537  46.579 -12.248  1.00  0.00     0.175 C 
HETATM   24  C31 UNL     1      -7.993  47.639 -11.223  1.00  0.00     0.151 C 
HETATM   25  O8  UNL     1      -7.097  48.764 -11.273  1.00  0.00    -0.354 OA
HETATM   26  C32 UNL     1      -9.397  48.152 -11.531  1.00  0.00     0.042 C 
BRANCH  22  27
HETATM   27  O1  UNL     1      -6.001  45.449 -10.707  1.00  0.00    -0.388 OA
HETATM   28  C1  UNL     1      -4.775  44.745 -10.551  1.00  0.00     0.202 C 
ENDBRANCH  22  27
BRANCH  23  29
HETATM   29  O9  UNL     1      -7.601  47.101 -13.583  1.00  0.00    -0.390 OA
HETATM   30  H51 UNL     1      -7.440  48.063 -13.520  1.00  0.00     0.210 HD
ENDBRANCH  23  29
ENDBRANCH  19  20
ENDBRANCH   1  19
BRANCH  17  31
HETATM   31  O7  UNL     1      -2.714  52.627 -13.183  1.00  0.00    -0.389 OA
HETATM   32  H43 UNL     1      -3.589  52.617 -13.609  1.00  0.00     0.210 HD
ENDBRANCH  17  31
BRANCH   4  33
HETATM   33  C9  UNL     1      -0.433  51.387 -12.992  1.00  0.00     0.068 C 
HETATM   34  N1  UNL     1      -0.007  50.368 -13.657  1.00  0.00    -0.401 N 
ATOM     35  H1  UNL     1      -0.183  49.407 -13.362  1.00  0.00     0.158 HD
BRANCH  34  36
HETATM   36  C10 UNL     1       0.749  50.693 -14.868  1.00  0.00     0.121 C 
BRANCH  36  37
HETATM   37  C11 UNL     1       1.931  51.587 -14.501  1.00  0.00     0.045 C 
BRANCH  37  38
HETATM   38  C12 UNL     1       2.491  52.325 -15.708  1.00  0.00     0.165 C 
BRANCH  38  39
HETATM   39  O3  UNL     1       1.511  53.242 -16.183  1.00  0.00    -0.401 OA
HETATM   40  H20 UNL     1       1.909  53.710 -16.938  1.00  0.00     0.209 HD
ENDBRANCH  38  39
ENDBRANCH  37  38
ENDBRANCH  36  37
ENDBRANCH  34  36
ENDBRANCH   4  33
BRANCH  13  41
HETATM   41  O6  UNL     1      -1.000  55.957  -9.969  1.00  0.00    -0.389 OA
HETATM   42  H37 UNL     1      -1.018  56.060 -10.938  1.00  0.00     0.210 HD
ENDBRANCH  13  41
BRANCH  10  43
HETATM   43  C19 UNL     1       2.762  55.437  -7.929  1.00  0.00    -0.045 A 
HETATM   44  C20 UNL     1       3.383  54.643  -7.053  1.00  0.00     0.087 A 
HETATM   45  C21 UNL     1       4.751  55.144  -6.910  1.00  0.00     0.283 A 
HETATM   46  O4  UNL     1       5.601  54.641  -6.196  1.00  0.00    -0.260 OA
HETATM   47  O5  UNL     1       4.913  56.244  -7.694  1.00  0.00    -0.314 OA
HETATM   48  C22 UNL     1       3.693  56.505  -8.381  1.00  0.00     0.213 A 
ENDBRANCH  10  43
TORSDOF 12
ENDMDL
MODEL 3
REMARK minimizedAffinity -7.32729292
REMARK CNNscore 0.419074476
REMARK CNNaffinity 6.17142296
REMARK  12 active torsions:
REMARK  status: ('A' for Active; 'I' for Inactive)
REMARK    1  A    between atoms: O1_2  and  C2_3 
REMARK    2  A    between atoms: C4_5  and  O2_6 
REMARK    3  A    between atoms: O2_6  and  C5_7 
REMARK    4  A    between atoms: C8_10  and  C9_11 
REMARK    5  A    between atoms: N1_12  and  C10_14 
REMARK    6  A    between atoms: C10_14  and  C11_15 
REMARK    7  A    between atoms: C11_15  and  C12_16 
REMARK    8  A    between atoms: C12_16  and  O3_17 
REMARK    9  A    between atoms: C18_23  and  C19_24 
REMARK   10  A    between atoms: C25_32  and  O6_33 
REMARK   11  A    between atoms: C29_37  and  O7_38 
REMARK   12  A    between atoms: C33_43  and  O9_44 
ROOT
HETATM    1  C5  UNL     1     -11.466  45.733 -36.621  1.00  0.00     0.127 C 
HETATM    2  C6  UNL     1     -12.110  46.151 -35.299  1.00  0.00     0.033 C 
HETATM    3  C7  UNL     1     -11.823  45.139 -34.197  1.00  0.00     0.021 C 
HETATM    4  C8  UNL     1     -10.297  44.961 -33.874  1.00  0.00     0.026 C 
HETATM    5  C13 UNL     1      -9.926  45.885 -32.639  1.00  0.00     0.009 C 
HETATM    6  C14 UNL     1     -10.343  45.251 -31.289  1.00  0.00     0.007 C 
HETATM    7  C15 UNL     1      -9.972  46.105 -30.078  1.00  0.00     0.013 C 
HETATM    8  C16 UNL     1      -8.462  46.445 -30.021  1.00  0.00    -0.005 C 
HETATM    9  C17 UNL     1      -7.649  45.181 -29.683  1.00  0.00     0.019 C 
HETATM   10  C18 UNL     1      -8.163  47.603 -29.015  1.00  0.00     0.028 C 
HETATM   11  C23 UNL     1      -8.646  48.862 -29.766  1.00  0.00     0.013 C 
HETATM   12  C24 UNL     1      -8.572  48.529 -31.263  1.00  0.00     0.040 C 
HETATM   13  C25 UNL     1      -8.010  47.094 -31.361  1.00  0.00     0.070 C 
HETATM   14  C26 UNL     1      -8.437  46.302 -32.630  1.00  0.00     0.026 C 
HETATM   15  C27 UNL     1      -8.036  47.055 -33.917  1.00  0.00     0.011 C 
HETATM   16  C28 UNL     1      -8.893  46.725 -35.137  1.00  0.00     0.039 C 
HETATM   17  C29 UNL     1      -9.407  45.279 -35.135  1.00  0.00     0.073 C 
HETATM   18  C30 UNL     1     -10.166  44.942 -36.432  1.00  0.00     0.071 C 
ENDROOT
BRANCH   1  19
HETATM   19  O2  UNL     1     -11.141  46.883 -37.409  1.00  0.00    -0.356 OA
BRANCH  19  20
HETATM   20  C4  UNL     1     -12.118  47.204 -38.398  1.00  0.00     0.263 C 
HETATM   21  C3  UNL     1     -11.481  48.226 -39.338  1.00  0.00     0.095 C 
HETATM   22  C2  UNL     1     -12.483  48.693 -40.395  1.00  0.00     0.156 C 
HETATM   23  C33 UNL     1     -13.787  49.152 -39.719  1.00  0.00     0.175 C 
HETATM   24  C31 UNL     1     -14.299  48.056 -38.759  1.00  0.00     0.151 C 
HETATM   25  O8  UNL     1     -13.281  47.763 -37.786  1.00  0.00    -0.354 OA
HETATM   26  C32 UNL     1     -15.545  48.507 -38.003  1.00  0.00     0.042 C 
BRANCH  22  27
HETATM   27  O1  UNL     1     -12.724  47.584 -41.274  1.00  0.00    -0.388 OA
HETATM   28  C1  UNL     1     -13.496  47.940 -42.416  1.00  0.00     0.202 C 
ENDBRANCH  22  27
BRANCH  23  29
HETATM   29  O9  UNL     1     -13.532  50.371 -39.008  1.00  0.00    -0.390 OA
HETATM   30  H51 UNL     1     -13.270  50.121 -38.099  1.00  0.00     0.210 HD
ENDBRANCH  23  29
ENDBRANCH  19  20
ENDBRANCH   1  19
BRANCH  17  31
HETATM   31  O7  UNL     1      -8.209  44.464 -35.118  1.00  0.00    -0.389 OA
HETATM   32  H43 UNL     1      -7.858  44.436 -36.025  1.00  0.00     0.210 HD
ENDBRANCH  17  31
BRANCH   4  33
HETATM   33  C9  UNL     1     -10.008  43.489 -33.509  1.00  0.00     0.068 C 
HETATM   34  N1  UNL     1      -8.976  43.131 -32.824  1.00  0.00    -0.401 N 
ATOM     35  H1  UNL     1      -8.276  43.797 -32.498  1.00  0.00     0.158 HD
BRANCH  34  36
HETATM   36  C10 UNL     1      -8.885  41.696 -32.551  1.00  0.00     0.121 C 
BRANCH  36  37
HETATM   37  C11 UNL     1      -7.417  41.276 -32.539  1.00  0.00     0.045 C 
BRANCH  37  38
HETATM   38  C12 UNL     1      -6.768  41.412 -33.908  1.00  0.00     0.165 C 
BRANCH  38  39
HETATM   39  O3  UNL     1      -6.205  42.715 -34.024  1.00  0.00    -0.401 OA
HETATM   40  H20 UNL     1      -5.781  42.759 -34.899  1.00  0.00     0.209 HD
ENDBRANCH  38  39
ENDBRANCH  37  38
ENDBRANCH  36  37
ENDBRANCH  34  36
ENDBRANCH   4  33
BRANCH  13  41
HETATM   41  O6  UNL     1      -6.579  47.233 -31.372  1.00  0.00    -0.389 OA
HETATM   42  H37 UNL     1      -6.190  46.390 -31.667  1.00  0.00     0.210 HD
ENDBRANCH  13  41
BRANCH  10  43
HETATM   43  C19 UNL     1      -8.668  47.439 -27.607  1.00  0.00    -0.045 A 
HETATM   44  C20 UNL     1      -8.182  46.699 -26.607  1.00  0.00     0.087 A 
HETATM   45  C21 UNL     1      -9.102  46.842 -25.478  1.00  0.00     0.283 A 
HETATM   46  O4  UNL     1      -8.951  46.310 -24.391  1.00  0.00    -0.260 OA
HETATM   47  O5  UNL     1     -10.133  47.654 -25.835  1.00  0.00    -0.314 OA
HETATM   48  C22 UNL     1      -9.940  48.081 -27.180  1.00  0.00     0.213 A 
ENDBRANCH  10  43
TORSDOF 12
ENDMDL
MODEL 4
REMARK minimizedAffinity -6.89100742
REMARK CNNscore 0.410214216
REMARK CNNaffinity 6.31925058
REMARK  12 active torsions:
REMARK  status: ('A' for Active; 'I' for Inactive)
REMARK    1  A    between atoms: O1_2  and  C2_3 
REMARK    2  A    between atoms: C4_5  and  O2_6 
REMARK    3  A    between atoms: O2_6  and  C5_7 
REMARK    4  A    between atoms: C8_10  and  C9_11 
REMARK    5  A    between atoms: N1_12  and  C10_14 
REMARK    6  A    between atoms: C10_14  and  C11_15 
REMARK    7  A    between atoms: C11_15  and  C12_16 
REMARK    8  A    between atoms: C12_16  and  O3_17 
REMARK    9  A    between atoms: C18_23  and  C19_24 
REMARK   10  A    between atoms: C25_32  and  O6_33 
REMARK   11  A    between atoms: C29_37  and  O7_38 
REMARK   12  A    between atoms: C33_43  and  O9_44 
ROOT
HETATM    1  C5  UNL     1     -11.617  45.716 -36.468  1.00  0.00     0.127 C 
HETATM    2  C6  UNL     1     -12.221  46.081 -35.112  1.00  0.00     0.033 C 
HETATM    3  C7  UNL     1     -11.804  45.089 -34.033  1.00  0.00     0.021 C 
HETATM    4  C8  UNL     1     -10.254  45.023 -33.791  1.00  0.00     0.026 C 
HETATM    5  C13 UNL     1      -9.889  45.968 -32.570  1.00  0.00     0.009 C 
HETATM    6  C14 UNL     1     -10.187  45.301 -31.204  1.00  0.00     0.007 C 
HETATM    7  C15 UNL     1      -9.817  46.175 -30.009  1.00  0.00     0.013 C 
HETATM    8  C16 UNL     1      -8.335  46.625 -30.027  1.00  0.00    -0.005 C 
HETATM    9  C17 UNL     1      -7.416  45.423 -29.740  1.00  0.00     0.019 C 
HETATM   10  C18 UNL     1      -8.070  47.799 -29.029  1.00  0.00     0.028 C 
HETATM   11  C23 UNL     1      -8.682  49.021 -29.746  1.00  0.00     0.013 C 
HETATM   12  C24 UNL     1      -8.662  48.700 -31.247  1.00  0.00     0.040 C 
HETATM   13  C25 UNL     1      -8.002  47.310 -31.383  1.00  0.00     0.070 C 
HETATM   14  C26 UNL     1      -8.435  46.493 -32.634  1.00  0.00     0.026 C 
HETATM   15  C27 UNL     1      -8.158  47.278 -33.935  1.00  0.00     0.011 C 
HETATM   16  C28 UNL     1      -9.050  46.889 -35.112  1.00  0.00     0.039 C 
HETATM   17  C29 UNL     1      -9.456  45.409 -35.093  1.00  0.00     0.073 C 
HETATM   18  C30 UNL     1     -10.255  45.022 -36.352  1.00  0.00     0.071 C 
ENDROOT
BRANCH   1  19
HETATM   19  O2  UNL     1     -11.419  46.889 -37.264  1.00  0.00    -0.356 OA
BRANCH  19  20
HETATM   20  C4  UNL     1     -10.691  46.656 -38.469  1.00  0.00     0.263 C 
HETATM   21  C3  UNL     1      -9.624  47.746 -38.563  1.00  0.00     0.095 C 
HETATM   22  C2  UNL     1      -8.838  47.628 -39.869  1.00  0.00     0.156 C 
HETATM   23  C33 UNL     1      -9.805  47.557 -41.063  1.00  0.00     0.175 C 
HETATM   24  C31 UNL     1     -10.861  46.456 -40.824  1.00  0.00     0.151 C 
HETATM   25  O8  UNL     1     -11.563  46.730 -39.598  1.00  0.00    -0.354 OA
HETATM   26  C32 UNL     1     -11.893  46.412 -41.948  1.00  0.00     0.042 C 
BRANCH  22  27
HETATM   27  O1  UNL     1      -8.043  46.435 -39.781  1.00  0.00    -0.388 OA
HETATM   28  C1  UNL     1      -7.098  46.321 -40.839  1.00  0.00     0.202 C 
ENDBRANCH  22  27
BRANCH  23  29
HETATM   29  O9  UNL     1     -10.433  48.837 -41.223  1.00  0.00    -0.390 OA
HETATM   30  H51 UNL     1     -11.252  48.820 -40.689  1.00  0.00     0.210 HD
ENDBRANCH  23  29
ENDBRANCH  19  20
ENDBRANCH   1  19
BRANCH  17  31
HETATM   31  O7  UNL     1      -8.203  44.684 -35.144  1.00  0.00    -0.389 OA
HETATM   32  H43 UNL     1      -7.898  44.686 -36.068  1.00  0.00     0.210 HD
ENDBRANCH  17  31
BRANCH   4  33
HETATM   33  C9  UNL     1      -9.840  43.575 -33.452  1.00  0.00     0.068 C 
HETATM   34  N1  UNL     1     -10.411  42.546 -33.980  1.00  0.00    -0.401 N 
ATOM     35  H1  UNL     1     -11.186  42.626 -34.639  1.00  0.00     0.158 HD
BRANCH  34  36
HETATM   36  C10 UNL     1      -9.865  41.255 -33.560  1.00  0.00     0.121 C 
BRANCH  36  37
HETATM   37  C11 UNL     1      -8.397  41.426 -33.180  1.00  0.00     0.045 C 
BRANCH  37  38
HETATM   38  C12 UNL     1      -8.022  40.616 -31.947  1.00  0.00     0.165 C 
BRANCH  38  39
HETATM   39  O3  UNL     1      -6.631  40.780 -31.692  1.00  0.00    -0.401 OA
HETATM   40  H20 UNL     1      -6.432  40.269 -30.889  1.00  0.00     0.209 HD
ENDBRANCH  38  39
ENDBRANCH  37  38
ENDBRANCH  36  37
ENDBRANCH  34  36
ENDBRANCH   4  33
BRANCH  13  41
HETATM   41  O6  UNL     1      -6.588  47.553 -31.467  1.00  0.00    -0.389 OA
HETATM   42  H37 UNL     1      -6.153  46.742 -31.788  1.00  0.00     0.210 HD
ENDBRANCH  13  41
BRANCH  10  43
HETATM   43  C19 UNL     1      -8.489  47.594 -27.598  1.00  0.00    -0.045 A 
HETATM   44  C20 UNL     1      -9.655  47.862 -27.005  1.00  0.00     0.087 A 
HETATM   45  C21 UNL     1      -9.499  47.544 -25.584  1.00  0.00     0.283 A 
HETATM   46  O4  UNL     1     -10.380  47.656 -24.750  1.00  0.00    -0.260 OA
HETATM   47  O5  UNL     1      -8.231  47.107 -25.356  1.00  0.00    -0.314 OA
HETATM   48  C22 UNL     1      -7.514  47.108 -26.587  1.00  0.00     0.213 A 
ENDBRANCH  10  43
TORSDOF 12
ENDMDL
MODEL 5
REMARK minimizedAffinity -8.86847305
REMARK CNNscore 0.40111509
REMARK CNNaffinity 6.72971916
REMARK  12 active torsions:
REMARK  status: ('A' for Active; 'I' for Inactive)
REMARK    1  A    between atoms: O1_2  and  C2_3 
REMARK    2  A    between atoms: C4_5  and  O2_6 
REMARK    3  A    between atoms: O2_6  and  C5_7 
REMARK    4  A    between atoms: C8_10  and  C9_11 
REMARK    5  A    between atoms: N1_12  and  C10_14 
REMARK    6  A    between atoms: C10_14  and  C11_15 
REMARK    7  A    between atoms: C11_15  and  C12_16 
REMARK    8  A    between atoms: C12_16  and  O3_17 
REMARK    9  A    between atoms: C18_23  and  C19_24 
REMARK   10  A    between atoms: C25_32  and  O6_33 
REMARK   11  A    between atoms: C29_37  and  O7_38 
REMARK   12  A    between atoms: C33_43  and  O9_44 
ROOT
HETATM    1  C5  UNL     1      -6.822  47.992 -21.131  1.00  0.00     0.127 C 
HETATM    2  C6  UNL     1      -5.315  47.840 -21.333  1.00  0.00     0.033 C 
HETATM    3  C7  UNL     1      -4.975  47.550 -22.790  1.00  0.00     0.021 C 
HETATM    4  C8  UNL     1      -5.413  48.683 -23.786  1.00  0.00     0.026 C 
HETATM    5  C13 UNL     1      -4.172  49.634 -24.051  1.00  0.00     0.009 C 
HETATM    6  C14 UNL     1      -3.184  49.033 -25.082  1.00  0.00     0.007 C 
HETATM    7  C15 UNL     1      -1.994  49.940 -25.382  1.00  0.00     0.013 C 
HETATM    8  C16 UNL     1      -2.417  51.350 -25.865  1.00  0.00    -0.005 C 
HETATM    9  C17 UNL     1      -3.017  51.263 -27.282  1.00  0.00     0.019 C 
HETATM   10  C18 UNL     1      -1.231  52.367 -25.808  1.00  0.00     0.028 C 
HETATM   11  C23 UNL     1      -1.101  52.678 -24.301  1.00  0.00     0.013 C 
HETATM   12  C24 UNL     1      -2.482  52.414 -23.683  1.00  0.00     0.040 C 
HETATM   13  C25 UNL     1      -3.404  51.989 -24.847  1.00  0.00     0.070 C 
HETATM   14  C26 UNL     1      -4.593  51.070 -24.446  1.00  0.00     0.026 C 
HETATM   15  C27 UNL     1      -5.472  51.735 -23.365  1.00  0.00     0.011 C 
HETATM   16  C28 UNL     1      -6.249  50.756 -22.488  1.00  0.00     0.039 C 
HETATM   17  C29 UNL     1      -6.656  49.478 -23.233  1.00  0.00     0.073 C 
HETATM   18  C30 UNL     1      -7.537  48.565 -22.360  1.00  0.00     0.071 C 
ENDROOT
BRANCH   1  19
HETATM   19  O2  UNL     1      -7.097  48.877 -20.040  1.00  0.00    -0.356 OA
BRANCH  19  20
HETATM   20  C4  UNL     1      -8.041  48.364 -19.101  1.00  0.00     0.263 C 
HETATM   21  C3  UNL     1      -7.566  46.965 -18.711  1.00  0.00     0.095 C 
HETATM   22  C2  UNL     1      -8.560  46.298 -17.759  1.00  0.00     0.156 C 
HETATM   23  C33 UNL     1      -9.981  46.365 -18.348  1.00  0.00     0.175 C 
HETATM   24  C31 UNL     1     -10.319  47.818 -18.747  1.00  0.00     0.151 C 
HETATM   25  O8  UNL     1      -9.340  48.292 -19.689  1.00  0.00    -0.354 OA
HETATM   26  C32 UNL     1     -11.688  47.913 -19.415  1.00  0.00     0.042 C 
BRANCH  22  27
HETATM   27  O1  UNL     1      -8.489  46.999 -16.508  1.00  0.00    -0.388 OA
HETATM   28  C1  UNL     1      -7.736  46.301 -15.524  1.00  0.00     0.202 C 
ENDBRANCH  22  27
BRANCH  23  29
HETATM   29  O9  UNL     1     -10.047  45.496 -19.487  1.00  0.00    -0.390 OA
HETATM   30  H51 UNL     1      -9.809  46.033 -20.268  1.00  0.00     0.210 HD
ENDBRANCH  23  29
ENDBRANCH  19  20
ENDBRANCH   1  19
BRANCH  17  31
HETATM   31  O7  UNL     1      -7.480  49.941 -24.332  1.00  0.00    -0.389 OA
HETATM   32  H43 UNL     1      -8.366  50.129 -23.977  1.00  0.00     0.210 HD
ENDBRANCH  17  31
BRANCH   4  33
HETATM   33  C9  UNL     1      -5.867  48.057 -25.122  1.00  0.00     0.068 C 
HETATM   34  N1  UNL     1      -6.927  47.329 -25.225  1.00  0.00    -0.401 N 
ATOM     35  H1  UNL     1      -7.520  47.107 -24.426  1.00  0.00     0.158 HD
BRANCH  34  36
HETATM   36  C10 UNL     1      -7.214  46.847 -26.577  1.00  0.00     0.121 C 
BRANCH  36  37
HETATM   37  C11 UNL     1      -6.628  47.820 -27.596  1.00  0.00     0.045 C 
BRANCH  37  38
HETATM   38  C12 UNL     1      -7.524  47.986 -28.815  1.00  0.00     0.165 C 
BRANCH  38  39
HETATM   39  O3  UNL     1      -8.431  49.058 -28.578  1.00  0.00    -0.401 OA
HETATM   40  H20 UNL     1      -8.971  49.151 -29.382  1.00  0.00     0.209 HD
ENDBRANCH  38  39
ENDBRANCH  37  38
ENDBRANCH  36  37
ENDBRANCH  34  36
ENDBRANCH   4  33
BRANCH  13  41
HETATM   41  O6  UNL     1      -3.937  53.209 -25.390  1.00  0.00    -0.389 OA
HETATM   42  H37 UNL     1      -4.694  52.987 -25.961  1.00  0.00     0.210 HD
ENDBRANCH  13  41
BRANCH  10  43
HETATM   43  C19 UNL     1       0.040  51.982 -26.515  1.00  0.00    -0.045 A 
HETATM   44  C20 UNL     1       1.227  51.637 -26.007  1.00  0.00     0.087 A 
HETATM   45  C21 UNL     1       2.137  51.439 -27.136  1.00  0.00     0.283 A 
HETATM   46  O4  UNL     1       3.303  51.100 -27.033  1.00  0.00    -0.260 OA
HETATM   47  O5  UNL     1       1.476  51.689 -28.299  1.00  0.00    -0.314 OA
HETATM   48  C22 UNL     1       0.131  52.045 -27.997  1.00  0.00     0.213 A 
ENDBRANCH  10  43
TORSDOF 12
ENDMDL
MODEL 6
REMARK minimizedAffinity -7.93068314
REMARK CNNscore 0.356914222
REMARK CNNaffinity 6.70133781
REMARK  12 active torsions:
REMARK  status: ('A' for Active; 'I' for Inactive)
REMARK    1  A    between atoms: O1_2  and  C2_3 
REMARK    2  A    between atoms: C4_5  and  O2_6 
REMARK    3  A    between atoms: O2_6  and  C5_7 
REMARK    4  A    between atoms: C8_10  and  C9_11 
REMARK    5  A    between atoms: N1_12  and  C10_14 
REMARK    6  A    between atoms: C10_14  and  C11_15 
REMARK    7  A    between atoms: C11_15  and  C12_16 
REMARK    8  A    between atoms: C12_16  and  O3_17 
REMARK    9  A    between atoms: C18_23  and  C19_24 
REMARK   10  A    between atoms: C25_32  and  O6_33 
REMARK   11  A    between atoms: C29_37  and  O7_38 
REMARK   12  A    between atoms: C33_43  and  O9_44 
ROOT
HETATM    1  C5  UNL     1      -2.508  49.262 -21.039  1.00  0.00     0.127 C 
HETATM    2  C6  UNL     1      -1.329  48.598 -20.329  1.00  0.00     0.033 C 
HETATM    3  C7  UNL     1      -0.337  49.632 -19.811  1.00  0.00     0.021 C 
HETATM    4  C8  UNL     1      -0.943  50.628 -18.760  1.00  0.00     0.026 C 
HETATM    5  C13 UNL     1      -0.612  50.095 -17.303  1.00  0.00     0.009 C 
HETATM    6  C14 UNL     1       0.837  50.435 -16.872  1.00  0.00     0.007 C 
HETATM    7  C15 UNL     1       1.176  49.961 -15.461  1.00  0.00     0.013 C 
HETATM    8  C16 UNL     1       0.200  50.508 -14.391  1.00  0.00    -0.005 C 
HETATM    9  C17 UNL     1       0.422  52.020 -14.197  1.00  0.00     0.019 C 
HETATM   10  C18 UNL     1       0.324  49.734 -13.038  1.00  0.00     0.028 C 
HETATM   11  C23 UNL     1      -0.389  48.396 -13.326  1.00  0.00     0.013 C 
HETATM   12  C24 UNL     1      -1.387  48.671 -14.459  1.00  0.00     0.040 C 
HETATM   13  C25 UNL     1      -1.267  50.176 -14.787  1.00  0.00     0.070 C 
HETATM   14  C26 UNL     1      -1.638  50.566 -16.246  1.00  0.00     0.026 C 
HETATM   15  C27 UNL     1      -3.076  50.120 -16.593  1.00  0.00     0.011 C 
HETATM   16  C28 UNL     1      -3.326  49.890 -18.082  1.00  0.00     0.039 C 
HETATM   17  C29 UNL     1      -2.493  50.815 -18.979  1.00  0.00     0.073 C 
HETATM   18  C30 UNL     1      -2.853  50.642 -20.467  1.00  0.00     0.071 C 
ENDROOT
BRANCH   1  19
HETATM   19  O2  UNL     1      -3.685  48.458 -20.921  1.00  0.00    -0.356 OA
BRANCH  19  20
HETATM   20  C4  UNL     1      -4.833  49.010 -21.565  1.00  0.00     0.263 C 
HETATM   21  C3  UNL     1      -5.570  47.849 -22.232  1.00  0.00     0.095 C 
HETATM   22  C2  UNL     1      -6.781  48.354 -23.019  1.00  0.00     0.156 C 
HETATM   23  C33 UNL     1      -6.358  49.490 -23.967  1.00  0.00     0.175 C 
HETATM   24  C31 UNL     1      -5.580  50.570 -23.184  1.00  0.00     0.151 C 
HETATM   25  O8  UNL     1      -4.439  49.966 -22.550  1.00  0.00    -0.354 OA
HETATM   26  C32 UNL     1      -5.068  51.673 -24.105  1.00  0.00     0.042 C 
BRANCH  22  27
HETATM   27  O1  UNL     1      -7.748  48.817 -22.063  1.00  0.00    -0.388 OA
HETATM   28  C1  UNL     1      -8.373  47.756 -21.349  1.00  0.00     0.202 C 
ENDBRANCH  22  27
BRANCH  23  29
HETATM   29  O9  UNL     1      -5.548  48.937 -25.013  1.00  0.00    -0.390 OA
HETATM   30  H51 UNL     1      -4.620  48.984 -24.708  1.00  0.00     0.210 HD
ENDBRANCH  23  29
ENDBRANCH  19  20
ENDBRANCH   1  19
BRANCH  17  31
HETATM   31  O7  UNL     1      -2.893  52.154 -18.597  1.00  0.00    -0.389 OA
HETATM   32  H43 UNL     1      -3.742  52.344 -19.032  1.00  0.00     0.210 HD
ENDBRANCH  17  31
BRANCH   4  33
HETATM   33  C9  UNL     1      -0.316  52.027 -18.943  1.00  0.00     0.068 C 
HETATM   34  N1  UNL     1      -0.058  52.527 -20.103  1.00  0.00    -0.401 N 
ATOM     35  H1  UNL     1      -0.235  52.022 -20.971  1.00  0.00     0.158 HD
BRANCH  34  36
HETATM   36  C10 UNL     1       0.509  53.877 -20.080  1.00  0.00     0.121 C 
BRANCH  36  37
HETATM   37  C11 UNL     1       1.481  54.037 -21.246  1.00  0.00     0.045 C 
BRANCH  37  38
HETATM   38  C12 UNL     1       0.874  53.590 -22.568  1.00  0.00     0.165 C 
BRANCH  38  39
HETATM   39  O3  UNL     1       0.998  52.176 -22.678  1.00  0.00    -0.401 OA
HETATM   40  H20 UNL     1       0.582  51.923 -23.520  1.00  0.00     0.209 HD
ENDBRANCH  38  39
ENDBRANCH  37  38
ENDBRANCH  36  37
ENDBRANCH  34  36
ENDBRANCH   4  33
BRANCH  13  41
HETATM   41  O6  UNL     1      -2.173  50.845 -13.894  1.00  0.00    -0.389 OA
HETATM   42  H37 UNL     1      -2.308  51.755 -14.216  1.00  0.00     0.210 HD
ENDBRANCH  13  41
BRANCH  10  43
HETATM   43  C19 UNL     1       1.696  49.634 -12.426  1.00  0.00    -0.045 A 
HETATM   44  C20 UNL     1       2.876  50.027 -12.911  1.00  0.00     0.087 A 
HETATM   45  C21 UNL     1       3.897  49.619 -11.945  1.00  0.00     0.283 A 
HETATM   46  O4  UNL     1       5.090  49.836 -12.066  1.00  0.00    -0.260 OA
HETATM   47  O5  UNL     1       3.302  48.972 -10.906  1.00  0.00    -0.314 OA
HETATM   48  C22 UNL     1       1.897  48.934 -11.130  1.00  0.00     0.213 A 
ENDBRANCH  10  43
TORSDOF 12
ENDMDL
MODEL 7
REMARK minimizedAffinity -6.82699251
REMARK CNNscore 0.353559613
REMARK CNNaffinity 6.12066603
REMARK  12 active torsions:
REMARK  status: ('A' for Active; 'I' for Inactive)
REMARK    1  A    between atoms: O1_2  and  C2_3 
REMARK    2  A    between atoms: C4_5  and  O2_6 
REMARK    3  A    between atoms: O2_6  and  C5_7 
REMARK    4  A    between atoms: C8_10  and  C9_11 
REMARK    5  A    between atoms: N1_12  and  C10_14 
REMARK    6  A    between atoms: C10_14  and  C11_15 
REMARK    7  A    between atoms: C11_15  and  C12_16 
REMARK    8  A    between atoms: C12_16  and  O3_17 
REMARK    9  A    between atoms: C18_23  and  C19_24 
REMARK   10  A    between atoms: C25_32  and  O6_33 
REMARK   11  A    between atoms: C29_37  and  O7_38 
REMARK   12  A    between atoms: C33_43  and  O9_44 
ROOT
HETATM    1  C5  UNL     1      -4.263  49.806 -10.998  1.00  0.00     0.127 C 
HETATM    2  C6  UNL     1      -3.048  49.683 -10.079  1.00  0.00     0.033 C 
HETATM    3  C7  UNL     1      -1.758  50.031 -10.811  1.00  0.00     0.021 C 
HETATM    4  C8  UNL     1      -1.712  51.501 -11.361  1.00  0.00     0.026 C 
HETATM    5  C13 UNL     1      -0.949  52.414 -10.311  1.00  0.00     0.009 C 
HETATM    6  C14 UNL     1       0.589  52.266 -10.417  1.00  0.00     0.007 C 
HETATM    7  C15 UNL     1       1.352  53.156  -9.439  1.00  0.00     0.013 C 
HETATM    8  C16 UNL     1       0.987  54.655  -9.577  1.00  0.00    -0.005 C 
HETATM    9  C17 UNL     1       1.547  55.214 -10.899  1.00  0.00     0.019 C 
HETATM   10  C18 UNL     1       1.477  55.490  -8.349  1.00  0.00     0.028 C 
HETATM   11  C23 UNL     1       0.470  55.117  -7.240  1.00  0.00     0.013 C 
HETATM   12  C24 UNL     1      -0.818  54.680  -7.952  1.00  0.00     0.040 C 
HETATM   13  C25 UNL     1      -0.553  54.842  -9.465  1.00  0.00     0.070 C 
HETATM   14  C26 UNL     1      -1.379  53.898 -10.385  1.00  0.00     0.026 C 
HETATM   15  C27 UNL     1      -2.895  54.076 -10.148  1.00  0.00     0.011 C 
HETATM   16  C28 UNL     1      -3.740  52.853 -10.500  1.00  0.00     0.039 C 
HETATM   17  C29 UNL     1      -3.161  52.041 -11.667  1.00  0.00     0.073 C 
HETATM   18  C30 UNL     1      -4.093  50.885 -12.074  1.00  0.00     0.071 C 
ENDROOT
BRANCH   1  19
HETATM   19  O2  UNL     1      -5.431  50.149 -10.247  1.00  0.00    -0.356 OA
BRANCH  19  20
HETATM   20  C4  UNL     1      -6.428  49.128 -10.226  1.00  0.00     0.263 C 
HETATM   21  C3  UNL     1      -7.773  49.823 -10.018  1.00  0.00     0.095 C 
HETATM   22  C2  UNL     1      -8.903  48.799  -9.903  1.00  0.00     0.156 C 
HETATM   23  C33 UNL     1      -8.547  47.735  -8.849  1.00  0.00     0.175 C 
HETATM   24  C31 UNL     1      -7.149  47.149  -9.141  1.00  0.00     0.151 C 
HETATM   25  O8  UNL     1      -6.181  48.214  -9.157  1.00  0.00    -0.354 OA
HETATM   26  C32 UNL     1      -6.722  46.152  -8.068  1.00  0.00     0.042 C 
BRANCH  22  27
HETATM   27  O1  UNL     1      -9.070  48.201 -11.198  1.00  0.00    -0.388 OA
HETATM   28  C1  UNL     1     -10.202  47.342 -11.269  1.00  0.00     0.202 C 
ENDBRANCH  22  27
BRANCH  23  29
HETATM   29  O9  UNL     1      -8.581  48.346  -7.551  1.00  0.00    -0.390 OA
HETATM   30  H51 UNL     1      -7.680  48.680  -7.370  1.00  0.00     0.210 HD
ENDBRANCH  23  29
ENDBRANCH  19  20
ENDBRANCH   1  19
BRANCH  17  31
HETATM   31  O7  UNL     1      -3.122  52.970 -12.778  1.00  0.00    -0.389 OA
HETATM   32  H43 UNL     1      -4.022  53.030 -13.143  1.00  0.00     0.210 HD
ENDBRANCH  17  31
BRANCH   4  33
HETATM   33  C9  UNL     1      -0.953  51.532 -12.705  1.00  0.00     0.068 C 
HETATM   34  N1  UNL     1      -0.550  50.463 -13.302  1.00  0.00    -0.401 N 
ATOM     35  H1  UNL     1      -0.691  49.530 -12.913  1.00  0.00     0.158 HD
BRANCH  34  36
HETATM   36  C10 UNL     1       0.125  50.688 -14.581  1.00  0.00     0.121 C 
BRANCH  36  37
HETATM   37  C11 UNL     1       1.177  51.781 -14.411  1.00  0.00     0.045 C 
BRANCH  37  38
HETATM   38  C12 UNL     1       1.900  52.091 -15.714  1.00  0.00     0.165 C 
BRANCH  38  39
HETATM   39  O3  UNL     1       1.439  53.343 -16.210  1.00  0.00    -0.401 OA
HETATM   40  H20 UNL     1       1.936  53.520 -17.028  1.00  0.00     0.209 HD
ENDBRANCH  38  39
ENDBRANCH  37  38
ENDBRANCH  36  37
ENDBRANCH  34  36
ENDBRANCH   4  33
BRANCH  13  41
HETATM   41  O6  UNL     1      -0.900  56.200  -9.781  1.00  0.00    -0.389 OA
HETATM   42  H37 UNL     1      -0.976  56.283 -10.749  1.00  0.00     0.210 HD
ENDBRANCH  13  41
BRANCH  10  43
HETATM   43  C19 UNL     1       2.933  55.386  -7.983  1.00  0.00    -0.045 A 
HETATM   44  C20 UNL     1       3.521  54.662  -7.027  1.00  0.00     0.087 A 
HETATM   45  C21 UNL     1       4.947  54.991  -7.052  1.00  0.00     0.283 A 
HETATM   46  O4  UNL     1       5.785  54.496  -6.318  1.00  0.00    -0.260 OA
HETATM   47  O5  UNL     1       5.178  55.923  -8.016  1.00  0.00    -0.314 OA
HETATM   48  C22 UNL     1       3.947  56.235  -8.661  1.00  0.00     0.213 A 
ENDBRANCH  10  43
TORSDOF 12
ENDMDL
MODEL 8
REMARK minimizedAffinity -8.03563786
REMARK CNNscore 0.342616826
REMARK CNNaffinity 6.729918
REMARK  12 active torsions:
REMARK  status: ('A' for Active; 'I' for Inactive)
REMARK    1  A    between atoms: O1_2  and  C2_3 
REMARK    2  A    between atoms: C4_5  and  O2_6 
REMARK    3  A    between atoms: O2_6  and  C5_7 
REMARK    4  A    between atoms: C8_10  and  C9_11 
REMARK    5  A    between atoms: N1_12  and  C10_14 
REMARK    6  A    between atoms: C10_14  and  C11_15 
REMARK    7  A    between atoms: C11_15  and  C12_16 
REMARK    8  A    between atoms: C12_16  and  O3_17 
REMARK    9  A    between atoms: C18_23  and  C19_24 
REMARK   10  A    between atoms: C25_32  and  O6_33 
REMARK   11  A    between atoms: C29_37  and  O7_38 
REMARK   12  A    between atoms: C33_43  and  O9_44 
ROOT
HETATM    1  C5  UNL     1      -0.844  49.674 -16.952  1.00  0.00     0.127 C 
HETATM    2  C6  UNL     1      -0.240  49.534 -18.350  1.00  0.00     0.033 C 
HETATM    3  C7  UNL     1      -0.969  48.473 -19.166  1.00  0.00     0.021 C 
HETATM    4  C8  UNL     1      -2.490  48.781 -19.403  1.00  0.00     0.026 C 
HETATM    5  C13 UNL     1      -2.654  49.481 -20.817  1.00  0.00     0.009 C 
HETATM    6  C14 UNL     1      -2.623  48.460 -21.981  1.00  0.00     0.007 C 
HETATM    7  C15 UNL     1      -2.809  49.100 -23.354  1.00  0.00     0.013 C 
HETATM    8  C16 UNL     1      -4.112  49.932 -23.459  1.00  0.00    -0.005 C 
HETATM    9  C17 UNL     1      -5.336  48.996 -23.461  1.00  0.00     0.019 C 
HETATM   10  C18 UNL     1      -4.106  50.869 -24.711  1.00  0.00     0.028 C 
HETATM   11  C23 UNL     1      -3.148  52.007 -24.299  1.00  0.00     0.013 C 
HETATM   12  C24 UNL     1      -3.171  52.061 -22.765  1.00  0.00     0.040 C 
HETATM   13  C25 UNL     1      -4.172  50.977 -22.309  1.00  0.00     0.070 C 
HETATM   14  C26 UNL     1      -3.906  50.385 -20.895  1.00  0.00     0.026 C 
HETATM   15  C27 UNL     1      -3.890  51.495 -19.821  1.00  0.00     0.011 C 
HETATM   16  C28 UNL     1      -3.071  51.160 -18.576  1.00  0.00     0.039 C 
HETATM   17  C29 UNL     1      -3.080  49.663 -18.238  1.00  0.00     0.073 C 
HETATM   18  C30 UNL     1      -2.347  49.373 -16.915  1.00  0.00     0.071 C 
ENDROOT
BRANCH   1  19
HETATM   19  O2  UNL     1      -0.674  51.007 -16.461  1.00  0.00    -0.356 OA
BRANCH  19  20
HETATM   20  C4  UNL     1       0.320  51.130 -15.445  1.00  0.00     0.263 C 
HETATM   21  C3  UNL     1       0.703  49.712 -15.023  1.00  0.00     0.095 C 
HETATM   22  C2  UNL     1       1.713  49.739 -13.876  1.00  0.00     0.156 C 
HETATM   23  C33 UNL     1       1.199  50.642 -12.740  1.00  0.00     0.175 C 
HETATM   24  C31 UNL     1       0.798  52.023 -13.303  1.00  0.00     0.151 C 
HETATM   25  O8  UNL     1      -0.200  51.848 -14.325  1.00  0.00    -0.354 OA
HETATM   26  C32 UNL     1       0.201  52.919 -12.222  1.00  0.00     0.042 C 
BRANCH  22  27
HETATM   27  O1  UNL     1       2.950  50.240 -14.408  1.00  0.00    -0.388 OA
HETATM   28  C1  UNL     1       4.069  49.945 -13.579  1.00  0.00     0.202 C 
ENDBRANCH  22  27
BRANCH  23  29
HETATM   29  O9  UNL     1       0.076  50.001 -12.117  1.00  0.00    -0.390 OA
HETATM   30  H51 UNL     1      -0.724  50.310 -12.587  1.00  0.00     0.210 HD
ENDBRANCH  23  29
ENDBRANCH  19  20
ENDBRANCH   1  19
BRANCH  17  31
HETATM   31  O7  UNL     1      -4.478  49.343 -18.029  1.00  0.00    -0.389 OA
HETATM   32  H43 UNL     1      -4.719  49.642 -17.135  1.00  0.00     0.210 HD
ENDBRANCH  17  31
BRANCH   4  33
HETATM   33  C9  UNL     1      -3.297  47.465 -19.391  1.00  0.00     0.068 C 
HETATM   34  N1  UNL     1      -3.171  46.580 -18.462  1.00  0.00    -0.401 N 
ATOM     35  H1  UNL     1      -2.516  46.686 -17.687  1.00  0.00     0.158 HD
BRANCH  34  36
HETATM   36  C10 UNL     1      -4.040  45.411 -18.604  1.00  0.00     0.121 C 
BRANCH  36  37
HETATM   37  C11 UNL     1      -3.280  44.160 -18.170  1.00  0.00     0.045 C 
BRANCH  37  38
HETATM   38  C12 UNL     1      -3.839  42.896 -18.807  1.00  0.00     0.165 C 
BRANCH  38  39
HETATM   39  O3  UNL     1      -2.769  41.986 -19.040  1.00  0.00    -0.401 OA
HETATM   40  H20 UNL     1      -3.163  41.184 -19.426  1.00  0.00     0.209 HD
ENDBRANCH  38  39
ENDBRANCH  37  38
ENDBRANCH  36  37
ENDBRANCH  34  36
ENDBRANCH   4  33
BRANCH  13  41
HETATM   41  O6  UNL     1      -5.461  51.612 -22.300  1.00  0.00    -0.389 OA
HETATM   42  H37 UNL     1      -6.080  51.049 -21.800  1.00  0.00     0.210 HD
ENDBRANCH  13  41
BRANCH  10  43
HETATM   43  C19 UNL     1      -3.838  50.231 -26.047  1.00  0.00    -0.045 A 
HETATM   44  C20 UNL     1      -4.172  49.018 -26.495  1.00  0.00     0.087 A 
HETATM   45  C21 UNL     1      -3.597  48.879 -27.834  1.00  0.00     0.283 A 
HETATM   46  O4  UNL     1      -3.724  47.895 -28.542  1.00  0.00    -0.260 OA
HETATM   47  O5  UNL     1      -2.913  50.011 -28.151  1.00  0.00    -0.314 OA
HETATM   48  C22 UNL     1      -3.012  50.930 -27.067  1.00  0.00     0.213 A 
ENDBRANCH  10  43
TORSDOF 12
ENDMDL
MODEL 9
REMARK minimizedAffinity -6.64362049
REMARK CNNscore 0.331435025
REMARK CNNaffinity 5.80573511
REMARK  12 active torsions:
REMARK  status: ('A' for Active; 'I' for Inactive)
REMARK    1  A    between atoms: O1_2  and  C2_3 
REMARK    2  A    between atoms: C4_5  and  O2_6 
REMARK    3  A    between atoms: O2_6  and  C5_7 
REMARK    4  A    between atoms: C8_10  and  C9_11 
REMARK    5  A    between atoms: N1_12  and  C10_14 
REMARK    6  A    between atoms: C10_14  and  C11_15 
REMARK    7  A    between atoms: C11_15  and  C12_16 
REMARK    8  A    between atoms: C12_16  and  O3_17 
REMARK    9  A    between atoms: C18_23  and  C19_24 
REMARK   10  A    between atoms: C25_32  and  O6_33 
REMARK   11  A    between atoms: C29_37  and  O7_38 
REMARK   12  A    between atoms: C33_43  and  O9_44 
ROOT
HETATM    1  C5  UNL     1     -11.627  45.909 -36.513  1.00  0.00     0.127 C 
HETATM    2  C6  UNL     1     -12.241  46.266 -35.159  1.00  0.00     0.033 C 
HETATM    3  C7  UNL     1     -11.883  45.233 -34.097  1.00  0.00     0.021 C 
HETATM    4  C8  UNL     1     -10.342  45.099 -33.829  1.00  0.00     0.026 C 
HETATM    5  C13 UNL     1      -9.962  46.000 -32.580  1.00  0.00     0.009 C 
HETATM    6  C14 UNL     1     -10.312  45.313 -31.236  1.00  0.00     0.007 C 
HETATM    7  C15 UNL     1      -9.929  46.144 -30.013  1.00  0.00     0.013 C 
HETATM    8  C16 UNL     1      -8.430  46.534 -29.995  1.00  0.00    -0.005 C 
HETATM    9  C17 UNL     1      -7.565  45.289 -29.722  1.00  0.00     0.019 C 
HETATM   10  C18 UNL     1      -8.137  47.673 -28.964  1.00  0.00     0.028 C 
HETATM   11  C23 UNL     1      -8.687  48.935 -29.662  1.00  0.00     0.013 C 
HETATM   12  C24 UNL     1      -8.652  48.648 -31.170  1.00  0.00     0.040 C 
HETATM   13  C25 UNL     1      -8.045  47.237 -31.328  1.00  0.00     0.070 C 
HETATM   14  C26 UNL     1      -8.488  46.467 -32.606  1.00  0.00     0.026 C 
HETATM   15  C27 UNL     1      -8.156  47.271 -33.882  1.00  0.00     0.011 C 
HETATM   16  C28 UNL     1      -9.041  46.946 -35.084  1.00  0.00     0.039 C 
HETATM   17  C29 UNL     1      -9.506  45.484 -35.108  1.00  0.00     0.073 C 
HETATM   18  C30 UNL     1     -10.296  45.158 -36.389  1.00  0.00     0.071 C 
ENDROOT
BRANCH   1  19
HETATM   19  O2  UNL     1     -11.368  47.091 -37.276  1.00  0.00    -0.356 OA
BRANCH  19  20
HETATM   20  C4  UNL     1     -11.242  46.861 -38.678  1.00  0.00     0.263 C 
HETATM   21  C3  UNL     1     -12.346  45.880 -39.070  1.00  0.00     0.095 C 
HETATM   22  C2  UNL     1     -12.246  45.509 -40.550  1.00  0.00     0.156 C 
HETATM   23  C33 UNL     1     -10.815  45.049 -40.882  1.00  0.00     0.175 C 
HETATM   24  C31 UNL     1      -9.794  46.098 -40.392  1.00  0.00     0.151 C 
HETATM   25  O8  UNL     1      -9.963  46.300 -38.977  1.00  0.00    -0.354 OA
HETATM   26  C32 UNL     1      -8.358  45.638 -40.625  1.00  0.00     0.042 C 
BRANCH  22  27
HETATM   27  O1  UNL     1     -12.597  46.677 -41.308  1.00  0.00    -0.388 OA
HETATM   28  C1  UNL     1     -14.003  46.876 -41.398  1.00  0.00     0.202 C 
ENDBRANCH  22  27
BRANCH  23  29
HETATM   29  O9  UNL     1     -10.583  43.780 -40.253  1.00  0.00    -0.390 OA
HETATM   30  H51 UNL     1     -10.208  43.966 -39.369  1.00  0.00     0.210 HD
ENDBRANCH  23  29
ENDBRANCH  19  20
ENDBRANCH   1  19
BRANCH  17  31
HETATM   31  O7  UNL     1      -8.281  44.710 -35.155  1.00  0.00    -0.389 OA
HETATM   32  H43 UNL     1      -7.960  44.721 -36.073  1.00  0.00     0.210 HD
ENDBRANCH  17  31
BRANCH   4  33
HETATM   33  C9  UNL     1      -9.992  43.628 -33.518  1.00  0.00     0.068 C 
HETATM   34  N1  UNL     1      -8.828  43.263 -33.101  1.00  0.00    -0.401 N 
ATOM     35  H1  UNL     1      -8.060  43.921 -32.970  1.00  0.00     0.158 HD
BRANCH  34  36
HETATM   36  C10 UNL     1      -8.691  41.831 -32.831  1.00  0.00     0.121 C 
BRANCH  36  37
HETATM   37  C11 UNL     1      -7.237  41.414 -33.036  1.00  0.00     0.045 C 
BRANCH  37  38
HETATM   38  C12 UNL     1      -6.260  42.434 -32.470  1.00  0.00     0.165 C 
BRANCH  38  39
HETATM   39  O3  UNL     1      -5.035  41.777 -32.160  1.00  0.00    -0.401 OA
HETATM   40  H20 UNL     1      -4.429  42.459 -31.823  1.00  0.00     0.209 HD
ENDBRANCH  38  39
ENDBRANCH  37  38
ENDBRANCH  36  37
ENDBRANCH  34  36
ENDBRANCH   4  33
BRANCH  13  41
HETATM   41  O6  UNL     1      -6.622  47.425 -31.382  1.00  0.00    -0.389 OA
HETATM   42  H37 UNL     1      -6.214  46.605 -31.714  1.00  0.00     0.210 HD
ENDBRANCH  13  41
BRANCH  10  43
HETATM   43  C19 UNL     1      -8.590  47.451 -27.546  1.00  0.00    -0.045 A 
HETATM   44  C20 UNL     1      -9.758  47.745 -26.969  1.00  0.00     0.087 A 
HETATM   45  C21 UNL     1      -9.640  47.391 -25.553  1.00  0.00     0.283 A 
HETATM   46  O4  UNL     1     -10.532  47.514 -24.733  1.00  0.00    -0.260 OA
HETATM   47  O5  UNL     1      -8.391  46.909 -25.311  1.00  0.00    -0.314 OA
HETATM   48  C22 UNL     1      -7.650  46.912 -26.528  1.00  0.00     0.213 A 
ENDBRANCH  10  43
TORSDOF 12
ENDMDL
