MODEL 1
REMARK minimizedAffinity -9.85067749
REMARK  7 active torsions:
REMARK  status: ('A' for Active; 'I' for Inactive)
REMARK    1  A    between atoms: C2_2  and  C3_3 
REMARK    2  A    between atoms: C2_2  and  C9_11 
REMARK    3  A    between atoms: C3_3  and  C4_4 
REMARK    4  A    between atoms: C4_4  and  C5_5 
REMARK    5  A    between atoms: C5_5  and  O1_6 
REMARK    6  A    between atoms: C5_5  and  C6_7 
REMARK    7  A    between atoms: C6_7  and  O2_10 
ROOT
HETATM    1  C9  UNL     1      -1.603   6.406  12.853  1.00  0.00    -0.001 C 
HETATM    2  C10 UNL     1      -1.583   7.379  14.068  1.00  0.00     0.007 C 
HETATM    3  C11 UNL     1      -0.313   8.241  13.952  1.00  0.00     0.015 C 
HETATM    4  C12 UNL     1       0.212   7.988  12.528  1.00  0.00    -0.004 C 
HETATM    5  C13 UNL     1      -0.568   8.944  11.573  1.00  0.00     0.021 C 
HETATM    6  C14 UNL     1       1.677   8.213  12.212  1.00  0.00     0.007 C 
HETATM    7  C15 UNL     1       2.340   7.565  11.227  1.00  0.00     0.007 C 
HETATM    8  C16 UNL     1       1.561   6.490  10.474  1.00  0.00     0.157 C 
HETATM    9  O3  UNL     1       2.056   5.921   9.502  1.00  0.00    -0.293 OA
HETATM   10  C17 UNL     1       0.153   6.091  10.910  1.00  0.00     0.094 C 
HETATM   11  C18 UNL     1      -0.119   6.459  12.368  1.00  0.00    -0.022 C 
HETATM   12  C19 UNL     1       0.749   5.532  13.277  1.00  0.00     0.017 C 
HETATM   13  C20 UNL     1       3.818   7.837  10.808  1.00  0.00    -0.007 C 
HETATM   14  C21 UNL     1       3.822   8.147   9.289  1.00  0.00     0.021 C 
HETATM   15  C22 UNL     1       4.631   6.555  11.135  1.00  0.00     0.022 C 
HETATM   16  C23 UNL     1       6.126   6.689  10.924  1.00  0.00     0.080 C 
HETATM   17  C24 UNL     1       6.660   7.816  11.768  1.00  0.00     0.135 C 
HETATM   18  O4  UNL     1       7.577   7.621  12.564  1.00  0.00    -0.297 OA
HETATM   19  C25 UNL     1       6.042   9.200  11.547  1.00  0.00     0.018 C 
HETATM   20  C26 UNL     1       6.588   9.753  10.213  1.00  0.00     0.023 C 
HETATM   21  C27 UNL     1       6.571  10.167  12.636  1.00  0.00     0.023 C 
HETATM   22  C28 UNL     1       4.456   9.082  11.576  1.00  0.00     0.021 C 
HETATM   23  C29 UNL     1       3.919   9.110  13.018  1.00  0.00     0.090 C 
HETATM   24  C30 UNL     1       2.422   9.226  12.998  1.00  0.00     0.157 C 
HETATM   25  O5  UNL     1       1.840  10.107  13.620  1.00  0.00    -0.293 OA
ENDROOT
BRANCH   1  26
HETATM   26  C2  UNL     1      -2.272   5.039  13.210  1.00  0.00    -0.014 C 
HETATM   27  C1  UNL     1      -3.789   5.229  13.396  1.00  0.00     0.010 C 
BRANCH  26  28
HETATM   28  C3  UNL     1      -1.978   3.955  12.144  1.00  0.00     0.007 C 
BRANCH  28  29
HETATM   29  C4  UNL     1      -3.153   3.591  11.223  1.00  0.00     0.035 C 
BRANCH  29  30
HETATM   30  C5  UNL     1      -4.080   2.480  11.744  1.00  0.00     0.151 C 
BRANCH  30  31
HETATM   31  O1  UNL     1      -3.480   1.211  11.399  1.00  0.00    -0.393 OA
HETATM   32  H10 UNL     1      -2.641   1.147  11.886  1.00  0.00     0.210 HD
ENDBRANCH  30  31
BRANCH  30  33
HETATM   33  C6  UNL     1      -5.537   2.450  11.195  1.00  0.00     0.076 C 
HETATM   34  C7  UNL     1      -6.144   1.049  11.161  1.00  0.00     0.048 C 
HETATM   35  C8  UNL     1      -6.488   3.414  11.915  1.00  0.00     0.048 C 
BRANCH  33  36
HETATM   36  O2  UNL     1      -5.462   2.899   9.825  1.00  0.00    -0.388 OA
HETATM   37  H17 UNL     1      -4.940   3.725   9.865  1.00  0.00     0.210 HD
ENDBRANCH  33  36
ENDBRANCH  30  33
ENDBRANCH  29  30
ENDBRANCH  28  29
ENDBRANCH  26  28
ENDBRANCH   1  26
TORSDOF 7
ENDMDL
MODEL 2
REMARK minimizedAffinity -9.64639759
REMARK  7 active torsions:
REMARK  status: ('A' for Active; 'I' for Inactive)
REMARK    1  A    between atoms: C2_2  and  C3_3 
REMARK    2  A    between atoms: C2_2  and  C9_11 
REMARK    3  A    between atoms: C3_3  and  C4_4 
REMARK    4  A    between atoms: C4_4  and  C5_5 
REMARK    5  A    between atoms: C5_5  and  O1_6 
REMARK    6  A    between atoms: C5_5  and  C6_7 
REMARK    7  A    between atoms: C6_7  and  O2_10 
ROOT
HETATM    1  C9  UNL     1      -1.788   6.381  12.867  1.00  0.00    -0.001 C 
HETATM    2  C10 UNL     1      -1.782   7.386  14.057  1.00  0.00     0.007 C 
HETATM    3  C11 UNL     1      -0.510   8.243  13.936  1.00  0.00     0.015 C 
HETATM    4  C12 UNL     1       0.033   7.954  12.525  1.00  0.00    -0.004 C 
HETATM    5  C13 UNL     1      -0.734   8.885  11.536  1.00  0.00     0.021 C 
HETATM    6  C14 UNL     1       1.502   8.170  12.222  1.00  0.00     0.007 C 
HETATM    7  C15 UNL     1       2.177   7.496  11.263  1.00  0.00     0.007 C 
HETATM    8  C16 UNL     1       1.407   6.403  10.527  1.00  0.00     0.157 C 
HETATM    9  O3  UNL     1       1.913   5.809   9.577  1.00  0.00    -0.293 OA
HETATM   10  C17 UNL     1      -0.007   6.016  10.956  1.00  0.00     0.094 C 
HETATM   11  C18 UNL     1      -0.297   6.421  12.400  1.00  0.00    -0.022 C 
HETATM   12  C19 UNL     1       0.558   5.517  13.343  1.00  0.00     0.017 C 
HETATM   13  C20 UNL     1       3.661   7.757  10.855  1.00  0.00    -0.007 C 
HETATM   14  C21 UNL     1       3.684   8.027   9.330  1.00  0.00     0.021 C 
HETATM   15  C22 UNL     1       4.468   6.483  11.226  1.00  0.00     0.022 C 
HETATM   16  C23 UNL     1       5.966   6.610  11.031  1.00  0.00     0.080 C 
HETATM   17  C24 UNL     1       6.490   7.759  11.853  1.00  0.00     0.135 C 
HETATM   18  O4  UNL     1       7.397   7.583  12.665  1.00  0.00    -0.297 OA
HETATM   19  C25 UNL     1       5.876   9.136  11.588  1.00  0.00     0.018 C 
HETATM   20  C26 UNL     1       6.440   9.655  10.248  1.00  0.00     0.023 C 
HETATM   21  C27 UNL     1       6.392  10.131  12.659  1.00  0.00     0.023 C 
HETATM   22  C28 UNL     1       4.290   9.020  11.600  1.00  0.00     0.021 C 
HETATM   23  C29 UNL     1       3.734   9.085  13.034  1.00  0.00     0.090 C 
HETATM   24  C30 UNL     1       2.238   9.201  12.991  1.00  0.00     0.157 C 
HETATM   25  O5  UNL     1       1.648  10.098  13.583  1.00  0.00    -0.293 OA
ENDROOT
BRANCH   1  26
HETATM   26  C2  UNL     1      -2.462   5.024  13.250  1.00  0.00    -0.014 C 
HETATM   27  C1  UNL     1      -2.881   5.045  14.731  1.00  0.00     0.010 C 
BRANCH  26  28
HETATM   28  C3  UNL     1      -3.671   4.701  12.339  1.00  0.00     0.007 C 
BRANCH  28  29
HETATM   29  C4  UNL     1      -5.049   5.089  12.899  1.00  0.00     0.035 C 
BRANCH  29  30
HETATM   30  C5  UNL     1      -6.108   3.974  12.875  1.00  0.00     0.151 C 
BRANCH  30  31
HETATM   31  O1  UNL     1      -6.275   3.557  11.502  1.00  0.00    -0.393 OA
HETATM   32  H10 UNL     1      -5.431   3.168  11.214  1.00  0.00     0.210 HD
ENDBRANCH  30  31
BRANCH  30  33
HETATM   33  C6  UNL     1      -7.527   4.325  13.411  1.00  0.00     0.076 C 
HETATM   34  C7  UNL     1      -7.525   4.826  14.854  1.00  0.00     0.048 C 
HETATM   35  C8  UNL     1      -8.299   5.305  12.519  1.00  0.00     0.048 C 
BRANCH  33  36
HETATM   36  O2  UNL     1      -8.278   3.092  13.406  1.00  0.00    -0.388 OA
HETATM   37  H17 UNL     1      -8.139   2.722  12.512  1.00  0.00     0.210 HD
ENDBRANCH  33  36
ENDBRANCH  30  33
ENDBRANCH  29  30
ENDBRANCH  28  29
ENDBRANCH  26  28
ENDBRANCH   1  26
TORSDOF 7
ENDMDL
MODEL 3
REMARK minimizedAffinity -9.03159428
REMARK  7 active torsions:
REMARK  status: ('A' for Active; 'I' for Inactive)
REMARK    1  A    between atoms: C2_2  and  C3_3 
REMARK    2  A    between atoms: C2_2  and  C9_11 
REMARK    3  A    between atoms: C3_3  and  C4_4 
REMARK    4  A    between atoms: C4_4  and  C5_5 
REMARK    5  A    between atoms: C5_5  and  O1_6 
REMARK    6  A    between atoms: C5_5  and  C6_7 
REMARK    7  A    between atoms: C6_7  and  O2_10 
ROOT
HETATM    1  C9  UNL     1       1.365   7.680  13.738  1.00  0.00    -0.001 C 
HETATM    2  C10 UNL     1       1.640   6.192  13.368  1.00  0.00     0.007 C 
HETATM    3  C11 UNL     1       0.285   5.533  13.056  1.00  0.00     0.015 C 
HETATM    4  C12 UNL     1      -0.709   6.702  12.933  1.00  0.00    -0.004 C 
HETATM    5  C13 UNL     1      -0.599   7.249  11.477  1.00  0.00     0.021 C 
HETATM    6  C14 UNL     1      -2.188   6.462  13.161  1.00  0.00     0.007 C 
HETATM    7  C15 UNL     1      -3.044   7.417  13.590  1.00  0.00     0.007 C 
HETATM    8  C16 UNL     1      -2.436   8.772  13.940  1.00  0.00     0.157 C 
HETATM    9  O3  UNL     1      -3.154   9.723  14.245  1.00  0.00    -0.293 OA
HETATM   10  C17 UNL     1      -0.923   8.979  13.927  1.00  0.00     0.094 C 
HETATM   11  C18 UNL     1      -0.165   7.659  14.056  1.00  0.00    -0.022 C 
HETATM   12  C19 UNL     1      -0.378   7.112  15.504  1.00  0.00     0.017 C 
HETATM   13  C20 UNL     1      -4.587   7.238  13.744  1.00  0.00    -0.007 C 
HETATM   14  C21 UNL     1      -5.271   8.355  12.916  1.00  0.00     0.021 C 
HETATM   15  C22 UNL     1      -4.914   7.361  15.257  1.00  0.00     0.022 C 
HETATM   16  C23 UNL     1      -6.358   7.070  15.613  1.00  0.00     0.080 C 
HETATM   17  C24 UNL     1      -6.723   5.680  15.162  1.00  0.00     0.135 C 
HETATM   18  O4  UNL     1      -7.176   4.862  15.961  1.00  0.00    -0.297 OA
HETATM   19  C25 UNL     1      -6.547   5.366  13.673  1.00  0.00     0.018 C 
HETATM   20  C26 UNL     1      -7.689   6.067  12.905  1.00  0.00     0.023 C 
HETATM   21  C27 UNL     1      -6.775   3.850  13.449  1.00  0.00     0.023 C 
HETATM   22  C28 UNL     1      -5.099   5.826  13.203  1.00  0.00     0.021 C 
HETATM   23  C29 UNL     1      -4.041   4.754  13.519  1.00  0.00     0.090 C 
HETATM   24  C30 UNL     1      -2.740   5.119  12.864  1.00  0.00     0.157 C 
HETATM   25  O5  UNL     1      -2.150   4.334  12.131  1.00  0.00    -0.293 OA
ENDROOT
BRANCH   1  26
HETATM   26  C2  UNL     1       2.386   8.220  14.791  1.00  0.00    -0.014 C 
HETATM   27  C1  UNL     1       2.436   7.275  16.006  1.00  0.00     0.010 C 
BRANCH  26  28
HETATM   28  C3  UNL     1       3.797   8.412  14.184  1.00  0.00     0.007 C 
BRANCH  28  29
HETATM   29  C4  UNL     1       4.960   8.414  15.189  1.00  0.00     0.035 C 
BRANCH  29  30
HETATM   30  C5  UNL     1       6.342   8.088  14.597  1.00  0.00     0.151 C 
BRANCH  30  31
HETATM   31  O1  UNL     1       6.422   6.655  14.432  1.00  0.00    -0.393 OA
HETATM   32  H10 UNL     1       5.753   6.402  13.773  1.00  0.00     0.210 HD
ENDBRANCH  30  31
BRANCH  30  33
HETATM   33  C6  UNL     1       7.591   8.513  15.425  1.00  0.00     0.076 C 
HETATM   34  C7  UNL     1       8.893   7.895  14.921  1.00  0.00     0.048 C 
HETATM   35  C8  UNL     1       7.753  10.032  15.563  1.00  0.00     0.048 C 
BRANCH  33  36
HETATM   36  O2  UNL     1       7.384   8.003  16.760  1.00  0.00    -0.388 OA
HETATM   37  H17 UNL     1       6.481   8.294  16.997  1.00  0.00     0.210 HD
ENDBRANCH  33  36
ENDBRANCH  30  33
ENDBRANCH  29  30
ENDBRANCH  28  29
ENDBRANCH  26  28
ENDBRANCH   1  26
TORSDOF 7
ENDMDL
MODEL 4
REMARK minimizedAffinity -8.98610115
REMARK  7 active torsions:
REMARK  status: ('A' for Active; 'I' for Inactive)
REMARK    1  A    between atoms: C2_2  and  C3_3 
REMARK    2  A    between atoms: C2_2  and  C9_11 
REMARK    3  A    between atoms: C3_3  and  C4_4 
REMARK    4  A    between atoms: C4_4  and  C5_5 
REMARK    5  A    between atoms: C5_5  and  O1_6 
REMARK    6  A    between atoms: C5_5  and  C6_7 
REMARK    7  A    between atoms: C6_7  and  O2_10 
ROOT
HETATM    1  C9  UNL     1      -2.729   6.603  13.725  1.00  0.00    -0.001 C 
HETATM    2  C10 UNL     1      -2.673   5.737  12.432  1.00  0.00     0.007 C 
HETATM    3  C11 UNL     1      -1.199   5.639  12.001  1.00  0.00     0.015 C 
HETATM    4  C12 UNL     1      -0.396   6.164  13.205  1.00  0.00    -0.004 C 
HETATM    5  C13 UNL     1      -0.223   4.974  14.198  1.00  0.00     0.021 C 
HETATM    6  C14 UNL     1       0.999   6.719  12.998  1.00  0.00     0.007 C 
HETATM    7  C15 UNL     1       1.566   7.642  13.808  1.00  0.00     0.007 C 
HETATM    8  C16 UNL     1       0.690   8.198  14.927  1.00  0.00     0.157 C 
HETATM    9  O3  UNL     1       1.156   8.967  15.766  1.00  0.00    -0.293 OA
HETATM   10  C17 UNL     1      -0.785   7.818  15.030  1.00  0.00     0.094 C 
HETATM   11  C18 UNL     1      -1.341   7.321  13.697  1.00  0.00    -0.022 C 
HETATM   12  C19 UNL     1      -1.413   8.532  12.714  1.00  0.00     0.017 C 
HETATM   13  C20 UNL     1       3.032   8.166  13.686  1.00  0.00    -0.007 C 
HETATM   14  C21 UNL     1       3.720   7.946  15.056  1.00  0.00     0.021 C 
HETATM   15  C22 UNL     1       2.950   9.673  13.319  1.00  0.00     0.022 C 
HETATM   16  C23 UNL     1       4.288  10.319  13.019  1.00  0.00     0.080 C 
HETATM   17  C24 UNL     1       4.961   9.592  11.884  1.00  0.00     0.135 C 
HETATM   18  O4  UNL     1       5.321  10.200  10.878  1.00  0.00    -0.297 OA
HETATM   19  C25 UNL     1       5.209   8.092  12.074  1.00  0.00     0.018 C 
HETATM   20  C26 UNL     1       6.385   7.930  13.062  1.00  0.00     0.023 C 
HETATM   21  C27 UNL     1       5.715   7.493  10.737  1.00  0.00     0.023 C 
HETATM   22  C28 UNL     1       3.871   7.392  12.571  1.00  0.00     0.021 C 
HETATM   23  C29 UNL     1       2.944   7.054  11.390  1.00  0.00     0.090 C 
HETATM   24  C30 UNL     1       1.807   6.199  11.869  1.00  0.00     0.157 C 
HETATM   25  O5  UNL     1       1.544   5.127  11.336  1.00  0.00    -0.293 OA
ENDROOT
BRANCH   1  26
HETATM   26  C2  UNL     1      -4.049   7.434  13.817  1.00  0.00    -0.014 C 
HETATM   27  C1  UNL     1      -3.926   8.711  12.966  1.00  0.00     0.010 C 
BRANCH  26  28
HETATM   28  C3  UNL     1      -5.286   6.605  13.393  1.00  0.00     0.007 C 
BRANCH  28  29
HETATM   29  C4  UNL     1      -5.861   5.669  14.469  1.00  0.00     0.035 C 
BRANCH  29  30
HETATM   30  C5  UNL     1      -7.344   5.300  14.296  1.00  0.00     0.151 C 
BRANCH  30  31
HETATM   31  O1  UNL     1      -7.717   4.454  15.406  1.00  0.00    -0.393 OA
HETATM   32  H10 UNL     1      -7.639   4.988  16.215  1.00  0.00     0.210 HD
ENDBRANCH  30  31
BRANCH  30  33
HETATM   33  C6  UNL     1      -7.743   4.537  12.999  1.00  0.00     0.076 C 
HETATM   34  C7  UNL     1      -8.459   5.414  11.974  1.00  0.00     0.048 C 
HETATM   35  C8  UNL     1      -6.575   3.801  12.331  1.00  0.00     0.048 C 
BRANCH  33  36
HETATM   36  O2  UNL     1      -8.687   3.521  13.401  1.00  0.00    -0.388 OA
HETATM   37  H17 UNL     1      -8.258   3.071  14.156  1.00  0.00     0.210 HD
ENDBRANCH  33  36
ENDBRANCH  30  33
ENDBRANCH  29  30
ENDBRANCH  28  29
ENDBRANCH  26  28
ENDBRANCH   1  26
TORSDOF 7
ENDMDL
MODEL 5
REMARK minimizedAffinity -8.90059757
REMARK  7 active torsions:
REMARK  status: ('A' for Active; 'I' for Inactive)
REMARK    1  A    between atoms: C2_2  and  C3_3 
REMARK    2  A    between atoms: C2_2  and  C9_11 
REMARK    3  A    between atoms: C3_3  and  C4_4 
REMARK    4  A    between atoms: C4_4  and  C5_5 
REMARK    5  A    between atoms: C5_5  and  O1_6 
REMARK    6  A    between atoms: C5_5  and  C6_7 
REMARK    7  A    between atoms: C6_7  and  O2_10 
ROOT
HETATM    1  C9  UNL     1      -5.545   6.402  13.719  1.00  0.00    -0.001 C 
HETATM    2  C10 UNL     1      -6.244   7.573  14.470  1.00  0.00     0.007 C 
HETATM    3  C11 UNL     1      -5.170   8.626  14.791  1.00  0.00     0.015 C 
HETATM    4  C12 UNL     1      -3.945   8.215  13.953  1.00  0.00    -0.004 C 
HETATM    5  C13 UNL     1      -4.147   8.804  12.522  1.00  0.00     0.021 C 
HETATM    6  C14 UNL     1      -2.559   8.657  14.376  1.00  0.00     0.007 C 
HETATM    7  C15 UNL     1      -1.430   7.975  14.073  1.00  0.00     0.007 C 
HETATM    8  C16 UNL     1      -1.611   6.647  13.344  1.00  0.00     0.157 C 
HETATM    9  O3  UNL     1      -0.636   6.011  12.947  1.00  0.00    -0.293 OA
HETATM   10  C17 UNL     1      -3.003   6.072  13.095  1.00  0.00     0.094 C 
HETATM   11  C18 UNL     1      -4.040   6.649  14.057  1.00  0.00    -0.022 C 
HETATM   12  C19 UNL     1      -3.741   6.097  15.488  1.00  0.00     0.017 C 
HETATM   13  C20 UNL     1       0.021   8.444  14.406  1.00  0.00    -0.007 C 
HETATM   14  C21 UNL     1       0.822   8.456  13.080  1.00  0.00     0.021 C 
HETATM   15  C22 UNL     1       0.609   7.430  15.424  1.00  0.00     0.022 C 
HETATM   16  C23 UNL     1       1.970   7.809  15.972  1.00  0.00     0.080 C 
HETATM   17  C24 UNL     1       1.893   9.157  16.639  1.00  0.00     0.135 C 
HETATM   18  O4  UNL     1       2.247   9.298  17.808  1.00  0.00    -0.297 OA
HETATM   19  C25 UNL     1       1.404  10.327  15.779  1.00  0.00     0.018 C 
HETATM   20  C26 UNL     1       2.547  10.713  14.815  1.00  0.00     0.023 C 
HETATM   21  C27 UNL     1       1.202  11.567  16.687  1.00  0.00     0.023 C 
HETATM   22  C28 UNL     1       0.064   9.912  15.032  1.00  0.00     0.021 C 
HETATM   23  C29 UNL     1      -1.165  10.107  15.937  1.00  0.00     0.090 C 
HETATM   24  C30 UNL     1      -2.420   9.925  15.132  1.00  0.00     0.157 C 
HETATM   25  O5  UNL     1      -3.300  10.777  15.116  1.00  0.00    -0.293 OA
ENDROOT
BRANCH   1  26
HETATM   26  C2  UNL     1      -6.212   5.024  14.033  1.00  0.00    -0.014 C 
HETATM   27  C1  UNL     1      -7.268   5.192  15.141  1.00  0.00     0.010 C 
BRANCH  26  28
HETATM   28  C3  UNL     1      -6.834   4.380  12.770  1.00  0.00     0.007 C 
BRANCH  28  29
HETATM   29  C4  UNL     1      -6.160   3.088  12.281  1.00  0.00     0.035 C 
BRANCH  29  30
HETATM   30  C5  UNL     1      -5.048   3.280  11.236  1.00  0.00     0.151 C 
BRANCH  30  31
HETATM   31  O1  UNL     1      -5.464   2.612  10.025  1.00  0.00    -0.393 OA
HETATM   32  H10 UNL     1      -6.256   3.073   9.699  1.00  0.00     0.210 HD
ENDBRANCH  30  31
BRANCH  30  33
HETATM   33  C6  UNL     1      -3.635   2.727  11.588  1.00  0.00     0.076 C 
HETATM   34  C7  UNL     1      -3.569   1.202  11.620  1.00  0.00     0.048 C 
HETATM   35  C8  UNL     1      -2.516   3.279  10.696  1.00  0.00     0.048 C 
BRANCH  33  36
HETATM   36  O2  UNL     1      -3.346   3.179  12.929  1.00  0.00    -0.388 OA
HETATM   37  H17 UNL     1      -3.539   4.138  12.912  1.00  0.00     0.210 HD
ENDBRANCH  33  36
ENDBRANCH  30  33
ENDBRANCH  29  30
ENDBRANCH  28  29
ENDBRANCH  26  28
ENDBRANCH   1  26
TORSDOF 7
ENDMDL
MODEL 6
REMARK minimizedAffinity -8.78601456
REMARK  7 active torsions:
REMARK  status: ('A' for Active; 'I' for Inactive)
REMARK    1  A    between atoms: C2_2  and  C3_3 
REMARK    2  A    between atoms: C2_2  and  C9_11 
REMARK    3  A    between atoms: C3_3  and  C4_4 
REMARK    4  A    between atoms: C4_4  and  C5_5 
REMARK    5  A    between atoms: C5_5  and  O1_6 
REMARK    6  A    between atoms: C5_5  and  C6_7 
REMARK    7  A    between atoms: C6_7  and  O2_10 
ROOT
HETATM    1  C9  UNL     1       0.886   7.869  14.433  1.00  0.00    -0.001 C 
HETATM    2  C10 UNL     1       1.320   6.505  13.820  1.00  0.00     0.007 C 
HETATM    3  C11 UNL     1       0.055   5.810  13.288  1.00  0.00     0.015 C 
HETATM    4  C12 UNL     1      -1.034   6.897  13.304  1.00  0.00    -0.004 C 
HETATM    5  C13 UNL     1      -0.886   7.717  11.985  1.00  0.00     0.021 C 
HETATM    6  C14 UNL     1      -2.496   6.501  13.368  1.00  0.00     0.007 C 
HETATM    7  C15 UNL     1      -3.462   7.287  13.896  1.00  0.00     0.007 C 
HETATM    8  C16 UNL     1      -3.005   8.595  14.534  1.00  0.00     0.157 C 
HETATM    9  O3  UNL     1      -3.826   9.411  14.951  1.00  0.00    -0.293 OA
HETATM   10  C17 UNL     1      -1.521   8.921  14.676  1.00  0.00     0.094 C 
HETATM   11  C18 UNL     1      -0.652   7.666  14.622  1.00  0.00    -0.022 C 
HETATM   12  C19 UNL     1      -0.902   6.841  15.924  1.00  0.00     0.017 C 
HETATM   13  C20 UNL     1      -4.988   6.958  13.894  1.00  0.00    -0.007 C 
HETATM   14  C21 UNL     1      -5.721   8.153  13.234  1.00  0.00     0.021 C 
HETATM   15  C22 UNL     1      -5.418   6.768  15.374  1.00  0.00     0.022 C 
HETATM   16  C23 UNL     1      -6.848   6.300  15.557  1.00  0.00     0.080 C 
HETATM   17  C24 UNL     1      -7.053   4.995  14.833  1.00  0.00     0.135 C 
HETATM   18  O4  UNL     1      -7.476   4.007  15.432  1.00  0.00    -0.297 OA
HETATM   19  C25 UNL     1      -6.757   4.983  13.331  1.00  0.00     0.018 C 
HETATM   20  C26 UNL     1      -7.910   5.722  12.617  1.00  0.00     0.023 C 
HETATM   21  C27 UNL     1      -6.829   3.523  12.816  1.00  0.00     0.023 C 
HETATM   22  C28 UNL     1      -5.332   5.638  13.067  1.00  0.00     0.021 C 
HETATM   23  C29 UNL     1      -4.201   4.614  13.263  1.00  0.00     0.090 C 
HETATM   24  C30 UNL     1      -2.902   5.199  12.789  1.00  0.00     0.157 C 
HETATM   25  O5  UNL     1      -2.197   4.615  11.973  1.00  0.00    -0.293 OA
ENDROOT
BRANCH   1  26
HETATM   26  C2  UNL     1       1.785   8.281  15.643  1.00  0.00    -0.014 C 
HETATM   27  C1  UNL     1       3.214   7.740  15.443  1.00  0.00     0.010 C 
BRANCH  26  28
HETATM   28  C3  UNL     1       1.800   9.813  15.859  1.00  0.00     0.007 C 
BRANCH  28  29
HETATM   29  C4  UNL     1       0.879  10.337  16.972  1.00  0.00     0.035 C 
BRANCH  29  30
HETATM   30  C5  UNL     1       1.593  10.796  18.256  1.00  0.00     0.151 C 
BRANCH  30  31
HETATM   31  O1  UNL     1       2.456   9.721  18.685  1.00  0.00    -0.393 OA
HETATM   32  H10 UNL     1       3.134   9.603  17.998  1.00  0.00     0.210 HD
ENDBRANCH  30  31
BRANCH  30  33
HETATM   33  C6  UNL     1       0.698  11.166  19.476  1.00  0.00     0.076 C 
HETATM   34  C7  UNL     1       0.979  12.559  20.034  1.00  0.00     0.048 C 
HETATM   35  C8  UNL     1      -0.804  11.001  19.213  1.00  0.00     0.048 C 
BRANCH  33  36
HETATM   36  O2  UNL     1       1.034  10.229  20.522  1.00  0.00    -0.388 OA
HETATM   37  H17 UNL     1       0.987   9.352  20.091  1.00  0.00     0.210 HD
ENDBRANCH  33  36
ENDBRANCH  30  33
ENDBRANCH  29  30
ENDBRANCH  28  29
ENDBRANCH  26  28
ENDBRANCH   1  26
TORSDOF 7
ENDMDL
MODEL 7
REMARK minimizedAffinity -8.51820946
REMARK  7 active torsions:
REMARK  status: ('A' for Active; 'I' for Inactive)
REMARK    1  A    between atoms: C2_2  and  C3_3 
REMARK    2  A    between atoms: C2_2  and  C9_11 
REMARK    3  A    between atoms: C3_3  and  C4_4 
REMARK    4  A    between atoms: C4_4  and  C5_5 
REMARK    5  A    between atoms: C5_5  and  O1_6 
REMARK    6  A    between atoms: C5_5  and  C6_7 
REMARK    7  A    between atoms: C6_7  and  O2_10 
ROOT
HETATM    1  C9  UNL     1      -3.191   5.880  12.606  1.00  0.00    -0.001 C 
HETATM    2  C10 UNL     1      -4.268   5.819  13.729  1.00  0.00     0.007 C 
HETATM    3  C11 UNL     1      -3.915   6.896  14.770  1.00  0.00     0.015 C 
HETATM    4  C12 UNL     1      -2.845   7.770  14.092  1.00  0.00    -0.004 C 
HETATM    5  C13 UNL     1      -3.594   8.816  13.211  1.00  0.00     0.021 C 
HETATM    6  C14 UNL     1      -1.881   8.577  14.939  1.00  0.00     0.007 C 
HETATM    7  C15 UNL     1      -0.642   8.934  14.531  1.00  0.00     0.007 C 
HETATM    8  C16 UNL     1      -0.191   8.400  13.175  1.00  0.00     0.157 C 
HETATM    9  O3  UNL     1       0.881   8.754  12.686  1.00  0.00    -0.293 OA
HETATM   10  C17 UNL     1      -1.053   7.411  12.395  1.00  0.00     0.094 C 
HETATM   11  C18 UNL     1      -2.040   6.675  13.301  1.00  0.00    -0.022 C 
HETATM   12  C19 UNL     1      -1.231   5.705  14.220  1.00  0.00     0.017 C 
HETATM   13  C20 UNL     1       0.342   9.843  15.332  1.00  0.00    -0.007 C 
HETATM   14  C21 UNL     1       0.745  11.019  14.408  1.00  0.00     0.021 C 
HETATM   15  C22 UNL     1       1.565   8.968  15.717  1.00  0.00     0.022 C 
HETATM   16  C23 UNL     1       2.565   9.652  16.627  1.00  0.00     0.080 C 
HETATM   17  C24 UNL     1       1.881  10.092  17.895  1.00  0.00     0.135 C 
HETATM   18  O4  UNL     1       2.306   9.731  18.992  1.00  0.00    -0.297 OA
HETATM   19  C25 UNL     1       0.682  11.032  17.744  1.00  0.00     0.018 C 
HETATM   20  C26 UNL     1       1.224  12.433  17.384  1.00  0.00     0.023 C 
HETATM   21  C27 UNL     1      -0.000  11.202  19.125  1.00  0.00     0.023 C 
HETATM   22  C28 UNL     1      -0.317  10.446  16.655  1.00  0.00     0.021 C 
HETATM   23  C29 UNL     1      -1.261   9.396  17.269  1.00  0.00     0.090 C 
HETATM   24  C30 UNL     1      -2.328   9.035  16.276  1.00  0.00     0.157 C 
HETATM   25  O5  UNL     1      -3.518   9.097  16.565  1.00  0.00    -0.293 OA
ENDROOT
BRANCH   1  26
HETATM   26  C2  UNL     1      -2.918   4.473  11.981  1.00  0.00    -0.014 C 
HETATM   27  C1  UNL     1      -1.450   4.070  12.218  1.00  0.00     0.010 C 
BRANCH  26  28
HETATM   28  C3  UNL     1      -3.882   3.396  12.534  1.00  0.00     0.007 C 
BRANCH  28  29
HETATM   29  C4  UNL     1      -5.272   3.348  11.879  1.00  0.00     0.035 C 
BRANCH  29  30
HETATM   30  C5  UNL     1      -6.410   2.846  12.784  1.00  0.00     0.151 C 
BRANCH  30  31
HETATM   31  O1  UNL     1      -7.051   1.741  12.110  1.00  0.00    -0.393 OA
HETATM   32  H10 UNL     1      -6.395   1.026  12.039  1.00  0.00     0.210 HD
ENDBRANCH  30  31
BRANCH  30  33
HETATM   33  C6  UNL     1      -7.534   3.861  13.147  1.00  0.00     0.076 C 
HETATM   34  C7  UNL     1      -7.467   4.352  14.591  1.00  0.00     0.048 C 
HETATM   35  C8  UNL     1      -7.618   5.058  12.192  1.00  0.00     0.048 C 
BRANCH  33  36
HETATM   36  O2  UNL     1      -8.782   3.147  13.014  1.00  0.00    -0.388 OA
HETATM   37  H17 UNL     1      -8.731   2.723  12.134  1.00  0.00     0.210 HD
ENDBRANCH  33  36
ENDBRANCH  30  33
ENDBRANCH  29  30
ENDBRANCH  28  29
ENDBRANCH  26  28
ENDBRANCH   1  26
TORSDOF 7
ENDMDL
MODEL 8
REMARK minimizedAffinity -8.41395855
REMARK  7 active torsions:
REMARK  status: ('A' for Active; 'I' for Inactive)
REMARK    1  A    between atoms: C2_2  and  C3_3 
REMARK    2  A    between atoms: C2_2  and  C9_11 
REMARK    3  A    between atoms: C3_3  and  C4_4 
REMARK    4  A    between atoms: C4_4  and  C5_5 
REMARK    5  A    between atoms: C5_5  and  O1_6 
REMARK    6  A    between atoms: C5_5  and  C6_7 
REMARK    7  A    between atoms: C6_7  and  O2_10 
ROOT
HETATM    1  C9  UNL     1       3.282   7.255  10.623  1.00  0.00    -0.001 C 
HETATM    2  C10 UNL     1       3.183   5.759  10.202  1.00  0.00     0.007 C 
HETATM    3  C11 UNL     1       1.746   5.290  10.485  1.00  0.00     0.015 C 
HETATM    4  C12 UNL     1       0.952   6.580  10.758  1.00  0.00    -0.004 C 
HETATM    5  C13 UNL     1       0.528   7.162   9.373  1.00  0.00     0.021 C 
HETATM    6  C14 UNL     1      -0.323   6.524  11.576  1.00  0.00     0.007 C 
HETATM    7  C15 UNL     1      -0.796   7.564  12.299  1.00  0.00     0.007 C 
HETATM    8  C16 UNL     1       0.075   8.816  12.343  1.00  0.00     0.157 C 
HETATM    9  O3  UNL     1      -0.324   9.840  12.896  1.00  0.00    -0.293 OA
HETATM   10  C17 UNL     1       1.463   8.828  11.707  1.00  0.00     0.094 C 
HETATM   11  C18 UNL     1       2.028   7.419  11.540  1.00  0.00    -0.022 C 
HETATM   12  C19 UNL     1       2.354   6.851  12.958  1.00  0.00     0.017 C 
HETATM   13  C20 UNL     1      -2.150   7.578  13.075  1.00  0.00    -0.007 C 
HETATM   14  C21 UNL     1      -2.958   8.803  12.578  1.00  0.00     0.021 C 
HETATM   15  C22 UNL     1      -1.811   7.688  14.586  1.00  0.00     0.022 C 
HETATM   16  C23 UNL     1      -3.009   7.572  15.508  1.00  0.00     0.080 C 
HETATM   17  C24 UNL     1      -3.705   6.256  15.274  1.00  0.00     0.135 C 
HETATM   18  O4  UNL     1      -3.896   5.475  16.204  1.00  0.00    -0.297 OA
HETATM   19  C25 UNL     1      -4.195   5.977  13.849  1.00  0.00     0.018 C 
HETATM   20  C26 UNL     1      -5.448   6.845  13.603  1.00  0.00     0.023 C 
HETATM   21  C27 UNL     1      -4.693   4.512  13.768  1.00  0.00     0.023 C 
HETATM   22  C28 UNL     1      -3.019   6.265  12.819  1.00  0.00     0.021 C 
HETATM   23  C29 UNL     1      -2.076   5.055  12.695  1.00  0.00     0.090 C 
HETATM   24  C30 UNL     1      -1.120   5.274  11.557  1.00  0.00     0.157 C 
HETATM   25  O5  UNL     1      -0.990   4.447  10.662  1.00  0.00    -0.293 OA
ENDROOT
BRANCH   1  26
HETATM   26  C2  UNL     1       4.706   7.621  11.154  1.00  0.00    -0.014 C 
HETATM   27  C1  UNL     1       5.124   9.004  10.623  1.00  0.00     0.010 C 
BRANCH  26  28
HETATM   28  C3  UNL     1       4.775   7.578  12.700  1.00  0.00     0.007 C 
BRANCH  28  29
HETATM   29  C4  UNL     1       6.094   8.066  13.321  1.00  0.00     0.035 C 
BRANCH  29  30
HETATM   30  C5  UNL     1       6.278   7.746  14.814  1.00  0.00     0.151 C 
BRANCH  30  31
HETATM   31  O1  UNL     1       5.090   8.188  15.507  1.00  0.00    -0.393 OA
HETATM   32  H10 UNL     1       4.348   7.651  15.179  1.00  0.00     0.210 HD
ENDBRANCH  30  31
BRANCH  30  33
HETATM   33  C6  UNL     1       7.489   8.401  15.541  1.00  0.00     0.076 C 
HETATM   34  C7  UNL     1       8.835   7.800  15.143  1.00  0.00     0.048 C 
HETATM   35  C8  UNL     1       7.539   9.928  15.405  1.00  0.00     0.048 C 
BRANCH  33  36
HETATM   36  O2  UNL     1       7.316   8.124  16.947  1.00  0.00    -0.388 OA
HETATM   37  H17 UNL     1       6.393   8.386  17.138  1.00  0.00     0.210 HD
ENDBRANCH  33  36
ENDBRANCH  30  33
ENDBRANCH  29  30
ENDBRANCH  28  29
ENDBRANCH  26  28
ENDBRANCH   1  26
TORSDOF 7
ENDMDL
MODEL 9
REMARK minimizedAffinity -8.37378979
REMARK  7 active torsions:
REMARK  status: ('A' for Active; 'I' for Inactive)
REMARK    1  A    between atoms: C2_2  and  C3_3 
REMARK    2  A    between atoms: C2_2  and  C9_11 
REMARK    3  A    between atoms: C3_3  and  C4_4 
REMARK    4  A    between atoms: C4_4  and  C5_5 
REMARK    5  A    between atoms: C5_5  and  O1_6 
REMARK    6  A    between atoms: C5_5  and  C6_7 
REMARK    7  A    between atoms: C6_7  and  O2_10 
ROOT
HETATM    1  C9  UNL     1       1.210   6.769  12.613  1.00  0.00    -0.001 C 
HETATM    2  C10 UNL     1       0.608   7.744  13.668  1.00  0.00     0.007 C 
HETATM    3  C11 UNL     1      -0.782   7.209  14.055  1.00  0.00     0.015 C 
HETATM    4  C12 UNL     1      -0.836   5.783  13.477  1.00  0.00    -0.004 C 
HETATM    5  C13 UNL     1      -0.146   4.841  14.511  1.00  0.00     0.021 C 
HETATM    6  C14 UNL     1      -2.176   5.139  13.180  1.00  0.00     0.007 C 
HETATM    7  C15 UNL     1      -2.356   4.184  12.240  1.00  0.00     0.007 C 
HETATM    8  C16 UNL     1      -1.140   3.826  11.390  1.00  0.00     0.157 C 
HETATM    9  O3  UNL     1      -1.191   2.902  10.579  1.00  0.00    -0.293 OA
HETATM   10  C17 UNL     1       0.165   4.607  11.520  1.00  0.00     0.094 C 
HETATM   11  C18 UNL     1      -0.056   5.991  12.128  1.00  0.00    -0.022 C 
HETATM   12  C19 UNL     1      -0.825   6.866  11.088  1.00  0.00     0.017 C 
HETATM   13  C20 UNL     1      -3.695   3.429  11.970  1.00  0.00    -0.007 C 
HETATM   14  C21 UNL     1      -3.403   1.911  12.076  1.00  0.00     0.021 C 
HETATM   15  C22 UNL     1      -4.165   3.825  10.544  1.00  0.00     0.022 C 
HETATM   16  C23 UNL     1      -5.533   3.293  10.164  1.00  0.00     0.080 C 
HETATM   17  C24 UNL     1      -6.560   3.779  11.153  1.00  0.00     0.135 C 
HETATM   18  O4  UNL     1      -7.554   4.394  10.770  1.00  0.00    -0.297 OA
HETATM   19  C25 UNL     1      -6.325   3.425  12.624  1.00  0.00     0.018 C 
HETATM   20  C26 UNL     1      -6.651   1.927  12.807  1.00  0.00     0.023 C 
HETATM   21  C27 UNL     1      -7.365   4.177  13.493  1.00  0.00     0.023 C 
HETATM   22  C28 UNL     1      -4.833   3.798  13.026  1.00  0.00     0.021 C 
HETATM   23  C29 UNL     1      -4.708   5.286  13.399  1.00  0.00     0.090 C 
HETATM   24  C30 UNL     1      -3.351   5.547  13.986  1.00  0.00     0.157 C 
HETATM   25  O5  UNL     1      -3.219   6.094  15.076  1.00  0.00    -0.293 OA
ENDROOT
BRANCH   1  26
HETATM   26  C2  UNL     1       2.127   7.510  11.587  1.00  0.00    -0.014 C 
HETATM   27  C1  UNL     1       2.546   8.880  12.151  1.00  0.00     0.010 C 
BRANCH  26  28
HETATM   28  C3  UNL     1       3.367   6.666  11.204  1.00  0.00     0.007 C 
BRANCH  28  29
HETATM   29  C4  UNL     1       3.695   6.609   9.704  1.00  0.00     0.035 C 
BRANCH  29  30
HETATM   30  C5  UNL     1       2.485   6.429   8.771  1.00  0.00     0.151 C 
BRANCH  30  31
HETATM   31  O1  UNL     1       2.793   5.354   7.856  1.00  0.00    -0.393 OA
HETATM   32  H10 UNL     1       2.880   4.542   8.384  1.00  0.00     0.210 HD
ENDBRANCH  30  31
BRANCH  30  33
HETATM   33  C6  UNL     1       2.068   7.651   7.900  1.00  0.00     0.076 C 
HETATM   34  C7  UNL     1       0.699   8.219   8.267  1.00  0.00     0.048 C 
HETATM   35  C8  UNL     1       3.110   8.776   7.875  1.00  0.00     0.048 C 
BRANCH  33  36
HETATM   36  O2  UNL     1       1.960   7.165   6.545  1.00  0.00    -0.388 OA
HETATM   37  H17 UNL     1       2.795   6.680   6.391  1.00  0.00     0.210 HD
ENDBRANCH  33  36
ENDBRANCH  30  33
ENDBRANCH  29  30
ENDBRANCH  28  29
ENDBRANCH  26  28
ENDBRANCH   1  26
TORSDOF 7
ENDMDL
