MODEL 1
REMARK minimizedAffinity -10.2606087
REMARK CNNscore 0.636173129
REMARK CNNaffinity 7.42291021
REMARK  13 active torsions:
REMARK  status: ('A' for Active; 'I' for Inactive)
REMARK    1  A    between atoms: C19_21  and  O3_22 
REMARK    2  A    between atoms: C19_21  and  C20_23 
REMARK    3  A    between atoms: C20_23  and  C21_25 
REMARK    4  A    between atoms: C21_25  and  O5_26 
REMARK    5  A    between atoms: O5_26  and  C22_27 
REMARK    6  A    between atoms: C22_27  and  C23_29 
REMARK    7  A    between atoms: C23_29  and  C24_30 
REMARK    8  A    between atoms: C24_30  and  C25_31 
REMARK       I    between atoms: C25_31  and  N1_33 
REMARK    9  A    between atoms: N1_33  and  C26_34 
REMARK   10  A    between atoms: C26_34  and  C27_35 
REMARK   11  A    between atoms: C27_35  and  C28_36 
REMARK   12  A    between atoms: C31_39  and  O8_40 
REMARK   13  A    between atoms: C32_41  and  O9_42 
ROOT
HETATM    1  C20 UNL     1      -2.417   5.867  13.666  1.00  0.00     0.185 C 
HETATM    2  O4  UNL     1      -2.882   6.907  14.149  1.00  0.00    -0.292 OA
ENDROOT
BRANCH   1   3
HETATM    3  C19 UNL     1      -0.874   5.668  13.490  1.00  0.00     0.128 C 
HETATM    4  C14 UNL     1      -0.108   6.966  13.071  1.00  0.00     0.005 C 
HETATM    5  C13 UNL     1       1.413   6.801  13.295  1.00  0.00     0.091 C 
HETATM    6  C15 UNL     1      -0.569   8.218  13.841  1.00  0.00     0.019 C 
HETATM    7  C16 UNL     1      -0.443   7.068  11.568  1.00  0.00     0.002 C 
HETATM    8  C12 UNL     1       2.235   7.836  12.565  1.00  0.00     0.133 C 
HETATM    9  C11 UNL     1       1.939   8.102  11.095  1.00  0.00     0.072 C 
HETATM   10  O2  UNL     1       3.192   8.380  13.119  1.00  0.00    -0.297 OA
HETATM   11  C2  UNL     1       2.923   7.368  10.111  1.00  0.00    -0.009 C 
HETATM   12  C10 UNL     1       0.419   8.078  10.781  1.00  0.00     0.003 C 
HETATM   13  C1  UNL     1       4.179   8.267   9.927  1.00  0.00     0.021 C 
HETATM   14  C3  UNL     1       3.400   5.986  10.631  1.00  0.00     0.022 C 
HETATM   15  C7  UNL     1       2.279   7.198   8.740  1.00  0.00    -0.067 C 
HETATM   16  C4  UNL     1       4.208   5.195   9.604  1.00  0.00     0.084 C 
HETATM   17  C5  UNL     1       3.469   5.081   8.294  1.00  0.00     0.149 C 
HETATM   18  O1  UNL     1       3.651   4.147   7.516  1.00  0.00    -0.293 OA
HETATM   19  C6  UNL     1       2.519   6.157   7.924  1.00  0.00     0.053 C 
HETATM   20  C8  UNL     1       1.277   8.254   8.364  1.00  0.00     0.035 C 
HETATM   21  C9  UNL     1       0.067   8.099   9.275  1.00  0.00     0.010 C 
HETATM   22  C17 UNL     1      -0.445   5.617  11.064  1.00  0.00     0.009 C 
HETATM   23  C18 UNL     1      -0.622   4.722  12.297  1.00  0.00     0.047 C 
BRANCH   3  24
HETATM   24  O3  UNL     1      -0.269   5.100  14.644  1.00  0.00    -0.381 OA
HETATM   25  H25 UNL     1      -0.692   4.236  14.803  1.00  0.00     0.211 HD
ENDBRANCH   3  24
ENDBRANCH   1   3
BRANCH   1  26
HETATM   26  C21 UNL     1      -3.348   4.707  13.334  1.00  0.00     0.260 C 
BRANCH  26  27
HETATM   27  O5  UNL     1      -3.953   4.859  12.051  1.00  0.00    -0.314 OA
BRANCH  27  28
HETATM   28  C22 UNL     1      -3.870   3.755  11.255  1.00  0.00     0.259 C 
HETATM   29  O6  UNL     1      -3.361   3.726  10.143  1.00  0.00    -0.265 OA
BRANCH  28  30
HETATM   30  C23 UNL     1      -4.544   2.579  11.918  1.00  0.00     0.120 C 
BRANCH  30  31
HETATM   31  C24 UNL     1      -5.987   2.448  11.446  1.00  0.00     0.112 C 
BRANCH  31  32
HETATM   32  C25 UNL     1      -6.959   2.798  12.556  1.00  0.00     0.218 C 
HETATM   33  O7  UNL     1      -7.980   2.155  12.777  1.00  0.00    -0.274 OA
HETATM   34  N1  UNL     1      -6.566   3.879  13.314  1.00  0.00    -0.361 N 
HETATM   35  H32 UNL     1      -5.859   4.496  12.935  1.00  0.00     0.162 HD
BRANCH  34  36
HETATM   36  C26 UNL     1      -7.432   4.428  14.342  1.00  0.00     0.127 C 
BRANCH  36  37
HETATM   37  C27 UNL     1      -7.271   5.943  14.519  1.00  0.00     0.058 C 
BRANCH  37  38
HETATM   38  C28 UNL     1      -8.595   6.678  14.501  1.00  0.00    -0.054 A 
HETATM   39  C29 UNL     1      -9.540   6.403  13.497  1.00  0.00     0.010 A 
HETATM   40  C30 UNL     1     -10.757   7.086  13.457  1.00  0.00     0.040 A 
HETATM   41  C31 UNL     1     -11.029   8.040  14.424  1.00  0.00     0.098 A 
HETATM   42  C32 UNL     1     -10.105   8.322  15.427  1.00  0.00     0.099 A 
HETATM   43  C33 UNL     1      -8.886   7.649  15.473  1.00  0.00     0.046 A 
BRANCH  41  44
HETATM   44  O8  UNL     1     -12.222   8.707  14.387  1.00  0.00    -0.358 OA
HETATM   45  H39 UNL     1     -12.189   9.311  15.156  1.00  0.00     0.217 HD
ENDBRANCH  41  44
BRANCH  42  46
HETATM   46  O9  UNL     1     -10.442   9.273  16.352  1.00  0.00    -0.358 OA
HETATM   47  H40 UNL     1      -9.711   9.348  16.987  1.00  0.00     0.217 HD
ENDBRANCH  42  46
ENDBRANCH  37  38
ENDBRANCH  36  37
ENDBRANCH  34  36
ENDBRANCH  31  32
ENDBRANCH  30  31
ENDBRANCH  28  30
ENDBRANCH  27  28
ENDBRANCH  26  27
ENDBRANCH   1  26
TORSDOF 13
ENDMDL
MODEL 2
REMARK minimizedAffinity -10.4784203
REMARK CNNscore 0.626580596
REMARK CNNaffinity 7.54587364
REMARK  13 active torsions:
REMARK  status: ('A' for Active; 'I' for Inactive)
REMARK    1  A    between atoms: C19_21  and  O3_22 
REMARK    2  A    between atoms: C19_21  and  C20_23 
REMARK    3  A    between atoms: C20_23  and  C21_25 
REMARK    4  A    between atoms: C21_25  and  O5_26 
REMARK    5  A    between atoms: O5_26  and  C22_27 
REMARK    6  A    between atoms: C22_27  and  C23_29 
REMARK    7  A    between atoms: C23_29  and  C24_30 
REMARK    8  A    between atoms: C24_30  and  C25_31 
REMARK       I    between atoms: C25_31  and  N1_33 
REMARK    9  A    between atoms: N1_33  and  C26_34 
REMARK   10  A    between atoms: C26_34  and  C27_35 
REMARK   11  A    between atoms: C27_35  and  C28_36 
REMARK   12  A    between atoms: C31_39  and  O8_40 
REMARK   13  A    between atoms: C32_41  and  O9_42 
ROOT
HETATM    1  C20 UNL     1      -2.442   6.287  13.743  1.00  0.00     0.185 C 
HETATM    2  O4  UNL     1      -2.882   6.970  14.675  1.00  0.00    -0.292 OA
ENDROOT
BRANCH   1   3
HETATM    3  C19 UNL     1      -0.908   6.025  13.578  1.00  0.00     0.128 C 
HETATM    4  C14 UNL     1      -0.093   7.279  13.117  1.00  0.00     0.005 C 
HETATM    5  C13 UNL     1       1.420   7.065  13.350  1.00  0.00     0.091 C 
HETATM    6  C15 UNL     1      -0.508   8.573  13.842  1.00  0.00     0.019 C 
HETATM    7  C16 UNL     1      -0.422   7.341  11.610  1.00  0.00     0.002 C 
HETATM    8  C12 UNL     1       2.281   8.044  12.587  1.00  0.00     0.133 C 
HETATM    9  C11 UNL     1       1.997   8.270  11.108  1.00  0.00     0.072 C 
HETATM   10  O2  UNL     1       3.257   8.571  13.125  1.00  0.00    -0.297 OA
HETATM   11  C2  UNL     1       2.955   7.466  10.152  1.00  0.00    -0.009 C 
HETATM   12  C10 UNL     1       0.478   8.291  10.791  1.00  0.00     0.003 C 
HETATM   13  C1  UNL     1       4.244   8.312   9.941  1.00  0.00     0.021 C 
HETATM   14  C3  UNL     1       3.379   6.086  10.721  1.00  0.00     0.022 C 
HETATM   15  C7  UNL     1       2.307   7.274   8.786  1.00  0.00    -0.067 C 
HETATM   16  C4  UNL     1       4.159   5.231   9.724  1.00  0.00     0.084 C 
HETATM   17  C5  UNL     1       3.418   5.100   8.417  1.00  0.00     0.149 C 
HETATM   18  O1  UNL     1       3.567   4.133   7.671  1.00  0.00    -0.293 OA
HETATM   19  C6  UNL     1       2.509   6.197   8.007  1.00  0.00     0.053 C 
HETATM   20  C8  UNL     1       1.345   8.352   8.372  1.00  0.00     0.035 C 
HETATM   21  C9  UNL     1       0.129   8.273   9.284  1.00  0.00     0.010 C 
HETATM   22  C17 UNL     1      -0.477   5.875  11.156  1.00  0.00     0.009 C 
HETATM   23  C18 UNL     1      -0.689   5.030  12.418  1.00  0.00     0.047 C 
BRANCH   3  24
HETATM   24  O3  UNL     1      -0.326   5.476  14.752  1.00  0.00    -0.381 OA
HETATM   25  H25 UNL     1      -0.781   4.633  14.939  1.00  0.00     0.211 HD
ENDBRANCH   3  24
ENDBRANCH   1   3
BRANCH   1  26
HETATM   26  C21 UNL     1      -3.410   5.592  12.793  1.00  0.00     0.260 C 
BRANCH  26  27
HETATM   27  O5  UNL     1      -3.913   4.375  13.340  1.00  0.00    -0.314 OA
BRANCH  27  28
HETATM   28  C22 UNL     1      -4.279   3.447  12.410  1.00  0.00     0.259 C 
HETATM   29  O6  UNL     1      -3.505   2.777  11.742  1.00  0.00    -0.265 OA
BRANCH  28  30
HETATM   30  C23 UNL     1      -5.783   3.398  12.284  1.00  0.00     0.120 C 
BRANCH  30  31
HETATM   31  C24 UNL     1      -6.443   4.219  13.385  1.00  0.00     0.112 C 
BRANCH  31  32
HETATM   32  C25 UNL     1      -7.925   4.401  13.119  1.00  0.00     0.218 C 
HETATM   33  O7  UNL     1      -8.673   3.469  12.847  1.00  0.00    -0.274 OA
HETATM   34  N1  UNL     1      -8.353   5.704  13.251  1.00  0.00    -0.361 N 
HETATM   35  H32 UNL     1      -7.657   6.439  13.235  1.00  0.00     0.162 HD
BRANCH  34  36
HETATM   36  C26 UNL     1      -9.714   6.082  12.915  1.00  0.00     0.127 C 
BRANCH  36  37
HETATM   37  C27 UNL     1     -10.338   7.048  13.930  1.00  0.00     0.058 C 
BRANCH  37  38
HETATM   38  C28 UNL     1     -11.627   7.666  13.434  1.00  0.00    -0.054 A 
HETATM   39  C29 UNL     1     -12.807   6.902  13.400  1.00  0.00     0.010 A 
HETATM   40  C30 UNL     1     -14.000   7.453  12.927  1.00  0.00     0.040 A 
HETATM   41  C31 UNL     1     -14.012   8.768  12.491  1.00  0.00     0.098 A 
HETATM   42  C32 UNL     1     -12.852   9.539  12.520  1.00  0.00     0.099 A 
HETATM   43  C33 UNL     1     -11.656   8.998  12.987  1.00  0.00     0.046 A 
BRANCH  41  44
HETATM   44  O8  UNL     1     -15.180   9.308  12.030  1.00  0.00    -0.358 OA
HETATM   45  H39 UNL     1     -14.946  10.228  11.791  1.00  0.00     0.217 HD
ENDBRANCH  41  44
BRANCH  42  46
HETATM   46  O9  UNL     1     -12.938  10.831  12.079  1.00  0.00    -0.358 OA
HETATM   47  H40 UNL     1     -12.062  11.241  12.172  1.00  0.00     0.217 HD
ENDBRANCH  42  46
ENDBRANCH  37  38
ENDBRANCH  36  37
ENDBRANCH  34  36
ENDBRANCH  31  32
ENDBRANCH  30  31
ENDBRANCH  28  30
ENDBRANCH  27  28
ENDBRANCH  26  27
ENDBRANCH   1  26
TORSDOF 13
ENDMDL
MODEL 3
REMARK minimizedAffinity -9.479146
REMARK CNNscore 0.543532014
REMARK CNNaffinity 6.73674965
REMARK  13 active torsions:
REMARK  status: ('A' for Active; 'I' for Inactive)
REMARK    1  A    between atoms: C19_21  and  O3_22 
REMARK    2  A    between atoms: C19_21  and  C20_23 
REMARK    3  A    between atoms: C20_23  and  C21_25 
REMARK    4  A    between atoms: C21_25  and  O5_26 
REMARK    5  A    between atoms: O5_26  and  C22_27 
REMARK    6  A    between atoms: C22_27  and  C23_29 
REMARK    7  A    between atoms: C23_29  and  C24_30 
REMARK    8  A    between atoms: C24_30  and  C25_31 
REMARK       I    between atoms: C25_31  and  N1_33 
REMARK    9  A    between atoms: N1_33  and  C26_34 
REMARK   10  A    between atoms: C26_34  and  C27_35 
REMARK   11  A    between atoms: C27_35  and  C28_36 
REMARK   12  A    between atoms: C31_39  and  O8_40 
REMARK   13  A    between atoms: C32_41  and  O9_42 
ROOT
HETATM    1  C20 UNL     1       3.850   7.705   9.617  1.00  0.00     0.185 C 
HETATM    2  O4  UNL     1       3.992   8.821   9.104  1.00  0.00    -0.292 OA
ENDROOT
BRANCH   1   3
HETATM    3  C19 UNL     1       4.580   7.320  10.947  1.00  0.00     0.128 C 
HETATM    4  C14 UNL     1       4.509   8.422  12.055  1.00  0.00     0.005 C 
HETATM    5  C13 UNL     1       4.893   7.838  13.434  1.00  0.00     0.091 C 
HETATM    6  C15 UNL     1       3.117   9.066  12.183  1.00  0.00     0.019 C 
HETATM    7  C16 UNL     1       5.563   9.439  11.566  1.00  0.00     0.002 C 
HETATM    8  C12 UNL     1       5.223   8.900  14.456  1.00  0.00     0.133 C 
HETATM    9  C11 UNL     1       6.180  10.018  14.067  1.00  0.00     0.072 C 
HETATM   10  O2  UNL     1       4.808   8.806  15.613  1.00  0.00    -0.297 OA
HETATM   11  C2  UNL     1       7.653   9.794  14.576  1.00  0.00    -0.009 C 
HETATM   12  C10 UNL     1       5.965  10.505  12.608  1.00  0.00     0.003 C 
HETATM   13  C1  UNL     1       7.748  10.342  16.028  1.00  0.00     0.021 C 
HETATM   14  C3  UNL     1       8.077   8.302  14.601  1.00  0.00     0.022 C 
HETATM   15  C7  UNL     1       8.638  10.587  13.723  1.00  0.00    -0.067 C 
HETATM   16  C4  UNL     1       9.556   8.095  14.921  1.00  0.00     0.084 C 
HETATM   17  C5  UNL     1      10.434   8.916  14.010  1.00  0.00     0.149 C 
HETATM   18  O1  UNL     1      11.587   8.588  13.736  1.00  0.00    -0.293 OA
HETATM   19  C6  UNL     1       9.893  10.182  13.460  1.00  0.00     0.053 C 
HETATM   20  C8  UNL     1       8.095  11.850  13.118  1.00  0.00     0.035 C 
HETATM   21  C9  UNL     1       7.056  11.463  12.075  1.00  0.00     0.010 C 
HETATM   22  C17 UNL     1       6.695   8.583  10.979  1.00  0.00     0.009 C 
HETATM   23  C18 UNL     1       6.095   7.205  10.675  1.00  0.00     0.047 C 
BRANCH   3  24
HETATM   24  O3  UNL     1       4.126   6.079  11.470  1.00  0.00    -0.381 OA
HETATM   25  H25 UNL     1       4.297   5.395  10.796  1.00  0.00     0.211 HD
ENDBRANCH   3  24
ENDBRANCH   1   3
BRANCH   1  26
HETATM   26  C21 UNL     1       2.864   6.715   9.010  1.00  0.00     0.260 C 
BRANCH  26  27
HETATM   27  O5  UNL     1       1.643   6.658   9.745  1.00  0.00    -0.314 OA
BRANCH  27  28
HETATM   28  C22 UNL     1       0.759   7.654   9.450  1.00  0.00     0.259 C 
HETATM   29  O6  UNL     1       0.619   8.167   8.348  1.00  0.00    -0.265 OA
BRANCH  28  30
HETATM   30  C23 UNL     1       0.008   8.073  10.690  1.00  0.00     0.120 C 
BRANCH  30  31
HETATM   31  C24 UNL     1       0.077   6.984  11.754  1.00  0.00     0.112 C 
BRANCH  31  32
HETATM   32  C25 UNL     1      -1.224   6.892  12.528  1.00  0.00     0.218 C 
HETATM   33  O7  UNL     1      -1.866   7.877  12.874  1.00  0.00    -0.274 OA
HETATM   34  N1  UNL     1      -1.634   5.598  12.767  1.00  0.00    -0.361 N 
HETATM   35  H32 UNL     1      -0.951   4.856  12.672  1.00  0.00     0.162 HD
BRANCH  34  36
HETATM   36  C26 UNL     1      -2.793   5.321  13.597  1.00  0.00     0.127 C 
BRANCH  36  37
HETATM   37  C27 UNL     1      -4.013   6.174  13.230  1.00  0.00     0.058 C 
BRANCH  37  38
HETATM   38  C28 UNL     1      -5.294   5.370  13.178  1.00  0.00    -0.054 A 
HETATM   39  C29 UNL     1      -5.275   4.042  12.716  1.00  0.00     0.010 A 
HETATM   40  C30 UNL     1      -6.452   3.294  12.645  1.00  0.00     0.040 A 
HETATM   41  C31 UNL     1      -7.647   3.875  13.040  1.00  0.00     0.098 A 
HETATM   42  C32 UNL     1      -7.683   5.187  13.502  1.00  0.00     0.099 A 
HETATM   43  C33 UNL     1      -6.515   5.943  13.573  1.00  0.00     0.046 A 
BRANCH  41  44
HETATM   44  O8  UNL     1      -8.799   3.142  12.972  1.00  0.00    -0.358 OA
HETATM   45  H39 UNL     1      -9.493   3.748  13.302  1.00  0.00     0.217 HD
ENDBRANCH  41  44
BRANCH  42  46
HETATM   46  O9  UNL     1      -8.897   5.695  13.879  1.00  0.00    -0.358 OA
HETATM   47  H40 UNL     1      -8.760   6.606  14.187  1.00  0.00     0.217 HD
ENDBRANCH  42  46
ENDBRANCH  37  38
ENDBRANCH  36  37
ENDBRANCH  34  36
ENDBRANCH  31  32
ENDBRANCH  30  31
ENDBRANCH  28  30
ENDBRANCH  27  28
ENDBRANCH  26  27
ENDBRANCH   1  26
TORSDOF 13
ENDMDL
MODEL 4
REMARK minimizedAffinity -8.65403366
REMARK CNNscore 0.528996587
REMARK CNNaffinity 7.08675766
REMARK  13 active torsions:
REMARK  status: ('A' for Active; 'I' for Inactive)
REMARK    1  A    between atoms: C19_21  and  O3_22 
REMARK    2  A    between atoms: C19_21  and  C20_23 
REMARK    3  A    between atoms: C20_23  and  C21_25 
REMARK    4  A    between atoms: C21_25  and  O5_26 
REMARK    5  A    between atoms: O5_26  and  C22_27 
REMARK    6  A    between atoms: C22_27  and  C23_29 
REMARK    7  A    between atoms: C23_29  and  C24_30 
REMARK    8  A    between atoms: C24_30  and  C25_31 
REMARK       I    between atoms: C25_31  and  N1_33 
REMARK    9  A    between atoms: N1_33  and  C26_34 
REMARK   10  A    between atoms: C26_34  and  C27_35 
REMARK   11  A    between atoms: C27_35  and  C28_36 
REMARK   12  A    between atoms: C31_39  and  O8_40 
REMARK   13  A    between atoms: C32_41  and  O9_42 
ROOT
HETATM    1  C20 UNL     1      -2.326   4.720  12.293  1.00  0.00     0.185 C 
HETATM    2  O4  UNL     1      -2.276   4.033  11.266  1.00  0.00    -0.292 OA
ENDROOT
BRANCH   1   3
HETATM    3  C19 UNL     1      -1.027   5.279  12.964  1.00  0.00     0.128 C 
HETATM    4  C14 UNL     1      -0.693   6.757  12.574  1.00  0.00     0.005 C 
HETATM    5  C13 UNL     1       0.346   7.358  13.548  1.00  0.00     0.091 C 
HETATM    6  C15 UNL     1      -1.927   7.676  12.568  1.00  0.00     0.019 C 
HETATM    7  C16 UNL     1      -0.100   6.591  11.159  1.00  0.00     0.002 C 
HETATM    8  C12 UNL     1       0.997   8.614  13.019  1.00  0.00     0.133 C 
HETATM    9  C11 UNL     1       1.540   8.613  11.596  1.00  0.00     0.072 C 
HETATM   10  O2  UNL     1       1.177   9.585  13.757  1.00  0.00    -0.297 OA
HETATM   11  C2  UNL     1       3.095   8.384  11.514  1.00  0.00    -0.009 C 
HETATM   12  C10 UNL     1       0.622   7.840  10.610  1.00  0.00     0.003 C 
HETATM   13  C1  UNL     1       3.793   9.763  11.682  1.00  0.00     0.021 C 
HETATM   14  C3  UNL     1       3.638   7.437  12.617  1.00  0.00     0.022 C 
HETATM   15  C7  UNL     1       3.482   7.840  10.143  1.00  0.00    -0.067 C 
HETATM   16  C4  UNL     1       5.110   7.071  12.434  1.00  0.00     0.084 C 
HETATM   17  C5  UNL     1       5.373   6.535  11.048  1.00  0.00     0.149 C 
HETATM   18  O1  UNL     1       6.295   5.758  10.809  1.00  0.00    -0.293 OA
HETATM   19  C6  UNL     1       4.508   6.995   9.937  1.00  0.00     0.053 C 
HETATM   20  C8  UNL     1       2.589   8.257   9.009  1.00  0.00     0.035 C 
HETATM   21  C9  UNL     1       1.234   7.596   9.211  1.00  0.00     0.010 C 
HETATM   22  C17 UNL     1       0.715   5.290  11.221  1.00  0.00     0.009 C 
HETATM   23  C18 UNL     1       0.192   4.499  12.426  1.00  0.00     0.047 C 
BRANCH   3  24
HETATM   24  O3  UNL     1      -1.051   5.145  14.379  1.00  0.00    -0.381 OA
HETATM   25  H25 UNL     1      -1.140   4.195  14.583  1.00  0.00     0.211 HD
ENDBRANCH   3  24
ENDBRANCH   1   3
BRANCH   1  26
HETATM   26  C21 UNL     1      -3.678   5.127  12.865  1.00  0.00     0.260 C 
BRANCH  26  27
HETATM   27  O5  UNL     1      -4.753   4.419  12.250  1.00  0.00    -0.314 OA
BRANCH  27  28
HETATM   28  C22 UNL     1      -5.876   4.321  13.017  1.00  0.00     0.259 C 
HETATM   29  O6  UNL     1      -6.704   3.424  12.941  1.00  0.00    -0.265 OA
BRANCH  28  30
HETATM   30  C23 UNL     1      -5.982   5.507  13.944  1.00  0.00     0.120 C 
BRANCH  30  31
HETATM   31  C24 UNL     1      -7.233   5.403  14.810  1.00  0.00     0.112 C 
BRANCH  31  32
HETATM   32  C25 UNL     1      -8.119   6.622  14.640  1.00  0.00     0.218 C 
HETATM   33  O7  UNL     1      -7.767   7.753  14.959  1.00  0.00    -0.274 OA
HETATM   34  N1  UNL     1      -9.336   6.343  14.058  1.00  0.00    -0.361 N 
HETATM   35  H32 UNL     1      -9.651   5.381  14.047  1.00  0.00     0.162 HD
BRANCH  34  36
HETATM   36  C26 UNL     1     -10.357   7.368  13.930  1.00  0.00     0.127 C 
BRANCH  36  37
HETATM   37  C27 UNL     1     -11.494   6.969  12.981  1.00  0.00     0.058 C 
BRANCH  37  38
HETATM   38  C28 UNL     1     -12.604   7.997  12.934  1.00  0.00    -0.054 A 
HETATM   39  C29 UNL     1     -13.922   7.626  13.257  1.00  0.00     0.010 A 
HETATM   40  C30 UNL     1     -14.960   8.559  13.201  1.00  0.00     0.040 A 
HETATM   41  C31 UNL     1     -14.678   9.862  12.824  1.00  0.00     0.098 A 
HETATM   42  C32 UNL     1     -13.378  10.246  12.504  1.00  0.00     0.099 A 
HETATM   43  C33 UNL     1     -12.336   9.322  12.553  1.00  0.00     0.046 A 
BRANCH  41  44
HETATM   44  O8  UNL     1     -15.693  10.776  12.771  1.00  0.00    -0.358 OA
HETATM   45  H39 UNL     1     -15.258  11.608  12.493  1.00  0.00     0.217 HD
ENDBRANCH  41  44
BRANCH  42  46
HETATM   46  O9  UNL     1     -13.172  11.551  12.144  1.00  0.00    -0.358 OA
HETATM   47  H40 UNL     1     -12.224  11.668  11.965  1.00  0.00     0.217 HD
ENDBRANCH  42  46
ENDBRANCH  37  38
ENDBRANCH  36  37
ENDBRANCH  34  36
ENDBRANCH  31  32
ENDBRANCH  30  31
ENDBRANCH  28  30
ENDBRANCH  27  28
ENDBRANCH  26  27
ENDBRANCH   1  26
TORSDOF 13
ENDMDL
MODEL 5
REMARK minimizedAffinity -10.5645494
REMARK CNNscore 0.516108632
REMARK CNNaffinity 7.28544617
REMARK  13 active torsions:
REMARK  status: ('A' for Active; 'I' for Inactive)
REMARK    1  A    between atoms: C19_21  and  O3_22 
REMARK    2  A    between atoms: C19_21  and  C20_23 
REMARK    3  A    between atoms: C20_23  and  C21_25 
REMARK    4  A    between atoms: C21_25  and  O5_26 
REMARK    5  A    between atoms: O5_26  and  C22_27 
REMARK    6  A    between atoms: C22_27  and  C23_29 
REMARK    7  A    between atoms: C23_29  and  C24_30 
REMARK    8  A    between atoms: C24_30  and  C25_31 
REMARK       I    between atoms: C25_31  and  N1_33 
REMARK    9  A    between atoms: N1_33  and  C26_34 
REMARK   10  A    between atoms: C26_34  and  C27_35 
REMARK   11  A    between atoms: C27_35  and  C28_36 
REMARK   12  A    between atoms: C31_39  and  O8_40 
REMARK   13  A    between atoms: C32_41  and  O9_42 
ROOT
HETATM    1  C20 UNL     1      -2.277   6.742  13.948  1.00  0.00     0.185 C 
HETATM    2  O4  UNL     1      -3.038   6.861  12.981  1.00  0.00    -0.292 OA
ENDROOT
BRANCH   1   3
HETATM    3  C19 UNL     1      -0.754   6.438  13.754  1.00  0.00     0.128 C 
HETATM    4  C14 UNL     1       0.071   7.644  13.195  1.00  0.00     0.005 C 
HETATM    5  C13 UNL     1       1.586   7.412  13.397  1.00  0.00     0.091 C 
HETATM    6  C15 UNL     1      -0.296   8.987  13.854  1.00  0.00     0.019 C 
HETATM    7  C16 UNL     1      -0.302   7.624  11.698  1.00  0.00     0.002 C 
HETATM    8  C12 UNL     1       2.443   8.325  12.552  1.00  0.00     0.133 C 
HETATM    9  C11 UNL     1       2.119   8.469  11.071  1.00  0.00     0.072 C 
HETATM   10  O2  UNL     1       3.445   8.861  13.028  1.00  0.00    -0.297 OA
HETATM   11  C2  UNL     1       3.031   7.590  10.137  1.00  0.00    -0.009 C 
HETATM   12  C10 UNL     1       0.591   8.504  10.797  1.00  0.00     0.003 C 
HETATM   13  C1  UNL     1       4.328   8.393   9.838  1.00  0.00     0.021 C 
HETATM   14  C3  UNL     1       3.444   6.237  10.774  1.00  0.00     0.022 C 
HETATM   15  C7  UNL     1       2.337   7.331   8.804  1.00  0.00    -0.067 C 
HETATM   16  C4  UNL     1       4.176   5.308   9.808  1.00  0.00     0.084 C 
HETATM   17  C5  UNL     1       3.393   5.115   8.533  1.00  0.00     0.149 C 
HETATM   18  O1  UNL     1       3.500   4.104   7.843  1.00  0.00    -0.293 OA
HETATM   19  C6  UNL     1       2.495   6.205   8.086  1.00  0.00     0.053 C 
HETATM   20  C8  UNL     1       1.385   8.403   8.355  1.00  0.00     0.035 C 
HETATM   21  C9  UNL     1       0.196   8.405   9.305  1.00  0.00     0.010 C 
HETATM   22  C17 UNL     1      -0.400   6.135  11.334  1.00  0.00     0.009 C 
HETATM   23  C18 UNL     1      -0.590   5.371  12.650  1.00  0.00     0.047 C 
BRANCH   3  24
HETATM   24  O3  UNL     1      -0.147   5.946  14.942  1.00  0.00    -0.381 OA
HETATM   25  H25 UNL     1      -0.613   5.126  15.192  1.00  0.00     0.211 HD
ENDBRANCH   3  24
ENDBRANCH   1   3
BRANCH   1  26
HETATM   26  C21 UNL     1      -2.799   6.999  15.356  1.00  0.00     0.260 C 
BRANCH  26  27
HETATM   27  O5  UNL     1      -4.223   7.064  15.394  1.00  0.00    -0.314 OA
BRANCH  27  28
HETATM   28  C22 UNL     1      -4.730   8.330  15.415  1.00  0.00     0.259 C 
HETATM   29  O6  UNL     1      -4.347   9.229  16.150  1.00  0.00    -0.265 OA
BRANCH  28  30
HETATM   30  C23 UNL     1      -5.868   8.455  14.432  1.00  0.00     0.120 C 
BRANCH  30  31
HETATM   31  C24 UNL     1      -7.209   8.431  15.156  1.00  0.00     0.112 C 
BRANCH  31  32
HETATM   32  C25 UNL     1      -7.918   7.105  14.952  1.00  0.00     0.218 C 
HETATM   33  O7  UNL     1      -8.462   6.491  15.863  1.00  0.00    -0.274 OA
HETATM   34  N1  UNL     1      -7.925   6.680  13.641  1.00  0.00    -0.361 N 
HETATM   35  H32 UNL     1      -7.264   7.099  12.999  1.00  0.00     0.162 HD
BRANCH  34  36
HETATM   36  C26 UNL     1      -8.452   5.376  13.280  1.00  0.00     0.127 C 
BRANCH  36  37
HETATM   37  C27 UNL     1      -7.709   4.218  13.957  1.00  0.00     0.058 C 
BRANCH  37  38
HETATM   38  C28 UNL     1      -6.569   3.684  13.117  1.00  0.00    -0.054 A 
HETATM   39  C29 UNL     1      -5.324   4.336  13.123  1.00  0.00     0.010 A 
HETATM   40  C30 UNL     1      -4.268   3.866  12.338  1.00  0.00     0.040 A 
HETATM   41  C31 UNL     1      -4.459   2.742  11.551  1.00  0.00     0.098 A 
HETATM   42  C32 UNL     1      -5.686   2.083  11.536  1.00  0.00     0.099 A 
HETATM   43  C33 UNL     1      -6.746   2.546  12.312  1.00  0.00     0.046 A 
BRANCH  41  44
HETATM   44  O8  UNL     1      -3.426   2.280  10.784  1.00  0.00    -0.358 OA
HETATM   45  H39 UNL     1      -3.790   1.492  10.333  1.00  0.00     0.217 HD
ENDBRANCH  41  44
BRANCH  42  46
HETATM   46  O9  UNL     1      -5.802   0.976  10.738  1.00  0.00    -0.358 OA
HETATM   47  H40 UNL     1      -6.701   0.622  10.843  1.00  0.00     0.217 HD
ENDBRANCH  42  46
ENDBRANCH  37  38
ENDBRANCH  36  37
ENDBRANCH  34  36
ENDBRANCH  31  32
ENDBRANCH  30  31
ENDBRANCH  28  30
ENDBRANCH  27  28
ENDBRANCH  26  27
ENDBRANCH   1  26
TORSDOF 13
ENDMDL
MODEL 6
REMARK minimizedAffinity -7.9462204
REMARK CNNscore 0.514370739
REMARK CNNaffinity 6.86593056
REMARK  13 active torsions:
REMARK  status: ('A' for Active; 'I' for Inactive)
REMARK    1  A    between atoms: C19_21  and  O3_22 
REMARK    2  A    between atoms: C19_21  and  C20_23 
REMARK    3  A    between atoms: C20_23  and  C21_25 
REMARK    4  A    between atoms: C21_25  and  O5_26 
REMARK    5  A    between atoms: O5_26  and  C22_27 
REMARK    6  A    between atoms: C22_27  and  C23_29 
REMARK    7  A    between atoms: C23_29  and  C24_30 
REMARK    8  A    between atoms: C24_30  and  C25_31 
REMARK       I    between atoms: C25_31  and  N1_33 
REMARK    9  A    between atoms: N1_33  and  C26_34 
REMARK   10  A    between atoms: C26_34  and  C27_35 
REMARK   11  A    between atoms: C27_35  and  C28_36 
REMARK   12  A    between atoms: C31_39  and  O8_40 
REMARK   13  A    between atoms: C32_41  and  O9_42 
ROOT
HETATM    1  C20 UNL     1     -10.672   8.650  14.535  1.00  0.00     0.185 C 
HETATM    2  O4  UNL     1     -10.284   9.797  14.791  1.00  0.00    -0.292 OA
ENDROOT
BRANCH   1   3
HETATM    3  C19 UNL     1     -11.923   8.396  13.630  1.00  0.00     0.128 C 
HETATM    4  C14 UNL     1     -13.261   8.953  14.220  1.00  0.00     0.005 C 
HETATM    5  C13 UNL     1     -14.355   9.019  13.130  1.00  0.00     0.091 C 
HETATM    6  C15 UNL     1     -13.115  10.358  14.833  1.00  0.00     0.019 C 
HETATM    7  C16 UNL     1     -13.605   7.898  15.293  1.00  0.00     0.002 C 
HETATM    8  C12 UNL     1     -15.747   9.170  13.696  1.00  0.00     0.133 C 
HETATM    9  C11 UNL     1     -16.180   8.249  14.829  1.00  0.00     0.072 C 
HETATM   10  O2  UNL     1     -16.551   9.951  13.183  1.00  0.00    -0.297 OA
HETATM   11  C2  UNL     1     -17.056   7.031  14.352  1.00  0.00    -0.009 C 
HETATM   12  C10 UNL     1     -15.041   7.988  15.851  1.00  0.00     0.003 C 
HETATM   13  C1  UNL     1     -18.538   7.501  14.290  1.00  0.00     0.021 C 
HETATM   14  C3  UNL     1     -16.665   6.501  12.947  1.00  0.00     0.022 C 
HETATM   15  C7  UNL     1     -16.981   5.892  15.362  1.00  0.00    -0.067 C 
HETATM   16  C4  UNL     1     -17.389   5.214  12.559  1.00  0.00     0.084 C 
HETATM   17  C5  UNL     1     -17.236   4.156  13.624  1.00  0.00     0.149 C 
HETATM   18  O1  UNL     1     -17.291   2.955  13.370  1.00  0.00    -0.293 OA
HETATM   19  C6  UNL     1     -17.052   4.591  15.029  1.00  0.00     0.053 C 
HETATM   20  C8  UNL     1     -16.747   6.308  16.787  1.00  0.00     0.035 C 
HETATM   21  C9  UNL     1     -15.338   6.877  16.885  1.00  0.00     0.010 C 
HETATM   22  C17 UNL     1     -13.185   6.556  14.675  1.00  0.00     0.009 C 
HETATM   23  C18 UNL     1     -12.189   6.877  13.554  1.00  0.00     0.047 C 
BRANCH   3  24
HETATM   24  O3  UNL     1     -11.739   8.883  12.307  1.00  0.00    -0.381 OA
HETATM   25  H25 UNL     1     -10.966   8.422  11.930  1.00  0.00     0.211 HD
ENDBRANCH   3  24
ENDBRANCH   1   3
BRANCH   1  26
HETATM   26  C21 UNL     1      -9.860   7.454  15.016  1.00  0.00     0.260 C 
BRANCH  26  27
HETATM   27  O5  UNL     1      -8.538   7.457  14.482  1.00  0.00    -0.314 OA
BRANCH  27  28
HETATM   28  C22 UNL     1      -7.889   6.262  14.576  1.00  0.00     0.259 C 
HETATM   29  O6  UNL     1      -8.201   5.242  13.976  1.00  0.00    -0.265 OA
BRANCH  28  30
HETATM   30  C23 UNL     1      -6.754   6.358  15.567  1.00  0.00     0.120 C 
BRANCH  30  31
HETATM   31  C24 UNL     1      -5.870   7.561  15.258  1.00  0.00     0.112 C 
BRANCH  31  32
HETATM   32  C25 UNL     1      -4.632   7.146  14.487  1.00  0.00     0.218 C 
HETATM   33  O7  UNL     1      -4.495   7.347  13.286  1.00  0.00    -0.274 OA
HETATM   34  N1  UNL     1      -3.664   6.559  15.273  1.00  0.00    -0.361 N 
HETATM   35  H32 UNL     1      -3.935   6.209  16.183  1.00  0.00     0.162 HD
BRANCH  34  36
HETATM   36  C26 UNL     1      -2.464   5.991  14.683  1.00  0.00     0.127 C 
BRANCH  36  37
HETATM   37  C27 UNL     1      -2.472   6.027  13.150  1.00  0.00     0.058 C 
BRANCH  37  38
HETATM   38  C28 UNL     1      -1.875   4.781  12.532  1.00  0.00    -0.054 A 
HETATM   39  C29 UNL     1      -0.486   4.690  12.335  1.00  0.00     0.010 A 
HETATM   40  C30 UNL     1       0.079   3.554  11.749  1.00  0.00     0.040 A 
HETATM   41  C31 UNL     1      -0.748   2.510  11.365  1.00  0.00     0.098 A 
HETATM   42  C32 UNL     1      -2.125   2.584  11.556  1.00  0.00     0.099 A 
HETATM   43  C33 UNL     1      -2.698   3.714  12.136  1.00  0.00     0.046 A 
BRANCH  41  44
HETATM   44  O8  UNL     1      -0.196   1.397  10.794  1.00  0.00    -0.358 OA
HETATM   45  H39 UNL     1      -0.958   0.810  10.619  1.00  0.00     0.217 HD
ENDBRANCH  41  44
BRANCH  42  46
HETATM   46  O9  UNL     1      -2.880   1.515  11.157  1.00  0.00    -0.358 OA
HETATM   47  H40 UNL     1      -3.809   1.706  11.365  1.00  0.00     0.217 HD
ENDBRANCH  42  46
ENDBRANCH  37  38
ENDBRANCH  36  37
ENDBRANCH  34  36
ENDBRANCH  31  32
ENDBRANCH  30  31
ENDBRANCH  28  30
ENDBRANCH  27  28
ENDBRANCH  26  27
ENDBRANCH   1  26
TORSDOF 13
ENDMDL
MODEL 7
REMARK minimizedAffinity -10.0005293
REMARK CNNscore 0.469551057
REMARK CNNaffinity 7.28049088
REMARK  13 active torsions:
REMARK  status: ('A' for Active; 'I' for Inactive)
REMARK    1  A    between atoms: C19_21  and  O3_22 
REMARK    2  A    between atoms: C19_21  and  C20_23 
REMARK    3  A    between atoms: C20_23  and  C21_25 
REMARK    4  A    between atoms: C21_25  and  O5_26 
REMARK    5  A    between atoms: O5_26  and  C22_27 
REMARK    6  A    between atoms: C22_27  and  C23_29 
REMARK    7  A    between atoms: C23_29  and  C24_30 
REMARK    8  A    between atoms: C24_30  and  C25_31 
REMARK       I    between atoms: C25_31  and  N1_33 
REMARK    9  A    between atoms: N1_33  and  C26_34 
REMARK   10  A    between atoms: C26_34  and  C27_35 
REMARK   11  A    between atoms: C27_35  and  C28_36 
REMARK   12  A    between atoms: C31_39  and  O8_40 
REMARK   13  A    between atoms: C32_41  and  O9_42 
ROOT
HETATM    1  C20 UNL     1      -2.646   6.543  13.673  1.00  0.00     0.185 C 
HETATM    2  O4  UNL     1      -3.218   7.279  12.859  1.00  0.00    -0.292 OA
ENDROOT
BRANCH   1   3
HETATM    3  C19 UNL     1      -1.110   6.261  13.577  1.00  0.00     0.128 C 
HETATM    4  C14 UNL     1      -0.264   7.489  13.105  1.00  0.00     0.005 C 
HETATM    5  C13 UNL     1       1.237   7.268  13.405  1.00  0.00     0.091 C 
HETATM    6  C15 UNL     1      -0.691   8.811  13.768  1.00  0.00     0.019 C 
HETATM    7  C16 UNL     1      -0.533   7.502  11.585  1.00  0.00     0.002 C 
HETATM    8  C12 UNL     1       2.138   8.211  12.643  1.00  0.00     0.133 C 
HETATM    9  C11 UNL     1       1.915   8.387  11.147  1.00  0.00     0.072 C 
HETATM   10  O2  UNL     1       3.099   8.745  13.200  1.00  0.00    -0.297 OA
HETATM   11  C2  UNL     1       2.900   7.541  10.258  1.00  0.00    -0.009 C 
HETATM   12  C10 UNL     1       0.409   8.413  10.770  1.00  0.00     0.003 C 
HETATM   13  C1  UNL     1       4.205   8.365  10.068  1.00  0.00     0.021 C 
HETATM   14  C3  UNL     1       3.285   6.177  10.890  1.00  0.00     0.022 C 
HETATM   15  C7  UNL     1       2.302   7.307   8.874  1.00  0.00    -0.067 C 
HETATM   16  C4  UNL     1       4.093   5.280   9.955  1.00  0.00     0.084 C 
HETATM   17  C5  UNL     1       3.402   5.110   8.624  1.00  0.00     0.149 C 
HETATM   18  O1  UNL     1       3.568   4.117   7.919  1.00  0.00    -0.293 OA
HETATM   19  C6  UNL     1       2.522   6.202   8.142  1.00  0.00     0.053 C 
HETATM   20  C8  UNL     1       1.370   8.380   8.386  1.00  0.00     0.035 C 
HETATM   21  C9  UNL     1       0.119   8.346   9.252  1.00  0.00     0.010 C 
HETATM   22  C17 UNL     1      -0.587   6.021  11.181  1.00  0.00     0.009 C 
HETATM   23  C18 UNL     1      -0.858   5.223  12.462  1.00  0.00     0.047 C 
BRANCH   3  24
HETATM   24  O3  UNL     1      -0.580   5.746  14.792  1.00  0.00    -0.381 OA
HETATM   25  H25 UNL     1      -1.052   4.916  14.990  1.00  0.00     0.211 HD
ENDBRANCH   3  24
ENDBRANCH   1   3
BRANCH   1  26
HETATM   26  C21 UNL     1      -3.422   5.983  14.858  1.00  0.00     0.260 C 
BRANCH  26  27
HETATM   27  O5  UNL     1      -4.576   6.764  15.159  1.00  0.00    -0.314 OA
BRANCH  27  28
HETATM   28  C22 UNL     1      -5.740   6.055  15.210  1.00  0.00     0.259 C 
HETATM   29  O6  UNL     1      -6.469   5.969  16.189  1.00  0.00    -0.265 OA
BRANCH  28  30
HETATM   30  C23 UNL     1      -5.980   5.348  13.899  1.00  0.00     0.120 C 
BRANCH  30  31
HETATM   31  C24 UNL     1      -7.335   4.648  13.905  1.00  0.00     0.112 C 
BRANCH  31  32
HETATM   32  C25 UNL     1      -8.407   5.526  13.288  1.00  0.00     0.218 C 
HETATM   33  O7  UNL     1      -8.540   5.666  12.078  1.00  0.00    -0.274 OA
HETATM   34  N1  UNL     1      -9.238   6.117  14.216  1.00  0.00    -0.361 N 
HETATM   35  H32 UNL     1      -8.928   6.155  15.179  1.00  0.00     0.162 HD
BRANCH  34  36
HETATM   36  C26 UNL     1     -10.243   7.084  13.811  1.00  0.00     0.127 C 
BRANCH  36  37
HETATM   37  C27 UNL     1     -11.647   6.744  14.327  1.00  0.00     0.058 C 
BRANCH  37  38
HETATM   38  C28 UNL     1     -12.740   7.465  13.568  1.00  0.00    -0.054 A 
HETATM   39  C29 UNL     1     -12.664   8.855  13.376  1.00  0.00     0.010 A 
HETATM   40  C30 UNL     1     -13.674   9.537  12.694  1.00  0.00     0.040 A 
HETATM   41  C31 UNL     1     -14.757   8.826  12.201  1.00  0.00     0.098 A 
HETATM   42  C32 UNL     1     -14.845   7.448  12.380  1.00  0.00     0.099 A 
HETATM   43  C33 UNL     1     -13.844   6.759  13.063  1.00  0.00     0.046 A 
BRANCH  41  44
HETATM   44  O8  UNL     1     -15.744   9.492  11.531  1.00  0.00    -0.358 OA
HETATM   45  H39 UNL     1     -16.383   8.794  11.279  1.00  0.00     0.217 HD
ENDBRANCH  41  44
BRANCH  42  46
HETATM   46  O9  UNL     1     -15.939   6.809  11.863  1.00  0.00    -0.358 OA
HETATM   47  H40 UNL     1     -15.853   5.860  12.055  1.00  0.00     0.217 HD
ENDBRANCH  42  46
ENDBRANCH  37  38
ENDBRANCH  36  37
ENDBRANCH  34  36
ENDBRANCH  31  32
ENDBRANCH  30  31
ENDBRANCH  28  30
ENDBRANCH  27  28
ENDBRANCH  26  27
ENDBRANCH   1  26
TORSDOF 13
ENDMDL
MODEL 8
REMARK minimizedAffinity -7.74898958
REMARK CNNscore 0.454060376
REMARK CNNaffinity 6.7319355
REMARK  13 active torsions:
REMARK  status: ('A' for Active; 'I' for Inactive)
REMARK    1  A    between atoms: C19_21  and  O3_22 
REMARK    2  A    between atoms: C19_21  and  C20_23 
REMARK    3  A    between atoms: C20_23  and  C21_25 
REMARK    4  A    between atoms: C21_25  and  O5_26 
REMARK    5  A    between atoms: O5_26  and  C22_27 
REMARK    6  A    between atoms: C22_27  and  C23_29 
REMARK    7  A    between atoms: C23_29  and  C24_30 
REMARK    8  A    between atoms: C24_30  and  C25_31 
REMARK       I    between atoms: C25_31  and  N1_33 
REMARK    9  A    between atoms: N1_33  and  C26_34 
REMARK   10  A    between atoms: C26_34  and  C27_35 
REMARK   11  A    between atoms: C27_35  and  C28_36 
REMARK   12  A    between atoms: C31_39  and  O8_40 
REMARK   13  A    between atoms: C32_41  and  O9_42 
ROOT
HETATM    1  C20 UNL     1      -2.359   5.994  13.190  1.00  0.00     0.185 C 
HETATM    2  O4  UNL     1      -2.050   5.088  12.407  1.00  0.00    -0.292 OA
ENDROOT
BRANCH   1   3
HETATM    3  C19 UNL     1      -1.815   7.450  13.006  1.00  0.00     0.128 C 
HETATM    4  C14 UNL     1      -1.082   8.021  14.265  1.00  0.00     0.005 C 
HETATM    5  C13 UNL     1      -0.249   9.270  13.894  1.00  0.00     0.091 C 
HETATM    6  C15 UNL     1      -0.141   7.002  14.933  1.00  0.00     0.019 C 
HETATM    7  C16 UNL     1      -2.264   8.392  15.186  1.00  0.00     0.002 C 
HETATM    8  C12 UNL     1       0.160  10.087  15.097  1.00  0.00     0.133 C 
HETATM    9  C11 UNL     1      -0.897  10.441  16.135  1.00  0.00     0.072 C 
HETATM   10  O2  UNL     1       1.300  10.545  15.184  1.00  0.00    -0.297 OA
HETATM   11  C2  UNL     1      -1.472  11.898  15.979  1.00  0.00    -0.009 C 
HETATM   12  C10 UNL     1      -1.889   9.275  16.395  1.00  0.00     0.003 C 
HETATM   13  C1  UNL     1      -0.528  12.871  16.741  1.00  0.00     0.021 C 
HETATM   14  C3  UNL     1      -1.557  12.373  14.504  1.00  0.00     0.022 C 
HETATM   15  C7  UNL     1      -2.850  11.999  16.624  1.00  0.00    -0.067 C 
HETATM   16  C4  UNL     1      -2.277  13.709  14.336  1.00  0.00     0.084 C 
HETATM   17  C5  UNL     1      -3.631  13.689  15.001  1.00  0.00     0.149 C 
HETATM   18  O1  UNL     1      -4.559  14.403  14.625  1.00  0.00    -0.293 OA
HETATM   19  C6  UNL     1      -3.829  12.803  16.173  1.00  0.00     0.053 C 
HETATM   20  C8  UNL     1      -3.087  11.075  17.785  1.00  0.00     0.035 C 
HETATM   21  C9  UNL     1      -3.121   9.650  17.251  1.00  0.00     0.010 C 
HETATM   22  C17 UNL     1      -3.347   8.934  14.241  1.00  0.00     0.009 C 
HETATM   23  C18 UNL     1      -3.008   8.416  12.838  1.00  0.00     0.047 C 
BRANCH   3  24
HETATM   24  O3  UNL     1      -0.979   7.573  11.863  1.00  0.00    -0.381 OA
HETATM   25  H25 UNL     1      -1.509   7.323  11.083  1.00  0.00     0.211 HD
ENDBRANCH   3  24
ENDBRANCH   1   3
BRANCH   1  26
HETATM   26  C21 UNL     1      -3.372   5.725  14.295  1.00  0.00     0.260 C 
BRANCH  26  27
HETATM   27  O5  UNL     1      -4.604   5.224  13.779  1.00  0.00    -0.314 OA
BRANCH  27  28
HETATM   28  C22 UNL     1      -5.693   5.987  14.078  1.00  0.00     0.259 C 
HETATM   29  O6  UNL     1      -6.487   6.433  13.260  1.00  0.00    -0.265 OA
BRANCH  28  30
HETATM   30  C23 UNL     1      -5.757   6.250  15.563  1.00  0.00     0.120 C 
BRANCH  30  31
HETATM   31  C24 UNL     1      -7.088   5.776  16.136  1.00  0.00     0.112 C 
BRANCH  31  32
HETATM   32  C25 UNL     1      -8.198   6.763  15.832  1.00  0.00     0.218 C 
HETATM   33  O7  UNL     1      -8.164   7.936  16.187  1.00  0.00    -0.274 OA
HETATM   34  N1  UNL     1      -9.225   6.227  15.086  1.00  0.00    -0.361 N 
HETATM   35  H32 UNL     1      -9.305   5.218  15.039  1.00  0.00     0.162 HD
BRANCH  34  36
HETATM   36  C26 UNL     1     -10.426   6.993  14.805  1.00  0.00     0.127 C 
BRANCH  36  37
HETATM   37  C27 UNL     1     -10.786   7.022  13.315  1.00  0.00     0.058 C 
BRANCH  37  38
HETATM   38  C28 UNL     1     -12.033   7.831  13.030  1.00  0.00    -0.054 A 
HETATM   39  C29 UNL     1     -11.928   9.193  12.699  1.00  0.00     0.010 A 
HETATM   40  C30 UNL     1     -13.071   9.958  12.452  1.00  0.00     0.040 A 
HETATM   41  C31 UNL     1     -14.317   9.357  12.534  1.00  0.00     0.098 A 
HETATM   42  C32 UNL     1     -14.438   8.008  12.858  1.00  0.00     0.099 A 
HETATM   43  C33 UNL     1     -13.304   7.238  13.110  1.00  0.00     0.046 A 
BRANCH  41  44
HETATM   44  O8  UNL     1     -15.436  10.104  12.290  1.00  0.00    -0.358 OA
HETATM   45  H39 UNL     1     -16.178   9.475  12.399  1.00  0.00     0.217 HD
ENDBRANCH  41  44
BRANCH  42  46
HETATM   46  O9  UNL     1     -15.699   7.480  12.917  1.00  0.00    -0.358 OA
HETATM   47  H40 UNL     1     -15.621   6.537  13.139  1.00  0.00     0.217 HD
ENDBRANCH  42  46
ENDBRANCH  37  38
ENDBRANCH  36  37
ENDBRANCH  34  36
ENDBRANCH  31  32
ENDBRANCH  30  31
ENDBRANCH  28  30
ENDBRANCH  27  28
ENDBRANCH  26  27
ENDBRANCH   1  26
TORSDOF 13
ENDMDL
MODEL 9
REMARK minimizedAffinity -7.84717989
REMARK CNNscore 0.439977288
REMARK CNNaffinity 6.0240674
REMARK  13 active torsions:
REMARK  status: ('A' for Active; 'I' for Inactive)
REMARK    1  A    between atoms: C19_21  and  O3_22 
REMARK    2  A    between atoms: C19_21  and  C20_23 
REMARK    3  A    between atoms: C20_23  and  C21_25 
REMARK    4  A    between atoms: C21_25  and  O5_26 
REMARK    5  A    between atoms: O5_26  and  C22_27 
REMARK    6  A    between atoms: C22_27  and  C23_29 
REMARK    7  A    between atoms: C23_29  and  C24_30 
REMARK    8  A    between atoms: C24_30  and  C25_31 
REMARK       I    between atoms: C25_31  and  N1_33 
REMARK    9  A    between atoms: N1_33  and  C26_34 
REMARK   10  A    between atoms: C26_34  and  C27_35 
REMARK   11  A    between atoms: C27_35  and  C28_36 
REMARK   12  A    between atoms: C31_39  and  O8_40 
REMARK   13  A    between atoms: C32_41  and  O9_42 
ROOT
HETATM    1  C20 UNL     1      -5.326  -9.546   9.026  1.00  0.00     0.185 C 
HETATM    2  O4  UNL     1      -4.461 -10.230   9.585  1.00  0.00    -0.292 OA
ENDROOT
BRANCH   1   3
HETATM    3  C19 UNL     1      -5.275  -9.265   7.487  1.00  0.00     0.128 C 
HETATM    4  C14 UNL     1      -5.884 -10.408   6.610  1.00  0.00     0.005 C 
HETATM    5  C13 UNL     1      -6.155  -9.910   5.172  1.00  0.00     0.091 C 
HETATM    6  C15 UNL     1      -7.201 -10.971   7.174  1.00  0.00     0.019 C 
HETATM    7  C16 UNL     1      -4.759 -11.465   6.631  1.00  0.00     0.002 C 
HETATM    8  C12 UNL     1      -6.367 -11.034   4.185  1.00  0.00     0.133 C 
HETATM    9  C11 UNL     1      -5.378 -12.191   4.170  1.00  0.00     0.072 C 
HETATM   10  O2  UNL     1      -7.263 -10.965   3.342  1.00  0.00    -0.297 OA
HETATM   11  C2  UNL     1      -4.296 -12.080   3.032  1.00  0.00    -0.009 C 
HETATM   12  C10 UNL     1      -4.917 -12.599   5.595  1.00  0.00     0.003 C 
HETATM   13  C1  UNL     1      -4.896 -12.696   1.736  1.00  0.00     0.021 C 
HETATM   14  C3  UNL     1      -3.879 -10.619   2.716  1.00  0.00     0.022 C 
HETATM   15  C7  UNL     1      -3.058 -12.894   3.392  1.00  0.00    -0.067 C 
HETATM   16  C4  UNL     1      -2.705 -10.518   1.744  1.00  0.00     0.084 C 
HETATM   17  C5  UNL     1      -1.536 -11.351   2.207  1.00  0.00     0.149 C 
HETATM   18  O1  UNL     1      -0.375 -11.082   1.903  1.00  0.00    -0.293 OA
HETATM   19  C6  UNL     1      -1.808 -12.556   3.027  1.00  0.00     0.053 C 
HETATM   20  C8  UNL     1      -3.306 -14.094   4.262  1.00  0.00     0.035 C 
HETATM   21  C9  UNL     1      -3.737 -13.598   5.635  1.00  0.00     0.010 C 
HETATM   22  C17 UNL     1      -3.455 -10.656   6.579  1.00  0.00     0.009 C 
HETATM   23  C18 UNL     1      -3.800  -9.232   7.030  1.00  0.00     0.047 C 
BRANCH   3  24
HETATM   24  O3  UNL     1      -5.874  -8.022   7.146  1.00  0.00    -0.381 OA
HETATM   25  H25 UNL     1      -5.389  -7.322   7.621  1.00  0.00     0.211 HD
ENDBRANCH   3  24
ENDBRANCH   1   3
BRANCH   1  26
HETATM   26  C21 UNL     1      -6.528  -9.051   9.821  1.00  0.00     0.260 C 
BRANCH  26  27
HETATM   27  O5  UNL     1      -6.439  -9.406  11.200  1.00  0.00    -0.314 OA
BRANCH  27  28
HETATM   28  C22 UNL     1      -7.419  -8.874  11.984  1.00  0.00     0.259 C 
HETATM   29  O6  UNL     1      -7.344  -7.807  12.579  1.00  0.00    -0.265 OA
BRANCH  28  30
HETATM   30  C23 UNL     1      -8.600  -9.812  12.056  1.00  0.00     0.120 C 
BRANCH  30  31
HETATM   31  C24 UNL     1      -9.783  -9.136  12.739  1.00  0.00     0.112 C 
BRANCH  31  32
HETATM   32  C25 UNL     1     -10.001  -9.694  14.133  1.00  0.00     0.218 C 
HETATM   33  O7  UNL     1      -9.132 -10.291  14.757  1.00  0.00    -0.274 OA
HETATM   34  N1  UNL     1     -11.254  -9.430  14.642  1.00  0.00    -0.361 N 
HETATM   35  H32 UNL     1     -11.984  -9.155  13.997  1.00  0.00     0.162 HD
BRANCH  34  36
HETATM   36  C26 UNL     1     -11.679  -9.991  15.913  1.00  0.00     0.127 C 
BRANCH  36  37
HETATM   37  C27 UNL     1     -11.797  -8.942  17.025  1.00  0.00     0.058 C 
BRANCH  37  38
HETATM   38  C28 UNL     1     -10.816  -9.173  18.153  1.00  0.00    -0.054 A 
HETATM   39  C29 UNL     1      -9.716  -8.312  18.318  1.00  0.00     0.010 A 
HETATM   40  C30 UNL     1      -8.792  -8.523  19.343  1.00  0.00     0.040 A 
HETATM   41  C31 UNL     1      -8.970  -9.594  20.205  1.00  0.00     0.098 A 
HETATM   42  C32 UNL     1     -10.056 -10.454  20.057  1.00  0.00     0.099 A 
HETATM   43  C33 UNL     1     -10.981 -10.254  19.035  1.00  0.00     0.046 A 
BRANCH  41  44
HETATM   44  O8  UNL     1      -8.067  -9.800  21.210  1.00  0.00    -0.358 OA
HETATM   45  H39 UNL     1      -8.400 -10.592  21.679  1.00  0.00     0.217 HD
ENDBRANCH  41  44
BRANCH  42  46
HETATM   46  O9  UNL     1     -10.172 -11.488  20.946  1.00  0.00    -0.358 OA
HETATM   47  H40 UNL     1     -10.977 -11.986  20.726  1.00  0.00     0.217 HD
ENDBRANCH  42  46
ENDBRANCH  37  38
ENDBRANCH  36  37
ENDBRANCH  34  36
ENDBRANCH  31  32
ENDBRANCH  30  31
ENDBRANCH  28  30
ENDBRANCH  27  28
ENDBRANCH  26  27
ENDBRANCH   1  26
TORSDOF 13
ENDMDL
