MODEL 1
REMARK minimizedAffinity -9.05910778
REMARK CNNscore 0.7030586
REMARK CNNaffinity 8.12307453
REMARK  13 active torsions:
REMARK  status: ('A' for Active; 'I' for Inactive)
REMARK    1  A    between atoms: C14_15  and  O2_16 
REMARK    2  A    between atoms: C14_15  and  C15_17 
REMARK    3  A    between atoms: C15_17  and  C16_19 
REMARK    4  A    between atoms: C16_19  and  O4_20 
REMARK    5  A    between atoms: O4_20  and  C17_21 
REMARK    6  A    between atoms: C17_21  and  C18_23 
REMARK    7  A    between atoms: C18_23  and  C19_24 
REMARK    8  A    between atoms: C19_24  and  C20_25 
REMARK       I    between atoms: C20_25  and  N1_27 
REMARK    9  A    between atoms: N1_27  and  C21_28 
REMARK   10  A    between atoms: C21_28  and  C22_29 
REMARK   11  A    between atoms: C22_29  and  C23_30 
REMARK   12  A    between atoms: C26_33  and  O7_34 
REMARK   13  A    between atoms: C27_35  and  O8_36 
ROOT
HETATM    1  C15 UNL     1      -3.843   6.191  14.874  1.00  0.00     0.185 C 
HETATM    2  O3  UNL     1      -3.786   5.345  13.977  1.00  0.00    -0.292 OA
ENDROOT
BRANCH   1   3
HETATM    3  C14 UNL     1      -2.620   7.063  15.241  1.00  0.00     0.128 C 
HETATM    4  C13 UNL     1      -1.308   6.391  14.814  1.00  0.00     0.047 C 
HETATM    5  C12 UNL     1      -0.294   7.520  14.919  1.00  0.00     0.009 C 
HETATM    6  C11 UNL     1      -1.032   8.768  14.402  1.00  0.00     0.002 C 
HETATM    7  C10 UNL     1      -0.626  10.099  15.080  1.00  0.00     0.003 C 
HETATM    8  C29 UNL     1      -2.562   8.446  14.502  1.00  0.00     0.005 C 
HETATM    9  C9  UNL     1       0.896  10.328  14.983  1.00  0.00     0.010 C 
HETATM   10  C33 UNL     1      -1.180  10.225  16.536  1.00  0.00     0.072 C 
HETATM   11  C8  UNL     1       1.334  11.626  15.658  1.00  0.00     0.035 C 
HETATM   12  C7  UNL     1       0.833  11.598  17.077  1.00  0.00    -0.067 C 
HETATM   13  C2  UNL     1      -0.697  11.546  17.242  1.00  0.00    -0.009 C 
HETATM   14  C6  UNL     1       1.714  11.484  18.087  1.00  0.00     0.053 C 
HETATM   15  C1  UNL     1      -1.342  12.797  16.588  1.00  0.00     0.021 C 
HETATM   16  C3  UNL     1      -1.047  11.635  18.759  1.00  0.00     0.022 C 
HETATM   17  C4  UNL     1      -0.171  10.777  19.656  1.00  0.00     0.084 C 
HETATM   18  C5  UNL     1       1.271  11.164  19.464  1.00  0.00     0.149 C 
HETATM   19  O1  UNL     1       2.095  11.131  20.374  1.00  0.00    -0.293 OA
HETATM   20  C32 UNL     1      -2.708  10.077  16.489  1.00  0.00     0.133 C 
HETATM   21  C31 UNL     1      -3.338   9.571  15.206  1.00  0.00     0.091 C 
HETATM   22  O9  UNL     1      -3.441  10.390  17.426  1.00  0.00    -0.297 OA
HETATM   23  C30 UNL     1      -3.120   8.346  13.058  1.00  0.00     0.019 C 
BRANCH   3  24
HETATM   24  O2  UNL     1      -2.550   7.272  16.652  1.00  0.00    -0.381 OA
HETATM   25  H19 UNL     1      -2.327   6.421  17.077  1.00  0.00     0.211 HD
ENDBRANCH   3  24
ENDBRANCH   1   3
BRANCH   1  26
HETATM   26  C16 UNL     1      -5.145   6.472  15.629  1.00  0.00     0.260 C 
BRANCH  26  27
HETATM   27  O4  UNL     1      -6.303   5.995  14.939  1.00  0.00    -0.314 OA
BRANCH  27  28
HETATM   28  C17 UNL     1      -7.167   6.980  14.558  1.00  0.00     0.259 C 
HETATM   29  O5  UNL     1      -6.875   8.166  14.474  1.00  0.00    -0.265 OA
BRANCH  28  30
HETATM   30  C18 UNL     1      -8.521   6.378  14.266  1.00  0.00     0.120 C 
BRANCH  30  31
HETATM   31  C19 UNL     1      -8.578   5.794  12.861  1.00  0.00     0.112 C 
BRANCH  31  32
HETATM   32  C20 UNL     1      -8.070   4.366  12.806  1.00  0.00     0.218 C 
HETATM   33  O6  UNL     1      -8.802   3.382  12.786  1.00  0.00    -0.274 OA
HETATM   34  N1  UNL     1      -6.695   4.296  12.734  1.00  0.00    -0.361 N 
HETATM   35  H26 UNL     1      -6.173   5.145  12.550  1.00  0.00     0.162 HD
BRANCH  34  36
HETATM   36  C21 UNL     1      -5.994   3.034  12.573  1.00  0.00     0.127 C 
BRANCH  36  37
HETATM   37  C22 UNL     1      -5.380   2.856  11.179  1.00  0.00     0.058 C 
BRANCH  37  38
HETATM   38  C23 UNL     1      -3.878   2.659  11.202  1.00  0.00    -0.054 A 
HETATM   39  C24 UNL     1      -3.338   1.378  11.411  1.00  0.00     0.010 A 
HETATM   40  C25 UNL     1      -1.954   1.174  11.406  1.00  0.00     0.040 A 
HETATM   41  C26 UNL     1      -1.112   2.254  11.186  1.00  0.00     0.098 A 
HETATM   42  C27 UNL     1      -1.639   3.527  10.982  1.00  0.00     0.099 A 
HETATM   43  C28 UNL     1      -3.010   3.740  10.993  1.00  0.00     0.046 A 
BRANCH  41  44
HETATM   44  O7  UNL     1       0.247   2.117  11.150  1.00  0.00    -0.358 OA
HETATM   45  H33 UNL     1       0.461   1.183  11.313  1.00  0.00     0.217 HD
ENDBRANCH  41  44
BRANCH  42  46
HETATM   46  O8  UNL     1      -0.802   4.580  10.748  1.00  0.00    -0.358 OA
HETATM   47  H34 UNL     1       0.094   4.195  10.826  1.00  0.00     0.217 HD
ENDBRANCH  42  46
ENDBRANCH  37  38
ENDBRANCH  36  37
ENDBRANCH  34  36
ENDBRANCH  31  32
ENDBRANCH  30  31
ENDBRANCH  28  30
ENDBRANCH  27  28
ENDBRANCH  26  27
ENDBRANCH   1  26
TORSDOF 13
ENDMDL
MODEL 2
REMARK minimizedAffinity -8.22306919
REMARK CNNscore 0.583076835
REMARK CNNaffinity 7.99484062
REMARK  13 active torsions:
REMARK  status: ('A' for Active; 'I' for Inactive)
REMARK    1  A    between atoms: C14_15  and  O2_16 
REMARK    2  A    between atoms: C14_15  and  C15_17 
REMARK    3  A    between atoms: C15_17  and  C16_19 
REMARK    4  A    between atoms: C16_19  and  O4_20 
REMARK    5  A    between atoms: O4_20  and  C17_21 
REMARK    6  A    between atoms: C17_21  and  C18_23 
REMARK    7  A    between atoms: C18_23  and  C19_24 
REMARK    8  A    between atoms: C19_24  and  C20_25 
REMARK       I    between atoms: C20_25  and  N1_27 
REMARK    9  A    between atoms: N1_27  and  C21_28 
REMARK   10  A    between atoms: C21_28  and  C22_29 
REMARK   11  A    between atoms: C22_29  and  C23_30 
REMARK   12  A    between atoms: C26_33  and  O7_34 
REMARK   13  A    between atoms: C27_35  and  O8_36 
ROOT
HETATM    1  C15 UNL     1      -6.518   3.876  13.102  1.00  0.00     0.185 C 
HETATM    2  O3  UNL     1      -6.747   2.723  12.725  1.00  0.00    -0.292 OA
ENDROOT
BRANCH   1   3
HETATM    3  C14 UNL     1      -7.580   4.704  13.863  1.00  0.00     0.128 C 
HETATM    4  C13 UNL     1      -7.376   4.610  15.381  1.00  0.00     0.047 C 
HETATM    5  C12 UNL     1      -8.248   5.738  15.913  1.00  0.00     0.009 C 
HETATM    6  C11 UNL     1      -8.058   6.894  14.914  1.00  0.00     0.002 C 
HETATM    7  C10 UNL     1      -9.301   7.793  14.707  1.00  0.00     0.003 C 
HETATM    8  C29 UNL     1      -7.514   6.248  13.594  1.00  0.00     0.005 C 
HETATM    9  C9  UNL     1      -9.807   8.356  16.051  1.00  0.00     0.010 C 
HETATM   10  C33 UNL     1     -10.418   7.090  13.869  1.00  0.00     0.072 C 
HETATM   11  C8  UNL     1     -11.045   9.235  15.884  1.00  0.00     0.035 C 
HETATM   12  C7  UNL     1     -12.087   8.429  15.155  1.00  0.00    -0.067 C 
HETATM   13  C2  UNL     1     -11.706   7.983  13.731  1.00  0.00    -0.009 C 
HETATM   14  C6  UNL     1     -13.195   8.037  15.807  1.00  0.00     0.053 C 
HETATM   15  C1  UNL     1     -11.431   9.227  12.843  1.00  0.00     0.021 C 
HETATM   16  C3  UNL     1     -12.927   7.263  13.082  1.00  0.00     0.022 C 
HETATM   17  C4  UNL     1     -13.643   6.288  14.003  1.00  0.00     0.084 C 
HETATM   18  C5  UNL     1     -14.104   7.015  15.238  1.00  0.00     0.149 C 
HETATM   19  O1  UNL     1     -15.141   6.728  15.830  1.00  0.00    -0.293 OA
HETATM   20  C32 UNL     1      -9.818   6.663  12.521  1.00  0.00     0.133 C 
HETATM   21  C31 UNL     1      -8.311   6.710  12.363  1.00  0.00     0.091 C 
HETATM   22  O9  UNL     1     -10.505   6.330  11.557  1.00  0.00    -0.297 OA
HETATM   23  C30 UNL     1      -6.055   6.733  13.397  1.00  0.00     0.019 C 
BRANCH   3  24
HETATM   24  O2  UNL     1      -8.895   4.225  13.581  1.00  0.00    -0.381 OA
HETATM   25  H19 UNL     1      -8.994   3.343  13.989  1.00  0.00     0.211 HD
ENDBRANCH   3  24
ENDBRANCH   1   3
BRANCH   1  26
HETATM   26  C16 UNL     1      -5.148   4.528  12.896  1.00  0.00     0.260 C 
BRANCH  26  27
HETATM   27  O4  UNL     1      -4.090   3.575  12.772  1.00  0.00    -0.314 OA
BRANCH  27  28
HETATM   28  C17 UNL     1      -3.771   3.265  11.482  1.00  0.00     0.259 C 
HETATM   29  O5  UNL     1      -4.344   2.419  10.809  1.00  0.00    -0.265 OA
BRANCH  28  30
HETATM   30  C18 UNL     1      -2.610   4.120  11.031  1.00  0.00     0.120 C 
BRANCH  30  31
HETATM   31  C19 UNL     1      -1.803   4.631  12.216  1.00  0.00     0.112 C 
BRANCH  31  32
HETATM   32  C20 UNL     1      -0.313   4.659  11.932  1.00  0.00     0.218 C 
HETATM   33  O6  UNL     1       0.259   3.847  11.213  1.00  0.00    -0.274 OA
HETATM   34  N1  UNL     1       0.320   5.725  12.535  1.00  0.00    -0.361 N 
HETATM   35  H26 UNL     1      -0.246   6.461  12.941  1.00  0.00     0.162 HD
BRANCH  34  36
HETATM   36  C21 UNL     1       1.728   6.007  12.320  1.00  0.00     0.127 C 
BRANCH  36  37
HETATM   37  C22 UNL     1       2.126   7.435  12.714  1.00  0.00     0.058 C 
BRANCH  37  38
HETATM   38  C23 UNL     1       3.447   7.879  12.120  1.00  0.00    -0.054 A 
HETATM   39  C24 UNL     1       3.846   9.224  12.213  1.00  0.00     0.010 A 
HETATM   40  C25 UNL     1       5.076   9.644  11.695  1.00  0.00     0.040 A 
HETATM   41  C26 UNL     1       5.908   8.715  11.089  1.00  0.00     0.098 A 
HETATM   42  C27 UNL     1       5.518   7.381  10.990  1.00  0.00     0.099 A 
HETATM   43  C28 UNL     1       4.297   6.956  11.493  1.00  0.00     0.046 A 
BRANCH  41  44
HETATM   44  O7  UNL     1       7.129   9.058  10.582  1.00  0.00    -0.358 OA
HETATM   45  H33 UNL     1       7.256  10.013  10.719  1.00  0.00     0.217 HD
ENDBRANCH  41  44
BRANCH  42  46
HETATM   46  O8  UNL     1       6.352   6.471  10.407  1.00  0.00    -0.358 OA
HETATM   47  H34 UNL     1       7.114   7.004  10.105  1.00  0.00     0.217 HD
ENDBRANCH  42  46
ENDBRANCH  37  38
ENDBRANCH  36  37
ENDBRANCH  34  36
ENDBRANCH  31  32
ENDBRANCH  30  31
ENDBRANCH  28  30
ENDBRANCH  27  28
ENDBRANCH  26  27
ENDBRANCH   1  26
TORSDOF 13
ENDMDL
MODEL 3
REMARK minimizedAffinity -9.24130058
REMARK CNNscore 0.577765226
REMARK CNNaffinity 6.27004623
REMARK  13 active torsions:
REMARK  status: ('A' for Active; 'I' for Inactive)
REMARK    1  A    between atoms: C14_15  and  O2_16 
REMARK    2  A    between atoms: C14_15  and  C15_17 
REMARK    3  A    between atoms: C15_17  and  C16_19 
REMARK    4  A    between atoms: C16_19  and  O4_20 
REMARK    5  A    between atoms: O4_20  and  C17_21 
REMARK    6  A    between atoms: C17_21  and  C18_23 
REMARK    7  A    between atoms: C18_23  and  C19_24 
REMARK    8  A    between atoms: C19_24  and  C20_25 
REMARK       I    between atoms: C20_25  and  N1_27 
REMARK    9  A    between atoms: N1_27  and  C21_28 
REMARK   10  A    between atoms: C21_28  and  C22_29 
REMARK   11  A    between atoms: C22_29  and  C23_30 
REMARK   12  A    between atoms: C26_33  and  O7_34 
REMARK   13  A    between atoms: C27_35  and  O8_36 
ROOT
HETATM    1  C15 UNL     1       1.953  10.060  16.851  1.00  0.00     0.185 C 
HETATM    2  O3  UNL     1       2.085   8.849  17.051  1.00  0.00    -0.292 OA
ENDROOT
BRANCH   1   3
HETATM    3  C14 UNL     1       2.390  11.105  17.903  1.00  0.00     0.128 C 
HETATM    4  C13 UNL     1       2.281  12.532  17.349  1.00  0.00     0.047 C 
HETATM    5  C12 UNL     1       2.393  13.394  18.598  1.00  0.00     0.009 C 
HETATM    6  C11 UNL     1       1.593  12.640  19.676  1.00  0.00     0.002 C 
HETATM    7  C10 UNL     1       2.136  12.785  21.117  1.00  0.00     0.003 C 
HETATM    8  C29 UNL     1       1.485  11.156  19.183  1.00  0.00     0.005 C 
HETATM    9  C9  UNL     1       2.258  14.270  21.517  1.00  0.00     0.010 C 
HETATM   10  C33 UNL     1       3.450  11.971  21.349  1.00  0.00     0.072 C 
HETATM   11  C8  UNL     1       2.808  14.449  22.930  1.00  0.00     0.035 C 
HETATM   12  C7  UNL     1       4.116  13.709  23.012  1.00  0.00    -0.067 C 
HETATM   13  C2  UNL     1       4.035  12.187  22.794  1.00  0.00    -0.009 C 
HETATM   14  C6  UNL     1       5.262  14.403  23.128  1.00  0.00     0.053 C 
HETATM   15  C1  UNL     1       3.116  11.547  23.870  1.00  0.00     0.021 C 
HETATM   16  C3  UNL     1       5.447  11.566  23.022  1.00  0.00     0.022 C 
HETATM   17  C4  UNL     1       6.586  12.349  22.391  1.00  0.00     0.084 C 
HETATM   18  C5  UNL     1       6.579  13.757  22.925  1.00  0.00     0.149 C 
HETATM   19  O1  UNL     1       7.607  14.404  23.102  1.00  0.00    -0.293 OA
HETATM   20  C32 UNL     1       3.175  10.498  21.012  1.00  0.00     0.133 C 
HETATM   21  C31 UNL     1       1.890  10.160  20.283  1.00  0.00     0.091 C 
HETATM   22  O9  UNL     1       3.926   9.582  21.344  1.00  0.00    -0.297 OA
HETATM   23  C30 UNL     1      -0.002  10.877  18.844  1.00  0.00     0.019 C 
BRANCH   3  24
HETATM   24  O2  UNL     1       3.750  10.902  18.287  1.00  0.00    -0.381 OA
HETATM   25  H19 UNL     1       4.320  11.129  17.526  1.00  0.00     0.211 HD
ENDBRANCH   3  24
ENDBRANCH   1   3
BRANCH   1  26
HETATM   26  C16 UNL     1       1.411  10.597  15.524  1.00  0.00     0.260 C 
BRANCH  26  27
HETATM   27  O4  UNL     1      -0.016  10.672  15.495  1.00  0.00    -0.314 OA
BRANCH  27  28
HETATM   28  C17 UNL     1      -0.612   9.637  14.833  1.00  0.00     0.259 C 
HETATM   29  O5  UNL     1      -0.496   8.458  15.140  1.00  0.00    -0.265 OA
BRANCH  28  30
HETATM   30  C18 UNL     1      -1.421  10.177  13.678  1.00  0.00     0.120 C 
BRANCH  30  31
HETATM   31  C19 UNL     1      -1.636   9.117  12.606  1.00  0.00     0.112 C 
BRANCH  31  32
HETATM   32  C20 UNL     1      -2.804   8.204  12.921  1.00  0.00     0.218 C 
HETATM   33  O6  UNL     1      -3.979   8.553  12.862  1.00  0.00    -0.274 OA
HETATM   34  N1  UNL     1      -2.404   6.922  13.237  1.00  0.00    -0.361 N 
HETATM   35  H26 UNL     1      -1.441   6.657  13.066  1.00  0.00     0.162 HD
BRANCH  34  36
HETATM   36  C21 UNL     1      -3.357   5.854  13.476  1.00  0.00     0.127 C 
BRANCH  36  37
HETATM   37  C22 UNL     1      -3.494   4.888  12.293  1.00  0.00     0.058 C 
BRANCH  37  38
HETATM   38  C23 UNL     1      -4.756   4.051  12.339  1.00  0.00    -0.054 A 
HETATM   39  C24 UNL     1      -4.873   2.904  11.535  1.00  0.00     0.010 A 
HETATM   40  C25 UNL     1      -6.019   2.105  11.587  1.00  0.00     0.040 A 
HETATM   41  C26 UNL     1      -7.047   2.453  12.451  1.00  0.00     0.098 A 
HETATM   42  C27 UNL     1      -6.941   3.590  13.248  1.00  0.00     0.099 A 
HETATM   43  C28 UNL     1      -5.811   4.394  13.197  1.00  0.00     0.046 A 
BRANCH  41  44
HETATM   44  O7  UNL     1      -8.184   1.704  12.562  1.00  0.00    -0.358 OA
HETATM   45  H33 UNL     1      -8.115   0.955  11.946  1.00  0.00     0.217 HD
ENDBRANCH  41  44
BRANCH  42  46
HETATM   46  O8  UNL     1      -7.952   3.914  14.107  1.00  0.00    -0.358 OA
HETATM   47  H34 UNL     1      -8.637   3.237  13.938  1.00  0.00     0.217 HD
ENDBRANCH  42  46
ENDBRANCH  37  38
ENDBRANCH  36  37
ENDBRANCH  34  36
ENDBRANCH  31  32
ENDBRANCH  30  31
ENDBRANCH  28  30
ENDBRANCH  27  28
ENDBRANCH  26  27
ENDBRANCH   1  26
TORSDOF 13
ENDMDL
MODEL 4
REMARK minimizedAffinity -8.58076286
REMARK CNNscore 0.554831088
REMARK CNNaffinity 6.4281559
REMARK  13 active torsions:
REMARK  status: ('A' for Active; 'I' for Inactive)
REMARK    1  A    between atoms: C14_15  and  O2_16 
REMARK    2  A    between atoms: C14_15  and  C15_17 
REMARK    3  A    between atoms: C15_17  and  C16_19 
REMARK    4  A    between atoms: C16_19  and  O4_20 
REMARK    5  A    between atoms: O4_20  and  C17_21 
REMARK    6  A    between atoms: C17_21  and  C18_23 
REMARK    7  A    between atoms: C18_23  and  C19_24 
REMARK    8  A    between atoms: C19_24  and  C20_25 
REMARK       I    between atoms: C20_25  and  N1_27 
REMARK    9  A    between atoms: N1_27  and  C21_28 
REMARK   10  A    between atoms: C21_28  and  C22_29 
REMARK   11  A    between atoms: C22_29  and  C23_30 
REMARK   12  A    between atoms: C26_33  and  O7_34 
REMARK   13  A    between atoms: C27_35  and  O8_36 
ROOT
HETATM    1  C15 UNL     1       0.350  11.658  16.762  1.00  0.00     0.185 C 
HETATM    2  O3  UNL     1      -0.293  12.335  15.953  1.00  0.00    -0.292 OA
ENDROOT
BRANCH   1   3
HETATM    3  C14 UNL     1       1.170  12.317  17.895  1.00  0.00     0.128 C 
HETATM    4  C13 UNL     1       1.271  13.836  17.699  1.00  0.00     0.047 C 
HETATM    5  C12 UNL     1       1.773  14.323  19.050  1.00  0.00     0.009 C 
HETATM    6  C11 UNL     1       1.029  13.462  20.087  1.00  0.00     0.002 C 
HETATM    7  C10 UNL     1       1.829  13.146  21.373  1.00  0.00     0.003 C 
HETATM    8  C29 UNL     1       0.529  12.189  19.321  1.00  0.00     0.005 C 
HETATM    9  C9  UNL     1       2.327  14.440  22.047  1.00  0.00     0.010 C 
HETATM   10  C33 UNL     1       2.962  12.096  21.133  1.00  0.00     0.072 C 
HETATM   11  C8  UNL     1       3.136  14.163  23.313  1.00  0.00     0.035 C 
HETATM   12  C7  UNL     1       4.253  13.222  22.948  1.00  0.00    -0.067 C 
HETATM   13  C2  UNL     1       3.817  11.840  22.430  1.00  0.00    -0.009 C 
HETATM   14  C6  UNL     1       5.522  13.667  22.961  1.00  0.00     0.053 C 
HETATM   15  C1  UNL     1       2.982  11.108  23.514  1.00  0.00     0.021 C 
HETATM   16  C3  UNL     1       5.084  10.959  22.206  1.00  0.00     0.022 C 
HETATM   17  C4  UNL     1       6.238  11.679  21.529  1.00  0.00     0.084 C 
HETATM   18  C5  UNL     1       6.619  12.887  22.342  1.00  0.00     0.149 C 
HETATM   19  O1  UNL     1       7.775  13.291  22.429  1.00  0.00    -0.293 OA
HETATM   20  C32 UNL     1       2.329  10.822  20.554  1.00  0.00     0.133 C 
HETATM   21  C31 UNL     1       0.896  10.894  20.065  1.00  0.00     0.091 C 
HETATM   22  O9  UNL     1       2.916   9.742  20.509  1.00  0.00    -0.297 OA
HETATM   23  C30 UNL     1      -1.019  12.253  19.259  1.00  0.00     0.019 C 
BRANCH   3  24
HETATM   24  O2  UNL     1       2.502  11.804  17.922  1.00  0.00    -0.381 OA
HETATM   25  H19 UNL     1       2.969  12.120  17.123  1.00  0.00     0.211 HD
ENDBRANCH   3  24
ENDBRANCH   1   3
BRANCH   1  26
HETATM   26  C16 UNL     1       0.318  10.128  16.730  1.00  0.00     0.260 C 
BRANCH  26  27
HETATM   27  O4  UNL     1       1.570   9.537  17.082  1.00  0.00    -0.314 OA
BRANCH  27  28
HETATM   28  C17 UNL     1       1.960   8.527  16.251  1.00  0.00     0.259 C 
HETATM   29  O5  UNL     1       3.051   8.463  15.699  1.00  0.00    -0.265 OA
BRANCH  28  30
HETATM   30  C18 UNL     1       0.842   7.520  16.122  1.00  0.00     0.120 C 
BRANCH  30  31
HETATM   31  C19 UNL     1      -0.141   7.918  15.030  1.00  0.00     0.112 C 
BRANCH  31  32
HETATM   32  C20 UNL     1      -1.487   7.237  15.186  1.00  0.00     0.218 C 
HETATM   33  O6  UNL     1      -2.414   7.701  15.842  1.00  0.00    -0.274 OA
HETATM   34  N1  UNL     1      -1.571   6.060  14.472  1.00  0.00    -0.361 N 
HETATM   35  H26 UNL     1      -0.845   5.848  13.797  1.00  0.00     0.162 HD
BRANCH  34  36
HETATM   36  C21 UNL     1      -2.800   5.291  14.395  1.00  0.00     0.127 C 
BRANCH  36  37
HETATM   37  C22 UNL     1      -3.454   5.332  13.008  1.00  0.00     0.058 C 
BRANCH  37  38
HETATM   38  C23 UNL     1      -4.845   4.735  12.979  1.00  0.00    -0.054 A 
HETATM   39  C24 UNL     1      -5.105   3.588  12.208  1.00  0.00     0.010 A 
HETATM   40  C25 UNL     1      -6.377   3.007  12.193  1.00  0.00     0.040 A 
HETATM   41  C26 UNL     1      -7.388   3.573  12.956  1.00  0.00     0.098 A 
HETATM   42  C27 UNL     1      -7.139   4.710  13.720  1.00  0.00     0.099 A 
HETATM   43  C28 UNL     1      -5.883   5.299  13.734  1.00  0.00     0.046 A 
BRANCH  41  44
HETATM   44  O7  UNL     1      -8.646   3.041  13.000  1.00  0.00    -0.358 OA
HETATM   45  H33 UNL     1      -8.666   2.263  12.418  1.00  0.00     0.217 HD
ENDBRANCH  41  44
BRANCH  42  46
HETATM   46  O8  UNL     1      -8.137   5.249  14.481  1.00  0.00    -0.358 OA
HETATM   47  H34 UNL     1      -8.918   4.696  14.279  1.00  0.00     0.217 HD
ENDBRANCH  42  46
ENDBRANCH  37  38
ENDBRANCH  36  37
ENDBRANCH  34  36
ENDBRANCH  31  32
ENDBRANCH  30  31
ENDBRANCH  28  30
ENDBRANCH  27  28
ENDBRANCH  26  27
ENDBRANCH   1  26
TORSDOF 13
ENDMDL
MODEL 5
REMARK minimizedAffinity -8.17943478
REMARK CNNscore 0.424769223
REMARK CNNaffinity 6.56227446
REMARK  13 active torsions:
REMARK  status: ('A' for Active; 'I' for Inactive)
REMARK    1  A    between atoms: C14_15  and  O2_16 
REMARK    2  A    between atoms: C14_15  and  C15_17 
REMARK    3  A    between atoms: C15_17  and  C16_19 
REMARK    4  A    between atoms: C16_19  and  O4_20 
REMARK    5  A    between atoms: O4_20  and  C17_21 
REMARK    6  A    between atoms: C17_21  and  C18_23 
REMARK    7  A    between atoms: C18_23  and  C19_24 
REMARK    8  A    between atoms: C19_24  and  C20_25 
REMARK       I    between atoms: C20_25  and  N1_27 
REMARK    9  A    between atoms: N1_27  and  C21_28 
REMARK   10  A    between atoms: C21_28  and  C22_29 
REMARK   11  A    between atoms: C22_29  and  C23_30 
REMARK   12  A    between atoms: C26_33  and  O7_34 
REMARK   13  A    between atoms: C27_35  and  O8_36 
ROOT
HETATM    1  C15 UNL     1      -1.545   7.878  12.930  1.00  0.00     0.185 C 
HETATM    2  O3  UNL     1      -2.000   6.838  12.445  1.00  0.00    -0.292 OA
ENDROOT
BRANCH   1   3
HETATM    3  C14 UNL     1      -2.303   8.656  14.031  1.00  0.00     0.128 C 
HETATM    4  C13 UNL     1      -3.309   7.754  14.758  1.00  0.00     0.047 C 
HETATM    5  C12 UNL     1      -3.668   8.568  15.993  1.00  0.00     0.009 C 
HETATM    6  C11 UNL     1      -2.345   9.214  16.443  1.00  0.00     0.002 C 
HETATM    7  C10 UNL     1      -2.485  10.613  17.089  1.00  0.00     0.003 C 
HETATM    8  C29 UNL     1      -1.395   9.181  15.198  1.00  0.00     0.005 C 
HETATM    9  C9  UNL     1      -3.468  10.579  18.277  1.00  0.00     0.010 C 
HETATM   10  C33 UNL     1      -2.814  11.727  16.044  1.00  0.00     0.072 C 
HETATM   11  C8  UNL     1      -3.642  11.950  18.928  1.00  0.00     0.035 C 
HETATM   12  C7  UNL     1      -4.052  12.921  17.853  1.00  0.00    -0.067 C 
HETATM   13  C2  UNL     1      -3.030  13.131  16.721  1.00  0.00    -0.009 C 
HETATM   14  C6  UNL     1      -5.297  13.429  17.862  1.00  0.00     0.053 C 
HETATM   15  C1  UNL     1      -1.700  13.680  17.305  1.00  0.00     0.021 C 
HETATM   16  C3  UNL     1      -3.559  14.240  15.761  1.00  0.00     0.022 C 
HETATM   17  C4  UNL     1      -5.035  14.124  15.420  1.00  0.00     0.084 C 
HETATM   18  C5  UNL     1      -5.844  14.150  16.689  1.00  0.00     0.149 C 
HETATM   19  O1  UNL     1      -6.960  14.657  16.755  1.00  0.00    -0.293 OA
HETATM   20  C32 UNL     1      -1.717  11.726  14.969  1.00  0.00     0.133 C 
HETATM   21  C31 UNL     1      -0.756  10.554  14.931  1.00  0.00     0.091 C 
HETATM   22  O9  UNL     1      -1.558  12.648  14.172  1.00  0.00    -0.297 OA
HETATM   23  C30 UNL     1      -0.239   8.196  15.510  1.00  0.00     0.019 C 
BRANCH   3  24
HETATM   24  O2  UNL     1      -3.037   9.744  13.470  1.00  0.00    -0.381 OA
HETATM   25  H19 UNL     1      -3.771   9.377  12.938  1.00  0.00     0.211 HD
ENDBRANCH   3  24
ENDBRANCH   1   3
BRANCH   1  26
HETATM   26  C16 UNL     1      -0.174   8.420  12.518  1.00  0.00     0.260 C 
BRANCH  26  27
HETATM   27  O4  UNL     1       0.068   8.312  11.113  1.00  0.00    -0.314 OA
BRANCH  27  28
HETATM   28  C17 UNL     1       1.212   7.637  10.798  1.00  0.00     0.259 C 
HETATM   29  O5  UNL     1       2.340   8.104  10.882  1.00  0.00    -0.265 OA
BRANCH  28  30
HETATM   30  C18 UNL     1       0.862   6.244  10.330  1.00  0.00     0.120 C 
BRANCH  30  31
HETATM   31  C19 UNL     1       1.342   5.189  11.317  1.00  0.00     0.112 C 
BRANCH  31  32
HETATM   32  C20 UNL     1       0.205   4.582  12.114  1.00  0.00     0.218 C 
HETATM   33  O6  UNL     1       0.121   4.639  13.336  1.00  0.00    -0.274 OA
HETATM   34  N1  UNL     1      -0.751   3.996  11.310  1.00  0.00    -0.361 N 
HETATM   35  H26 UNL     1      -0.717   4.165  10.311  1.00  0.00     0.162 HD
BRANCH  34  36
HETATM   36  C21 UNL     1      -1.978   3.439  11.851  1.00  0.00     0.127 C 
BRANCH  36  37
HETATM   37  C22 UNL     1      -3.187   3.625  10.926  1.00  0.00     0.058 C 
BRANCH  37  38
HETATM   38  C23 UNL     1      -4.516   3.552  11.648  1.00  0.00    -0.054 A 
HETATM   39  C24 UNL     1      -5.414   2.506  11.370  1.00  0.00     0.010 A 
HETATM   40  C25 UNL     1      -6.633   2.407  12.049  1.00  0.00     0.040 A 
HETATM   41  C26 UNL     1      -6.949   3.355  13.011  1.00  0.00     0.098 A 
HETATM   42  C27 UNL     1      -6.067   4.396  13.289  1.00  0.00     0.099 A 
HETATM   43  C28 UNL     1      -4.859   4.507  12.615  1.00  0.00     0.046 A 
BRANCH  41  44
HETATM   44  O7  UNL     1      -8.115   3.304  13.722  1.00  0.00    -0.358 OA
HETATM   45  H33 UNL     1      -8.623   2.534  13.414  1.00  0.00     0.217 HD
ENDBRANCH  41  44
BRANCH  42  46
HETATM   46  O8  UNL     1      -6.381   5.314  14.251  1.00  0.00    -0.358 OA
HETATM   47  H34 UNL     1      -7.275   5.053  14.548  1.00  0.00     0.217 HD
ENDBRANCH  42  46
ENDBRANCH  37  38
ENDBRANCH  36  37
ENDBRANCH  34  36
ENDBRANCH  31  32
ENDBRANCH  30  31
ENDBRANCH  28  30
ENDBRANCH  27  28
ENDBRANCH  26  27
ENDBRANCH   1  26
TORSDOF 13
ENDMDL
MODEL 6
REMARK minimizedAffinity -9.49117088
REMARK CNNscore 0.410843194
REMARK CNNaffinity 6.29565811
REMARK  13 active torsions:
REMARK  status: ('A' for Active; 'I' for Inactive)
REMARK    1  A    between atoms: C14_15  and  O2_16 
REMARK    2  A    between atoms: C14_15  and  C15_17 
REMARK    3  A    between atoms: C15_17  and  C16_19 
REMARK    4  A    between atoms: C16_19  and  O4_20 
REMARK    5  A    between atoms: O4_20  and  C17_21 
REMARK    6  A    between atoms: C17_21  and  C18_23 
REMARK    7  A    between atoms: C18_23  and  C19_24 
REMARK    8  A    between atoms: C19_24  and  C20_25 
REMARK       I    between atoms: C20_25  and  N1_27 
REMARK    9  A    between atoms: N1_27  and  C21_28 
REMARK   10  A    between atoms: C21_28  and  C22_29 
REMARK   11  A    between atoms: C22_29  and  C23_30 
REMARK   12  A    between atoms: C26_33  and  O7_34 
REMARK   13  A    between atoms: C27_35  and  O8_36 
ROOT
HETATM    1  C15 UNL     1      -0.132   5.947  11.727  1.00  0.00     0.185 C 
HETATM    2  O3  UNL     1      -0.674   5.361  10.785  1.00  0.00    -0.292 OA
ENDROOT
BRANCH   1   3
HETATM    3  C14 UNL     1       1.373   6.305  11.698  1.00  0.00     0.128 C 
HETATM    4  C13 UNL     1       2.153   5.357  10.776  1.00  0.00     0.047 C 
HETATM    5  C12 UNL     1       3.485   6.072  10.600  1.00  0.00     0.009 C 
HETATM    6  C11 UNL     1       3.125   7.564  10.483  1.00  0.00     0.002 C 
HETATM    7  C10 UNL     1       4.171   8.539  11.073  1.00  0.00     0.003 C 
HETATM    8  C29 UNL     1       1.692   7.719  11.100  1.00  0.00     0.005 C 
HETATM    9  C9  UNL     1       5.563   8.299  10.454  1.00  0.00     0.010 C 
HETATM   10  C33 UNL     1       4.179   8.538  12.637  1.00  0.00     0.072 C 
HETATM   11  C8  UNL     1       6.625   9.236  11.028  1.00  0.00     0.035 C 
HETATM   12  C7  UNL     1       6.613   9.082  12.526  1.00  0.00    -0.067 C 
HETATM   13  C2  UNL     1       5.299   9.475  13.225  1.00  0.00    -0.009 C 
HETATM   14  C6  UNL     1       7.659   8.501  13.139  1.00  0.00     0.053 C 
HETATM   15  C1  UNL     1       4.979  10.969  12.947  1.00  0.00     0.021 C 
HETATM   16  C3  UNL     1       5.492   9.364  14.768  1.00  0.00     0.022 C 
HETATM   17  C4  UNL     1       6.232   8.116  15.219  1.00  0.00     0.084 C 
HETATM   18  C5  UNL     1       7.580   8.067  14.553  1.00  0.00     0.149 C 
HETATM   19  O1  UNL     1       8.575   7.599  15.100  1.00  0.00    -0.293 OA
HETATM   20  C32 UNL     1       2.766   8.885  13.130  1.00  0.00     0.133 C 
HETATM   21  C31 UNL     1       1.633   8.866  12.123  1.00  0.00     0.091 C 
HETATM   22  O9  UNL     1       2.524   9.216  14.289  1.00  0.00    -0.297 OA
HETATM   23  C30 UNL     1       0.719   8.087   9.950  1.00  0.00     0.019 C 
BRANCH   3  24
HETATM   24  O2  UNL     1       1.946   6.196  13.001  1.00  0.00    -0.381 OA
HETATM   25  H19 UNL     1       1.966   5.250  13.249  1.00  0.00     0.211 HD
ENDBRANCH   3  24
ENDBRANCH   1   3
BRANCH   1  26
HETATM   26  C16 UNL     1      -0.931   6.411  12.948  1.00  0.00     0.260 C 
BRANCH  26  27
HETATM   27  O4  UNL     1      -1.298   7.790  12.882  1.00  0.00    -0.314 OA
BRANCH  27  28
HETATM   28  C17 UNL     1      -2.495   8.075  13.473  1.00  0.00     0.259 C 
HETATM   29  O5  UNL     1      -3.589   7.823  12.985  1.00  0.00    -0.265 OA
BRANCH  28  30
HETATM   30  C18 UNL     1      -2.253   8.744  14.805  1.00  0.00     0.120 C 
BRANCH  30  31
HETATM   31  C19 UNL     1      -2.493   7.784  15.962  1.00  0.00     0.112 C 
BRANCH  31  32
HETATM   32  C20 UNL     1      -3.483   6.690  15.610  1.00  0.00     0.218 C 
HETATM   33  O6  UNL     1      -3.158   5.548  15.306  1.00  0.00    -0.274 OA
HETATM   34  N1  UNL     1      -4.793   7.109  15.715  1.00  0.00    -0.361 N 
HETATM   35  H26 UNL     1      -4.986   7.996  16.165  1.00  0.00     0.162 HD
BRANCH  34  36
HETATM   36  C21 UNL     1      -5.910   6.202  15.522  1.00  0.00     0.127 C 
BRANCH  36  37
HETATM   37  C22 UNL     1      -6.500   6.259  14.107  1.00  0.00     0.058 C 
BRANCH  37  38
HETATM   38  C23 UNL     1      -6.323   4.972  13.328  1.00  0.00    -0.054 A 
HETATM   39  C24 UNL     1      -5.128   4.729  12.629  1.00  0.00     0.010 A 
HETATM   40  C25 UNL     1      -4.938   3.533  11.928  1.00  0.00     0.040 A 
HETATM   41  C26 UNL     1      -5.945   2.579  11.933  1.00  0.00     0.098 A 
HETATM   42  C27 UNL     1      -7.132   2.814  12.620  1.00  0.00     0.099 A 
HETATM   43  C28 UNL     1      -7.334   4.000  13.311  1.00  0.00     0.046 A 
BRANCH  41  44
HETATM   44  O7  UNL     1      -5.812   1.384  11.285  1.00  0.00    -0.358 OA
HETATM   45  H33 UNL     1      -4.941   1.369  10.852  1.00  0.00     0.217 HD
ENDBRANCH  41  44
BRANCH  42  46
HETATM   46  O8  UNL     1      -8.110   1.860  12.633  1.00  0.00    -0.358 OA
HETATM   47  H34 UNL     1      -7.760   1.150  12.060  1.00  0.00     0.217 HD
ENDBRANCH  42  46
ENDBRANCH  37  38
ENDBRANCH  36  37
ENDBRANCH  34  36
ENDBRANCH  31  32
ENDBRANCH  30  31
ENDBRANCH  28  30
ENDBRANCH  27  28
ENDBRANCH  26  27
ENDBRANCH   1  26
TORSDOF 13
ENDMDL
MODEL 7
REMARK minimizedAffinity -8.12056923
REMARK CNNscore 0.352854967
REMARK CNNaffinity 6.85767221
REMARK  13 active torsions:
REMARK  status: ('A' for Active; 'I' for Inactive)
REMARK    1  A    between atoms: C14_15  and  O2_16 
REMARK    2  A    between atoms: C14_15  and  C15_17 
REMARK    3  A    between atoms: C15_17  and  C16_19 
REMARK    4  A    between atoms: C16_19  and  O4_20 
REMARK    5  A    between atoms: O4_20  and  C17_21 
REMARK    6  A    between atoms: C17_21  and  C18_23 
REMARK    7  A    between atoms: C18_23  and  C19_24 
REMARK    8  A    between atoms: C19_24  and  C20_25 
REMARK       I    between atoms: C20_25  and  N1_27 
REMARK    9  A    between atoms: N1_27  and  C21_28 
REMARK   10  A    between atoms: C21_28  and  C22_29 
REMARK   11  A    between atoms: C22_29  and  C23_30 
REMARK   12  A    between atoms: C26_33  and  O7_34 
REMARK   13  A    between atoms: C27_35  and  O8_36 
ROOT
HETATM    1  C15 UNL     1      -4.328   2.117  11.816  1.00  0.00     0.185 C 
HETATM    2  O3  UNL     1      -4.276   0.902  11.603  1.00  0.00    -0.292 OA
ENDROOT
BRANCH   1   3
HETATM    3  C14 UNL     1      -3.049   2.949  12.065  1.00  0.00     0.128 C 
HETATM    4  C13 UNL     1      -1.785   2.128  11.776  1.00  0.00     0.047 C 
HETATM    5  C12 UNL     1      -0.693   3.187  11.721  1.00  0.00     0.009 C 
HETATM    6  C11 UNL     1      -1.336   4.384  10.998  1.00  0.00     0.002 C 
HETATM    7  C10 UNL     1      -0.841   5.774  11.464  1.00  0.00     0.003 C 
HETATM    8  C29 UNL     1      -2.886   4.188  11.117  1.00  0.00     0.005 C 
HETATM    9  C9  UNL     1       0.694   5.879  11.362  1.00  0.00     0.010 C 
HETATM   10  C33 UNL     1      -1.397   6.170  12.870  1.00  0.00     0.072 C 
HETATM   11  C8  UNL     1       1.218   7.235  11.831  1.00  0.00     0.035 C 
HETATM   12  C7  UNL     1       0.704   7.469  13.227  1.00  0.00    -0.067 C 
HETATM   13  C2  UNL     1      -0.827   7.550  13.367  1.00  0.00    -0.009 C 
HETATM   14  C6  UNL     1       1.566   7.456  14.259  1.00  0.00     0.053 C 
HETATM   15  C1  UNL     1      -1.375   8.722  12.509  1.00  0.00     0.021 C 
HETATM   16  C3  UNL     1      -1.182   7.904  14.843  1.00  0.00     0.022 C 
HETATM   17  C4  UNL     1      -0.378   7.142  15.883  1.00  0.00     0.084 C 
HETATM   18  C5  UNL     1       1.089   7.392  15.660  1.00  0.00     0.149 C 
HETATM   19  O1  UNL     1       1.901   7.448  16.580  1.00  0.00    -0.293 OA
HETATM   20  C32 UNL     1      -2.932   6.123  12.817  1.00  0.00     0.133 C 
HETATM   21  C31 UNL     1      -3.585   5.463  11.618  1.00  0.00     0.091 C 
HETATM   22  O9  UNL     1      -3.649   6.631  13.677  1.00  0.00    -0.297 OA
HETATM   23  C30 UNL     1      -3.437   3.898   9.697  1.00  0.00     0.019 C 
BRANCH   3  24
HETATM   24  O2  UNL     1      -2.976   3.375  13.425  1.00  0.00    -0.381 OA
HETATM   25  H19 UNL     1      -2.819   2.589  13.985  1.00  0.00     0.211 HD
ENDBRANCH   3  24
ENDBRANCH   1   3
BRANCH   1  26
HETATM   26  C16 UNL     1      -5.655   2.880  11.781  1.00  0.00     0.260 C 
BRANCH  26  27
HETATM   27  O4  UNL     1      -5.996   3.463  13.041  1.00  0.00    -0.314 OA
BRANCH  27  28
HETATM   28  C17 UNL     1      -7.335   3.662  13.217  1.00  0.00     0.259 C 
HETATM   29  O5  UNL     1      -8.182   2.782  13.146  1.00  0.00    -0.265 OA
BRANCH  28  30
HETATM   30  C18 UNL     1      -7.594   5.122  13.503  1.00  0.00     0.120 C 
BRANCH  30  31
HETATM   31  C19 UNL     1      -7.580   5.406  14.998  1.00  0.00     0.112 C 
BRANCH  31  32
HETATM   32  C20 UNL     1      -8.691   6.349  15.418  1.00  0.00     0.218 C 
HETATM   33  O6  UNL     1      -8.632   7.077  16.404  1.00  0.00    -0.274 OA
HETATM   34  N1  UNL     1      -9.758   6.333  14.545  1.00  0.00    -0.361 N 
HETATM   35  H26 UNL     1      -9.649   5.864  13.652  1.00  0.00     0.162 HD
BRANCH  34  36
HETATM   36  C21 UNL     1     -10.891   7.228  14.694  1.00  0.00     0.127 C 
BRANCH  36  37
HETATM   37  C22 UNL     1     -11.674   7.437  13.391  1.00  0.00     0.058 C 
BRANCH  37  38
HETATM   38  C23 UNL     1     -13.099   6.927  13.456  1.00  0.00    -0.054 A 
HETATM   39  C24 UNL     1     -13.471   5.993  14.439  1.00  0.00     0.010 A 
HETATM   40  C25 UNL     1     -14.789   5.535  14.530  1.00  0.00     0.040 A 
HETATM   41  C26 UNL     1     -15.736   6.018  13.639  1.00  0.00     0.098 A 
HETATM   42  C27 UNL     1     -15.375   6.941  12.661  1.00  0.00     0.099 A 
HETATM   43  C28 UNL     1     -14.068   7.395  12.557  1.00  0.00     0.046 A 
BRANCH  41  44
HETATM   44  O7  UNL     1     -17.044   5.625  13.689  1.00  0.00    -0.358 OA
HETATM   45  H33 UNL     1     -17.139   4.981  14.412  1.00  0.00     0.217 HD
ENDBRANCH  41  44
BRANCH  42  46
HETATM   46  O8  UNL     1     -16.319   7.424  11.800  1.00  0.00    -0.358 OA
HETATM   47  H34 UNL     1     -17.133   6.938  12.041  1.00  0.00     0.217 HD
ENDBRANCH  42  46
ENDBRANCH  37  38
ENDBRANCH  36  37
ENDBRANCH  34  36
ENDBRANCH  31  32
ENDBRANCH  30  31
ENDBRANCH  28  30
ENDBRANCH  27  28
ENDBRANCH  26  27
ENDBRANCH   1  26
TORSDOF 13
ENDMDL
MODEL 8
REMARK minimizedAffinity -8.30396461
REMARK CNNscore 0.351992965
REMARK CNNaffinity 6.10576773
REMARK  13 active torsions:
REMARK  status: ('A' for Active; 'I' for Inactive)
REMARK    1  A    between atoms: C14_15  and  O2_16 
REMARK    2  A    between atoms: C14_15  and  C15_17 
REMARK    3  A    between atoms: C15_17  and  C16_19 
REMARK    4  A    between atoms: C16_19  and  O4_20 
REMARK    5  A    between atoms: O4_20  and  C17_21 
REMARK    6  A    between atoms: C17_21  and  C18_23 
REMARK    7  A    between atoms: C18_23  and  C19_24 
REMARK    8  A    between atoms: C19_24  and  C20_25 
REMARK       I    between atoms: C20_25  and  N1_27 
REMARK    9  A    between atoms: N1_27  and  C21_28 
REMARK   10  A    between atoms: C21_28  and  C22_29 
REMARK   11  A    between atoms: C22_29  and  C23_30 
REMARK   12  A    between atoms: C26_33  and  O7_34 
REMARK   13  A    between atoms: C27_35  and  O8_36 
ROOT
HETATM    1  C15 UNL     1       0.925  10.571  16.998  1.00  0.00     0.185 C 
HETATM    2  O3  UNL     1       0.752   9.365  17.194  1.00  0.00    -0.292 OA
ENDROOT
BRANCH   1   3
HETATM    3  C14 UNL     1       1.634  11.466  18.041  1.00  0.00     0.128 C 
HETATM    4  C13 UNL     1       1.784  12.905  17.530  1.00  0.00     0.047 C 
HETATM    5  C12 UNL     1       2.150  13.679  18.788  1.00  0.00     0.009 C 
HETATM    6  C11 UNL     1       1.283  13.063  19.901  1.00  0.00     0.002 C 
HETATM    7  C10 UNL     1       1.936  13.040  21.304  1.00  0.00     0.003 C 
HETATM    8  C29 UNL     1       0.842  11.651  19.383  1.00  0.00     0.005 C 
HETATM    9  C9  UNL     1       2.385  14.453  21.729  1.00  0.00     0.010 C 
HETATM   10  C33 UNL     1       3.067  11.968  21.424  1.00  0.00     0.072 C 
HETATM   11  C8  UNL     1       3.049  14.464  23.104  1.00  0.00     0.035 C 
HETATM   12  C7  UNL     1       4.181  13.471  23.076  1.00  0.00    -0.067 C 
HETATM   13  C2  UNL     1       3.775  12.006  22.829  1.00  0.00    -0.009 C 
HETATM   14  C6  UNL     1       5.450  13.913  23.128  1.00  0.00     0.053 C 
HETATM   15  C1  UNL     1       2.815  11.527  23.951  1.00  0.00     0.021 C 
HETATM   16  C3  UNL     1       5.041  11.104  22.941  1.00  0.00     0.022 C 
HETATM   17  C4  UNL     1       6.274  11.662  22.251  1.00  0.00     0.084 C 
HETATM   18  C5  UNL     1       6.590  13.020  22.817  1.00  0.00     0.149 C 
HETATM   19  O1  UNL     1       7.739  13.439  22.937  1.00  0.00    -0.293 OA
HETATM   20  C32 UNL     1       2.474  10.595  21.072  1.00  0.00     0.133 C 
HETATM   21  C31 UNL     1       1.103  10.553  20.427  1.00  0.00     0.091 C 
HETATM   22  O9  UNL     1       3.042   9.535  21.328  1.00  0.00    -0.297 OA
HETATM   23  C30 UNL     1      -0.689  11.693  19.142  1.00  0.00     0.019 C 
BRANCH   3  24
HETATM   24  O2  UNL     1       2.945  10.977  18.323  1.00  0.00    -0.381 OA
HETATM   25  H19 UNL     1       3.499  11.111  17.530  1.00  0.00     0.211 HD
ENDBRANCH   3  24
ENDBRANCH   1   3
BRANCH   1  26
HETATM   26  C16 UNL     1       0.507  11.237  15.684  1.00  0.00     0.260 C 
BRANCH  26  27
HETATM   27  O4  UNL     1      -0.718  11.964  15.792  1.00  0.00    -0.314 OA
BRANCH  27  28
HETATM   28  C17 UNL     1      -1.529  11.851  14.700  1.00  0.00     0.259 C 
HETATM   29  O5  UNL     1      -2.135  12.782  14.185  1.00  0.00    -0.265 OA
BRANCH  28  30
HETATM   30  C18 UNL     1      -1.560  10.412  14.242  1.00  0.00     0.120 C 
BRANCH  30  31
HETATM   31  C19 UNL     1      -2.498   9.576  15.100  1.00  0.00     0.112 C 
BRANCH  31  32
HETATM   32  C20 UNL     1      -2.145   8.101  15.077  1.00  0.00     0.218 C 
HETATM   33  O6  UNL     1      -2.563   7.286  15.892  1.00  0.00    -0.274 OA
HETATM   34  N1  UNL     1      -1.337   7.768  14.010  1.00  0.00    -0.361 N 
HETATM   35  H26 UNL     1      -1.202   8.448  13.270  1.00  0.00     0.162 HD
BRANCH  34  36
HETATM   36  C21 UNL     1      -0.955   6.395  13.731  1.00  0.00     0.127 C 
BRANCH  36  37
HETATM   37  C22 UNL     1      -1.966   5.367  14.254  1.00  0.00     0.058 C 
BRANCH  37  38
HETATM   38  C23 UNL     1      -2.744   4.673  13.155  1.00  0.00    -0.054 A 
HETATM   39  C24 UNL     1      -4.148   4.622  13.209  1.00  0.00     0.010 A 
HETATM   40  C25 UNL     1      -4.883   4.010  12.188  1.00  0.00     0.040 A 
HETATM   41  C26 UNL     1      -4.209   3.455  11.110  1.00  0.00     0.098 A 
HETATM   42  C27 UNL     1      -2.819   3.499  11.050  1.00  0.00     0.099 A 
HETATM   43  C28 UNL     1      -2.081   4.096  12.063  1.00  0.00     0.046 A 
BRANCH  41  44
HETATM   44  O7  UNL     1      -4.870   2.861  10.072  1.00  0.00    -0.358 OA
HETATM   45  H33 UNL     1      -5.824   2.902  10.257  1.00  0.00     0.217 HD
ENDBRANCH  41  44
BRANCH  42  46
HETATM   46  O8  UNL     1      -2.167   2.964   9.976  1.00  0.00    -0.358 OA
HETATM   47  H34 UNL     1      -2.881   2.578   9.431  1.00  0.00     0.217 HD
ENDBRANCH  42  46
ENDBRANCH  37  38
ENDBRANCH  36  37
ENDBRANCH  34  36
ENDBRANCH  31  32
ENDBRANCH  30  31
ENDBRANCH  28  30
ENDBRANCH  27  28
ENDBRANCH  26  27
ENDBRANCH   1  26
TORSDOF 13
ENDMDL
MODEL 9
REMARK minimizedAffinity -8.26142216
REMARK CNNscore 0.342291892
REMARK CNNaffinity 6.53877115
REMARK  13 active torsions:
REMARK  status: ('A' for Active; 'I' for Inactive)
REMARK    1  A    between atoms: C14_15  and  O2_16 
REMARK    2  A    between atoms: C14_15  and  C15_17 
REMARK    3  A    between atoms: C15_17  and  C16_19 
REMARK    4  A    between atoms: C16_19  and  O4_20 
REMARK    5  A    between atoms: O4_20  and  C17_21 
REMARK    6  A    between atoms: C17_21  and  C18_23 
REMARK    7  A    between atoms: C18_23  and  C19_24 
REMARK    8  A    between atoms: C19_24  and  C20_25 
REMARK       I    between atoms: C20_25  and  N1_27 
REMARK    9  A    between atoms: N1_27  and  C21_28 
REMARK   10  A    between atoms: C21_28  and  C22_29 
REMARK   11  A    between atoms: C22_29  and  C23_30 
REMARK   12  A    between atoms: C26_33  and  O7_34 
REMARK   13  A    between atoms: C27_35  and  O8_36 
ROOT
HETATM    1  C15 UNL     1      -1.426   6.473  13.884  1.00  0.00     0.185 C 
HETATM    2  O3  UNL     1      -1.214   6.141  12.714  1.00  0.00    -0.292 OA
ENDROOT
BRANCH   1   3
HETATM    3  C14 UNL     1      -0.610   7.595  14.568  1.00  0.00     0.128 C 
HETATM    4  C13 UNL     1       0.877   7.508  14.194  1.00  0.00     0.047 C 
HETATM    5  C12 UNL     1       1.422   8.855  14.646  1.00  0.00     0.009 C 
HETATM    6  C11 UNL     1       0.323   9.871  14.285  1.00  0.00     0.002 C 
HETATM    7  C10 UNL     1       0.198  11.072  15.252  1.00  0.00     0.003 C 
HETATM    8  C29 UNL     1      -1.000   9.047  14.121  1.00  0.00     0.005 C 
HETATM    9  C9  UNL     1       1.546  11.808  15.400  1.00  0.00     0.010 C 
HETATM   10  C33 UNL     1      -0.446  10.678  16.621  1.00  0.00     0.072 C 
HETATM   11  C8  UNL     1       1.461  12.991  16.362  1.00  0.00     0.035 C 
HETATM   12  C7  UNL     1       0.923  12.480  17.672  1.00  0.00    -0.067 C 
HETATM   13  C2  UNL     1      -0.498  11.889  17.624  1.00  0.00    -0.009 C 
HETATM   14  C6  UNL     1       1.729  12.440  18.747  1.00  0.00     0.053 C 
HETATM   15  C1  UNL     1      -1.504  12.970  17.142  1.00  0.00     0.021 C 
HETATM   16  C3  UNL     1      -0.941  11.515  19.070  1.00  0.00     0.022 C 
HETATM   17  C4  UNL     1       0.128  10.817  19.893  1.00  0.00     0.084 C 
HETATM   18  C5  UNL     1       1.351  11.691  19.968  1.00  0.00     0.149 C 
HETATM   19  O1  UNL     1       2.081  11.729  20.955  1.00  0.00    -0.293 OA
HETATM   20  C32 UNL     1      -1.820  10.047  16.347  1.00  0.00     0.133 C 
HETATM   21  C31 UNL     1      -2.159   9.664  14.920  1.00  0.00     0.091 C 
HETATM   22  O9  UNL     1      -2.668   9.881  17.223  1.00  0.00    -0.297 OA
HETATM   23  C30 UNL     1      -1.405   9.095  12.625  1.00  0.00     0.019 C 
BRANCH   3  24
HETATM   24  O2  UNL     1      -0.697   7.492  15.989  1.00  0.00    -0.381 OA
HETATM   25  H19 UNL     1      -0.214   6.690  16.269  1.00  0.00     0.211 HD
ENDBRANCH   3  24
ENDBRANCH   1   3
BRANCH   1  26
HETATM   26  C16 UNL     1      -2.554   5.839  14.704  1.00  0.00     0.260 C 
BRANCH  26  27
HETATM   27  O4  UNL     1      -3.851   6.108  14.168  1.00  0.00    -0.314 OA
BRANCH  27  28
HETATM   28  C17 UNL     1      -4.562   7.034  14.876  1.00  0.00     0.259 C 
HETATM   29  O5  UNL     1      -4.416   7.259  16.070  1.00  0.00    -0.265 OA
BRANCH  28  30
HETATM   30  C18 UNL     1      -5.547   7.720  13.959  1.00  0.00     0.120 C 
BRANCH  30  31
HETATM   31  C19 UNL     1      -6.911   7.868  14.619  1.00  0.00     0.112 C 
BRANCH  31  32
HETATM   32  C20 UNL     1      -7.875   6.772  14.209  1.00  0.00     0.218 C 
HETATM   33  O6  UNL     1      -8.910   6.512  14.813  1.00  0.00    -0.274 OA
HETATM   34  N1  UNL     1      -7.483   6.128  13.054  1.00  0.00    -0.361 N 
HETATM   35  H26 UNL     1      -6.733   6.530  12.503  1.00  0.00     0.162 HD
BRANCH  34  36
HETATM   36  C21 UNL     1      -8.304   5.112  12.421  1.00  0.00     0.127 C 
BRANCH  36  37
HETATM   37  C22 UNL     1      -8.021   3.696  12.938  1.00  0.00     0.058 C 
BRANCH  37  38
HETATM   38  C23 UNL     1      -6.707   3.125  12.446  1.00  0.00    -0.054 A 
HETATM   39  C24 UNL     1      -6.643   1.801  11.980  1.00  0.00     0.010 A 
HETATM   40  C25 UNL     1      -5.444   1.268  11.495  1.00  0.00     0.040 A 
HETATM   41  C26 UNL     1      -4.310   2.066  11.473  1.00  0.00     0.098 A 
HETATM   42  C27 UNL     1      -4.364   3.378  11.936  1.00  0.00     0.099 A 
HETATM   43  C28 UNL     1      -5.547   3.913  12.426  1.00  0.00     0.046 A 
BRANCH  41  44
HETATM   44  O7  UNL     1      -3.114   1.611  10.994  1.00  0.00    -0.358 OA
HETATM   45  H33 UNL     1      -3.232   0.686  10.716  1.00  0.00     0.217 HD
ENDBRANCH  41  44
BRANCH  42  46
HETATM   46  O8  UNL     1      -3.246   4.161  11.893  1.00  0.00    -0.358 OA
HETATM   47  H34 UNL     1      -2.550   3.565  11.552  1.00  0.00     0.217 HD
ENDBRANCH  42  46
ENDBRANCH  37  38
ENDBRANCH  36  37
ENDBRANCH  34  36
ENDBRANCH  31  32
ENDBRANCH  30  31
ENDBRANCH  28  30
ENDBRANCH  27  28
ENDBRANCH  26  27
ENDBRANCH   1  26
TORSDOF 13
ENDMDL
