MODEL 1
REMARK minimizedAffinity -6.89951849
REMARK CNNscore 0.812916577
REMARK CNNaffinity 6.83046341
REMARK  9 active torsions:
REMARK  status: ('A' for Active; 'I' for Inactive)
REMARK    1  A    between atoms: C4_4  and  C5_5 
REMARK    2  A    between atoms: C5_5  and  C6_6 
REMARK    3  A    between atoms: C6_6  and  C7_7 
REMARK    4  A    between atoms: C7_7  and  C9_9 
REMARK    5  A    between atoms: C16_16  and  O1_17 
REMARK    6  A    between atoms: C22_23  and  O2_24 
REMARK    7  A    between atoms: C24_26  and  O3_27 
REMARK    8  A    between atoms: C25_28  and  C27_30 
REMARK    9  A    between atoms: C27_30  and  O5_32 
ROOT
HETATM    1  C9  UNL     1      -1.937  15.536   4.432  1.00  0.00    -0.002 C 
HETATM    2  C10 UNL     1      -2.757  15.417   3.122  1.00  0.00     0.007 C 
HETATM    3  C11 UNL     1      -1.755  15.079   2.002  1.00  0.00     0.015 C 
HETATM    4  C12 UNL     1      -0.442  14.681   2.720  1.00  0.00    -0.005 C 
HETATM    5  C13 UNL     1      -0.570  13.181   3.108  1.00  0.00     0.021 C 
HETATM    6  C14 UNL     1       0.903  14.783   2.001  1.00  0.00     0.003 C 
HETATM    7  C15 UNL     1       2.060  14.998   2.687  1.00  0.00    -0.030 C 
HETATM    8  C16 UNL     1       2.009  15.182   4.218  1.00  0.00     0.149 C 
HETATM    9  C17 UNL     1       0.623  15.308   4.899  1.00  0.00     0.047 C 
HETATM   10  C18 UNL     1      -0.477  15.710   3.921  1.00  0.00    -0.026 C 
HETATM   11  C19 UNL     1      -0.223  17.176   3.469  1.00  0.00     0.016 C 
HETATM   12  C20 UNL     1       3.441  15.237   1.962  1.00  0.00     0.014 C 
HETATM   13  C21 UNL     1       3.539  16.789   1.877  1.00  0.00     0.023 C 
HETATM   14  C22 UNL     1       4.677  14.618   2.742  1.00  0.00     0.133 C 
HETATM   15  C23 UNL     1       5.757  13.942   1.875  1.00  0.00     0.065 C 
HETATM   16  C24 UNL     1       6.008  14.703   0.576  1.00  0.00     0.139 C 
HETATM   17  C25 UNL     1       4.744  14.654  -0.318  1.00  0.00     0.072 C 
HETATM   18  C26 UNL     1       4.818  13.339  -1.157  1.00  0.00     0.030 C 
HETATM   19  C28 UNL     1       3.410  14.571   0.541  1.00  0.00     0.029 C 
HETATM   20  C29 UNL     1       2.164  14.941  -0.257  1.00  0.00     0.090 C 
HETATM   21  C30 UNL     1       0.899  14.670   0.508  1.00  0.00     0.157 C 
HETATM   22  O6  UNL     1      -0.139  14.437  -0.118  1.00  0.00    -0.293 OA
ENDROOT
BRANCH   1  23
HETATM   23  C7  UNL     1      -2.600  16.466   5.492  1.00  0.00    -0.014 C 
HETATM   24  C8  UNL     1      -2.635  15.956   6.936  1.00  0.00     0.010 C 
BRANCH  23  25
HETATM   25  C6  UNL     1      -4.007  16.927   5.046  1.00  0.00     0.008 C 
BRANCH  25  26
HETATM   26  C5  UNL     1      -4.839  17.638   6.128  1.00  0.00     0.028 C 
BRANCH  26  27
HETATM   27  C4  UNL     1      -6.325  17.463   5.959  1.00  0.00    -0.025 C 
HETATM   28  C2  UNL     1      -7.291  17.724   6.863  1.00  0.00    -0.091 C 
HETATM   29  C1  UNL     1      -7.046  18.213   8.264  1.00  0.00     0.042 C 
HETATM   30  C3  UNL     1      -8.741  17.531   6.516  1.00  0.00     0.042 C 
ENDBRANCH  26  27
ENDBRANCH  25  26
ENDBRANCH  23  25
ENDBRANCH   1  23
BRANCH   8  31
HETATM   31  O1  UNL     1       2.689  14.089   4.838  1.00  0.00    -0.391 OA
HETATM   32  H25 UNL     1       2.505  14.117   5.791  1.00  0.00     0.210 HD
ENDBRANCH   8  31
BRANCH  14  33
HETATM   33  O2  UNL     1       5.358  15.625   3.512  1.00  0.00    -0.394 OA
HETATM   34  H35 UNL     1       4.790  15.821   4.286  1.00  0.00     0.210 HD
ENDBRANCH  14  33
BRANCH  17  35
HETATM   35  C27 UNL     1       4.839  15.781  -1.354  1.00  0.00     0.151 C 
HETATM   36  O4  UNL     1       5.095  15.643  -2.543  1.00  0.00    -0.649 OA
BRANCH  35  37
HETATM   37  O5  UNL     1       4.636  17.018  -0.878  1.00  0.00    -0.776 OA
HETATM   38  H43 UNL     1       4.848  17.598  -1.641  1.00  0.00     0.167 HD
ENDBRANCH  35  37
ENDBRANCH  17  35
BRANCH  16  39
HETATM   39  O3  UNL     1       6.438  16.033   0.873  1.00  0.00    -0.394 OA
HETATM   40  H39 UNL     1       6.455  16.137   1.849  1.00  0.00     0.210 HD
ENDBRANCH  16  39
TORSDOF 9
ENDMDL
MODEL 2
REMARK minimizedAffinity -6.94301319
REMARK CNNscore 0.717142642
REMARK CNNaffinity 6.36464691
REMARK  9 active torsions:
REMARK  status: ('A' for Active; 'I' for Inactive)
REMARK    1  A    between atoms: C4_4  and  C5_5 
REMARK    2  A    between atoms: C5_5  and  C6_6 
REMARK    3  A    between atoms: C6_6  and  C7_7 
REMARK    4  A    between atoms: C7_7  and  C9_9 
REMARK    5  A    between atoms: C16_16  and  O1_17 
REMARK    6  A    between atoms: C22_23  and  O2_24 
REMARK    7  A    between atoms: C24_26  and  O3_27 
REMARK    8  A    between atoms: C25_28  and  C27_30 
REMARK    9  A    between atoms: C27_30  and  O5_32 
ROOT
HETATM    1  C9  UNL     1      -1.458   9.369  15.091  1.00  0.00    -0.002 C 
HETATM    2  C10 UNL     1      -1.963   9.412  13.627  1.00  0.00     0.007 C 
HETATM    3  C11 UNL     1      -0.765   9.040  12.734  1.00  0.00     0.015 C 
HETATM    4  C12 UNL     1       0.309   8.467  13.690  1.00  0.00    -0.005 C 
HETATM    5  C13 UNL     1      -0.034   6.967  13.917  1.00  0.00     0.021 C 
HETATM    6  C14 UNL     1       1.787   8.471  13.298  1.00  0.00     0.003 C 
HETATM    7  C15 UNL     1       2.771   8.525  14.239  1.00  0.00    -0.030 C 
HETATM    8  C16 UNL     1       2.387   8.624  15.730  1.00  0.00     0.149 C 
HETATM    9  C17 UNL     1       0.898   8.851  16.094  1.00  0.00     0.047 C 
HETATM   10  C18 UNL     1       0.090   9.421  14.932  1.00  0.00    -0.026 C 
HETATM   11  C19 UNL     1       0.567  10.878  14.667  1.00  0.00     0.016 C 
HETATM   12  C20 UNL     1       4.296   8.663  13.859  1.00  0.00     0.014 C 
HETATM   13  C21 UNL     1       4.546  10.199  13.923  1.00  0.00     0.023 C 
HETATM   14  C22 UNL     1       5.262   7.875  14.842  1.00  0.00     0.133 C 
HETATM   15  C23 UNL     1       6.449   7.144  14.184  1.00  0.00     0.065 C 
HETATM   16  C24 UNL     1       7.056   7.950  13.039  1.00  0.00     0.139 C 
HETATM   17  C25 UNL     1       6.030   8.084  11.886  1.00  0.00     0.072 C 
HETATM   18  C26 UNL     1       6.178   6.820  10.981  1.00  0.00     0.030 C 
HETATM   19  C28 UNL     1       4.532   8.089  12.418  1.00  0.00     0.029 C 
HETATM   20  C29 UNL     1       3.539   8.632  11.396  1.00  0.00     0.090 C 
HETATM   21  C30 UNL     1       2.114   8.448  11.837  1.00  0.00     0.157 C 
HETATM   22  O6  UNL     1       1.230   8.360  10.980  1.00  0.00    -0.293 OA
ENDROOT
BRANCH   1  23
HETATM   23  C7  UNL     1      -2.261  10.298  16.049  1.00  0.00    -0.014 C 
HETATM   24  C8  UNL     1      -2.899   9.642  17.278  1.00  0.00     0.010 C 
BRANCH  23  25
HETATM   25  C6  UNL     1      -3.306  11.142  15.282  1.00  0.00     0.008 C 
BRANCH  25  26
HETATM   26  C5  UNL     1      -4.320  11.892  16.164  1.00  0.00     0.028 C 
BRANCH  26  27
HETATM   27  C4  UNL     1      -4.528  13.327  15.757  1.00  0.00    -0.025 C 
HETATM   28  C2  UNL     1      -5.362  14.227  16.316  1.00  0.00    -0.091 C 
HETATM   29  C1  UNL     1      -6.295  13.937  17.460  1.00  0.00     0.042 C 
HETATM   30  C3  UNL     1      -5.418  15.641  15.809  1.00  0.00     0.042 C 
ENDBRANCH  26  27
ENDBRANCH  25  26
ENDBRANCH  23  25
ENDBRANCH   1  23
BRANCH   8  31
HETATM   31  O1  UNL     1       2.810   7.431  16.395  1.00  0.00    -0.391 OA
HETATM   32  H25 UNL     1       2.416   7.422  17.283  1.00  0.00     0.210 HD
ENDBRANCH   8  31
BRANCH  14  33
HETATM   33  O2  UNL     1       5.834   8.760  15.822  1.00  0.00    -0.394 OA
HETATM   34  H35 UNL     1       5.124   8.968  16.464  1.00  0.00     0.210 HD
ENDBRANCH  14  33
BRANCH  17  35
HETATM   35  C27 UNL     1       6.457   9.255  10.991  1.00  0.00     0.151 C 
HETATM   36  O4  UNL     1       7.607   9.627  10.796  1.00  0.00    -0.649 OA
BRANCH  35  37
HETATM   37  O5  UNL     1       5.455   9.920  10.398  1.00  0.00    -0.776 OA
HETATM   38  H43 UNL     1       5.902  10.684   9.975  1.00  0.00     0.167 HD
ENDBRANCH  35  37
ENDBRANCH  17  35
BRANCH  16  39
HETATM   39  O3  UNL     1       7.520   9.209  13.530  1.00  0.00    -0.394 OA
HETATM   40  H39 UNL     1       7.323   9.253  14.491  1.00  0.00     0.210 HD
ENDBRANCH  16  39
TORSDOF 9
ENDMDL
MODEL 3
REMARK minimizedAffinity -7.45053291
REMARK CNNscore 0.662475288
REMARK CNNaffinity 5.61210823
REMARK  9 active torsions:
REMARK  status: ('A' for Active; 'I' for Inactive)
REMARK    1  A    between atoms: C4_4  and  C5_5 
REMARK    2  A    between atoms: C5_5  and  C6_6 
REMARK    3  A    between atoms: C6_6  and  C7_7 
REMARK    4  A    between atoms: C7_7  and  C9_9 
REMARK    5  A    between atoms: C16_16  and  O1_17 
REMARK    6  A    between atoms: C22_23  and  O2_24 
REMARK    7  A    between atoms: C24_26  and  O3_27 
REMARK    8  A    between atoms: C25_28  and  C27_30 
REMARK    9  A    between atoms: C27_30  and  O5_32 
ROOT
HETATM    1  C9  UNL     1     -15.348  -4.827   9.549  1.00  0.00    -0.002 C 
HETATM    2  C10 UNL     1     -15.796  -6.240  10.002  1.00  0.00     0.007 C 
HETATM    3  C11 UNL     1     -16.419  -6.079  11.401  1.00  0.00     0.015 C 
HETATM    4  C12 UNL     1     -16.628  -4.558  11.595  1.00  0.00    -0.005 C 
HETATM    5  C13 UNL     1     -17.976  -4.191  10.912  1.00  0.00     0.021 C 
HETATM    6  C14 UNL     1     -16.726  -3.954  12.997  1.00  0.00     0.003 C 
HETATM    7  C15 UNL     1     -16.349  -2.669  13.244  1.00  0.00    -0.030 C 
HETATM    8  C16 UNL     1     -15.775  -1.814  12.095  1.00  0.00     0.149 C 
HETATM    9  C17 UNL     1     -15.467  -2.507  10.744  1.00  0.00     0.047 C 
HETATM   10  C18 UNL     1     -15.323  -4.020  10.880  1.00  0.00    -0.026 C 
HETATM   11  C19 UNL     1     -14.025  -4.322  11.683  1.00  0.00     0.016 C 
HETATM   12  C20 UNL     1     -16.317  -2.063  14.701  1.00  0.00     0.014 C 
HETATM   13  C21 UNL     1     -14.840  -2.279  15.147  1.00  0.00     0.023 C 
HETATM   14  C22 UNL     1     -16.722  -0.530  14.754  1.00  0.00     0.133 C 
HETATM   15  C23 UNL     1     -17.608  -0.103  15.941  1.00  0.00     0.065 C 
HETATM   16  C24 UNL     1     -17.210  -0.808  17.235  1.00  0.00     0.139 C 
HETATM   17  C25 UNL     1     -17.480  -2.329  17.112  1.00  0.00     0.072 C 
HETATM   18  C26 UNL     1     -18.968  -2.573  17.519  1.00  0.00     0.030 C 
HETATM   19  C28 UNL     1     -17.327  -2.841  15.615  1.00  0.00     0.029 C 
HETATM   20  C29 UNL     1     -17.167  -4.355  15.518  1.00  0.00     0.090 C 
HETATM   21  C30 UNL     1     -17.221  -4.841  14.097  1.00  0.00     0.157 C 
HETATM   22  O6  UNL     1     -17.600  -5.994  13.874  1.00  0.00    -0.293 OA
ENDROOT
BRANCH   1  23
HETATM   23  C7  UNL     1     -14.170  -4.851   8.529  1.00  0.00    -0.014 C 
HETATM   24  C8  UNL     1     -13.292  -3.597   8.455  1.00  0.00     0.010 C 
BRANCH  23  25
HETATM   25  C6  UNL     1     -14.648  -5.262   7.116  1.00  0.00     0.008 C 
BRANCH  25  26
HETATM   26  C5  UNL     1     -13.534  -5.701   6.149  1.00  0.00     0.028 C 
BRANCH  26  27
HETATM   27  C4  UNL     1     -13.052  -4.600   5.243  1.00  0.00    -0.025 C 
HETATM   28  C2  UNL     1     -12.412  -4.727   4.063  1.00  0.00    -0.091 C 
HETATM   29  C1  UNL     1     -12.014  -6.037   3.440  1.00  0.00     0.042 C 
HETATM   30  C3  UNL     1     -12.034  -3.514   3.258  1.00  0.00     0.042 C 
ENDBRANCH  26  27
ENDBRANCH  25  26
ENDBRANCH  23  25
ENDBRANCH   1  23
BRANCH   8  31
HETATM   31  O1  UNL     1     -16.676  -0.738  11.825  1.00  0.00    -0.391 OA
HETATM   32  H25 UNL     1     -16.401  -0.312  10.997  1.00  0.00     0.210 HD
ENDBRANCH   8  31
BRANCH  14  33
HETATM   33  O2  UNL     1     -15.555   0.311  14.805  1.00  0.00    -0.394 OA
HETATM   34  H35 UNL     1     -15.161   0.303  13.909  1.00  0.00     0.210 HD
ENDBRANCH  14  33
BRANCH  17  35
HETATM   35  C27 UNL     1     -16.659  -3.055  18.186  1.00  0.00     0.151 C 
HETATM   36  O4  UNL     1     -16.151  -4.163  18.073  1.00  0.00    -0.649 OA
BRANCH  35  37
HETATM   37  O5  UNL     1     -16.521  -2.397  19.346  1.00  0.00    -0.776 OA
HETATM   38  H43 UNL     1     -16.081  -3.050  19.932  1.00  0.00     0.167 HD
ENDBRANCH  35  37
ENDBRANCH  17  35
BRANCH  16  39
HETATM   39  O3  UNL     1     -15.852  -0.500  17.554  1.00  0.00    -0.394 OA
HETATM   40  H39 UNL     1     -15.500   0.087  16.850  1.00  0.00     0.210 HD
ENDBRANCH  16  39
TORSDOF 9
ENDMDL
MODEL 4
REMARK minimizedAffinity -7.08903646
REMARK CNNscore 0.642300367
REMARK CNNaffinity 6.44257736
REMARK  9 active torsions:
REMARK  status: ('A' for Active; 'I' for Inactive)
REMARK    1  A    between atoms: C4_4  and  C5_5 
REMARK    2  A    between atoms: C5_5  and  C6_6 
REMARK    3  A    between atoms: C6_6  and  C7_7 
REMARK    4  A    between atoms: C7_7  and  C9_9 
REMARK    5  A    between atoms: C16_16  and  O1_17 
REMARK    6  A    between atoms: C22_23  and  O2_24 
REMARK    7  A    between atoms: C24_26  and  O3_27 
REMARK    8  A    between atoms: C25_28  and  C27_30 
REMARK    9  A    between atoms: C27_30  and  O5_32 
ROOT
HETATM    1  C9  UNL     1     -14.249   2.412  25.587  1.00  0.00    -0.002 C 
HETATM    2  C10 UNL     1     -14.892   1.006  25.687  1.00  0.00     0.007 C 
HETATM    3  C11 UNL     1     -15.388   0.847  27.136  1.00  0.00     0.015 C 
HETATM    4  C12 UNL     1     -15.333   2.264  27.756  1.00  0.00    -0.005 C 
HETATM    5  C13 UNL     1     -16.644   2.994  27.347  1.00  0.00     0.021 C 
HETATM    6  C14 UNL     1     -15.241   2.452  29.270  1.00  0.00     0.003 C 
HETATM    7  C15 UNL     1     -14.644   3.549  29.815  1.00  0.00    -0.030 C 
HETATM    8  C16 UNL     1     -14.013   4.607  28.885  1.00  0.00     0.149 C 
HETATM    9  C17 UNL     1     -13.910   4.290  27.372  1.00  0.00     0.047 C 
HETATM   10  C18 UNL     1     -14.007   2.796  27.077  1.00  0.00    -0.026 C 
HETATM   11  C19 UNL     1     -12.727   2.101  27.623  1.00  0.00     0.016 C 
HETATM   12  C20 UNL     1     -14.418   3.705  31.369  1.00  0.00     0.014 C 
HETATM   13  C21 UNL     1     -12.972   3.168  31.578  1.00  0.00     0.023 C 
HETATM   14  C22 UNL     1     -14.563   5.201  31.878  1.00  0.00     0.133 C 
HETATM   15  C23 UNL     1     -15.289   5.391  33.225  1.00  0.00     0.065 C 
HETATM   16  C24 UNL     1     -14.929   4.300  34.229  1.00  0.00     0.139 C 
HETATM   17  C25 UNL     1     -15.451   2.930  33.728  1.00  0.00     0.072 C 
HETATM   18  C26 UNL     1     -16.930   2.789  34.211  1.00  0.00     0.030 C 
HETATM   19  C28 UNL     1     -15.481   2.847  32.141  1.00  0.00     0.029 C 
HETATM   20  C29 UNL     1     -15.577   1.417  31.622  1.00  0.00     0.090 C 
HETATM   21  C30 UNL     1     -15.802   1.367  30.136  1.00  0.00     0.157 C 
HETATM   22  O6  UNL     1     -16.378   0.389  29.651  1.00  0.00    -0.293 OA
ENDROOT
BRANCH   1  23
HETATM   23  C7  UNL     1     -13.159   2.516  24.479  1.00  0.00    -0.014 C 
HETATM   24  C8  UNL     1     -11.804   1.867  24.776  1.00  0.00     0.010 C 
BRANCH  23  25
HETATM   25  C6  UNL     1     -12.969   3.975  24.001  1.00  0.00     0.008 C 
BRANCH  25  26
HETATM   26  C5  UNL     1     -14.268   4.738  23.688  1.00  0.00     0.028 C 
BRANCH  26  27
HETATM   27  C4  UNL     1     -14.174   5.613  22.466  1.00  0.00    -0.025 C 
HETATM   28  C2  UNL     1     -13.477   6.759  22.328  1.00  0.00    -0.091 C 
HETATM   29  C1  UNL     1     -12.675   7.412  23.419  1.00  0.00     0.042 C 
HETATM   30  C3  UNL     1     -13.458   7.494  21.016  1.00  0.00     0.042 C 
ENDBRANCH  26  27
ENDBRANCH  25  26
ENDBRANCH  23  25
ENDBRANCH   1  23
BRANCH   8  31
HETATM   31  O1  UNL     1     -14.741   5.829  29.015  1.00  0.00    -0.391 OA
HETATM   32  H25 UNL     1     -14.454   6.431  28.309  1.00  0.00     0.210 HD
ENDBRANCH   8  31
BRANCH  14  33
HETATM   33  O2  UNL     1     -13.274   5.822  32.030  1.00  0.00    -0.394 OA
HETATM   34  H35 UNL     1     -12.945   6.014  31.127  1.00  0.00     0.210 HD
ENDBRANCH  14  33
BRANCH  17  35
HETATM   35  C27 UNL     1     -14.693   1.821  34.471  1.00  0.00     0.151 C 
HETATM   36  O4  UNL     1     -15.143   1.122  35.370  1.00  0.00    -0.649 OA
BRANCH  35  37
HETATM   37  O5  UNL     1     -13.421   1.641  34.089  1.00  0.00    -0.776 OA
HETATM   38  H43 UNL     1     -13.074   0.991  34.739  1.00  0.00     0.167 HD
ENDBRANCH  35  37
ENDBRANCH  17  35
BRANCH  16  39
HETATM   39  O3  UNL     1     -13.522   4.313  34.471  1.00  0.00    -0.394 OA
HETATM   40  H39 UNL     1     -13.124   5.020  33.919  1.00  0.00     0.210 HD
ENDBRANCH  16  39
TORSDOF 9
ENDMDL
MODEL 5
REMARK minimizedAffinity -6.86546993
REMARK CNNscore 0.589760303
REMARK CNNaffinity 6.38183832
REMARK  9 active torsions:
REMARK  status: ('A' for Active; 'I' for Inactive)
REMARK    1  A    between atoms: C4_4  and  C5_5 
REMARK    2  A    between atoms: C5_5  and  C6_6 
REMARK    3  A    between atoms: C6_6  and  C7_7 
REMARK    4  A    between atoms: C7_7  and  C9_9 
REMARK    5  A    between atoms: C16_16  and  O1_17 
REMARK    6  A    between atoms: C22_23  and  O2_24 
REMARK    7  A    between atoms: C24_26  and  O3_27 
REMARK    8  A    between atoms: C25_28  and  C27_30 
REMARK    9  A    between atoms: C27_30  and  O5_32 
ROOT
HETATM    1  C9  UNL     1     -10.840  15.943   3.077  1.00  0.00    -0.002 C 
HETATM    2  C10 UNL     1      -9.708  16.300   2.080  1.00  0.00     0.007 C 
HETATM    3  C11 UNL     1     -10.120  15.717   0.716  1.00  0.00     0.015 C 
HETATM    4  C12 UNL     1     -11.612  15.331   0.858  1.00  0.00    -0.005 C 
HETATM    5  C13 UNL     1     -12.445  16.619   0.600  1.00  0.00     0.021 C 
HETATM    6  C14 UNL     1     -12.237  14.276  -0.056  1.00  0.00     0.003 C 
HETATM    7  C15 UNL     1     -13.292  13.517   0.353  1.00  0.00    -0.030 C 
HETATM    8  C16 UNL     1     -13.844  13.698   1.783  1.00  0.00     0.149 C 
HETATM    9  C17 UNL     1     -13.058  14.599   2.768  1.00  0.00     0.047 C 
HETATM   10  C18 UNL     1     -11.606  14.800   2.348  1.00  0.00    -0.026 C 
HETATM   11  C19 UNL     1     -10.855  13.447   2.505  1.00  0.00     0.016 C 
HETATM   12  C20 UNL     1     -13.870  12.335  -0.518  1.00  0.00     0.014 C 
HETATM   13  C21 UNL     1     -13.125  11.084   0.034  1.00  0.00     0.023 C 
HETATM   14  C22 UNL     1     -15.445  12.175  -0.394  1.00  0.00     0.133 C 
HETATM   15  C23 UNL     1     -16.197  11.847  -1.699  1.00  0.00     0.065 C 
HETATM   16  C24 UNL     1     -15.421  10.870  -2.577  1.00  0.00     0.139 C 
HETATM   17  C25 UNL     1     -14.111  11.532  -3.073  1.00  0.00     0.072 C 
HETATM   18  C26 UNL     1     -14.452  12.323  -4.376  1.00  0.00     0.030 C 
HETATM   19  C28 UNL     1     -13.548  12.591  -2.031  1.00  0.00     0.029 C 
HETATM   20  C29 UNL     1     -12.083  12.942  -2.272  1.00  0.00     0.090 C 
HETATM   21  C30 UNL     1     -11.623  14.084  -1.408  1.00  0.00     0.157 C 
HETATM   22  O6  UNL     1     -10.693  14.793  -1.801  1.00  0.00    -0.293 OA
ENDROOT
BRANCH   1  23
HETATM   23  C7  UNL     1     -10.355  15.854   4.555  1.00  0.00    -0.014 C 
HETATM   24  C8  UNL     1     -11.422  15.579   5.620  1.00  0.00     0.010 C 
BRANCH  23  25
HETATM   25  C6  UNL     1      -9.499  17.080   4.950  1.00  0.00     0.008 C 
BRANCH  25  26
HETATM   26  C5  UNL     1      -8.497  16.841   6.094  1.00  0.00     0.028 C 
BRANCH  26  27
HETATM   27  C4  UNL     1      -8.860  17.552   7.371  1.00  0.00    -0.025 C 
HETATM   28  C2  UNL     1      -8.029  18.186   8.222  1.00  0.00    -0.091 C 
HETATM   29  C1  UNL     1      -6.535  18.265   8.065  1.00  0.00     0.042 C 
HETATM   30  C3  UNL     1      -8.564  18.885   9.441  1.00  0.00     0.042 C 
ENDBRANCH  26  27
ENDBRANCH  25  26
ENDBRANCH  23  25
ENDBRANCH   1  23
BRANCH   8  31
HETATM   31  O1  UNL     1     -15.174  14.215   1.701  1.00  0.00    -0.391 OA
HETATM   32  H25 UNL     1     -15.449  14.488   2.592  1.00  0.00     0.210 HD
ENDBRANCH   8  31
BRANCH  14  33
HETATM   33  O2  UNL     1     -15.786  11.132   0.536  1.00  0.00    -0.394 OA
HETATM   34  H35 UNL     1     -15.612  11.484   1.433  1.00  0.00     0.210 HD
ENDBRANCH  14  33
BRANCH  17  35
HETATM   35  C27 UNL     1     -13.152  10.425  -3.531  1.00  0.00     0.151 C 
HETATM   36  O4  UNL     1     -13.199   9.249  -3.192  1.00  0.00    -0.649 OA
BRANCH  35  37
HETATM   37  O5  UNL     1     -12.176  10.818  -4.361  1.00  0.00    -0.776 OA
HETATM   38  H43 UNL     1     -11.609  10.021  -4.448  1.00  0.00     0.167 HD
ENDBRANCH  35  37
ENDBRANCH  17  35
BRANCH  16  39
HETATM   39  O3  UNL     1     -15.203   9.651  -1.866  1.00  0.00    -0.394 OA
HETATM   40  H39 UNL     1     -15.600   9.745  -0.972  1.00  0.00     0.210 HD
ENDBRANCH  16  39
TORSDOF 9
ENDMDL
MODEL 6
REMARK minimizedAffinity -8.86607265
REMARK CNNscore 0.573854327
REMARK CNNaffinity 6.72977257
REMARK  9 active torsions:
REMARK  status: ('A' for Active; 'I' for Inactive)
REMARK    1  A    between atoms: C4_4  and  C5_5 
REMARK    2  A    between atoms: C5_5  and  C6_6 
REMARK    3  A    between atoms: C6_6  and  C7_7 
REMARK    4  A    between atoms: C7_7  and  C9_9 
REMARK    5  A    between atoms: C16_16  and  O1_17 
REMARK    6  A    between atoms: C22_23  and  O2_24 
REMARK    7  A    between atoms: C24_26  and  O3_27 
REMARK    8  A    between atoms: C25_28  and  C27_30 
REMARK    9  A    between atoms: C27_30  and  O5_32 
ROOT
HETATM    1  C9  UNL     1      -5.585   5.631  14.447  1.00  0.00    -0.002 C 
HETATM    2  C10 UNL     1      -5.737   4.689  13.226  1.00  0.00     0.007 C 
HETATM    3  C11 UNL     1      -4.373   4.669  12.510  1.00  0.00     0.015 C 
HETATM    4  C12 UNL     1      -3.372   5.319  13.495  1.00  0.00    -0.005 C 
HETATM    5  C13 UNL     1      -2.913   4.206  14.480  1.00  0.00     0.021 C 
HETATM    6  C14 UNL     1      -2.074   5.949  12.989  1.00  0.00     0.003 C 
HETATM    7  C15 UNL     1      -1.474   6.973  13.658  1.00  0.00    -0.030 C 
HETATM    8  C16 UNL     1      -2.138   7.536  14.933  1.00  0.00     0.149 C 
HETATM    9  C17 UNL     1      -3.561   7.046  15.300  1.00  0.00     0.047 C 
HETATM   10  C18 UNL     1      -4.300   6.443  14.109  1.00  0.00    -0.026 C 
HETATM   11  C19 UNL     1      -4.619   7.582  13.099  1.00  0.00     0.016 C 
HETATM   12  C20 UNL     1      -0.210   7.727  13.090  1.00  0.00     0.014 C 
HETATM   13  C21 UNL     1      -0.824   8.951  12.349  1.00  0.00     0.023 C 
HETATM   14  C22 UNL     1       0.810   8.182  14.219  1.00  0.00     0.133 C 
HETATM   15  C23 UNL     1       2.306   8.020  13.885  1.00  0.00     0.065 C 
HETATM   16  C24 UNL     1       2.610   8.366  12.431  1.00  0.00     0.139 C 
HETATM   17  C25 UNL     1       1.918   7.348  11.490  1.00  0.00     0.072 C 
HETATM   18  C26 UNL     1       2.884   6.131  11.328  1.00  0.00     0.030 C 
HETATM   19  C28 UNL     1       0.572   6.780  12.114  1.00  0.00     0.029 C 
HETATM   20  C29 UNL     1      -0.334   6.123  11.077  1.00  0.00     0.090 C 
HETATM   21  C30 UNL     1      -1.504   5.421  11.710  1.00  0.00     0.157 C 
HETATM   22  O6  UNL     1      -2.020   4.468  11.118  1.00  0.00    -0.293 OA
ENDROOT
BRANCH   1  23
HETATM   23  C7  UNL     1      -6.927   6.282  14.896  1.00  0.00    -0.014 C 
HETATM   24  C8  UNL     1      -7.128   6.490  16.401  1.00  0.00     0.010 C 
BRANCH  23  25
HETATM   25  C6  UNL     1      -8.146   5.556  14.282  1.00  0.00     0.008 C 
BRANCH  25  26
HETATM   26  C5  UNL     1      -9.144   6.461  13.538  1.00  0.00     0.028 C 
BRANCH  26  27
HETATM   27  C4  UNL     1     -10.135   7.140  14.445  1.00  0.00    -0.025 C 
HETATM   28  C2  UNL     1     -11.229   7.843  14.088  1.00  0.00    -0.091 C 
HETATM   29  C1  UNL     1     -11.647   8.117  12.669  1.00  0.00     0.042 C 
HETATM   30  C3  UNL     1     -12.143   8.426  15.130  1.00  0.00     0.042 C 
ENDBRANCH  26  27
ENDBRANCH  25  26
ENDBRANCH  23  25
ENDBRANCH   1  23
BRANCH   8  31
HETATM   31  O1  UNL     1      -1.291   7.263  16.052  1.00  0.00    -0.391 OA
HETATM   32  H25 UNL     1      -1.788   7.460  16.863  1.00  0.00     0.210 HD
ENDBRANCH   8  31
BRANCH  14  33
HETATM   33  O2  UNL     1       0.625   9.569  14.553  1.00  0.00    -0.394 OA
HETATM   34  H35 UNL     1      -0.199   9.625  15.080  1.00  0.00     0.210 HD
ENDBRANCH  14  33
BRANCH  17  35
HETATM   35  C27 UNL     1       1.832   7.964  10.087  1.00  0.00     0.151 C 
HETATM   36  O4  UNL     1       2.635   7.793   9.178  1.00  0.00    -0.649 OA
BRANCH  35  37
HETATM   37  O5  UNL     1       0.783   8.771   9.878  1.00  0.00    -0.776 OA
HETATM   38  H43 UNL     1       0.957   9.153   8.991  1.00  0.00     0.167 HD
ENDBRANCH  35  37
ENDBRANCH  17  35
BRANCH  16  39
HETATM   39  O3  UNL     1       2.236   9.720  12.169  1.00  0.00    -0.394 OA
HETATM   40  H39 UNL     1       1.860  10.096  12.995  1.00  0.00     0.210 HD
ENDBRANCH  16  39
TORSDOF 9
ENDMDL
MODEL 7
REMARK minimizedAffinity -8.63554096
REMARK CNNscore 0.5426175
REMARK CNNaffinity 6.50612688
REMARK  9 active torsions:
REMARK  status: ('A' for Active; 'I' for Inactive)
REMARK    1  A    between atoms: C4_4  and  C5_5 
REMARK    2  A    between atoms: C5_5  and  C6_6 
REMARK    3  A    between atoms: C6_6  and  C7_7 
REMARK    4  A    between atoms: C7_7  and  C9_9 
REMARK    5  A    between atoms: C16_16  and  O1_17 
REMARK    6  A    between atoms: C22_23  and  O2_24 
REMARK    7  A    between atoms: C24_26  and  O3_27 
REMARK    8  A    between atoms: C25_28  and  C27_30 
REMARK    9  A    between atoms: C27_30  and  O5_32 
ROOT
HETATM    1  C9  UNL     1      -1.600   7.283  14.115  1.00  0.00    -0.002 C 
HETATM    2  C10 UNL     1      -1.933   7.132  12.609  1.00  0.00     0.007 C 
HETATM    3  C11 UNL     1      -0.587   7.078  11.861  1.00  0.00     0.015 C 
HETATM    4  C12 UNL     1       0.490   6.863  12.952  1.00  0.00    -0.005 C 
HETATM    5  C13 UNL     1       0.548   5.335  13.241  1.00  0.00     0.021 C 
HETATM    6  C14 UNL     1       1.944   7.266  12.704  1.00  0.00     0.003 C 
HETATM    7  C15 UNL     1       2.765   7.626  13.730  1.00  0.00    -0.030 C 
HETATM    8  C16 UNL     1       2.206   7.665  15.168  1.00  0.00     0.149 C 
HETATM    9  C17 UNL     1       0.682   7.480  15.372  1.00  0.00     0.047 C 
HETATM   10  C18 UNL     1      -0.118   7.760  14.103  1.00  0.00    -0.026 C 
HETATM   11  C19 UNL     1      -0.033   9.282  13.792  1.00  0.00     0.016 C 
HETATM   12  C20 UNL     1       4.226   8.171  13.492  1.00  0.00     0.014 C 
HETATM   13  C21 UNL     1       4.036   9.717  13.481  1.00  0.00     0.023 C 
HETATM   14  C22 UNL     1       5.257   7.720  14.612  1.00  0.00     0.133 C 
HETATM   15  C23 UNL     1       6.663   7.326  14.120  1.00  0.00     0.065 C 
HETATM   16  C24 UNL     1       7.148   8.229  12.989  1.00  0.00     0.139 C 
HETATM   17  C25 UNL     1       6.259   8.030  11.736  1.00  0.00     0.072 C 
HETATM   18  C26 UNL     1       6.848   6.827  10.933  1.00  0.00     0.030 C 
HETATM   19  C28 UNL     1       4.768   7.636  12.120  1.00  0.00     0.029 C 
HETATM   20  C29 UNL     1       3.784   7.843  10.974  1.00  0.00     0.090 C 
HETATM   21  C30 UNL     1       2.424   7.284  11.286  1.00  0.00     0.157 C 
HETATM   22  O6  UNL     1       1.698   6.922  10.356  1.00  0.00    -0.293 OA
ENDROOT
BRANCH   1  23
HETATM   23  C7  UNL     1      -2.729   7.984  14.929  1.00  0.00    -0.014 C 
HETATM   24  C8  UNL     1      -3.336   9.253  14.322  1.00  0.00     0.010 C 
BRANCH  23  25
HETATM   25  C6  UNL     1      -2.303   8.234  16.395  1.00  0.00     0.008 C 
BRANCH  25  26
HETATM   26  C5  UNL     1      -1.967   9.696  16.741  1.00  0.00     0.028 C 
BRANCH  26  27
HETATM   27  C4  UNL     1      -3.022  10.377  17.571  1.00  0.00    -0.025 C 
HETATM   28  C2  UNL     1      -2.850  11.380  18.456  1.00  0.00    -0.091 C 
HETATM   29  C1  UNL     1      -1.522  11.989  18.815  1.00  0.00     0.042 C 
HETATM   30  C3  UNL     1      -4.026  11.979  19.177  1.00  0.00     0.042 C 
ENDBRANCH  26  27
ENDBRANCH  25  26
ENDBRANCH  23  25
ENDBRANCH   1  23
BRANCH   8  31
HETATM   31  O1  UNL     1       2.864   6.662  15.946  1.00  0.00    -0.391 OA
HETATM   32  H25 UNL     1       2.391   6.575  16.791  1.00  0.00     0.210 HD
ENDBRANCH   8  31
BRANCH  14  33
HETATM   33  O2  UNL     1       5.452   8.762  15.584  1.00  0.00    -0.394 OA
HETATM   34  H35 UNL     1       4.645   8.786  16.139  1.00  0.00     0.210 HD
ENDBRANCH  14  33
BRANCH  17  35
HETATM   35  C27 UNL     1       6.445   9.242  10.813  1.00  0.00     0.151 C 
HETATM   36  O4  UNL     1       7.468   9.904  10.695  1.00  0.00    -0.649 OA
BRANCH  35  37
HETATM   37  O5  UNL     1       5.365   9.590  10.099  1.00  0.00    -0.776 OA
HETATM   38  H43 UNL     1       5.632  10.433   9.671  1.00  0.00     0.167 HD
ENDBRANCH  35  37
ENDBRANCH  17  35
BRANCH  16  39
HETATM   39  O3  UNL     1       7.192   9.584  13.440  1.00  0.00    -0.394 OA
HETATM   40  H39 UNL     1       6.886   9.605  14.373  1.00  0.00     0.210 HD
ENDBRANCH  16  39
TORSDOF 9
ENDMDL
MODEL 8
REMARK minimizedAffinity -8.97026348
REMARK CNNscore 0.535167813
REMARK CNNaffinity 6.9092927
REMARK  9 active torsions:
REMARK  status: ('A' for Active; 'I' for Inactive)
REMARK    1  A    between atoms: C4_4  and  C5_5 
REMARK    2  A    between atoms: C5_5  and  C6_6 
REMARK    3  A    between atoms: C6_6  and  C7_7 
REMARK    4  A    between atoms: C7_7  and  C9_9 
REMARK    5  A    between atoms: C16_16  and  O1_17 
REMARK    6  A    between atoms: C22_23  and  O2_24 
REMARK    7  A    between atoms: C24_26  and  O3_27 
REMARK    8  A    between atoms: C25_28  and  C27_30 
REMARK    9  A    between atoms: C27_30  and  O5_32 
ROOT
HETATM    1  C9  UNL     1      -4.889   6.588  14.698  1.00  0.00    -0.002 C 
HETATM    2  C10 UNL     1      -5.266   5.327  13.880  1.00  0.00     0.007 C 
HETATM    3  C11 UNL     1      -4.028   4.955  13.043  1.00  0.00     0.015 C 
HETATM    4  C12 UNL     1      -2.861   5.787  13.628  1.00  0.00    -0.005 C 
HETATM    5  C13 UNL     1      -2.313   5.003  14.855  1.00  0.00     0.021 C 
HETATM    6  C14 UNL     1      -1.626   6.101  12.784  1.00  0.00     0.003 C 
HETATM    7  C15 UNL     1      -0.884   7.224  13.002  1.00  0.00    -0.030 C 
HETATM    8  C16 UNL     1      -1.322   8.219  14.098  1.00  0.00     0.149 C 
HETATM    9  C17 UNL     1      -2.696   8.005  14.782  1.00  0.00     0.047 C 
HETATM   10  C18 UNL     1      -3.633   7.128  13.955  1.00  0.00    -0.026 C 
HETATM   11  C19 UNL     1      -4.045   7.915  12.678  1.00  0.00     0.016 C 
HETATM   12  C20 UNL     1       0.315   7.639  12.065  1.00  0.00     0.014 C 
HETATM   13  C21 UNL     1      -0.345   8.619  11.049  1.00  0.00     0.023 C 
HETATM   14  C22 UNL     1       1.513   8.330  12.845  1.00  0.00     0.133 C 
HETATM   15  C23 UNL     1       2.932   7.933  12.396  1.00  0.00     0.065 C 
HETATM   16  C24 UNL     1       3.031   7.773  10.882  1.00  0.00     0.139 C 
HETATM   17  C25 UNL     1       2.159   6.579  10.419  1.00  0.00     0.072 C 
HETATM   18  C26 UNL     1       3.031   5.289  10.541  1.00  0.00     0.030 C 
HETATM   19  C28 UNL     1       0.896   6.364  11.359  1.00  0.00     0.029 C 
HETATM   20  C29 UNL     1      -0.185   5.501  10.716  1.00  0.00     0.090 C 
HETATM   21  C30 UNL     1      -1.279   5.146  11.685  1.00  0.00     0.157 C 
HETATM   22  O6  UNL     1      -1.922   4.108  11.506  1.00  0.00    -0.293 OA
ENDROOT
BRANCH   1  23
HETATM   23  C7  UNL     1      -6.117   7.468  15.077  1.00  0.00    -0.014 C 
HETATM   24  C8  UNL     1      -5.825   8.891  15.566  1.00  0.00     0.010 C 
BRANCH  23  25
HETATM   25  C6  UNL     1      -7.060   6.739  16.063  1.00  0.00     0.008 C 
BRANCH  25  26
HETATM   26  C5  UNL     1      -8.117   5.831  15.410  1.00  0.00     0.028 C 
BRANCH  26  27
HETATM   27  C4  UNL     1      -8.478   6.237  14.006  1.00  0.00    -0.025 C 
HETATM   28  C2  UNL     1      -8.615   5.437  12.929  1.00  0.00    -0.091 C 
HETATM   29  C1  UNL     1      -8.383   3.951  12.929  1.00  0.00     0.042 C 
HETATM   30  C3  UNL     1      -9.023   6.004  11.598  1.00  0.00     0.042 C 
ENDBRANCH  26  27
ENDBRANCH  25  26
ENDBRANCH  23  25
ENDBRANCH   1  23
BRANCH   8  31
HETATM   31  O1  UNL     1      -0.332   8.235  15.128  1.00  0.00    -0.391 OA
HETATM   32  H25 UNL     1      -0.692   8.724  15.887  1.00  0.00     0.210 HD
ENDBRANCH   8  31
BRANCH  14  33
HETATM   33  O2  UNL     1       1.445   9.763  12.730  1.00  0.00    -0.394 OA
HETATM   34  H35 UNL     1       0.713  10.058  13.310  1.00  0.00     0.210 HD
ENDBRANCH  14  33
BRANCH  17  35
HETATM   35  C27 UNL     1       1.893   6.726   8.915  1.00  0.00     0.151 C 
HETATM   36  O4  UNL     1       2.356   6.016   8.032  1.00  0.00    -0.649 OA
BRANCH  35  37
HETATM   37  O5  UNL     1       1.093   7.745   8.571  1.00  0.00    -0.776 OA
HETATM   38  H43 UNL     1       1.134   7.751   7.590  1.00  0.00     0.167 HD
ENDBRANCH  35  37
ENDBRANCH  17  35
BRANCH  16  39
HETATM   39  O3  UNL     1       2.686   9.003  10.244  1.00  0.00    -0.394 OA
HETATM   40  H39 UNL     1       2.457   9.654  10.942  1.00  0.00     0.210 HD
ENDBRANCH  16  39
TORSDOF 9
ENDMDL
MODEL 9
REMARK minimizedAffinity -9.4685173
REMARK CNNscore 0.51982218
REMARK CNNaffinity 6.45199728
REMARK  9 active torsions:
REMARK  status: ('A' for Active; 'I' for Inactive)
REMARK    1  A    between atoms: C4_4  and  C5_5 
REMARK    2  A    between atoms: C5_5  and  C6_6 
REMARK    3  A    between atoms: C6_6  and  C7_7 
REMARK    4  A    between atoms: C7_7  and  C9_9 
REMARK    5  A    between atoms: C16_16  and  O1_17 
REMARK    6  A    between atoms: C22_23  and  O2_24 
REMARK    7  A    between atoms: C24_26  and  O3_27 
REMARK    8  A    between atoms: C25_28  and  C27_30 
REMARK    9  A    between atoms: C27_30  and  O5_32 
ROOT
HETATM    1  C9  UNL     1      -1.644   7.012  14.105  1.00  0.00    -0.002 C 
HETATM    2  C10 UNL     1      -1.968   6.829  12.600  1.00  0.00     0.007 C 
HETATM    3  C11 UNL     1      -0.620   6.825  11.855  1.00  0.00     0.015 C 
HETATM    4  C12 UNL     1       0.464   6.668  12.949  1.00  0.00    -0.005 C 
HETATM    5  C13 UNL     1       0.587   5.148  13.256  1.00  0.00     0.021 C 
HETATM    6  C14 UNL     1       1.900   7.130  12.699  1.00  0.00     0.003 C 
HETATM    7  C15 UNL     1       2.703   7.537  13.722  1.00  0.00    -0.030 C 
HETATM    8  C16 UNL     1       2.140   7.568  15.159  1.00  0.00     0.149 C 
HETATM    9  C17 UNL     1       0.625   7.321  15.362  1.00  0.00     0.047 C 
HETATM   10  C18 UNL     1      -0.184   7.552  14.090  1.00  0.00    -0.026 C 
HETATM   11  C19 UNL     1      -0.163   9.072  13.761  1.00  0.00     0.016 C 
HETATM   12  C20 UNL     1       4.140   8.141  13.478  1.00  0.00     0.014 C 
HETATM   13  C21 UNL     1       3.884   9.677  13.449  1.00  0.00     0.023 C 
HETATM   14  C22 UNL     1       5.187   7.747  14.605  1.00  0.00     0.133 C 
HETATM   15  C23 UNL     1       6.610   7.409  14.119  1.00  0.00     0.065 C 
HETATM   16  C24 UNL     1       7.057   8.319  12.979  1.00  0.00     0.139 C 
HETATM   17  C25 UNL     1       6.180   8.068  11.727  1.00  0.00     0.072 C 
HETATM   18  C26 UNL     1       6.821   6.882  10.938  1.00  0.00     0.030 C 
HETATM   19  C28 UNL     1       4.707   7.614  12.114  1.00  0.00     0.029 C 
HETATM   20  C29 UNL     1       3.716   7.766  10.964  1.00  0.00     0.090 C 
HETATM   21  C30 UNL     1       2.381   7.152  11.281  1.00  0.00     0.157 C 
HETATM   22  O6  UNL     1       1.673   6.749  10.354  1.00  0.00    -0.293 OA
ENDROOT
BRANCH   1  23
HETATM   23  C7  UNL     1      -2.803   7.673  14.910  1.00  0.00    -0.014 C 
HETATM   24  C8  UNL     1      -2.432   8.340  16.238  1.00  0.00     0.010 C 
BRANCH  23  25
HETATM   25  C6  UNL     1      -3.989   6.700  15.105  1.00  0.00     0.008 C 
BRANCH  25  26
HETATM   26  C5  UNL     1      -4.787   6.372  13.830  1.00  0.00     0.028 C 
BRANCH  26  27
HETATM   27  C4  UNL     1      -5.942   5.436  14.065  1.00  0.00    -0.025 C 
HETATM   28  C2  UNL     1      -6.253   4.324  13.369  1.00  0.00    -0.091 C 
HETATM   29  C1  UNL     1      -5.498   3.825  12.167  1.00  0.00     0.042 C 
HETATM   30  C3  UNL     1      -7.428   3.472  13.764  1.00  0.00     0.042 C 
ENDBRANCH  26  27
ENDBRANCH  25  26
ENDBRANCH  23  25
ENDBRANCH   1  23
BRANCH   8  31
HETATM   31  O1  UNL     1       2.839   6.603  15.949  1.00  0.00    -0.391 OA
HETATM   32  H25 UNL     1       2.370   6.505  16.793  1.00  0.00     0.210 HD
ENDBRANCH   8  31
BRANCH  14  33
HETATM   33  O2  UNL     1       5.335   8.808  15.565  1.00  0.00    -0.394 OA
HETATM   34  H35 UNL     1       4.528   8.803  16.119  1.00  0.00     0.210 HD
ENDBRANCH  14  33
BRANCH  17  35
HETATM   35  C27 UNL     1       6.315   9.275  10.790  1.00  0.00     0.151 C 
HETATM   36  O4  UNL     1       5.403   9.808  10.170  1.00  0.00    -0.649 OA
BRANCH  35  37
HETATM   37  O5  UNL     1       7.559   9.754  10.645  1.00  0.00    -0.776 OA
HETATM   38  H43 UNL     1       7.467  10.428   9.938  1.00  0.00     0.167 HD
ENDBRANCH  35  37
ENDBRANCH  17  35
BRANCH  16  39
HETATM   39  O3  UNL     1       7.043   9.679  13.414  1.00  0.00    -0.394 OA
HETATM   40  H39 UNL     1       6.735   9.697  14.346  1.00  0.00     0.210 HD
ENDBRANCH  16  39
TORSDOF 9
ENDMDL
