MODEL 1
REMARK minimizedAffinity -7.89717817
REMARK CNNscore 0.605163753
REMARK CNNaffinity 6.68789625
REMARK  13 active torsions:
REMARK  status: ('A' for Active; 'I' for Inactive)
REMARK    1  A    between atoms: C4_4  and  C5_5 
REMARK    2  A    between atoms: C5_5  and  C6_6 
REMARK    3  A    between atoms: C6_6  and  C7_7 
REMARK    4  A    between atoms: C9_9  and  C10_10 
REMARK    5  A    between atoms: C11_11  and  C12_12 
REMARK    6  A    between atoms: C14_14  and  C15_15 
REMARK    7  A    between atoms: C18_18  and  O1_19 
REMARK    8  A    between atoms: C19_21  and  C20_22 
REMARK    9  A    between atoms: C20_22  and  C21_23 
REMARK   10  A    between atoms: C21_23  and  C22_24 
REMARK   11  A    between atoms: C22_24  and  O3_25 
REMARK   12  A    between atoms: C24_27  and  C26_29 
REMARK   13  A    between atoms: C29_33  and  O5_35 
ROOT
HETATM    1  C15 UNL     1      -1.158  49.043 -18.413  1.00  0.00     0.149 C 
HETATM    2  C16 UNL     1      -1.041  49.605 -19.827  1.00  0.00     0.054 C 
HETATM    3  C17 UNL     1      -2.493  49.782 -20.321  1.00  0.00     0.050 C 
HETATM    4  C18 UNL     1      -3.203  50.001 -18.968  1.00  0.00     0.270 C 
HETATM    5  O2  UNL     1      -2.519  49.215 -17.996  1.00  0.00    -0.351 OA
HETATM    6  C19 UNL     1      -2.578  51.051 -21.253  1.00  0.00     0.032 C 
HETATM    7  C23 UNL     1      -1.848  50.794 -22.585  1.00  0.00    -0.066 C 
HETATM    8  C24 UNL     1      -0.805  51.510 -23.081  1.00  0.00    -0.021 C 
HETATM    9  C25 UNL     1      -0.180  51.271 -24.435  1.00  0.00     0.052 C 
HETATM   10  C27 UNL     1      -2.405  49.582 -23.316  1.00  0.00     0.038 C 
HETATM   11  C28 UNL     1      -2.359  48.329 -22.443  1.00  0.00     0.042 C 
HETATM   12  C29 UNL     1      -3.037  48.505 -21.067  1.00  0.00     0.067 C 
HETATM   13  C30 UNL     1      -2.913  47.178 -20.301  1.00  0.00     0.047 C 
ENDROOT
BRANCH   4  14
HETATM   14  O1  UNL     1      -3.106  51.351 -18.525  1.00  0.00    -0.370 OA
HETATM   15  H26 UNL     1      -3.565  51.338 -17.664  1.00  0.00     0.212 HD
ENDBRANCH   4  14
BRANCH   6  16
HETATM   16  C20 UNL     1      -4.020  51.581 -21.496  1.00  0.00     0.012 C 
BRANCH  16  17
HETATM   17  C21 UNL     1      -4.178  52.430 -22.767  1.00  0.00     0.027 C 
BRANCH  17  18
HETATM   18  C22 UNL     1      -5.162  51.881 -23.799  1.00  0.00     0.164 C 
BRANCH  18  19
HETATM   19  O3  UNL     1      -6.347  51.395 -23.187  1.00  0.00    -0.401 OA
HETATM   20  H34 UNL     1      -6.869  52.174 -22.903  1.00  0.00     0.209 HD
ENDBRANCH  18  19
ENDBRANCH  17  18
ENDBRANCH  16  17
ENDBRANCH   6  16
BRANCH  12  21
HETATM   21  O5  UNL     1      -4.443  48.689 -21.296  1.00  0.00    -0.389 OA
HETATM   22  H46 UNL     1      -4.788  47.914 -21.772  1.00  0.00     0.210 HD
ENDBRANCH  12  21
BRANCH   1  23
HETATM   23  C14 UNL     1      -0.269  49.741 -17.423  1.00  0.00     0.011 C 
HETATM   24  C12 UNL     1       0.284  50.967 -17.535  1.00  0.00    -0.063 C 
HETATM   25  C13 UNL     1       0.043  51.883 -18.707  1.00  0.00     0.048 C 
BRANCH  24  26
HETATM   26  C11 UNL     1       1.154  51.442 -16.458  1.00  0.00     0.006 C 
HETATM   27  C10 UNL     1       1.174  50.998 -15.191  1.00  0.00     0.001 C 
BRANCH  27  28
HETATM   28  C9  UNL     1       2.064  51.546 -14.186  1.00  0.00     0.002 C 
HETATM   29  C7  UNL     1       2.158  51.162 -12.897  1.00  0.00    -0.084 C 
HETATM   30  C8  UNL     1       1.393  50.022 -12.277  1.00  0.00     0.043 C 
BRANCH  29  31
HETATM   31  C6  UNL     1       3.140  51.868 -11.972  1.00  0.00     0.037 C 
BRANCH  31  32
HETATM   32  C5  UNL     1       2.488  52.648 -10.821  1.00  0.00     0.031 C 
BRANCH  32  33
HETATM   33  C4  UNL     1       2.544  54.143 -10.982  1.00  0.00    -0.024 C 
HETATM   34  C2  UNL     1       3.550  54.967 -10.628  1.00  0.00    -0.091 C 
HETATM   35  C1  UNL     1       4.820  54.532  -9.953  1.00  0.00     0.042 C 
HETATM   36  C3  UNL     1       3.457  56.449 -10.884  1.00  0.00     0.042 C 
ENDBRANCH  32  33
ENDBRANCH  31  32
ENDBRANCH  29  31
ENDBRANCH  27  28
ENDBRANCH  24  26
ENDBRANCH   1  23
BRANCH   8  37
HETATM   37  C26 UNL     1      -0.155  52.633 -22.330  1.00  0.00     0.265 C 
HETATM   38  O4  UNL     1       1.011  52.596 -21.953  1.00  0.00    -0.302 OA
ENDBRANCH   8  37
TORSDOF 13
ENDMDL
MODEL 2
REMARK minimizedAffinity -7.66570187
REMARK CNNscore 0.497076124
REMARK CNNaffinity 6.49482346
REMARK  13 active torsions:
REMARK  status: ('A' for Active; 'I' for Inactive)
REMARK    1  A    between atoms: C4_4  and  C5_5 
REMARK    2  A    between atoms: C5_5  and  C6_6 
REMARK    3  A    between atoms: C6_6  and  C7_7 
REMARK    4  A    between atoms: C9_9  and  C10_10 
REMARK    5  A    between atoms: C11_11  and  C12_12 
REMARK    6  A    between atoms: C14_14  and  C15_15 
REMARK    7  A    between atoms: C18_18  and  O1_19 
REMARK    8  A    between atoms: C19_21  and  C20_22 
REMARK    9  A    between atoms: C20_22  and  C21_23 
REMARK   10  A    between atoms: C21_23  and  C22_24 
REMARK   11  A    between atoms: C22_24  and  O3_25 
REMARK   12  A    between atoms: C24_27  and  C26_29 
REMARK   13  A    between atoms: C29_33  and  O5_35 
ROOT
HETATM    1  C15 UNL     1      -6.398  47.178 -30.643  1.00  0.00     0.149 C 
HETATM    2  C16 UNL     1      -7.813  47.270 -30.082  1.00  0.00     0.054 C 
HETATM    3  C17 UNL     1      -8.449  45.886 -30.338  1.00  0.00     0.050 C 
HETATM    4  C18 UNL     1      -7.178  45.010 -30.325  1.00  0.00     0.270 C 
HETATM    5  O2  UNL     1      -6.118  45.790 -30.872  1.00  0.00    -0.351 OA
HETATM    6  C19 UNL     1      -9.431  45.534 -29.156  1.00  0.00     0.032 C 
HETATM    7  C23 UNL     1     -10.676  46.438 -29.198  1.00  0.00    -0.066 C 
HETATM    8  C24 UNL     1     -11.097  47.275 -28.213  1.00  0.00    -0.021 C 
HETATM    9  C25 UNL     1     -12.376  48.076 -28.269  1.00  0.00     0.052 C 
HETATM   10  C27 UNL     1     -11.412  46.332 -30.525  1.00  0.00     0.038 C 
HETATM   11  C28 UNL     1     -10.494  46.649 -31.704  1.00  0.00     0.042 C 
HETATM   12  C29 UNL     1      -9.196  45.813 -31.723  1.00  0.00     0.067 C 
HETATM   13  C30 UNL     1      -8.375  46.237 -32.952  1.00  0.00     0.047 C 
ENDROOT
BRANCH   4  14
HETATM   14  O1  UNL     1      -6.777  44.668 -29.002  1.00  0.00    -0.370 OA
HETATM   15  H26 UNL     1      -5.964  44.147 -29.143  1.00  0.00     0.212 HD
ENDBRANCH   4  14
BRANCH   6  16
HETATM   16  C20 UNL     1      -9.828  44.033 -29.069  1.00  0.00     0.012 C 
BRANCH  16  17
HETATM   17  C21 UNL     1     -10.560  43.644 -27.775  1.00  0.00     0.027 C 
BRANCH  17  18
HETATM   18  C22 UNL     1     -10.443  42.174 -27.376  1.00  0.00     0.164 C 
BRANCH  18  19
HETATM   19  O3  UNL     1     -11.573  41.742 -26.632  1.00  0.00    -0.401 OA
HETATM   20  H34 UNL     1     -12.318  41.652 -27.261  1.00  0.00     0.209 HD
ENDBRANCH  18  19
ENDBRANCH  17  18
ENDBRANCH  16  17
ENDBRANCH   6  16
BRANCH  12  21
HETATM   21  O5  UNL     1      -9.565  44.444 -31.958  1.00  0.00    -0.389 OA
HETATM   22  H46 UNL     1     -10.043  44.388 -32.803  1.00  0.00     0.210 HD
ENDBRANCH  12  21
BRANCH   1  23
HETATM   23  C14 UNL     1      -5.353  47.721 -29.710  1.00  0.00     0.011 C 
HETATM   24  C12 UNL     1      -5.458  47.911 -28.378  1.00  0.00    -0.063 C 
HETATM   25  C13 UNL     1      -6.683  47.542 -27.580  1.00  0.00     0.048 C 
BRANCH  24  26
HETATM   26  C11 UNL     1      -4.321  48.492 -27.662  1.00  0.00     0.006 C 
HETATM   27  C10 UNL     1      -4.050  48.363 -26.353  1.00  0.00     0.001 C 
BRANCH  27  28
HETATM   28  C9  UNL     1      -2.905  48.993 -25.728  1.00  0.00     0.002 C 
HETATM   29  C7  UNL     1      -2.886  49.639 -24.544  1.00  0.00    -0.084 C 
HETATM   30  C8  UNL     1      -4.059  49.757 -23.606  1.00  0.00     0.043 C 
BRANCH  29  31
HETATM   31  C6  UNL     1      -1.589  50.264 -24.048  1.00  0.00     0.037 C 
BRANCH  31  32
HETATM   32  C5  UNL     1      -1.107  51.471 -24.866  1.00  0.00     0.031 C 
BRANCH  32  33
HETATM   33  C4  UNL     1       0.364  51.450 -25.183  1.00  0.00    -0.024 C 
HETATM   34  C2  UNL     1       0.939  51.453 -26.401  1.00  0.00    -0.091 C 
HETATM   35  C1  UNL     1       0.191  51.438 -27.705  1.00  0.00     0.042 C 
HETATM   36  C3  UNL     1       2.438  51.456 -26.544  1.00  0.00     0.042 C 
ENDBRANCH  32  33
ENDBRANCH  31  32
ENDBRANCH  29  31
ENDBRANCH  27  28
ENDBRANCH  24  26
ENDBRANCH   1  23
BRANCH   8  37
HETATM   37  C26 UNL     1     -10.329  47.492 -26.944  1.00  0.00     0.265 C 
HETATM   38  O4  UNL     1     -10.003  48.605 -26.546  1.00  0.00    -0.302 OA
ENDBRANCH   8  37
TORSDOF 13
ENDMDL
MODEL 3
REMARK minimizedAffinity -6.37564564
REMARK CNNscore 0.380830228
REMARK CNNaffinity 5.88185501
REMARK  13 active torsions:
REMARK  status: ('A' for Active; 'I' for Inactive)
REMARK    1  A    between atoms: C4_4  and  C5_5 
REMARK    2  A    between atoms: C5_5  and  C6_6 
REMARK    3  A    between atoms: C6_6  and  C7_7 
REMARK    4  A    between atoms: C9_9  and  C10_10 
REMARK    5  A    between atoms: C11_11  and  C12_12 
REMARK    6  A    between atoms: C14_14  and  C15_15 
REMARK    7  A    between atoms: C18_18  and  O1_19 
REMARK    8  A    between atoms: C19_21  and  C20_22 
REMARK    9  A    between atoms: C20_22  and  C21_23 
REMARK   10  A    between atoms: C21_23  and  C22_24 
REMARK   11  A    between atoms: C22_24  and  O3_25 
REMARK   12  A    between atoms: C24_27  and  C26_29 
REMARK   13  A    between atoms: C29_33  and  O5_35 
ROOT
HETATM    1  C15 UNL     1     -11.083  48.082 -29.659  1.00  0.00     0.149 C 
HETATM    2  C16 UNL     1     -10.611  47.264 -30.857  1.00  0.00     0.054 C 
HETATM    3  C17 UNL     1      -9.093  47.070 -30.652  1.00  0.00     0.050 C 
HETATM    4  C18 UNL     1      -9.028  47.141 -29.111  1.00  0.00     0.270 C 
HETATM    5  O2  UNL     1     -10.031  48.058 -28.684  1.00  0.00    -0.351 OA
HETATM    6  C19 UNL     1      -8.665  45.658 -31.205  1.00  0.00     0.032 C 
HETATM    7  C23 UNL     1      -8.756  45.627 -32.741  1.00  0.00    -0.066 C 
HETATM    8  C24 UNL     1      -9.515  44.781 -33.486  1.00  0.00    -0.021 C 
HETATM    9  C25 UNL     1      -9.502  44.734 -34.995  1.00  0.00     0.052 C 
HETATM   10  C27 UNL     1      -7.902  46.710 -33.384  1.00  0.00     0.038 C 
HETATM   11  C28 UNL     1      -8.271  48.099 -32.865  1.00  0.00     0.042 C 
HETATM   12  C29 UNL     1      -8.242  48.213 -31.326  1.00  0.00     0.067 C 
HETATM   13  C30 UNL     1      -8.633  49.651 -30.948  1.00  0.00     0.047 C 
ENDROOT
BRANCH   4  14
HETATM   14  O1  UNL     1      -9.348  45.893 -28.504  1.00  0.00    -0.370 OA
HETATM   15  H26 UNL     1      -9.295  46.089 -27.549  1.00  0.00     0.212 HD
ENDBRANCH   4  14
BRANCH   6  16
HETATM   16  C20 UNL     1      -7.274  45.164 -30.714  1.00  0.00     0.012 C 
BRANCH  16  17
HETATM   17  C21 UNL     1      -6.699  43.986 -31.516  1.00  0.00     0.027 C 
BRANCH  17  18
HETATM   18  C22 UNL     1      -7.218  42.607 -31.114  1.00  0.00     0.164 C 
BRANCH  18  19
HETATM   19  O3  UNL     1      -6.478  41.567 -31.735  1.00  0.00    -0.401 OA
HETATM   20  H34 UNL     1      -5.608  41.520 -31.286  1.00  0.00     0.209 HD
ENDBRANCH  18  19
ENDBRANCH  17  18
ENDBRANCH  16  17
ENDBRANCH   6  16
BRANCH  12  21
HETATM   21  O5  UNL     1      -6.878  48.060 -30.903  1.00  0.00    -0.389 OA
HETATM   22  H46 UNL     1      -6.339  48.751 -31.327  1.00  0.00     0.210 HD
ENDBRANCH  12  21
BRANCH   1  23
HETATM   23  C14 UNL     1     -12.329  47.536 -29.022  1.00  0.00     0.011 C 
HETATM   24  C12 UNL     1     -12.831  46.289 -29.133  1.00  0.00    -0.063 C 
HETATM   25  C13 UNL     1     -12.158  45.189 -29.915  1.00  0.00     0.048 C 
BRANCH  24  26
HETATM   26  C11 UNL     1     -14.089  45.977 -28.452  1.00  0.00     0.006 C 
HETATM   27  C10 UNL     1     -14.288  45.004 -27.548  1.00  0.00     0.001 C 
BRANCH  27  28
HETATM   28  C9  UNL     1     -15.580  44.759 -26.938  1.00  0.00     0.002 C 
HETATM   29  C7  UNL     1     -16.647  44.170 -27.516  1.00  0.00    -0.084 C 
HETATM   30  C8  UNL     1     -16.662  43.583 -28.904  1.00  0.00     0.043 C 
BRANCH  29  31
HETATM   31  C6  UNL     1     -17.939  44.014 -26.727  1.00  0.00     0.037 C 
BRANCH  31  32
HETATM   32  C5  UNL     1     -18.704  45.323 -26.487  1.00  0.00     0.031 C 
BRANCH  32  33
HETATM   33  C4  UNL     1     -18.424  45.963 -25.154  1.00  0.00    -0.024 C 
HETATM   34  C2  UNL     1     -19.105  45.794 -24.004  1.00  0.00    -0.091 C 
HETATM   35  C1  UNL     1     -20.330  44.936 -23.850  1.00  0.00     0.042 C 
HETATM   36  C3  UNL     1     -18.674  46.495 -22.743  1.00  0.00     0.042 C 
ENDBRANCH  32  33
ENDBRANCH  31  32
ENDBRANCH  29  31
ENDBRANCH  27  28
ENDBRANCH  24  26
ENDBRANCH   1  23
BRANCH   8  37
HETATM   37  C26 UNL     1     -10.458  43.785 -32.880  1.00  0.00     0.265 C 
HETATM   38  O4  UNL     1     -11.566  43.546 -33.348  1.00  0.00    -0.302 OA
ENDBRANCH   8  37
TORSDOF 13
ENDMDL
MODEL 4
REMARK minimizedAffinity -8.08416843
REMARK CNNscore 0.376890749
REMARK CNNaffinity 6.46125269
REMARK  13 active torsions:
REMARK  status: ('A' for Active; 'I' for Inactive)
REMARK    1  A    between atoms: C4_4  and  C5_5 
REMARK    2  A    between atoms: C5_5  and  C6_6 
REMARK    3  A    between atoms: C6_6  and  C7_7 
REMARK    4  A    between atoms: C9_9  and  C10_10 
REMARK    5  A    between atoms: C11_11  and  C12_12 
REMARK    6  A    between atoms: C14_14  and  C15_15 
REMARK    7  A    between atoms: C18_18  and  O1_19 
REMARK    8  A    between atoms: C19_21  and  C20_22 
REMARK    9  A    between atoms: C20_22  and  C21_23 
REMARK   10  A    between atoms: C21_23  and  C22_24 
REMARK   11  A    between atoms: C22_24  and  O3_25 
REMARK   12  A    between atoms: C24_27  and  C26_29 
REMARK   13  A    between atoms: C29_33  and  O5_35 
ROOT
HETATM    1  C15 UNL     1      -6.770  47.282 -25.745  1.00  0.00     0.149 C 
HETATM    2  C16 UNL     1      -6.745  47.021 -27.248  1.00  0.00     0.054 C 
HETATM    3  C17 UNL     1      -8.225  46.891 -27.668  1.00  0.00     0.050 C 
HETATM    4  C18 UNL     1      -8.881  47.776 -26.586  1.00  0.00     0.270 C 
HETATM    5  O2  UNL     1      -8.117  47.627 -25.393  1.00  0.00    -0.351 OA
HETATM    6  C19 UNL     1      -8.412  47.480 -29.117  1.00  0.00     0.032 C 
HETATM    7  C23 UNL     1      -7.734  46.574 -30.162  1.00  0.00    -0.066 C 
HETATM    8  C24 UNL     1      -6.750  46.939 -31.025  1.00  0.00    -0.021 C 
HETATM    9  C25 UNL     1      -6.178  46.036 -32.091  1.00  0.00     0.052 C 
HETATM   10  C27 UNL     1      -8.267  45.151 -30.114  1.00  0.00     0.038 C 
HETATM   11  C28 UNL     1      -8.122  44.543 -28.720  1.00  0.00     0.042 C 
HETATM   12  C29 UNL     1      -8.743  45.404 -27.599  1.00  0.00     0.067 C 
HETATM   13  C30 UNL     1      -8.522  44.677 -26.263  1.00  0.00     0.047 C 
ENDROOT
BRANCH   4  14
HETATM   14  O1  UNL     1      -8.826  49.159 -26.921  1.00  0.00    -0.370 OA
HETATM   15  H26 UNL     1      -9.244  49.592 -26.153  1.00  0.00     0.212 HD
ENDBRANCH   4  14
BRANCH   6  16
HETATM   16  C20 UNL     1      -9.887  47.783 -29.509  1.00  0.00     0.012 C 
BRANCH  16  17
HETATM   17  C21 UNL     1     -10.920  47.398 -28.437  1.00  0.00     0.027 C 
BRANCH  17  18
HETATM   18  C22 UNL     1     -12.270  48.105 -28.548  1.00  0.00     0.164 C 
BRANCH  18  19
HETATM   19  O3  UNL     1     -12.541  48.899 -27.404  1.00  0.00    -0.401 OA
HETATM   20  H34 UNL     1     -11.969  49.692 -27.458  1.00  0.00     0.209 HD
ENDBRANCH  18  19
ENDBRANCH  17  18
ENDBRANCH  16  17
ENDBRANCH   6  16
BRANCH  12  21
HETATM   21  O5  UNL     1     -10.166  45.419 -27.800  1.00  0.00    -0.389 OA
HETATM   22  H46 UNL     1     -10.495  44.504 -27.777  1.00  0.00     0.210 HD
ENDBRANCH  12  21
BRANCH   1  23
HETATM   23  C14 UNL     1      -5.870  48.410 -25.324  1.00  0.00     0.011 C 
HETATM   24  C12 UNL     1      -4.730  48.819 -25.920  1.00  0.00    -0.063 C 
HETATM   25  C13 UNL     1      -4.188  48.205 -27.185  1.00  0.00     0.048 C 
BRANCH  24  26
HETATM   26  C11 UNL     1      -3.983  49.924 -25.317  1.00  0.00     0.006 C 
HETATM   27  C10 UNL     1      -3.363  50.920 -25.970  1.00  0.00     0.001 C 
BRANCH  27  28
HETATM   28  C9  UNL     1      -2.630  51.965 -25.284  1.00  0.00     0.002 C 
HETATM   29  C7  UNL     1      -1.293  52.040 -25.123  1.00  0.00    -0.084 C 
HETATM   30  C8  UNL     1      -0.297  51.069 -25.704  1.00  0.00     0.043 C 
BRANCH  29  31
HETATM   31  C6  UNL     1      -0.692  53.206 -24.351  1.00  0.00     0.037 C 
BRANCH  31  32
HETATM   32  C5  UNL     1       0.523  52.843 -23.486  1.00  0.00     0.031 C 
BRANCH  32  33
HETATM   33  C4  UNL     1       0.173  52.200 -22.171  1.00  0.00    -0.024 C 
HETATM   34  C2  UNL     1       0.389  52.693 -20.936  1.00  0.00    -0.091 C 
HETATM   35  C1  UNL     1       1.075  53.997 -20.638  1.00  0.00     0.042 C 
HETATM   36  C3  UNL     1      -0.049  51.927 -19.715  1.00  0.00     0.042 C 
ENDBRANCH  32  33
ENDBRANCH  31  32
ENDBRANCH  29  31
ENDBRANCH  27  28
ENDBRANCH  24  26
ENDBRANCH   1  23
BRANCH   8  37
HETATM   37  C26 UNL     1      -6.119  48.300 -31.015  1.00  0.00     0.265 C 
HETATM   38  O4  UNL     1      -4.947  48.493 -31.318  1.00  0.00    -0.302 OA
ENDBRANCH   8  37
TORSDOF 13
ENDMDL
MODEL 5
REMARK minimizedAffinity -7.91281986
REMARK CNNscore 0.353868842
REMARK CNNaffinity 6.11467505
REMARK  13 active torsions:
REMARK  status: ('A' for Active; 'I' for Inactive)
REMARK    1  A    between atoms: C4_4  and  C5_5 
REMARK    2  A    between atoms: C5_5  and  C6_6 
REMARK    3  A    between atoms: C6_6  and  C7_7 
REMARK    4  A    between atoms: C9_9  and  C10_10 
REMARK    5  A    between atoms: C11_11  and  C12_12 
REMARK    6  A    between atoms: C14_14  and  C15_15 
REMARK    7  A    between atoms: C18_18  and  O1_19 
REMARK    8  A    between atoms: C19_21  and  C20_22 
REMARK    9  A    between atoms: C20_22  and  C21_23 
REMARK   10  A    between atoms: C21_23  and  C22_24 
REMARK   11  A    between atoms: C22_24  and  O3_25 
REMARK   12  A    between atoms: C24_27  and  C26_29 
REMARK   13  A    between atoms: C29_33  and  O5_35 
ROOT
HETATM    1  C15 UNL     1      -2.422  50.787 -26.622  1.00  0.00     0.149 C 
HETATM    2  C16 UNL     1      -2.120  50.191 -25.250  1.00  0.00     0.054 C 
HETATM    3  C17 UNL     1      -2.398  51.324 -24.238  1.00  0.00     0.050 C 
HETATM    4  C18 UNL     1      -3.464  52.118 -25.024  1.00  0.00     0.270 C 
HETATM    5  O2  UNL     1      -3.141  52.010 -26.408  1.00  0.00    -0.351 OA
HETATM    6  C19 UNL     1      -2.974  50.707 -22.907  1.00  0.00     0.032 C 
HETATM    7  C23 UNL     1      -1.883  49.915 -22.162  1.00  0.00    -0.066 C 
HETATM    8  C24 UNL     1      -1.932  48.598 -21.830  1.00  0.00    -0.021 C 
HETATM    9  C25 UNL     1      -0.873  47.887 -21.021  1.00  0.00     0.052 C 
HETATM   10  C27 UNL     1      -0.669  50.775 -21.846  1.00  0.00     0.038 C 
HETATM   11  C28 UNL     1      -0.086  51.408 -23.108  1.00  0.00     0.042 C 
HETATM   12  C29 UNL     1      -1.120  52.196 -23.942  1.00  0.00     0.067 C 
HETATM   13  C30 UNL     1      -0.400  52.771 -25.172  1.00  0.00     0.047 C 
ENDROOT
BRANCH   4  14
HETATM   14  O1  UNL     1      -4.765  51.559 -24.876  1.00  0.00    -0.370 OA
HETATM   15  H26 UNL     1      -5.320  52.134 -25.436  1.00  0.00     0.212 HD
ENDBRANCH   4  14
BRANCH   6  16
HETATM   16  C20 UNL     1      -3.667  51.732 -21.964  1.00  0.00     0.012 C 
BRANCH  16  17
HETATM   17  C21 UNL     1      -4.576  51.101 -20.899  1.00  0.00     0.027 C 
BRANCH  17  18
HETATM   18  C22 UNL     1      -3.889  50.744 -19.582  1.00  0.00     0.164 C 
BRANCH  18  19
HETATM   19  O3  UNL     1      -3.087  51.814 -19.103  1.00  0.00    -0.401 OA
HETATM   20  H34 UNL     1      -3.694  52.500 -18.758  1.00  0.00     0.209 HD
ENDBRANCH  18  19
ENDBRANCH  17  18
ENDBRANCH  16  17
ENDBRANCH   6  16
BRANCH  12  21
HETATM   21  O5  UNL     1      -1.528  53.334 -23.165  1.00  0.00    -0.389 OA
HETATM   22  H46 UNL     1      -0.743  53.872 -22.961  1.00  0.00     0.210 HD
ENDBRANCH  12  21
BRANCH   1  23
HETATM   23  C14 UNL     1      -3.263  49.891 -27.486  1.00  0.00     0.011 C 
HETATM   24  C12 UNL     1      -3.978  48.813 -27.102  1.00  0.00    -0.063 C 
HETATM   25  C13 UNL     1      -4.083  48.353 -25.670  1.00  0.00     0.048 C 
BRANCH  24  26
HETATM   26  C11 UNL     1      -4.702  48.054 -28.122  1.00  0.00     0.006 C 
HETATM   27  C10 UNL     1      -6.018  47.783 -28.134  1.00  0.00     0.001 C 
BRANCH  27  28
HETATM   28  C9  UNL     1      -6.644  47.004 -29.183  1.00  0.00     0.002 C 
HETATM   29  C7  UNL     1      -6.663  47.293 -30.501  1.00  0.00    -0.084 C 
HETATM   30  C8  UNL     1      -5.958  48.462 -31.139  1.00  0.00     0.043 C 
BRANCH  29  31
HETATM   31  C6  UNL     1      -7.393  46.367 -31.463  1.00  0.00     0.037 C 
BRANCH  31  32
HETATM   32  C5  UNL     1      -8.659  46.966 -32.092  1.00  0.00     0.031 C 
BRANCH  32  33
HETATM   33  C4  UNL     1      -8.487  47.408 -33.520  1.00  0.00    -0.024 C 
HETATM   34  C2  UNL     1      -8.593  46.651 -34.630  1.00  0.00    -0.091 C 
HETATM   35  C1  UNL     1      -8.876  45.175 -34.640  1.00  0.00     0.042 C 
HETATM   36  C3  UNL     1      -8.414  47.260 -35.996  1.00  0.00     0.042 C 
ENDBRANCH  32  33
ENDBRANCH  31  32
ENDBRANCH  29  31
ENDBRANCH  27  28
ENDBRANCH  24  26
ENDBRANCH   1  23
BRANCH   8  37
HETATM   37  C26 UNL     1      -3.060  47.696 -22.232  1.00  0.00     0.265 C 
HETATM   38  O4  UNL     1      -4.171  47.747 -21.715  1.00  0.00    -0.302 OA
ENDBRANCH   8  37
TORSDOF 13
ENDMDL
MODEL 6
REMARK minimizedAffinity -7.08187437
REMARK CNNscore 0.326708227
REMARK CNNaffinity 5.9805007
REMARK  13 active torsions:
REMARK  status: ('A' for Active; 'I' for Inactive)
REMARK    1  A    between atoms: C4_4  and  C5_5 
REMARK    2  A    between atoms: C5_5  and  C6_6 
REMARK    3  A    between atoms: C6_6  and  C7_7 
REMARK    4  A    between atoms: C9_9  and  C10_10 
REMARK    5  A    between atoms: C11_11  and  C12_12 
REMARK    6  A    between atoms: C14_14  and  C15_15 
REMARK    7  A    between atoms: C18_18  and  O1_19 
REMARK    8  A    between atoms: C19_21  and  C20_22 
REMARK    9  A    between atoms: C20_22  and  C21_23 
REMARK   10  A    between atoms: C21_23  and  C22_24 
REMARK   11  A    between atoms: C22_24  and  O3_25 
REMARK   12  A    between atoms: C24_27  and  C26_29 
REMARK   13  A    between atoms: C29_33  and  O5_35 
ROOT
HETATM    1  C15 UNL     1      -7.485  46.587 -29.021  1.00  0.00     0.149 C 
HETATM    2  C16 UNL     1      -8.907  46.623 -28.467  1.00  0.00     0.054 C 
HETATM    3  C17 UNL     1      -9.500  45.229 -28.764  1.00  0.00     0.050 C 
HETATM    4  C18 UNL     1      -8.204  44.390 -28.764  1.00  0.00     0.270 C 
HETATM    5  O2  UNL     1      -7.164  45.214 -29.283  1.00  0.00    -0.351 OA
HETATM    6  C19 UNL     1     -10.478  44.817 -27.599  1.00  0.00     0.032 C 
HETATM    7  C23 UNL     1     -11.750  45.685 -27.627  1.00  0.00    -0.066 C 
HETATM    8  C24 UNL     1     -12.202  46.483 -26.624  1.00  0.00    -0.021 C 
HETATM    9  C25 UNL     1     -13.503  47.248 -26.669  1.00  0.00     0.052 C 
HETATM   10  C27 UNL     1     -12.474  45.592 -28.962  1.00  0.00     0.038 C 
HETATM   11  C28 UNL     1     -11.557  45.967 -30.125  1.00  0.00     0.042 C 
HETATM   12  C29 UNL     1     -10.235  45.170 -30.156  1.00  0.00     0.067 C 
HETATM   13  C30 UNL     1      -9.418  45.649 -31.367  1.00  0.00     0.047 C 
ENDROOT
BRANCH   4  14
HETATM   14  O1  UNL     1      -7.802  44.025 -27.448  1.00  0.00    -0.370 OA
HETATM   15  H26 UNL     1      -6.972  43.532 -27.596  1.00  0.00     0.212 HD
ENDBRANCH   4  14
BRANCH   6  16
HETATM   16  C20 UNL     1     -10.832  43.303 -27.554  1.00  0.00     0.012 C 
BRANCH  16  17
HETATM   17  C21 UNL     1     -11.084  42.752 -26.141  1.00  0.00     0.027 C 
BRANCH  17  18
HETATM   18  C22 UNL     1      -9.945  41.923 -25.551  1.00  0.00     0.164 C 
BRANCH  18  19
HETATM   19  O3  UNL     1     -10.256  41.459 -24.246  1.00  0.00    -0.401 OA
HETATM   20  H34 UNL     1     -10.913  40.739 -24.342  1.00  0.00     0.209 HD
ENDBRANCH  18  19
ENDBRANCH  17  18
ENDBRANCH  16  17
ENDBRANCH   6  16
BRANCH  12  21
HETATM   21  O5  UNL     1     -10.562  43.797 -30.429  1.00  0.00    -0.389 OA
HETATM   22  H46 UNL     1     -11.032  43.749 -31.279  1.00  0.00     0.210 HD
ENDBRANCH  12  21
BRANCH   1  23
HETATM   23  C14 UNL     1      -6.463  47.136 -28.066  1.00  0.00     0.011 C 
HETATM   24  C12 UNL     1      -5.395  47.907 -28.358  1.00  0.00    -0.063 C 
HETATM   25  C13 UNL     1      -5.078  48.395 -29.749  1.00  0.00     0.048 C 
BRANCH  24  26
HETATM   26  C11 UNL     1      -4.500  48.304 -27.270  1.00  0.00     0.006 C 
HETATM   27  C10 UNL     1      -3.399  49.067 -27.378  1.00  0.00     0.001 C 
BRANCH  27  28
HETATM   28  C9  UNL     1      -2.562  49.393 -26.241  1.00  0.00     0.002 C 
HETATM   29  C7  UNL     1      -2.514  50.571 -25.585  1.00  0.00    -0.084 C 
HETATM   30  C8  UNL     1      -3.394  51.758 -25.878  1.00  0.00     0.043 C 
BRANCH  29  31
HETATM   31  C6  UNL     1      -1.552  50.743 -24.418  1.00  0.00     0.037 C 
BRANCH  31  32
HETATM   32  C5  UNL     1      -0.326  51.615 -24.723  1.00  0.00     0.031 C 
BRANCH  32  33
HETATM   33  C4  UNL     1      -0.033  51.774 -26.190  1.00  0.00    -0.024 C 
HETATM   34  C2  UNL     1       1.142  51.569 -26.818  1.00  0.00    -0.091 C 
HETATM   35  C1  UNL     1       2.421  51.169 -26.137  1.00  0.00     0.042 C 
HETATM   36  C3  UNL     1       1.259  51.749 -28.308  1.00  0.00     0.042 C 
ENDBRANCH  32  33
ENDBRANCH  31  32
ENDBRANCH  29  31
ENDBRANCH  27  28
ENDBRANCH  24  26
ENDBRANCH   1  23
BRANCH   8  37
HETATM   37  C26 UNL     1     -11.449  46.690 -25.344  1.00  0.00     0.265 C 
HETATM   38  O4  UNL     1     -10.697  47.642 -25.160  1.00  0.00    -0.302 OA
ENDBRANCH   8  37
TORSDOF 13
ENDMDL
MODEL 7
REMARK minimizedAffinity -6.43952799
REMARK CNNscore 0.312451541
REMARK CNNaffinity 5.80870867
REMARK  13 active torsions:
REMARK  status: ('A' for Active; 'I' for Inactive)
REMARK    1  A    between atoms: C4_4  and  C5_5 
REMARK    2  A    between atoms: C5_5  and  C6_6 
REMARK    3  A    between atoms: C6_6  and  C7_7 
REMARK    4  A    between atoms: C9_9  and  C10_10 
REMARK    5  A    between atoms: C11_11  and  C12_12 
REMARK    6  A    between atoms: C14_14  and  C15_15 
REMARK    7  A    between atoms: C18_18  and  O1_19 
REMARK    8  A    between atoms: C19_21  and  C20_22 
REMARK    9  A    between atoms: C20_22  and  C21_23 
REMARK   10  A    between atoms: C21_23  and  C22_24 
REMARK   11  A    between atoms: C22_24  and  O3_25 
REMARK   12  A    between atoms: C24_27  and  C26_29 
REMARK   13  A    between atoms: C29_33  and  O5_35 
ROOT
HETATM    1  C15 UNL     1      -6.774  50.134 -22.732  1.00  0.00     0.149 C 
HETATM    2  C16 UNL     1      -5.515  50.102 -23.594  1.00  0.00     0.054 C 
HETATM    3  C17 UNL     1      -4.371  49.701 -22.638  1.00  0.00     0.050 C 
HETATM    4  C18 UNL     1      -5.172  48.880 -21.604  1.00  0.00     0.270 C 
HETATM    5  O2  UNL     1      -6.463  49.475 -21.497  1.00  0.00    -0.351 OA
HETATM    6  C19 UNL     1      -3.322  48.820 -23.417  1.00  0.00     0.032 C 
HETATM    7  C23 UNL     1      -2.555  49.673 -24.445  1.00  0.00    -0.066 C 
HETATM    8  C24 UNL     1      -2.506  49.463 -25.787  1.00  0.00    -0.021 C 
HETATM    9  C25 UNL     1      -1.667  50.278 -26.742  1.00  0.00     0.052 C 
HETATM   10  C27 UNL     1      -1.851  50.853 -23.793  1.00  0.00     0.038 C 
HETATM   11  C28 UNL     1      -2.828  51.729 -23.011  1.00  0.00     0.042 C 
HETATM   12  C29 UNL     1      -3.671  50.949 -21.978  1.00  0.00     0.067 C 
HETATM   13  C30 UNL     1      -4.604  51.947 -21.274  1.00  0.00     0.047 C 
ENDROOT
BRANCH   4  14
HETATM   14  O1  UNL     1      -5.388  47.540 -22.035  1.00  0.00    -0.370 OA
HETATM   15  H26 UNL     1      -5.918  47.155 -21.311  1.00  0.00     0.212 HD
ENDBRANCH   4  14
BRANCH   6  16
HETATM   16  C20 UNL     1      -2.344  48.021 -22.509  1.00  0.00     0.012 C 
BRANCH  16  17
HETATM   17  C21 UNL     1      -2.645  48.127 -21.005  1.00  0.00     0.027 C 
BRANCH  17  18
HETATM   18  C22 UNL     1      -2.467  46.834 -20.211  1.00  0.00     0.164 C 
BRANCH  18  19
HETATM   19  O3  UNL     1      -2.199  47.094 -18.841  1.00  0.00    -0.401 OA
HETATM   20  H34 UNL     1      -3.038  47.389 -18.432  1.00  0.00     0.209 HD
ENDBRANCH  18  19
ENDBRANCH  17  18
ENDBRANCH  16  17
ENDBRANCH   6  16
BRANCH  12  21
HETATM   21  O5  UNL     1      -2.777  50.470 -20.960  1.00  0.00    -0.389 OA
HETATM   22  H46 UNL     1      -2.325  51.231 -20.557  1.00  0.00     0.210 HD
ENDBRANCH  12  21
BRANCH   1  23
HETATM   23  C14 UNL     1      -7.942  49.429 -23.362  1.00  0.00     0.011 C 
HETATM   24  C12 UNL     1      -7.914  48.517 -24.357  1.00  0.00    -0.063 C 
HETATM   25  C13 UNL     1      -6.640  48.010 -24.983  1.00  0.00     0.048 C 
BRANCH  24  26
HETATM   26  C11 UNL     1      -9.183  47.980 -24.849  1.00  0.00     0.006 C 
HETATM   27  C10 UNL     1      -9.479  46.685 -25.047  1.00  0.00     0.001 C 
BRANCH  27  28
HETATM   28  C9  UNL     1     -10.764  46.248 -25.557  1.00  0.00     0.002 C 
HETATM   29  C7  UNL     1     -10.982  45.495 -26.655  1.00  0.00    -0.084 C 
HETATM   30  C8  UNL     1      -9.904  44.900 -27.523  1.00  0.00     0.043 C 
BRANCH  29  31
HETATM   31  C6  UNL     1     -12.409  45.147 -27.056  1.00  0.00     0.037 C 
BRANCH  31  32
HETATM   32  C5  UNL     1     -13.304  46.359 -27.352  1.00  0.00     0.031 C 
BRANCH  32  33
HETATM   33  C4  UNL     1     -13.960  46.950 -26.133  1.00  0.00    -0.024 C 
HETATM   34  C2  UNL     1     -15.110  46.558 -25.551  1.00  0.00    -0.091 C 
HETATM   35  C1  UNL     1     -15.991  45.448 -26.050  1.00  0.00     0.042 C 
HETATM   36  C3  UNL     1     -15.618  47.247 -24.311  1.00  0.00     0.042 C 
ENDBRANCH  32  33
ENDBRANCH  31  32
ENDBRANCH  29  31
ENDBRANCH  27  28
ENDBRANCH  24  26
ENDBRANCH   1  23
BRANCH   8  37
HETATM   37  C26 UNL     1      -3.285  48.382 -26.473  1.00  0.00     0.265 C 
HETATM   38  O4  UNL     1      -4.058  48.604 -27.399  1.00  0.00    -0.302 OA
ENDBRANCH   8  37
TORSDOF 13
ENDMDL
MODEL 8
REMARK minimizedAffinity -8.09889984
REMARK CNNscore 0.309967369
REMARK CNNaffinity 5.98782206
REMARK  13 active torsions:
REMARK  status: ('A' for Active; 'I' for Inactive)
REMARK    1  A    between atoms: C4_4  and  C5_5 
REMARK    2  A    between atoms: C5_5  and  C6_6 
REMARK    3  A    between atoms: C6_6  and  C7_7 
REMARK    4  A    between atoms: C9_9  and  C10_10 
REMARK    5  A    between atoms: C11_11  and  C12_12 
REMARK    6  A    between atoms: C14_14  and  C15_15 
REMARK    7  A    between atoms: C18_18  and  O1_19 
REMARK    8  A    between atoms: C19_21  and  C20_22 
REMARK    9  A    between atoms: C20_22  and  C21_23 
REMARK   10  A    between atoms: C21_23  and  C22_24 
REMARK   11  A    between atoms: C22_24  and  O3_25 
REMARK   12  A    between atoms: C24_27  and  C26_29 
REMARK   13  A    between atoms: C29_33  and  O5_35 
ROOT
HETATM    1  C15 UNL     1      -7.838  46.655 -25.695  1.00  0.00     0.149 C 
HETATM    2  C16 UNL     1      -7.498  46.265 -27.131  1.00  0.00     0.054 C 
HETATM    3  C17 UNL     1      -8.781  46.539 -27.946  1.00  0.00     0.050 C 
HETATM    4  C18 UNL     1      -9.395  47.670 -27.092  1.00  0.00     0.270 C 
HETATM    5  O2  UNL     1      -9.057  47.409 -25.733  1.00  0.00    -0.351 OA
HETATM    6  C19 UNL     1      -8.389  47.026 -29.392  1.00  0.00     0.032 C 
HETATM    7  C23 UNL     1      -7.770  45.873 -30.203  1.00  0.00    -0.066 C 
HETATM    8  C24 UNL     1      -6.530  45.855 -30.759  1.00  0.00    -0.021 C 
HETATM    9  C25 UNL     1      -6.002  44.733 -31.621  1.00  0.00     0.052 C 
HETATM   10  C27 UNL     1      -8.707  44.678 -30.301  1.00  0.00     0.038 C 
HETATM   11  C28 UNL     1      -9.128  44.180 -28.920  1.00  0.00     0.042 C 
HETATM   12  C29 UNL     1      -9.728  45.281 -28.019  1.00  0.00     0.067 C 
HETATM   13  C30 UNL     1     -10.102  44.643 -26.671  1.00  0.00     0.047 C 
ENDROOT
BRANCH   4  14
HETATM   14  O1  UNL     1      -8.833  48.940 -27.404  1.00  0.00    -0.370 OA
HETATM   15  H26 UNL     1      -9.285  49.543 -26.784  1.00  0.00     0.212 HD
ENDBRANCH   4  14
BRANCH   6  16
HETATM   16  C20 UNL     1      -9.541  47.713 -30.180  1.00  0.00     0.012 C 
BRANCH  16  17
HETATM   17  C21 UNL     1      -9.072  48.715 -31.246  1.00  0.00     0.027 C 
BRANCH  17  18
HETATM   18  C22 UNL     1      -8.229  49.877 -30.723  1.00  0.00     0.164 C 
BRANCH  18  19
HETATM   19  O3  UNL     1      -8.911  51.116 -30.845  1.00  0.00    -0.401 OA
HETATM   20  H34 UNL     1      -9.607  51.134 -30.156  1.00  0.00     0.209 HD
ENDBRANCH  18  19
ENDBRANCH  17  18
ENDBRANCH  16  17
ENDBRANCH   6  16
BRANCH  12  21
HETATM   21  O5  UNL     1     -10.972  45.696 -28.609  1.00  0.00    -0.389 OA
HETATM   22  H46 UNL     1     -11.560  44.923 -28.675  1.00  0.00     0.210 HD
ENDBRANCH  12  21
BRANCH   1  23
HETATM   23  C14 UNL     1      -6.781  47.501 -25.044  1.00  0.00     0.011 C 
HETATM   24  C12 UNL     1      -5.738  48.117 -25.640  1.00  0.00    -0.063 C 
HETATM   25  C13 UNL     1      -5.493  48.085 -27.127  1.00  0.00     0.048 C 
BRANCH  24  26
HETATM   26  C11 UNL     1      -4.799  48.867 -24.804  1.00  0.00     0.006 C 
HETATM   27  C10 UNL     1      -3.473  48.672 -24.719  1.00  0.00     0.001 C 
BRANCH  27  28
HETATM   28  C9  UNL     1      -2.624  49.457 -23.846  1.00  0.00     0.002 C 
HETATM   29  C7  UNL     1      -2.091  49.064 -22.671  1.00  0.00    -0.084 C 
HETATM   30  C8  UNL     1      -2.225  47.684 -22.081  1.00  0.00     0.043 C 
BRANCH  29  31
HETATM   31  C6  UNL     1      -1.234  50.035 -21.871  1.00  0.00     0.037 C 
BRANCH  31  32
HETATM   32  C5  UNL     1      -1.191  51.463 -22.433  1.00  0.00     0.031 C 
BRANCH  32  33
HETATM   33  C4  UNL     1      -0.027  52.282 -21.943  1.00  0.00    -0.024 C 
HETATM   34  C2  UNL     1       0.192  52.726 -20.690  1.00  0.00    -0.091 C 
HETATM   35  C1  UNL     1      -0.735  52.508 -19.527  1.00  0.00     0.042 C 
HETATM   36  C3  UNL     1       1.430  53.518 -20.360  1.00  0.00     0.042 C 
ENDBRANCH  32  33
ENDBRANCH  31  32
ENDBRANCH  29  31
ENDBRANCH  27  28
ENDBRANCH  24  26
ENDBRANCH   1  23
BRANCH   8  37
HETATM   37  C26 UNL     1      -5.539  46.966 -30.579  1.00  0.00     0.265 C 
HETATM   38  O4  UNL     1      -4.434  46.966 -31.111  1.00  0.00    -0.302 OA
ENDBRANCH   8  37
TORSDOF 13
ENDMDL
MODEL 9
REMARK minimizedAffinity -6.89576197
REMARK CNNscore 0.295280099
REMARK CNNaffinity 5.6801753
REMARK  13 active torsions:
REMARK  status: ('A' for Active; 'I' for Inactive)
REMARK    1  A    between atoms: C4_4  and  C5_5 
REMARK    2  A    between atoms: C5_5  and  C6_6 
REMARK    3  A    between atoms: C6_6  and  C7_7 
REMARK    4  A    between atoms: C9_9  and  C10_10 
REMARK    5  A    between atoms: C11_11  and  C12_12 
REMARK    6  A    between atoms: C14_14  and  C15_15 
REMARK    7  A    between atoms: C18_18  and  O1_19 
REMARK    8  A    between atoms: C19_21  and  C20_22 
REMARK    9  A    between atoms: C20_22  and  C21_23 
REMARK   10  A    between atoms: C21_23  and  C22_24 
REMARK   11  A    between atoms: C22_24  and  O3_25 
REMARK   12  A    between atoms: C24_27  and  C26_29 
REMARK   13  A    between atoms: C29_33  and  O5_35 
ROOT
HETATM    1  C15 UNL     1      -2.480  49.357 -23.987  1.00  0.00     0.149 C 
HETATM    2  C16 UNL     1      -2.909  48.356 -22.919  1.00  0.00     0.054 C 
HETATM    3  C17 UNL     1      -3.294  49.206 -21.688  1.00  0.00     0.050 C 
HETATM    4  C18 UNL     1      -3.728  50.507 -22.397  1.00  0.00     0.270 C 
HETATM    5  O2  UNL     1      -2.911  50.655 -23.554  1.00  0.00    -0.351 OA
HETATM    6  C19 UNL     1      -4.486  48.513 -20.925  1.00  0.00     0.032 C 
HETATM    7  C23 UNL     1      -4.013  47.216 -20.245  1.00  0.00    -0.066 C 
HETATM    8  C24 UNL     1      -4.503  45.967 -20.464  1.00  0.00    -0.021 C 
HETATM    9  C25 UNL     1      -4.064  44.738 -19.706  1.00  0.00     0.052 C 
HETATM   10  C27 UNL     1      -2.863  47.465 -19.281  1.00  0.00     0.038 C 
HETATM   11  C28 UNL     1      -1.687  48.152 -19.974  1.00  0.00     0.042 C 
HETATM   12  C29 UNL     1      -2.076  49.448 -20.717  1.00  0.00     0.067 C 
HETATM   13  C30 UNL     1      -0.807  50.025 -21.364  1.00  0.00     0.047 C 
ENDROOT
BRANCH   4  14
HETATM   14  O1  UNL     1      -5.071  50.438 -22.867  1.00  0.00    -0.370 OA
HETATM   15  H26 UNL     1      -5.198  51.299 -23.307  1.00  0.00     0.212 HD
ENDBRANCH   4  14
BRANCH   6  16
HETATM   16  C20 UNL     1      -5.235  49.435 -19.920  1.00  0.00     0.012 C 
BRANCH  16  17
HETATM   17  C21 UNL     1      -6.032  48.683 -18.842  1.00  0.00     0.027 C 
BRANCH  17  18
HETATM   18  C22 UNL     1      -7.499  48.422 -19.178  1.00  0.00     0.164 C 
BRANCH  18  19
HETATM   19  O3  UNL     1      -8.340  49.456 -18.688  1.00  0.00    -0.401 OA
HETATM   20  H34 UNL     1      -8.207  50.237 -19.264  1.00  0.00     0.209 HD
ENDBRANCH  18  19
ENDBRANCH  17  18
ENDBRANCH  16  17
ENDBRANCH   6  16
BRANCH  12  21
HETATM   21  O5  UNL     1      -2.479  50.411 -19.730  1.00  0.00    -0.389 OA
HETATM   22  H46 UNL     1      -1.740  50.556 -19.114  1.00  0.00     0.210 HD
ENDBRANCH  12  21
BRANCH   1  23
HETATM   23  C14 UNL     1      -3.088  49.084 -25.334  1.00  0.00     0.011 C 
HETATM   24  C12 UNL     1      -4.274  48.498 -25.597  1.00  0.00    -0.063 C 
HETATM   25  C13 UNL     1      -5.236  48.050 -24.526  1.00  0.00     0.048 C 
BRANCH  24  26
HETATM   26  C11 UNL     1      -4.659  48.295 -26.995  1.00  0.00     0.006 C 
HETATM   27  C10 UNL     1      -5.795  47.730 -27.438  1.00  0.00     0.001 C 
BRANCH  27  28
HETATM   28  C9  UNL     1      -6.081  47.555 -28.847  1.00  0.00     0.002 C 
HETATM   29  C7  UNL     1      -6.682  46.493 -29.423  1.00  0.00    -0.084 C 
HETATM   30  C8  UNL     1      -7.242  45.309 -28.678  1.00  0.00     0.043 C 
BRANCH  29  31
HETATM   31  C6  UNL     1      -6.883  46.469 -30.932  1.00  0.00     0.037 C 
BRANCH  31  32
HETATM   32  C5  UNL     1      -5.885  45.588 -31.696  1.00  0.00     0.031 C 
BRANCH  32  33
HETATM   33  C4  UNL     1      -6.383  44.196 -31.977  1.00  0.00    -0.024 C 
HETATM   34  C2  UNL     1      -5.661  43.135 -32.386  1.00  0.00    -0.091 C 
HETATM   35  C1  UNL     1      -4.187  43.161 -32.680  1.00  0.00     0.042 C 
HETATM   36  C3  UNL     1      -6.314  41.795 -32.598  1.00  0.00     0.042 C 
ENDBRANCH  32  33
ENDBRANCH  31  32
ENDBRANCH  29  31
ENDBRANCH  27  28
ENDBRANCH  24  26
ENDBRANCH   1  23
BRANCH   8  37
HETATM   37  C26 UNL     1      -5.552  45.672 -21.494  1.00  0.00     0.265 C 
HETATM   38  O4  UNL     1      -5.934  44.535 -21.749  1.00  0.00    -0.302 OA
ENDBRANCH   8  37
TORSDOF 13
ENDMDL
