MODEL 1
REMARK minimizedAffinity -7.96144295
REMARK CNNscore 0.638125122
REMARK CNNaffinity 7.14694071
REMARK  10 active torsions:
REMARK  status: ('A' for Active; 'I' for Inactive)
REMARK    1  A    between atoms: C3_3  and  O1_4 
REMARK    2  A    between atoms: N1_14  and  O2_16 
REMARK    3  A    between atoms: O2_16  and  C13_17 
REMARK    4  A    between atoms: C13_17  and  C14_18 
REMARK       I    between atoms: C14_18  and  N2_20 
REMARK    5  A    between atoms: N2_20  and  C15_21 
REMARK    6  A    between atoms: C15_21  and  C16_22 
REMARK    7  A    between atoms: C15_21  and  C19_29 
REMARK       I    between atoms: C16_22  and  N3_24 
REMARK    8  A    between atoms: N3_24  and  C17_25 
REMARK    9  A    between atoms: C17_25  and  C18_26 
REMARK   10  A    between atoms: C18_26  and  O6_28 
ROOT
HETATM    1  C1  UNL     1      -6.332   6.317  15.194  1.00  0.00     0.015 C 
HETATM    2  C2  UNL     1      -5.315   6.950  15.231  1.00  0.00    -0.078 C 
HETATM    3  C3  UNL     1      -4.066   7.738  15.321  1.00  0.00     0.128 C 
HETATM    4  C4  UNL     1      -3.007   6.930  16.093  1.00  0.00     0.052 C 
HETATM    5  C5  UNL     1      -2.204   6.160  15.042  1.00  0.00     0.010 C 
HETATM    6  C6  UNL     1      -2.704   6.640  13.658  1.00  0.00     0.002 C 
HETATM    7  C7  UNL     1      -1.642   6.666  12.534  1.00  0.00    -0.004 C 
HETATM    8  C8  UNL     1      -0.960   5.295  12.382  1.00  0.00     0.010 C 
HETATM    9  C9  UNL     1       0.062   5.299  11.253  1.00  0.00     0.035 C 
HETATM   10  C10 UNL     1       1.078   6.400  11.452  1.00  0.00    -0.069 C 
HETATM   11  C11 UNL     1       2.389   6.103  11.518  1.00  0.00     0.030 C 
HETATM   12  C12 UNL     1       3.411   7.177  11.654  1.00  0.00     0.032 C 
HETATM   13  N1  UNL     1       4.613   6.844  12.024  1.00  0.00    -0.271 N 
ATOM     14  H1  UNL     1       4.912   5.886  12.205  1.00  0.00     0.194 HD
HETATM   15  C22 UNL     1       2.954   8.585  11.330  1.00  0.00     0.060 C 
HETATM   16  C23 UNL     1       1.626   8.813  12.040  1.00  0.00     0.020 C 
HETATM   17  C24 UNL     1       0.511   7.817  11.601  1.00  0.00    -0.016 C 
HETATM   18  C25 UNL     1      -0.034   8.279  10.235  1.00  0.00     0.020 C 
HETATM   19  C26 UNL     1      -0.598   7.800  12.720  1.00  0.00     0.002 C 
HETATM   20  C27 UNL     1      -1.315   9.155  12.888  1.00  0.00     0.007 C 
HETATM   21  C28 UNL     1      -2.306   9.131  14.052  1.00  0.00     0.014 C 
HETATM   22  C29 UNL     1      -3.378   8.006  13.944  1.00  0.00     0.003 C 
HETATM   23  C30 UNL     1      -4.386   8.399  12.847  1.00  0.00     0.020 C 
ENDROOT
BRANCH   3  24
HETATM   24  O1  UNL     1      -4.392   8.950  15.991  1.00  0.00    -0.377 OA
HETATM   25  H2  UNL     1      -3.577   9.340  16.348  1.00  0.00     0.211 HD
ENDBRANCH   3  24
BRANCH  13  26
HETATM   26  O2  UNL     1       5.448   7.966  12.140  1.00  0.00    -0.271 OA
BRANCH  26  27
HETATM   27  C13 UNL     1       6.771   7.560  12.475  1.00  0.00     0.303 C 
BRANCH  27  28
HETATM   28  C14 UNL     1       7.556   8.615  13.246  1.00  0.00     0.244 C 
HETATM   29  O3  UNL     1       7.402   9.817  13.060  1.00  0.00    -0.271 OA
HETATM   30  N2  UNL     1       8.416   8.093  14.183  1.00  0.00    -0.346 N 
HETATM   31  H16 UNL     1       8.419   7.078  14.254  1.00  0.00     0.163 HD
BRANCH  30  32
HETATM   32  C15 UNL     1       9.310   8.902  15.016  1.00  0.00     0.180 C 
BRANCH  32  33
HETATM   33  C16 UNL     1      10.337   9.637  14.113  1.00  0.00     0.241 C 
HETATM   34  O4  UNL     1      10.288   9.622  12.886  1.00  0.00    -0.271 OA
HETATM   35  N3  UNL     1      11.384  10.241  14.793  1.00  0.00    -0.349 N 
HETATM   36  H18 UNL     1      11.192  10.450  15.773  1.00  0.00     0.163 HD
BRANCH  35  37
HETATM   37  C17 UNL     1      12.259  11.171  14.093  1.00  0.00     0.232 C 
BRANCH  37  38
HETATM   38  C18 UNL     1      13.520  10.497  13.576  1.00  0.00     0.158 C 
HETATM   39  O5  UNL     1      13.591   9.761  12.603  1.00  0.00    -0.649 OA
BRANCH  38  40
HETATM   40  O6  UNL     1      14.604  10.703  14.360  1.00  0.00    -0.775 OA
HETATM   41  H21 UNL     1      15.331  10.247  13.884  1.00  0.00     0.167 HD
ENDBRANCH  38  40
ENDBRANCH  37  38
ENDBRANCH  35  37
ENDBRANCH  32  33
BRANCH  32  42
HETATM   42  C19 UNL     1       8.505   9.910  15.875  1.00  0.00     0.009 C 
HETATM   43  C20 UNL     1       8.713  11.344  15.365  1.00  0.00     0.012 C 
HETATM   44  C21 UNL     1       8.904   9.876  17.358  1.00  0.00     0.012 C 
ENDBRANCH  32  42
ENDBRANCH  30  32
ENDBRANCH  27  28
ENDBRANCH  26  27
ENDBRANCH  13  26
TORSDOF 10
ENDMDL
MODEL 2
REMARK minimizedAffinity -8.5995512
REMARK CNNscore 0.440758079
REMARK CNNaffinity 7.0122261
REMARK  10 active torsions:
REMARK  status: ('A' for Active; 'I' for Inactive)
REMARK    1  A    between atoms: C3_3  and  O1_4 
REMARK    2  A    between atoms: N1_14  and  O2_16 
REMARK    3  A    between atoms: O2_16  and  C13_17 
REMARK    4  A    between atoms: C13_17  and  C14_18 
REMARK       I    between atoms: C14_18  and  N2_20 
REMARK    5  A    between atoms: N2_20  and  C15_21 
REMARK    6  A    between atoms: C15_21  and  C16_22 
REMARK    7  A    between atoms: C15_21  and  C19_29 
REMARK       I    between atoms: C16_22  and  N3_24 
REMARK    8  A    between atoms: N3_24  and  C17_25 
REMARK    9  A    between atoms: C17_25  and  C18_26 
REMARK   10  A    between atoms: C18_26  and  O6_28 
ROOT
HETATM    1  C1  UNL     1      -6.011   6.934  15.404  1.00  0.00     0.015 C 
HETATM    2  C2  UNL     1      -4.937   7.461  15.336  1.00  0.00    -0.078 C 
HETATM    3  C3  UNL     1      -3.612   8.120  15.295  1.00  0.00     0.128 C 
HETATM    4  C4  UNL     1      -2.582   7.244  16.031  1.00  0.00     0.052 C 
HETATM    5  C5  UNL     1      -1.942   6.349  14.967  1.00  0.00     0.010 C 
HETATM    6  C6  UNL     1      -2.497   6.814  13.599  1.00  0.00     0.002 C 
HETATM    7  C7  UNL     1      -1.525   6.680  12.403  1.00  0.00    -0.004 C 
HETATM    8  C8  UNL     1      -0.996   5.241  12.275  1.00  0.00     0.010 C 
HETATM    9  C9  UNL     1      -0.068   5.089  11.077  1.00  0.00     0.035 C 
HETATM   10  C10 UNL     1       1.065   6.088  11.145  1.00  0.00    -0.069 C 
HETATM   11  C11 UNL     1       2.341   5.661  11.133  1.00  0.00     0.030 C 
HETATM   12  C12 UNL     1       3.471   6.631  11.139  1.00  0.00     0.032 C 
HETATM   13  N1  UNL     1       4.659   6.193  11.438  1.00  0.00    -0.271 N 
ATOM     14  H1  UNL     1       4.875   5.219  11.649  1.00  0.00     0.194 HD
HETATM   15  C22 UNL     1       3.132   8.061  10.774  1.00  0.00     0.060 C 
HETATM   16  C23 UNL     1       1.891   8.457  11.564  1.00  0.00     0.020 C 
HETATM   17  C24 UNL     1       0.653   7.561  11.259  1.00  0.00    -0.016 C 
HETATM   18  C25 UNL     1       0.054   8.014   9.912  1.00  0.00     0.020 C 
HETATM   19  C26 UNL     1      -0.364   7.709  12.453  1.00  0.00     0.002 C 
HETATM   20  C27 UNL     1      -0.928   9.136  12.600  1.00  0.00     0.007 C 
HETATM   21  C28 UNL     1      -1.825   9.266  13.832  1.00  0.00     0.014 C 
HETATM   22  C29 UNL     1      -3.008   8.254  13.860  1.00  0.00     0.003 C 
HETATM   23  C30 UNL     1      -4.053   8.698  12.818  1.00  0.00     0.020 C 
ENDROOT
BRANCH   3  24
HETATM   24  O1  UNL     1      -3.765   9.388  15.922  1.00  0.00    -0.377 OA
HETATM   25  H2  UNL     1      -2.890   9.708  16.198  1.00  0.00     0.211 HD
ENDBRANCH   3  24
BRANCH  13  26
HETATM   26  O2  UNL     1       5.607   7.228  11.436  1.00  0.00    -0.271 OA
BRANCH  26  27
HETATM   27  C13 UNL     1       6.510   7.067  12.525  1.00  0.00     0.303 C 
BRANCH  27  28
HETATM   28  C14 UNL     1       7.249   8.348  12.898  1.00  0.00     0.244 C 
HETATM   29  O3  UNL     1       7.288   9.325  12.157  1.00  0.00    -0.271 OA
HETATM   30  N2  UNL     1       7.828   8.312  14.144  1.00  0.00    -0.346 N 
HETATM   31  H16 UNL     1       7.689   7.450  14.665  1.00  0.00     0.163 HD
BRANCH  30  32
HETATM   32  C15 UNL     1       8.629   9.403  14.707  1.00  0.00     0.180 C 
BRANCH  32  33
HETATM   33  C16 UNL     1       8.370   9.503  16.234  1.00  0.00     0.241 C 
HETATM   34  O4  UNL     1       7.597   8.763  16.837  1.00  0.00    -0.271 OA
HETATM   35  N3  UNL     1       9.006  10.561  16.866  1.00  0.00    -0.349 N 
HETATM   36  H18 UNL     1       9.823  10.923  16.373  1.00  0.00     0.163 HD
BRANCH  35  37
HETATM   37  C17 UNL     1       9.054  10.611  18.320  1.00  0.00     0.232 C 
BRANCH  37  38
HETATM   38  C18 UNL     1      10.418  11.042  18.836  1.00  0.00     0.158 C 
HETATM   39  O5  UNL     1      10.727  12.172  19.184  1.00  0.00    -0.649 OA
BRANCH  38  40
HETATM   40  O6  UNL     1      11.347  10.058  18.798  1.00  0.00    -0.775 OA
HETATM   41  H21 UNL     1      12.145  10.471  19.191  1.00  0.00     0.167 HD
ENDBRANCH  38  40
ENDBRANCH  37  38
ENDBRANCH  35  37
ENDBRANCH  32  33
BRANCH  32  42
HETATM   42  C19 UNL     1      10.137   9.191  14.413  1.00  0.00     0.009 C 
HETATM   43  C20 UNL     1      10.627  10.187  13.351  1.00  0.00     0.012 C 
HETATM   44  C21 UNL     1      10.450   7.774  13.910  1.00  0.00     0.012 C 
ENDBRANCH  32  42
ENDBRANCH  30  32
ENDBRANCH  27  28
ENDBRANCH  26  27
ENDBRANCH  13  26
TORSDOF 10
ENDMDL
MODEL 3
REMARK minimizedAffinity -8.07163525
REMARK CNNscore 0.433182269
REMARK CNNaffinity 7.01378489
REMARK  10 active torsions:
REMARK  status: ('A' for Active; 'I' for Inactive)
REMARK    1  A    between atoms: C3_3  and  O1_4 
REMARK    2  A    between atoms: N1_14  and  O2_16 
REMARK    3  A    between atoms: O2_16  and  C13_17 
REMARK    4  A    between atoms: C13_17  and  C14_18 
REMARK       I    between atoms: C14_18  and  N2_20 
REMARK    5  A    between atoms: N2_20  and  C15_21 
REMARK    6  A    between atoms: C15_21  and  C16_22 
REMARK    7  A    between atoms: C15_21  and  C19_29 
REMARK       I    between atoms: C16_22  and  N3_24 
REMARK    8  A    between atoms: N3_24  and  C17_25 
REMARK    9  A    between atoms: C17_25  and  C18_26 
REMARK   10  A    between atoms: C18_26  and  O6_28 
ROOT
HETATM    1  C1  UNL     1      -7.829   3.830  13.767  1.00  0.00     0.015 C 
HETATM    2  C2  UNL     1      -7.476   4.876  14.234  1.00  0.00    -0.078 C 
HETATM    3  C3  UNL     1      -7.075   6.165  14.838  1.00  0.00     0.128 C 
HETATM    4  C4  UNL     1      -6.522   5.915  16.254  1.00  0.00     0.052 C 
HETATM    5  C5  UNL     1      -5.008   5.750  16.100  1.00  0.00     0.010 C 
HETATM    6  C6  UNL     1      -4.674   6.053  14.619  1.00  0.00     0.002 C 
HETATM    7  C7  UNL     1      -3.297   6.711  14.364  1.00  0.00    -0.004 C 
HETATM    8  C8  UNL     1      -2.161   5.878  14.983  1.00  0.00     0.010 C 
HETATM    9  C9  UNL     1      -0.797   6.498  14.706  1.00  0.00     0.035 C 
HETATM   10  C10 UNL     1      -0.751   7.931  15.182  1.00  0.00    -0.069 C 
HETATM   11  C11 UNL     1       0.182   8.316  16.072  1.00  0.00     0.030 C 
HETATM   12  C12 UNL     1       0.282   9.736  16.509  1.00  0.00     0.032 C 
HETATM   13  N1  UNL     1       0.971  10.007  17.579  1.00  0.00    -0.271 N 
ATOM     14  H1  UNL     1       1.470   9.309  18.130  1.00  0.00     0.194 HD
HETATM   15  C22 UNL     1      -0.427  10.758  15.644  1.00  0.00     0.060 C 
HETATM   16  C23 UNL     1      -1.827  10.229  15.361  1.00  0.00     0.020 C 
HETATM   17  C24 UNL     1      -1.833   8.860  14.616  1.00  0.00    -0.016 C 
HETATM   18  C25 UNL     1      -1.530   9.124  13.127  1.00  0.00     0.020 C 
HETATM   19  C26 UNL     1      -3.240   8.188  14.837  1.00  0.00     0.002 C 
HETATM   20  C27 UNL     1      -4.402   8.987  14.214  1.00  0.00     0.007 C 
HETATM   21  C28 UNL     1      -5.759   8.362  14.541  1.00  0.00     0.014 C 
HETATM   22  C29 UNL     1      -5.887   6.872  14.110  1.00  0.00     0.003 C 
HETATM   23  C30 UNL     1      -6.021   6.821  12.575  1.00  0.00     0.020 C 
ENDROOT
BRANCH   3  24
HETATM   24  O1  UNL     1      -8.237   6.985  14.867  1.00  0.00    -0.377 OA
HETATM   25  H2  UNL     1      -8.107   7.690  15.523  1.00  0.00     0.211 HD
ENDBRANCH   3  24
BRANCH  13  26
HETATM   26  O2  UNL     1       0.942  11.377  17.880  1.00  0.00    -0.271 OA
BRANCH  26  27
HETATM   27  C13 UNL     1       1.308  11.587  19.240  1.00  0.00     0.303 C 
BRANCH  27  28
HETATM   28  C14 UNL     1       2.687  11.040  19.592  1.00  0.00     0.244 C 
HETATM   29  O3  UNL     1       3.474  10.640  18.741  1.00  0.00    -0.271 OA
HETATM   30  N2  UNL     1       2.970  11.072  20.937  1.00  0.00    -0.346 N 
HETATM   31  H16 UNL     1       2.238  11.459  21.528  1.00  0.00     0.163 HD
BRANCH  30  32
HETATM   32  C15 UNL     1       4.210  10.560  21.526  1.00  0.00     0.180 C 
BRANCH  32  33
HETATM   33  C16 UNL     1       5.240  11.714  21.655  1.00  0.00     0.241 C 
HETATM   34  O4  UNL     1       5.363  12.604  20.818  1.00  0.00    -0.271 OA
HETATM   35  N3  UNL     1       6.089  11.619  22.747  1.00  0.00    -0.349 N 
HETATM   36  H18 UNL     1       5.736  11.044  23.512  1.00  0.00     0.163 HD
BRANCH  35  37
HETATM   37  C17 UNL     1       6.914  12.759  23.121  1.00  0.00     0.232 C 
BRANCH  37  38
HETATM   38  C18 UNL     1       8.398  12.428  23.095  1.00  0.00     0.158 C 
HETATM   39  O5  UNL     1       9.298  13.196  22.787  1.00  0.00    -0.649 OA
BRANCH  38  40
HETATM   40  O6  UNL     1       8.668  11.128  23.362  1.00  0.00    -0.775 OA
HETATM   41  H21 UNL     1       9.648  11.081  23.346  1.00  0.00     0.167 HD
ENDBRANCH  38  40
ENDBRANCH  37  38
ENDBRANCH  35  37
ENDBRANCH  32  33
BRANCH  32  42
HETATM   42  C19 UNL     1       3.939   9.901  22.903  1.00  0.00     0.009 C 
HETATM   43  C20 UNL     1       3.227   8.551  22.728  1.00  0.00     0.012 C 
HETATM   44  C21 UNL     1       3.070  10.777  23.818  1.00  0.00     0.012 C 
ENDBRANCH  32  42
ENDBRANCH  30  32
ENDBRANCH  27  28
ENDBRANCH  26  27
ENDBRANCH  13  26
TORSDOF 10
ENDMDL
MODEL 4
REMARK minimizedAffinity -7.91049862
REMARK CNNscore 0.421138674
REMARK CNNaffinity 6.93079138
REMARK  10 active torsions:
REMARK  status: ('A' for Active; 'I' for Inactive)
REMARK    1  A    between atoms: C3_3  and  O1_4 
REMARK    2  A    between atoms: N1_14  and  O2_16 
REMARK    3  A    between atoms: O2_16  and  C13_17 
REMARK    4  A    between atoms: C13_17  and  C14_18 
REMARK       I    between atoms: C14_18  and  N2_20 
REMARK    5  A    between atoms: N2_20  and  C15_21 
REMARK    6  A    between atoms: C15_21  and  C16_22 
REMARK    7  A    between atoms: C15_21  and  C19_29 
REMARK       I    between atoms: C16_22  and  N3_24 
REMARK    8  A    between atoms: N3_24  and  C17_25 
REMARK    9  A    between atoms: C17_25  and  C18_26 
REMARK   10  A    between atoms: C18_26  and  O6_28 
ROOT
HETATM    1  C1  UNL     1      -6.903   5.851  14.830  1.00  0.00     0.015 C 
HETATM    2  C2  UNL     1      -5.874   6.440  15.005  1.00  0.00    -0.078 C 
HETATM    3  C3  UNL     1      -4.610   7.165  15.264  1.00  0.00     0.128 C 
HETATM    4  C4  UNL     1      -3.596   6.207  15.914  1.00  0.00     0.052 C 
HETATM    5  C5  UNL     1      -2.776   5.608  14.768  1.00  0.00     0.010 C 
HETATM    6  C6  UNL     1      -3.221   6.333  13.475  1.00  0.00     0.002 C 
HETATM    7  C7  UNL     1      -2.122   6.523  12.403  1.00  0.00    -0.004 C 
HETATM    8  C8  UNL     1      -1.467   5.179  12.035  1.00  0.00     0.010 C 
HETATM    9  C9  UNL     1      -0.409   5.350  10.952  1.00  0.00     0.035 C 
HETATM   10  C10 UNL     1       0.624   6.371  11.367  1.00  0.00    -0.069 C 
HETATM   11  C11 UNL     1       1.926   6.030  11.417  1.00  0.00     0.030 C 
HETATM   12  C12 UNL     1       2.967   7.036  11.766  1.00  0.00     0.032 C 
HETATM   13  N1  UNL     1       4.148   6.611  12.105  1.00  0.00    -0.271 N 
ATOM     14  H1  UNL     1       4.419   5.627  12.126  1.00  0.00     0.194 HD
HETATM   15  C22 UNL     1       2.552   8.491  11.677  1.00  0.00     0.060 C 
HETATM   16  C23 UNL     1       1.207   8.630  12.379  1.00  0.00     0.020 C 
HETATM   17  C24 UNL     1       0.085   7.756  11.743  1.00  0.00    -0.016 C 
HETATM   18  C25 UNL     1      -0.405   8.462  10.463  1.00  0.00     0.020 C 
HETATM   19  C26 UNL     1      -1.060   7.578  12.811  1.00  0.00     0.002 C 
HETATM   20  C27 UNL     1      -1.750   8.903  13.191  1.00  0.00     0.007 C 
HETATM   21  C28 UNL     1      -2.779   8.706  14.305  1.00  0.00     0.014 C 
HETATM   22  C29 UNL     1      -3.872   7.647  13.975  1.00  0.00     0.003 C 
HETATM   23  C30 UNL     1      -4.835   8.252  12.934  1.00  0.00     0.020 C 
ENDROOT
BRANCH   3  24
HETATM   24  O1  UNL     1      -4.930   8.252  16.125  1.00  0.00    -0.377 OA
HETATM   25  H2  UNL     1      -4.118   8.552  16.567  1.00  0.00     0.211 HD
ENDBRANCH   3  24
BRANCH  13  26
HETATM   26  O2  UNL     1       5.004   7.672  12.438  1.00  0.00    -0.271 OA
BRANCH  26  27
HETATM   27  C13 UNL     1       5.465   8.318  11.257  1.00  0.00     0.303 C 
BRANCH  27  28
HETATM   28  C14 UNL     1       6.833   8.975  11.415  1.00  0.00     0.244 C 
HETATM   29  O3  UNL     1       7.470   9.409  10.462  1.00  0.00    -0.271 OA
HETATM   30  N2  UNL     1       7.258   9.062  12.720  1.00  0.00    -0.346 N 
HETATM   31  H16 UNL     1       6.615   8.691  13.414  1.00  0.00     0.163 HD
BRANCH  30  32
HETATM   32  C15 UNL     1       8.556   9.609  13.123  1.00  0.00     0.180 C 
BRANCH  32  33
HETATM   33  C16 UNL     1       8.473  11.158  13.177  1.00  0.00     0.241 C 
HETATM   34  O4  UNL     1       9.447  11.891  13.026  1.00  0.00    -0.271 OA
HETATM   35  N3  UNL     1       7.226  11.665  13.507  1.00  0.00    -0.349 N 
HETATM   36  H18 UNL     1       6.447  11.030  13.328  1.00  0.00     0.163 HD
BRANCH  35  37
HETATM   37  C17 UNL     1       6.954  13.085  13.337  1.00  0.00     0.232 C 
BRANCH  37  38
HETATM   38  C18 UNL     1       6.106  13.366  12.106  1.00  0.00     0.158 C 
HETATM   39  O5  UNL     1       5.869  14.469  11.636  1.00  0.00    -0.649 OA
BRANCH  38  40
HETATM   40  O6  UNL     1       5.523  12.259  11.587  1.00  0.00    -0.775 OA
HETATM   41  H21 UNL     1       5.052  12.591  10.793  1.00  0.00     0.167 HD
ENDBRANCH  38  40
ENDBRANCH  37  38
ENDBRANCH  35  37
ENDBRANCH  32  33
BRANCH  32  42
HETATM   42  C19 UNL     1       9.001   9.030  14.491  1.00  0.00     0.009 C 
HETATM   43  C20 UNL     1       9.319  10.161  15.481  1.00  0.00     0.012 C 
HETATM   44  C21 UNL     1      10.246   8.137  14.380  1.00  0.00     0.012 C 
ENDBRANCH  32  42
ENDBRANCH  30  32
ENDBRANCH  27  28
ENDBRANCH  26  27
ENDBRANCH  13  26
TORSDOF 10
ENDMDL
MODEL 5
REMARK minimizedAffinity -7.83806896
REMARK CNNscore 0.418779224
REMARK CNNaffinity 6.45245361
REMARK  10 active torsions:
REMARK  status: ('A' for Active; 'I' for Inactive)
REMARK    1  A    between atoms: C3_3  and  O1_4 
REMARK    2  A    between atoms: N1_14  and  O2_16 
REMARK    3  A    between atoms: O2_16  and  C13_17 
REMARK    4  A    between atoms: C13_17  and  C14_18 
REMARK       I    between atoms: C14_18  and  N2_20 
REMARK    5  A    between atoms: N2_20  and  C15_21 
REMARK    6  A    between atoms: C15_21  and  C16_22 
REMARK    7  A    between atoms: C15_21  and  C19_29 
REMARK       I    between atoms: C16_22  and  N3_24 
REMARK    8  A    between atoms: N3_24  and  C17_25 
REMARK    9  A    between atoms: C17_25  and  C18_26 
REMARK   10  A    between atoms: C18_26  and  O6_28 
ROOT
HETATM    1  C1  UNL     1     -11.067  15.076  23.753  1.00  0.00     0.015 C 
HETATM    2  C2  UNL     1     -10.163  14.325  23.519  1.00  0.00    -0.078 C 
HETATM    3  C3  UNL     1      -9.067  13.367  23.253  1.00  0.00     0.128 C 
HETATM    4  C4  UNL     1      -9.555  12.297  22.259  1.00  0.00     0.052 C 
HETATM    5  C5  UNL     1      -9.175  12.803  20.865  1.00  0.00     0.010 C 
HETATM    6  C6  UNL     1      -8.339  14.089  21.069  1.00  0.00     0.002 C 
HETATM    7  C7  UNL     1      -7.233  14.343  20.017  1.00  0.00    -0.004 C 
HETATM    8  C8  UNL     1      -7.811  14.331  18.590  1.00  0.00     0.010 C 
HETATM    9  C9  UNL     1      -6.738  14.617  17.548  1.00  0.00     0.035 C 
HETATM   10  C10 UNL     1      -5.586  13.648  17.684  1.00  0.00    -0.069 C 
HETATM   11  C11 UNL     1      -5.221  12.885  16.637  1.00  0.00     0.030 C 
HETATM   12  C12 UNL     1      -4.052  11.967  16.730  1.00  0.00     0.032 C 
HETATM   13  N1  UNL     1      -3.924  11.037  15.829  1.00  0.00    -0.271 N 
ATOM     14  H1  UNL     1      -4.562  10.908  15.044  1.00  0.00     0.194 HD
HETATM   15  C22 UNL     1      -3.094  12.214  17.876  1.00  0.00     0.060 C 
HETATM   16  C23 UNL     1      -3.924  12.391  19.141  1.00  0.00     0.020 C 
HETATM   17  C24 UNL     1      -4.921  13.586  19.064  1.00  0.00    -0.016 C 
HETATM   18  C25 UNL     1      -4.127  14.888  19.291  1.00  0.00     0.020 C 
HETATM   19  C26 UNL     1      -6.038  13.362  20.152  1.00  0.00     0.002 C 
HETATM   20  C27 UNL     1      -5.497  13.384  21.595  1.00  0.00     0.007 C 
HETATM   21  C28 UNL     1      -6.589  13.056  22.615  1.00  0.00     0.014 C 
HETATM   22  C29 UNL     1      -7.831  13.991  22.530  1.00  0.00     0.003 C 
HETATM   23  C30 UNL     1      -7.444  15.368  23.105  1.00  0.00     0.020 C 
ENDROOT
BRANCH   3  24
HETATM   24  O1  UNL     1      -8.710  12.793  24.505  1.00  0.00    -0.377 OA
HETATM   25  H2  UNL     1      -8.240  11.958  24.345  1.00  0.00     0.211 HD
ENDBRANCH   3  24
BRANCH  13  26
HETATM   26  O2  UNL     1      -2.798  10.235  16.072  1.00  0.00    -0.271 OA
BRANCH  26  27
HETATM   27  C13 UNL     1      -3.148   8.858  15.977  1.00  0.00     0.303 C 
BRANCH  27  28
HETATM   28  C14 UNL     1      -4.401   8.604  15.145  1.00  0.00     0.244 C 
HETATM   29  O3  UNL     1      -4.588   9.136  14.057  1.00  0.00    -0.271 OA
HETATM   30  N2  UNL     1      -5.271   7.704  15.714  1.00  0.00    -0.346 N 
HETATM   31  H16 UNL     1      -4.975   7.314  16.606  1.00  0.00     0.163 HD
BRANCH  30  32
HETATM   32  C15 UNL     1      -6.562   7.331  15.129  1.00  0.00     0.180 C 
BRANCH  32  33
HETATM   33  C16 UNL     1      -6.337   6.332  13.964  1.00  0.00     0.241 C 
HETATM   34  O4  UNL     1      -5.256   5.794  13.737  1.00  0.00    -0.271 OA
HETATM   35  N3  UNL     1      -7.426   6.157  13.125  1.00  0.00    -0.349 N 
HETATM   36  H18 UNL     1      -8.327   6.397  13.541  1.00  0.00     0.163 HD
BRANCH  35  37
HETATM   37  C17 UNL     1      -7.430   5.064  12.163  1.00  0.00     0.232 C 
BRANCH  37  38
HETATM   38  C18 UNL     1      -7.739   3.725  12.813  1.00  0.00     0.158 C 
HETATM   39  O5  UNL     1      -8.834   3.184  12.854  1.00  0.00    -0.649 OA
BRANCH  38  40
HETATM   40  O6  UNL     1      -6.681   3.180  13.460  1.00  0.00    -0.775 OA
HETATM   41  H21 UNL     1      -7.021   2.320  13.787  1.00  0.00     0.167 HD
ENDBRANCH  38  40
ENDBRANCH  37  38
ENDBRANCH  35  37
ENDBRANCH  32  33
BRANCH  32  42
HETATM   42  C19 UNL     1      -7.503   6.728  16.204  1.00  0.00     0.009 C 
HETATM   43  C20 UNL     1      -7.479   5.193  16.144  1.00  0.00     0.012 C 
HETATM   44  C21 UNL     1      -8.961   7.183  16.039  1.00  0.00     0.012 C 
ENDBRANCH  32  42
ENDBRANCH  30  32
ENDBRANCH  27  28
ENDBRANCH  26  27
ENDBRANCH  13  26
TORSDOF 10
ENDMDL
MODEL 6
REMARK minimizedAffinity -7.98499203
REMARK CNNscore 0.326145649
REMARK CNNaffinity 6.83327246
REMARK  10 active torsions:
REMARK  status: ('A' for Active; 'I' for Inactive)
REMARK    1  A    between atoms: C3_3  and  O1_4 
REMARK    2  A    between atoms: N1_14  and  O2_16 
REMARK    3  A    between atoms: O2_16  and  C13_17 
REMARK    4  A    between atoms: C13_17  and  C14_18 
REMARK       I    between atoms: C14_18  and  N2_20 
REMARK    5  A    between atoms: N2_20  and  C15_21 
REMARK    6  A    between atoms: C15_21  and  C16_22 
REMARK    7  A    between atoms: C15_21  and  C19_29 
REMARK       I    between atoms: C16_22  and  N3_24 
REMARK    8  A    between atoms: N3_24  and  C17_25 
REMARK    9  A    between atoms: C17_25  and  C18_26 
REMARK   10  A    between atoms: C18_26  and  O6_28 
ROOT
HETATM    1  C1  UNL     1      -6.577   5.995  14.896  1.00  0.00     0.015 C 
HETATM    2  C2  UNL     1      -5.540   6.580  15.034  1.00  0.00    -0.078 C 
HETATM    3  C3  UNL     1      -4.266   7.301  15.247  1.00  0.00     0.128 C 
HETATM    4  C4  UNL     1      -3.244   6.351  15.899  1.00  0.00     0.052 C 
HETATM    5  C5  UNL     1      -2.455   5.717  14.751  1.00  0.00     0.010 C 
HETATM    6  C6  UNL     1      -2.922   6.413  13.450  1.00  0.00     0.002 C 
HETATM    7  C7  UNL     1      -1.846   6.567  12.350  1.00  0.00    -0.004 C 
HETATM    8  C8  UNL     1      -1.209   5.210  12.001  1.00  0.00     0.010 C 
HETATM    9  C9  UNL     1      -0.174   5.345  10.892  1.00  0.00     0.035 C 
HETATM   10  C10 UNL     1       0.876   6.367  11.259  1.00  0.00    -0.069 C 
HETATM   11  C11 UNL     1       2.176   6.018  11.289  1.00  0.00     0.030 C 
HETATM   12  C12 UNL     1       3.231   7.024  11.590  1.00  0.00     0.032 C 
HETATM   13  N1  UNL     1       4.417   6.597  11.914  1.00  0.00    -0.271 N 
ATOM     14  H1  UNL     1       4.681   5.613  11.954  1.00  0.00     0.194 HD
HETATM   15  C22 UNL     1       2.826   8.479  11.474  1.00  0.00     0.060 C 
HETATM   16  C23 UNL     1       1.498   8.647  12.200  1.00  0.00     0.020 C 
HETATM   17  C24 UNL     1       0.356   7.766  11.612  1.00  0.00    -0.016 C 
HETATM   18  C25 UNL     1      -0.157   8.444  10.325  1.00  0.00     0.020 C 
HETATM   19  C26 UNL     1      -0.767   7.624  12.708  1.00  0.00     0.002 C 
HETATM   20  C27 UNL     1      -1.439   8.963  13.069  1.00  0.00     0.007 C 
HETATM   21  C28 UNL     1      -2.445   8.803  14.210  1.00  0.00     0.014 C 
HETATM   22  C29 UNL     1      -3.552   7.745  13.930  1.00  0.00     0.003 C 
HETATM   23  C30 UNL     1      -4.533   8.331  12.896  1.00  0.00     0.020 C 
ENDROOT
BRANCH   3  24
HETATM   24  O1  UNL     1      -4.559   8.412  16.087  1.00  0.00    -0.377 OA
HETATM   25  H2  UNL     1      -3.735   8.716  16.503  1.00  0.00     0.211 HD
ENDBRANCH   3  24
BRANCH  13  26
HETATM   26  O2  UNL     1       5.288   7.659  12.201  1.00  0.00    -0.271 OA
BRANCH  26  27
HETATM   27  C13 UNL     1       5.956   8.079  11.017  1.00  0.00     0.303 C 
BRANCH  27  28
HETATM   28  C14 UNL     1       6.824   9.318  11.213  1.00  0.00     0.244 C 
HETATM   29  O3  UNL     1       7.493   9.804  10.308  1.00  0.00    -0.271 OA
HETATM   30  N2  UNL     1       6.754   9.849  12.479  1.00  0.00    -0.346 N 
HETATM   31  H16 UNL     1       6.134   9.364  13.123  1.00  0.00     0.163 HD
BRANCH  30  32
HETATM   32  C15 UNL     1       7.530  11.010  12.925  1.00  0.00     0.180 C 
BRANCH  32  33
HETATM   33  C16 UNL     1       9.012  10.840  12.497  1.00  0.00     0.241 C 
HETATM   34  O4  UNL     1       9.776  10.034  13.019  1.00  0.00    -0.271 OA
HETATM   35  N3  UNL     1       9.449  11.739  11.536  1.00  0.00    -0.349 N 
HETATM   36  H18 UNL     1       8.707  12.153  10.970  1.00  0.00     0.163 HD
BRANCH  35  37
HETATM   37  C17 UNL     1      10.724  11.521  10.868  1.00  0.00     0.232 C 
BRANCH  37  38
HETATM   38  C18 UNL     1      10.638  11.763   9.369  1.00  0.00     0.158 C 
HETATM   39  O5  UNL     1      10.423  12.838   8.829  1.00  0.00    -0.649 OA
BRANCH  38  40
HETATM   40  O6  UNL     1      10.731  10.631   8.632  1.00  0.00    -0.775 OA
HETATM   41  H21 UNL     1      10.698  10.949   7.705  1.00  0.00     0.167 HD
ENDBRANCH  38  40
ENDBRANCH  37  38
ENDBRANCH  35  37
ENDBRANCH  32  33
BRANCH  32  42
HETATM   42  C19 UNL     1       6.935  12.325  12.357  1.00  0.00     0.009 C 
HETATM   43  C20 UNL     1       7.302  13.517  13.255  1.00  0.00     0.012 C 
HETATM   44  C21 UNL     1       5.405  12.280  12.235  1.00  0.00     0.012 C 
ENDBRANCH  32  42
ENDBRANCH  30  32
ENDBRANCH  27  28
ENDBRANCH  26  27
ENDBRANCH  13  26
TORSDOF 10
ENDMDL
MODEL 7
REMARK minimizedAffinity -10.0182753
REMARK CNNscore 0.300391525
REMARK CNNaffinity 7.19164801
REMARK  10 active torsions:
REMARK  status: ('A' for Active; 'I' for Inactive)
REMARK    1  A    between atoms: C3_3  and  O1_4 
REMARK    2  A    between atoms: N1_14  and  O2_16 
REMARK    3  A    between atoms: O2_16  and  C13_17 
REMARK    4  A    between atoms: C13_17  and  C14_18 
REMARK       I    between atoms: C14_18  and  N2_20 
REMARK    5  A    between atoms: N2_20  and  C15_21 
REMARK    6  A    between atoms: C15_21  and  C16_22 
REMARK    7  A    between atoms: C15_21  and  C19_29 
REMARK       I    between atoms: C16_22  and  N3_24 
REMARK    8  A    between atoms: N3_24  and  C17_25 
REMARK    9  A    between atoms: C17_25  and  C18_26 
REMARK   10  A    between atoms: C18_26  and  O6_28 
ROOT
HETATM    1  C1  UNL     1     -14.312   8.989  15.331  1.00  0.00     0.015 C 
HETATM    2  C2  UNL     1     -13.382   8.875  14.585  1.00  0.00    -0.078 C 
HETATM    3  C3  UNL     1     -12.247   8.770  13.641  1.00  0.00     0.128 C 
HETATM    4  C4  UNL     1     -11.255   9.917  13.906  1.00  0.00     0.052 C 
HETATM    5  C5  UNL     1     -10.219   9.370  14.892  1.00  0.00     0.010 C 
HETATM    6  C6  UNL     1     -10.531   7.866  15.078  1.00  0.00     0.002 C 
HETATM    7  C7  UNL     1      -9.307   6.954  15.330  1.00  0.00    -0.004 C 
HETATM    8  C8  UNL     1      -8.479   7.456  16.527  1.00  0.00     0.010 C 
HETATM    9  C9  UNL     1      -7.291   6.544  16.808  1.00  0.00     0.035 C 
HETATM   10  C10 UNL     1      -6.434   6.384  15.574  1.00  0.00    -0.069 C 
HETATM   11  C11 UNL     1      -5.128   6.710  15.614  1.00  0.00     0.030 C 
HETATM   12  C12 UNL     1      -4.252   6.504  14.428  1.00  0.00     0.032 C 
HETATM   13  N1  UNL     1      -3.100   7.107  14.398  1.00  0.00    -0.271 N 
ATOM     14  H1  UNL     1      -2.743   7.698  15.149  1.00  0.00     0.194 HD
HETATM   15  C22 UNL     1      -4.785   5.582  13.350  1.00  0.00     0.060 C 
HETATM   16  C23 UNL     1      -6.227   5.984  13.071  1.00  0.00     0.020 C 
HETATM   17  C24 UNL     1      -7.153   5.874  14.319  1.00  0.00    -0.016 C 
HETATM   18  C25 UNL     1      -7.509   4.388  14.522  1.00  0.00     0.020 C 
HETATM   19  C26 UNL     1      -8.423   6.771  14.067  1.00  0.00     0.002 C 
HETATM   20  C27 UNL     1      -9.286   6.288  12.885  1.00  0.00     0.007 C 
HETATM   21  C28 UNL     1     -10.448   7.242  12.604  1.00  0.00     0.014 C 
HETATM   22  C29 UNL     1     -11.372   7.489  13.832  1.00  0.00     0.003 C 
HETATM   23  C30 UNL     1     -12.220   6.223  14.063  1.00  0.00     0.020 C 
ENDROOT
BRANCH   3  24
HETATM   24  O1  UNL     1     -12.795   8.842  12.330  1.00  0.00    -0.377 OA
HETATM   25  H2  UNL     1     -12.091   9.095  11.710  1.00  0.00     0.211 HD
ENDBRANCH   3  24
BRANCH  13  26
HETATM   26  O2  UNL     1      -2.409   6.844  13.206  1.00  0.00    -0.271 OA
BRANCH  26  27
HETATM   27  C13 UNL     1      -1.276   7.698  13.097  1.00  0.00     0.303 C 
BRANCH  27  28
HETATM   28  C14 UNL     1      -0.369   7.362  11.918  1.00  0.00     0.244 C 
HETATM   29  O3  UNL     1      -0.371   6.260  11.380  1.00  0.00    -0.271 OA
HETATM   30  N2  UNL     1       0.412   8.413  11.501  1.00  0.00    -0.346 N 
HETATM   31  H16 UNL     1       0.288   9.281  12.017  1.00  0.00     0.163 HD
BRANCH  30  32
HETATM   32  C15 UNL     1       1.396   8.324  10.418  1.00  0.00     0.180 C 
BRANCH  32  33
HETATM   33  C16 UNL     1       2.530   7.346  10.824  1.00  0.00     0.241 C 
HETATM   34  O4  UNL     1       2.987   7.279  11.962  1.00  0.00    -0.271 OA
HETATM   35  N3  UNL     1       3.066   6.608   9.781  1.00  0.00    -0.349 N 
HETATM   36  H18 UNL     1       2.455   6.511   8.969  1.00  0.00     0.163 HD
BRANCH  35  37
HETATM   37  C17 UNL     1       3.943   5.482  10.068  1.00  0.00     0.232 C 
BRANCH  37  38
HETATM   38  C18 UNL     1       3.603   4.259   9.230  1.00  0.00     0.158 C 
HETATM   39  O5  UNL     1       3.737   4.160   8.019  1.00  0.00    -0.649 OA
BRANCH  38  40
HETATM   40  O6  UNL     1       3.023   3.261   9.939  1.00  0.00    -0.775 OA
HETATM   41  H21 UNL     1       2.901   2.543   9.281  1.00  0.00     0.167 HD
ENDBRANCH  38  40
ENDBRANCH  37  38
ENDBRANCH  35  37
ENDBRANCH  32  33
BRANCH  32  42
HETATM   42  C19 UNL     1       0.724   7.875   9.095  1.00  0.00     0.009 C 
HETATM   43  C20 UNL     1       1.686   8.054   7.911  1.00  0.00     0.012 C 
HETATM   44  C21 UNL     1      -0.558   8.663   8.783  1.00  0.00     0.012 C 
ENDBRANCH  32  42
ENDBRANCH  30  32
ENDBRANCH  27  28
ENDBRANCH  26  27
ENDBRANCH  13  26
TORSDOF 10
ENDMDL
MODEL 8
REMARK minimizedAffinity -7.69663954
REMARK CNNscore 0.265940309
REMARK CNNaffinity 6.12770271
REMARK  10 active torsions:
REMARK  status: ('A' for Active; 'I' for Inactive)
REMARK    1  A    between atoms: C3_3  and  O1_4 
REMARK    2  A    between atoms: N1_14  and  O2_16 
REMARK    3  A    between atoms: O2_16  and  C13_17 
REMARK    4  A    between atoms: C13_17  and  C14_18 
REMARK       I    between atoms: C14_18  and  N2_20 
REMARK    5  A    between atoms: N2_20  and  C15_21 
REMARK    6  A    between atoms: C15_21  and  C16_22 
REMARK    7  A    between atoms: C15_21  and  C19_29 
REMARK       I    between atoms: C16_22  and  N3_24 
REMARK    8  A    between atoms: N3_24  and  C17_25 
REMARK    9  A    between atoms: C17_25  and  C18_26 
REMARK   10  A    between atoms: C18_26  and  O6_28 
ROOT
HETATM    1  C1  UNL     1      -5.661   6.682  13.598  1.00  0.00     0.015 C 
HETATM    2  C2  UNL     1      -4.632   6.557  14.198  1.00  0.00    -0.078 C 
HETATM    3  C3  UNL     1      -3.375   6.366  14.956  1.00  0.00     0.128 C 
HETATM    4  C4  UNL     1      -2.597   5.177  14.363  1.00  0.00     0.052 C 
HETATM    5  C5  UNL     1      -1.639   5.766  13.325  1.00  0.00     0.010 C 
HETATM    6  C6  UNL     1      -1.762   7.306  13.427  1.00  0.00     0.002 C 
HETATM    7  C7  UNL     1      -0.469   8.101  13.131  1.00  0.00    -0.004 C 
HETATM    8  C8  UNL     1       0.111   7.726  11.756  1.00  0.00     0.010 C 
HETATM    9  C9  UNL     1       1.364   8.532  11.437  1.00  0.00     0.035 C 
HETATM   10  C10 UNL     1       2.396   8.375  12.531  1.00  0.00    -0.069 C 
HETATM   11  C11 UNL     1       3.625   7.915  12.236  1.00  0.00     0.030 C 
HETATM   12  C12 UNL     1       4.674   7.809  13.288  1.00  0.00     0.032 C 
HETATM   13  N1  UNL     1       5.725   7.082  13.042  1.00  0.00    -0.271 N 
ATOM     14  H1  UNL     1       5.891   6.595  12.161  1.00  0.00     0.194 HD
HETATM   15  C22 UNL     1       4.426   8.583  14.566  1.00  0.00     0.060 C 
HETATM   16  C23 UNL     1       2.993   8.305  15.002  1.00  0.00     0.020 C 
HETATM   17  C24 UNL     1       1.931   8.736  13.947  1.00  0.00    -0.016 C 
HETATM   18  C25 UNL     1       1.760  10.266  14.038  1.00  0.00     0.020 C 
HETATM   19  C26 UNL     1       0.594   7.959  14.252  1.00  0.00     0.002 C 
HETATM   20  C27 UNL     1      -0.024   8.323  15.616  1.00  0.00     0.007 C 
HETATM   21  C28 UNL     1      -1.258   7.473  15.924  1.00  0.00     0.014 C 
HETATM   22  C29 UNL     1      -2.366   7.552  14.833  1.00  0.00     0.003 C 
HETATM   23  C30 UNL     1      -3.054   8.927  14.938  1.00  0.00     0.020 C 
ENDROOT
BRANCH   3  24
HETATM   24  O1  UNL     1      -3.745   6.127  16.309  1.00  0.00    -0.377 OA
HETATM   25  H2  UNL     1      -3.005   5.692  16.765  1.00  0.00     0.211 HD
ENDBRANCH   3  24
BRANCH  13  26
HETATM   26  O2  UNL     1       6.602   7.053  14.137  1.00  0.00    -0.271 OA
BRANCH  26  27
HETATM   27  C13 UNL     1       7.893   7.503  13.744  1.00  0.00     0.303 C 
BRANCH  27  28
HETATM   28  C14 UNL     1       8.192   8.939  14.163  1.00  0.00     0.244 C 
HETATM   29  O3  UNL     1       7.541   9.893  13.752  1.00  0.00    -0.271 OA
HETATM   30  N2  UNL     1       9.226   9.051  15.062  1.00  0.00    -0.346 N 
HETATM   31  H16 UNL     1       9.657   8.173  15.343  1.00  0.00     0.163 HD
BRANCH  30  32
HETATM   32  C15 UNL     1       9.729  10.327  15.577  1.00  0.00     0.180 C 
BRANCH  32  33
HETATM   33  C16 UNL     1      10.022  10.196  17.096  1.00  0.00     0.241 C 
HETATM   34  O4  UNL     1       9.405   9.436  17.837  1.00  0.00    -0.271 OA
HETATM   35  N3  UNL     1      10.975  11.076  17.584  1.00  0.00    -0.349 N 
HETATM   36  H18 UNL     1      11.617  11.443  16.881  1.00  0.00     0.163 HD
BRANCH  35  37
HETATM   37  C17 UNL     1      11.522  10.880  18.920  1.00  0.00     0.232 C 
BRANCH  37  38
HETATM   38  C18 UNL     1      12.316  12.086  19.398  1.00  0.00     0.158 C 
HETATM   39  O5  UNL     1      12.545  13.095  18.749  1.00  0.00    -0.649 OA
BRANCH  38  40
HETATM   40  O6  UNL     1      12.862  11.922  20.627  1.00  0.00    -0.775 OA
HETATM   41  H21 UNL     1      13.301  12.780  20.807  1.00  0.00     0.167 HD
ENDBRANCH  38  40
ENDBRANCH  37  38
ENDBRANCH  35  37
ENDBRANCH  32  33
BRANCH  32  42
HETATM   42  C19 UNL     1      10.997  10.775  14.804  1.00  0.00     0.009 C 
HETATM   43  C20 UNL     1      10.660  11.906  13.820  1.00  0.00     0.012 C 
HETATM   44  C21 UNL     1      11.640   9.631  14.006  1.00  0.00     0.012 C 
ENDBRANCH  32  42
ENDBRANCH  30  32
ENDBRANCH  27  28
ENDBRANCH  26  27
ENDBRANCH  13  26
TORSDOF 10
ENDMDL
MODEL 9
REMARK minimizedAffinity -9.4069643
REMARK CNNscore 0.264613092
REMARK CNNaffinity 7.21360254
REMARK  10 active torsions:
REMARK  status: ('A' for Active; 'I' for Inactive)
REMARK    1  A    between atoms: C3_3  and  O1_4 
REMARK    2  A    between atoms: N1_14  and  O2_16 
REMARK    3  A    between atoms: O2_16  and  C13_17 
REMARK    4  A    between atoms: C13_17  and  C14_18 
REMARK       I    between atoms: C14_18  and  N2_20 
REMARK    5  A    between atoms: N2_20  and  C15_21 
REMARK    6  A    between atoms: C15_21  and  C16_22 
REMARK    7  A    between atoms: C15_21  and  C19_29 
REMARK       I    between atoms: C16_22  and  N3_24 
REMARK    8  A    between atoms: N3_24  and  C17_25 
REMARK    9  A    between atoms: C17_25  and  C18_26 
REMARK   10  A    between atoms: C18_26  and  O6_28 
ROOT
HETATM    1  C1  UNL     1     -14.453   9.136  15.355  1.00  0.00     0.015 C 
HETATM    2  C2  UNL     1     -13.544   8.953  14.596  1.00  0.00    -0.078 C 
HETATM    3  C3  UNL     1     -12.435   8.762  13.635  1.00  0.00     0.128 C 
HETATM    4  C4  UNL     1     -11.416   9.905  13.798  1.00  0.00     0.052 C 
HETATM    5  C5  UNL     1     -10.366   9.405  14.794  1.00  0.00     0.010 C 
HETATM    6  C6  UNL     1     -10.700   7.923  15.089  1.00  0.00     0.002 C 
HETATM    7  C7  UNL     1      -9.487   7.007  15.373  1.00  0.00    -0.004 C 
HETATM    8  C8  UNL     1      -8.620   7.571  16.514  1.00  0.00     0.010 C 
HETATM    9  C9  UNL     1      -7.443   6.658  16.828  1.00  0.00     0.035 C 
HETATM   10  C10 UNL     1      -6.619   6.398  15.587  1.00  0.00    -0.069 C 
HETATM   11  C11 UNL     1      -5.308   6.700  15.574  1.00  0.00     0.030 C 
HETATM   12  C12 UNL     1      -4.465   6.397  14.384  1.00  0.00     0.032 C 
HETATM   13  N1  UNL     1      -3.303   6.975  14.286  1.00  0.00    -0.271 N 
ATOM     14  H1  UNL     1      -2.918   7.608  14.987  1.00  0.00     0.194 HD
HETATM   15  C22 UNL     1      -5.041   5.416  13.385  1.00  0.00     0.060 C 
HETATM   16  C23 UNL     1      -6.483   5.827  13.113  1.00  0.00     0.020 C 
HETATM   17  C24 UNL     1      -7.379   5.819  14.387  1.00  0.00    -0.016 C 
HETATM   18  C25 UNL     1      -7.757   4.357  14.698  1.00  0.00     0.020 C 
HETATM   19  C26 UNL     1      -8.638   6.722  14.105  1.00  0.00     0.002 C 
HETATM   20  C27 UNL     1      -9.539   6.177  12.979  1.00  0.00     0.007 C 
HETATM   21  C28 UNL     1     -10.690   7.133  12.661  1.00  0.00     0.014 C 
HETATM   22  C29 UNL     1     -11.579   7.480  13.891  1.00  0.00     0.003 C 
HETATM   23  C30 UNL     1     -12.444   6.250  14.228  1.00  0.00     0.020 C 
ENDROOT
BRANCH   3  24
HETATM   24  O1  UNL     1     -13.013   8.757  12.336  1.00  0.00    -0.377 OA
HETATM   25  H2  UNL     1     -12.321   8.953  11.683  1.00  0.00     0.211 HD
ENDBRANCH   3  24
BRANCH  13  26
HETATM   26  O2  UNL     1      -2.647   6.618  13.099  1.00  0.00    -0.271 OA
BRANCH  26  27
HETATM   27  C13 UNL     1      -1.968   7.746  12.556  1.00  0.00     0.303 C 
BRANCH  27  28
HETATM   28  C14 UNL     1      -0.519   7.460  12.177  1.00  0.00     0.244 C 
HETATM   29  O3  UNL     1      -0.016   6.347  12.287  1.00  0.00    -0.271 OA
HETATM   30  N2  UNL     1       0.149   8.551  11.673  1.00  0.00    -0.346 N 
HETATM   31  H16 UNL     1      -0.400   9.405  11.607  1.00  0.00     0.163 HD
BRANCH  30  32
HETATM   32  C15 UNL     1       1.561   8.539  11.282  1.00  0.00     0.180 C 
BRANCH  32  33
HETATM   33  C16 UNL     1       2.402   7.852  12.391  1.00  0.00     0.241 C 
HETATM   34  O4  UNL     1       3.420   7.205  12.161  1.00  0.00    -0.271 OA
HETATM   35  N3  UNL     1       1.867   7.937  13.667  1.00  0.00    -0.349 N 
HETATM   36  H18 UNL     1       1.212   8.708  13.804  1.00  0.00     0.163 HD
BRANCH  35  37
HETATM   37  C17 UNL     1       2.678   7.565  14.817  1.00  0.00     0.232 C 
BRANCH  37  38
HETATM   38  C18 UNL     1       1.966   7.833  16.134  1.00  0.00     0.158 C 
HETATM   39  O5  UNL     1       2.315   8.638  16.986  1.00  0.00    -0.649 OA
BRANCH  38  40
HETATM   40  O6  UNL     1       0.911   7.014  16.357  1.00  0.00    -0.775 OA
HETATM   41  H21 UNL     1       0.541   7.330  17.208  1.00  0.00     0.167 HD
ENDBRANCH  38  40
ENDBRANCH  37  38
ENDBRANCH  35  37
ENDBRANCH  32  33
BRANCH  32  42
HETATM   42  C19 UNL     1       1.752   7.826   9.919  1.00  0.00     0.009 C 
HETATM   43  C20 UNL     1       0.694   8.296   8.909  1.00  0.00     0.012 C 
HETATM   44  C21 UNL     1       1.652   6.298  10.030  1.00  0.00     0.012 C 
ENDBRANCH  32  42
ENDBRANCH  30  32
ENDBRANCH  27  28
ENDBRANCH  26  27
ENDBRANCH  13  26
TORSDOF 10
ENDMDL
