MODEL 1
REMARK minimizedAffinity -8.2754364
REMARK  12 active torsions:
REMARK  status: ('A' for Active; 'I' for Inactive)
REMARK    1  A    between atoms: C2_2  and  C23_27 
REMARK    2  A    between atoms: C3_3  and  C4_4 
REMARK    3  A    between atoms: C4_4  and  C5_5 
REMARK    4  A    between atoms: C13_13  and  C14_14 
REMARK    5  A    between atoms: C14_14  and  C16_16 
REMARK    6  A    between atoms: C17_17  and  C18_18 
REMARK    7  A    between atoms: C18_18  and  O1_19 
REMARK    8  A    between atoms: C18_18  and  C19_20 
REMARK    9  A    between atoms: C20_21  and  C21_23 
REMARK   10  A    between atoms: C21_23  and  C22_24 
REMARK   11  A    between atoms: C22_24  and  O2_25 
REMARK   12  A    between atoms: C23_27  and  O4_29 
ROOT
HETATM    1  C5  UNL     1      -3.685   6.022  12.814  1.00  0.00     0.225 C 
HETATM    2  C6  UNL     1      -4.303   6.314  14.196  1.00  0.00     0.036 C 
HETATM    3  C7  UNL     1      -3.275   6.205  15.311  1.00  0.00     0.005 C 
HETATM    4  C8  UNL     1      -2.131   7.194  15.084  1.00  0.00     0.042 C 
HETATM    5  C9  UNL     1      -1.736   7.354  13.595  1.00  0.00     0.162 C 
HETATM    6  C10 UNL     1      -2.244   8.711  13.045  1.00  0.00     0.042 C 
HETATM    7  C11 UNL     1      -1.447   8.954  11.773  1.00  0.00     0.003 C 
HETATM    8  C12 UNL     1      -0.108   8.263  12.001  1.00  0.00     0.008 C 
HETATM    9  C13 UNL     1      -0.195   7.548  13.372  1.00  0.00     0.031 C 
HETATM   10  N1  UNL     1      -2.226   6.235  12.773  1.00  0.00     0.098 N 
HETATM   11  H35 UNL     1      -1.759   5.378  13.064  1.00  0.00     0.317 HD
ENDROOT
BRANCH   9  12
HETATM   12  C14 UNL     1       0.747   6.304  13.419  1.00  0.00     0.010 C 
HETATM   13  C15 UNL     1      -0.066   5.000  13.510  1.00  0.00     0.015 C 
BRANCH  12  14
HETATM   14  C16 UNL     1       1.757   6.272  12.288  1.00  0.00    -0.023 C 
HETATM   15  C17 UNL     1       1.844   5.361  11.304  1.00  0.00     0.005 C 
BRANCH  15  16
HETATM   16  C18 UNL     1       2.865   5.393  10.203  1.00  0.00     0.165 C 
BRANCH  16  17
HETATM   17  O1  UNL     1       2.214   5.595   8.962  1.00  0.00    -0.388 OA
HETATM   18  H28 UNL     1       1.379   5.099   8.995  1.00  0.00     0.210 HD
ENDBRANCH  16  17
BRANCH  16  19
HETATM   19  C19 UNL     1       3.905   6.451  10.434  1.00  0.00     0.028 C 
HETATM   20  C20 UNL     1       4.061   7.653   9.849  1.00  0.00     0.013 C 
HETATM   21 CL1  UNL     1       2.935   8.274   8.686  1.00  0.00    -0.089 Cl
BRANCH  20  22
HETATM   22  C21 UNL     1       5.178   8.603  10.207  1.00  0.00     0.077 C 
BRANCH  22  23
HETATM   23  C22 UNL     1       6.205   7.979  11.154  1.00  0.00     0.169 C 
BRANCH  23  24
HETATM   24  O2  UNL     1       7.234   7.300  10.442  1.00  0.00    -0.401 OA
HETATM   25  H34 UNL     1       6.804   6.606   9.908  1.00  0.00     0.209 HD
ENDBRANCH  23  24
ENDBRANCH  22  23
ENDBRANCH  20  22
ENDBRANCH  16  19
ENDBRANCH  15  16
ENDBRANCH  12  14
ENDBRANCH   9  12
BRANCH   1  26
HETATM   26  C4  UNL     1      -4.035   4.581  12.362  1.00  0.00     0.063 C 
BRANCH  26  27
HETATM   27  C3  UNL     1      -5.387   4.114  12.835  1.00  0.00    -0.011 C 
HETATM   28  C2  UNL     1      -6.102   3.070  12.369  1.00  0.00     0.008 C 
HETATM   29  C1  UNL     1      -5.665   2.115  11.301  1.00  0.00     0.055 C 
BRANCH  28  30
HETATM   30  C23 UNL     1      -7.434   2.846  12.992  1.00  0.00     0.171 C 
HETATM   31  O3  UNL     1      -8.009   3.581  13.775  1.00  0.00    -0.646 OA
BRANCH  30  32
HETATM   32  O4  UNL     1      -7.999   1.698  12.587  1.00  0.00    -0.773 OA
HETATM   33  H36 UNL     1      -8.857   1.690  13.059  1.00  0.00     0.167 HD
ENDBRANCH  30  32
ENDBRANCH  28  30
ENDBRANCH  26  27
ENDBRANCH   1  26
TORSDOF 12
ENDMDL
MODEL 2
REMARK minimizedAffinity -8.23842716
REMARK  12 active torsions:
REMARK  status: ('A' for Active; 'I' for Inactive)
REMARK    1  A    between atoms: C2_2  and  C23_27 
REMARK    2  A    between atoms: C3_3  and  C4_4 
REMARK    3  A    between atoms: C4_4  and  C5_5 
REMARK    4  A    between atoms: C13_13  and  C14_14 
REMARK    5  A    between atoms: C14_14  and  C16_16 
REMARK    6  A    between atoms: C17_17  and  C18_18 
REMARK    7  A    between atoms: C18_18  and  O1_19 
REMARK    8  A    between atoms: C18_18  and  C19_20 
REMARK    9  A    between atoms: C20_21  and  C21_23 
REMARK   10  A    between atoms: C21_23  and  C22_24 
REMARK   11  A    between atoms: C22_24  and  O2_25 
REMARK   12  A    between atoms: C23_27  and  O4_29 
ROOT
HETATM    1  C5  UNL     1      -3.272   4.953  13.316  1.00  0.00     0.225 C 
HETATM    2  C6  UNL     1      -3.169   3.541  12.701  1.00  0.00     0.036 C 
HETATM    3  C7  UNL     1      -2.552   3.572  11.312  1.00  0.00     0.005 C 
HETATM    4  C8  UNL     1      -1.146   4.171  11.363  1.00  0.00     0.042 C 
HETATM    5  C9  UNL     1      -1.006   5.344  12.365  1.00  0.00     0.162 C 
HETATM    6  C10 UNL     1      -0.228   4.887  13.625  1.00  0.00     0.042 C 
HETATM    7  C11 UNL     1       0.226   6.168  14.304  1.00  0.00     0.003 C 
HETATM    8  C12 UNL     1       0.404   7.179  13.178  1.00  0.00     0.008 C 
HETATM    9  C13 UNL     1      -0.048   6.482  11.870  1.00  0.00     0.031 C 
HETATM   10  N1  UNL     1      -2.315   5.911  12.731  1.00  0.00     0.098 N 
HETATM   11  H35 UNL     1      -2.736   6.337  11.907  1.00  0.00     0.317 HD
ENDROOT
BRANCH   9  12
HETATM   12  C14 UNL     1      -0.569   7.522  10.829  1.00  0.00     0.010 C 
HETATM   13  C15 UNL     1      -0.554   8.945  11.417  1.00  0.00     0.015 C 
BRANCH  12  14
HETATM   14  C16 UNL     1       0.145   7.446   9.494  1.00  0.00    -0.023 C 
HETATM   15  C17 UNL     1       1.225   8.149   9.110  1.00  0.00     0.005 C 
BRANCH  15  16
HETATM   16  C18 UNL     1       1.894   8.017   7.772  1.00  0.00     0.165 C 
BRANCH  16  17
HETATM   17  O1  UNL     1       2.970   8.934   7.691  1.00  0.00    -0.388 OA
HETATM   18  H28 UNL     1       2.687   9.745   8.146  1.00  0.00     0.210 HD
ENDBRANCH  16  17
BRANCH  16  19
HETATM   19  C19 UNL     1       2.372   6.616   7.520  1.00  0.00     0.028 C 
HETATM   20  C20 UNL     1       3.126   5.808   8.290  1.00  0.00     0.013 C 
HETATM   21 CL1  UNL     1       3.646   6.260   9.881  1.00  0.00    -0.089 Cl
BRANCH  20  22
HETATM   22  C21 UNL     1       3.519   4.410   7.876  1.00  0.00     0.077 C 
BRANCH  22  23
HETATM   23  C22 UNL     1       4.150   3.611   9.017  1.00  0.00     0.169 C 
BRANCH  23  24
HETATM   24  O2  UNL     1       3.174   3.175   9.958  1.00  0.00    -0.401 OA
HETATM   25  H34 UNL     1       2.737   3.973  10.309  1.00  0.00     0.209 HD
ENDBRANCH  23  24
ENDBRANCH  22  23
ENDBRANCH  20  22
ENDBRANCH  16  19
ENDBRANCH  15  16
ENDBRANCH  12  14
ENDBRANCH   9  12
BRANCH   1  26
HETATM   26  C4  UNL     1      -4.720   5.489  13.192  1.00  0.00     0.063 C 
BRANCH  26  27
HETATM   27  C3  UNL     1      -5.760   4.401  13.118  1.00  0.00    -0.011 C 
HETATM   28  C2  UNL     1      -7.101   4.548  13.120  1.00  0.00     0.008 C 
HETATM   29  C1  UNL     1      -7.840   5.850  13.147  1.00  0.00     0.055 C 
BRANCH  28  30
HETATM   30  C23 UNL     1      -7.905   3.298  13.073  1.00  0.00     0.171 C 
HETATM   31  O3  UNL     1      -7.488   2.155  13.136  1.00  0.00    -0.646 OA
BRANCH  30  32
HETATM   32  O4  UNL     1      -9.220   3.543  12.963  1.00  0.00    -0.773 OA
HETATM   33  H36 UNL     1      -9.617   2.648  12.956  1.00  0.00     0.167 HD
ENDBRANCH  30  32
ENDBRANCH  28  30
ENDBRANCH  26  27
ENDBRANCH   1  26
TORSDOF 12
ENDMDL
MODEL 3
REMARK minimizedAffinity -8.23453331
REMARK  12 active torsions:
REMARK  status: ('A' for Active; 'I' for Inactive)
REMARK    1  A    between atoms: C2_2  and  C23_27 
REMARK    2  A    between atoms: C3_3  and  C4_4 
REMARK    3  A    between atoms: C4_4  and  C5_5 
REMARK    4  A    between atoms: C13_13  and  C14_14 
REMARK    5  A    between atoms: C14_14  and  C16_16 
REMARK    6  A    between atoms: C17_17  and  C18_18 
REMARK    7  A    between atoms: C18_18  and  O1_19 
REMARK    8  A    between atoms: C18_18  and  C19_20 
REMARK    9  A    between atoms: C20_21  and  C21_23 
REMARK   10  A    between atoms: C21_23  and  C22_24 
REMARK   11  A    between atoms: C22_24  and  O2_25 
REMARK   12  A    between atoms: C23_27  and  O4_29 
ROOT
HETATM    1  C5  UNL     1      -3.612   5.842  12.850  1.00  0.00     0.225 C 
HETATM    2  C6  UNL     1      -4.287   6.174  14.196  1.00  0.00     0.036 C 
HETATM    3  C7  UNL     1      -3.281   6.237  15.334  1.00  0.00     0.005 C 
HETATM    4  C8  UNL     1      -2.224   7.308  15.057  1.00  0.00     0.042 C 
HETATM    5  C9  UNL     1      -1.808   7.397  13.567  1.00  0.00     0.162 C 
HETATM    6  C10 UNL     1      -2.422   8.660  12.911  1.00  0.00     0.042 C 
HETATM    7  C11 UNL     1      -1.619   8.884  11.640  1.00  0.00     0.003 C 
HETATM    8  C12 UNL     1      -0.229   8.335  11.941  1.00  0.00     0.008 C 
HETATM    9  C13 UNL     1      -0.286   7.713  13.359  1.00  0.00     0.031 C 
HETATM   10  N1  UNL     1      -2.176   6.183  12.821  1.00  0.00     0.098 N 
HETATM   11  H35 UNL     1      -1.642   5.394  13.180  1.00  0.00     0.317 HD
ENDROOT
BRANCH   9  12
HETATM   12  C14 UNL     1       0.762   6.566  13.512  1.00  0.00     0.010 C 
HETATM   13  C15 UNL     1       0.079   5.187  13.477  1.00  0.00     0.015 C 
BRANCH  12  14
HETATM   14  C16 UNL     1       1.909   6.664  12.526  1.00  0.00    -0.023 C 
HETATM   15  C17 UNL     1       3.074   7.312  12.698  1.00  0.00     0.005 C 
BRANCH  15  16
HETATM   16  C18 UNL     1       4.179   7.361  11.682  1.00  0.00     0.165 C 
BRANCH  16  17
HETATM   17  O1  UNL     1       4.652   6.050  11.436  1.00  0.00    -0.388 OA
HETATM   18  H28 UNL     1       4.635   5.577  12.285  1.00  0.00     0.210 HD
ENDBRANCH  16  17
BRANCH  16  19
HETATM   19  C19 UNL     1       3.735   8.013  10.403  1.00  0.00     0.028 C 
HETATM   20  C20 UNL     1       3.235   7.463   9.281  1.00  0.00     0.013 C 
HETATM   21 CL1  UNL     1       2.909   5.766   9.142  1.00  0.00    -0.089 Cl
BRANCH  20  22
HETATM   22  C21 UNL     1       2.837   8.278   8.074  1.00  0.00     0.077 C 
BRANCH  22  23
HETATM   23  C22 UNL     1       1.534   7.792   7.435  1.00  0.00     0.169 C 
BRANCH  23  24
HETATM   24  O2  UNL     1       1.774   7.078   6.227  1.00  0.00    -0.401 OA
HETATM   25  H34 UNL     1       2.239   7.684   5.622  1.00  0.00     0.209 HD
ENDBRANCH  23  24
ENDBRANCH  22  23
ENDBRANCH  20  22
ENDBRANCH  16  19
ENDBRANCH  15  16
ENDBRANCH  12  14
ENDBRANCH   9  12
BRANCH   1  26
HETATM   26  C4  UNL     1      -3.820   4.347  12.498  1.00  0.00     0.063 C 
BRANCH  26  27
HETATM   27  C3  UNL     1      -2.619   3.710  11.847  1.00  0.00    -0.011 C 
HETATM   28  C2  UNL     1      -2.455   2.410  11.527  1.00  0.00     0.008 C 
HETATM   29  C1  UNL     1      -3.472   1.326  11.712  1.00  0.00     0.055 C 
BRANCH  28  30
HETATM   30  C23 UNL     1      -1.150   2.036  10.921  1.00  0.00     0.171 C 
HETATM   31  O3  UNL     1      -0.042   2.359  11.310  1.00  0.00    -0.646 OA
BRANCH  30  32
HETATM   32  O4  UNL     1      -1.296   1.248   9.844  1.00  0.00    -0.773 OA
HETATM   33  H36 UNL     1      -0.374   1.076   9.562  1.00  0.00     0.167 HD
ENDBRANCH  30  32
ENDBRANCH  28  30
ENDBRANCH  26  27
ENDBRANCH   1  26
TORSDOF 12
ENDMDL
MODEL 4
REMARK minimizedAffinity -8.18764687
REMARK  12 active torsions:
REMARK  status: ('A' for Active; 'I' for Inactive)
REMARK    1  A    between atoms: C2_2  and  C23_27 
REMARK    2  A    between atoms: C3_3  and  C4_4 
REMARK    3  A    between atoms: C4_4  and  C5_5 
REMARK    4  A    between atoms: C13_13  and  C14_14 
REMARK    5  A    between atoms: C14_14  and  C16_16 
REMARK    6  A    between atoms: C17_17  and  C18_18 
REMARK    7  A    between atoms: C18_18  and  O1_19 
REMARK    8  A    between atoms: C18_18  and  C19_20 
REMARK    9  A    between atoms: C20_21  and  C21_23 
REMARK   10  A    between atoms: C21_23  and  C22_24 
REMARK   11  A    between atoms: C22_24  and  O2_25 
REMARK   12  A    between atoms: C23_27  and  O4_29 
ROOT
HETATM    1  C5  UNL     1      -3.757   5.982  12.894  1.00  0.00     0.225 C 
HETATM    2  C6  UNL     1      -4.386   6.282  14.270  1.00  0.00     0.036 C 
HETATM    3  C7  UNL     1      -3.363   6.196  15.391  1.00  0.00     0.005 C 
HETATM    4  C8  UNL     1      -2.229   7.197  15.160  1.00  0.00     0.042 C 
HETATM    5  C9  UNL     1      -1.827   7.346  13.671  1.00  0.00     0.162 C 
HETATM    6  C10 UNL     1      -2.349   8.690  13.104  1.00  0.00     0.042 C 
HETATM    7  C11 UNL     1      -1.547   8.929  11.835  1.00  0.00     0.003 C 
HETATM    8  C12 UNL     1      -0.201   8.257  12.077  1.00  0.00     0.008 C 
HETATM    9  C13 UNL     1      -0.288   7.554  13.455  1.00  0.00     0.031 C 
HETATM   10  N1  UNL     1      -2.300   6.212  12.859  1.00  0.00     0.098 N 
HETATM   11  H35 UNL     1      -1.825   5.363  13.161  1.00  0.00     0.317 HD
ENDROOT
BRANCH   9  12
HETATM   12  C14 UNL     1       0.668   6.322  13.520  1.00  0.00     0.010 C 
HETATM   13  C15 UNL     1      -0.079   5.025  13.159  1.00  0.00     0.015 C 
BRANCH  12  14
HETATM   14  C16 UNL     1       1.935   6.501  12.706  1.00  0.00    -0.023 C 
HETATM   15  C17 UNL     1       2.805   7.523  12.773  1.00  0.00     0.005 C 
BRANCH  15  16
HETATM   16  C18 UNL     1       4.052   7.635  11.944  1.00  0.00     0.165 C 
BRANCH  16  17
HETATM   17  O1  UNL     1       4.651   6.358  11.818  1.00  0.00    -0.388 OA
HETATM   18  H28 UNL     1       4.532   5.903  12.668  1.00  0.00     0.210 HD
ENDBRANCH  16  17
BRANCH  16  19
HETATM   19  C19 UNL     1       3.774   8.226  10.591  1.00  0.00     0.028 C 
HETATM   20  C20 UNL     1       3.309   7.640   9.471  1.00  0.00     0.013 C 
HETATM   21 CL1  UNL     1       2.831   5.975   9.422  1.00  0.00    -0.089 Cl
BRANCH  20  22
HETATM   22  C21 UNL     1       3.087   8.394   8.182  1.00  0.00     0.077 C 
BRANCH  22  23
HETATM   23  C22 UNL     1       2.038   7.734   7.285  1.00  0.00     0.169 C 
BRANCH  23  24
HETATM   24  O2  UNL     1       0.714   8.001   7.737  1.00  0.00    -0.401 OA
HETATM   25  H34 UNL     1       0.646   7.654   8.645  1.00  0.00     0.209 HD
ENDBRANCH  23  24
ENDBRANCH  22  23
ENDBRANCH  20  22
ENDBRANCH  16  19
ENDBRANCH  15  16
ENDBRANCH  12  14
ENDBRANCH   9  12
BRANCH   1  26
HETATM   26  C4  UNL     1      -4.087   4.533  12.456  1.00  0.00     0.063 C 
BRANCH  26  27
HETATM   27  C3  UNL     1      -5.467   4.081  12.862  1.00  0.00    -0.011 C 
HETATM   28  C2  UNL     1      -6.166   3.040  12.367  1.00  0.00     0.008 C 
HETATM   29  C1  UNL     1      -5.683   2.073  11.329  1.00  0.00     0.055 C 
BRANCH  28  30
HETATM   30  C23 UNL     1      -7.530   2.833  12.922  1.00  0.00     0.171 C 
HETATM   31  O3  UNL     1      -8.163   3.606  13.619  1.00  0.00    -0.646 OA
BRANCH  30  32
HETATM   32  O4  UNL     1      -8.053   1.651  12.561  1.00  0.00    -0.773 OA
HETATM   33  H36 UNL     1      -8.938   1.657  12.980  1.00  0.00     0.167 HD
ENDBRANCH  30  32
ENDBRANCH  28  30
ENDBRANCH  26  27
ENDBRANCH   1  26
TORSDOF 12
ENDMDL
MODEL 5
REMARK minimizedAffinity -7.9669838
REMARK  12 active torsions:
REMARK  status: ('A' for Active; 'I' for Inactive)
REMARK    1  A    between atoms: C2_2  and  C23_27 
REMARK    2  A    between atoms: C3_3  and  C4_4 
REMARK    3  A    between atoms: C4_4  and  C5_5 
REMARK    4  A    between atoms: C13_13  and  C14_14 
REMARK    5  A    between atoms: C14_14  and  C16_16 
REMARK    6  A    between atoms: C17_17  and  C18_18 
REMARK    7  A    between atoms: C18_18  and  O1_19 
REMARK    8  A    between atoms: C18_18  and  C19_20 
REMARK    9  A    between atoms: C20_21  and  C21_23 
REMARK   10  A    between atoms: C21_23  and  C22_24 
REMARK   11  A    between atoms: C22_24  and  O2_25 
REMARK   12  A    between atoms: C23_27  and  O4_29 
ROOT
HETATM    1  C5  UNL     1       0.174   6.522  11.434  1.00  0.00     0.225 C 
HETATM    2  C6  UNL     1       1.223   6.128  12.495  1.00  0.00     0.036 C 
HETATM    3  C7  UNL     1       0.649   6.172  13.902  1.00  0.00     0.005 C 
HETATM    4  C8  UNL     1      -0.537   5.214  14.028  1.00  0.00     0.042 C 
HETATM    5  C9  UNL     1      -1.429   5.162  12.763  1.00  0.00     0.162 C 
HETATM    6  C10 UNL     1      -1.190   3.840  11.989  1.00  0.00     0.042 C 
HETATM    7  C11 UNL     1      -2.386   3.695  11.062  1.00  0.00     0.003 C 
HETATM    8  C12 UNL     1      -3.539   4.383  11.783  1.00  0.00     0.008 C 
HETATM    9  C13 UNL     1      -2.957   5.002  13.079  1.00  0.00     0.031 C 
HETATM   10  N1  UNL     1      -1.215   6.329  11.892  1.00  0.00     0.098 N 
HETATM   11  H35 UNL     1      -1.522   7.170  12.378  1.00  0.00     0.317 HD
ENDROOT
BRANCH   9  12
HETATM   12  C14 UNL     1      -3.781   6.250  13.526  1.00  0.00     0.010 C 
HETATM   13  C15 UNL     1      -3.256   7.529  12.847  1.00  0.00     0.015 C 
BRANCH  12  14
HETATM   14  C16 UNL     1      -5.277   6.078  13.348  1.00  0.00    -0.023 C 
HETATM   15  C17 UNL     1      -6.022   5.025  13.724  1.00  0.00     0.005 C 
BRANCH  15  16
HETATM   16  C18 UNL     1      -7.508   4.921  13.529  1.00  0.00     0.165 C 
BRANCH  16  17
HETATM   17  O1  UNL     1      -7.978   3.720  14.113  1.00  0.00    -0.388 OA
HETATM   18  H28 UNL     1      -7.300   3.042  13.953  1.00  0.00     0.210 HD
ENDBRANCH  16  17
BRANCH  16  19
HETATM   19  C19 UNL     1      -8.232   6.107  14.099  1.00  0.00     0.028 C 
HETATM   20  C20 UNL     1      -8.187   6.633  15.337  1.00  0.00     0.013 C 
HETATM   21 CL1  UNL     1      -7.127   6.027  16.568  1.00  0.00    -0.089 Cl
BRANCH  20  22
HETATM   22  C21 UNL     1      -8.993   7.843  15.745  1.00  0.00     0.077 C 
BRANCH  22  23
HETATM   23  C22 UNL     1      -8.425   9.149  15.185  1.00  0.00     0.169 C 
BRANCH  23  24
HETATM   24  O2  UNL     1      -7.013   9.079  15.016  1.00  0.00    -0.401 OA
HETATM   25  H34 UNL     1      -6.627   8.894  15.892  1.00  0.00     0.209 HD
ENDBRANCH  23  24
ENDBRANCH  22  23
ENDBRANCH  20  22
ENDBRANCH  16  19
ENDBRANCH  15  16
ENDBRANCH  12  14
ENDBRANCH   9  12
BRANCH   1  26
HETATM   26  C4  UNL     1       0.395   7.987  10.977  1.00  0.00     0.063 C 
BRANCH  26  27
HETATM   27  C3  UNL     1       0.935   8.104   9.575  1.00  0.00    -0.011 C 
HETATM   28  C2  UNL     1       2.223   8.018   9.184  1.00  0.00     0.008 C 
HETATM   29  C1  UNL     1       3.393   7.732  10.074  1.00  0.00     0.055 C 
BRANCH  28  30
HETATM   30  C23 UNL     1       2.489   8.207   7.733  1.00  0.00     0.171 C 
HETATM   31  O3  UNL     1       2.050   7.537   6.814  1.00  0.00    -0.646 OA
BRANCH  30  32
HETATM   32  O4  UNL     1       3.294   9.253   7.494  1.00  0.00    -0.773 OA
HETATM   33  H36 UNL     1       3.371   9.263   6.518  1.00  0.00     0.167 HD
ENDBRANCH  30  32
ENDBRANCH  28  30
ENDBRANCH  26  27
ENDBRANCH   1  26
TORSDOF 12
ENDMDL
MODEL 6
REMARK minimizedAffinity -7.91517448
REMARK  12 active torsions:
REMARK  status: ('A' for Active; 'I' for Inactive)
REMARK    1  A    between atoms: C2_2  and  C23_27 
REMARK    2  A    between atoms: C3_3  and  C4_4 
REMARK    3  A    between atoms: C4_4  and  C5_5 
REMARK    4  A    between atoms: C13_13  and  C14_14 
REMARK    5  A    between atoms: C14_14  and  C16_16 
REMARK    6  A    between atoms: C17_17  and  C18_18 
REMARK    7  A    between atoms: C18_18  and  O1_19 
REMARK    8  A    between atoms: C18_18  and  C19_20 
REMARK    9  A    between atoms: C20_21  and  C21_23 
REMARK   10  A    between atoms: C21_23  and  C22_24 
REMARK   11  A    between atoms: C22_24  and  O2_25 
REMARK   12  A    between atoms: C23_27  and  O4_29 
ROOT
HETATM    1  C5  UNL     1      -8.631   5.544  12.736  1.00  0.00     0.225 C 
HETATM    2  C6  UNL     1      -8.538   4.004  12.757  1.00  0.00     0.036 C 
HETATM    3  C7  UNL     1      -7.117   3.519  12.521  1.00  0.00     0.005 C 
HETATM    4  C8  UNL     1      -6.178   4.065  13.598  1.00  0.00     0.042 C 
HETATM    5  C9  UNL     1      -6.505   5.517  14.028  1.00  0.00     0.162 C 
HETATM    6  C10 UNL     1      -7.173   5.527  15.427  1.00  0.00     0.042 C 
HETATM    7  C11 UNL     1      -7.042   6.957  15.925  1.00  0.00     0.003 C 
HETATM    8  C12 UNL     1      -5.766   7.490  15.283  1.00  0.00     0.008 C 
HETATM    9  C13 UNL     1      -5.234   6.379  14.344  1.00  0.00     0.031 C 
HETATM   10  N1  UNL     1      -7.347   6.206  13.036  1.00  0.00     0.098 N 
HETATM   11  H35 UNL     1      -6.822   6.316  12.170  1.00  0.00     0.317 HD
ENDROOT
BRANCH   9  12
HETATM   12  C14 UNL     1      -4.408   6.986  13.166  1.00  0.00     0.010 C 
HETATM   13  C15 UNL     1      -4.171   8.492  13.378  1.00  0.00     0.015 C 
BRANCH  12  14
HETATM   14  C16 UNL     1      -3.120   6.236  12.886  1.00  0.00    -0.023 C 
HETATM   15  C17 UNL     1      -2.996   4.959  12.484  1.00  0.00     0.005 C 
BRANCH  15  16
HETATM   16  C18 UNL     1      -1.686   4.277  12.212  1.00  0.00     0.165 C 
BRANCH  16  17
HETATM   17  O1  UNL     1      -1.927   2.960  11.752  1.00  0.00    -0.388 OA
HETATM   18  H28 UNL     1      -2.692   2.621  12.248  1.00  0.00     0.210 HD
ENDBRANCH  16  17
BRANCH  16  19
HETATM   19  C19 UNL     1      -0.853   5.040  11.222  1.00  0.00     0.028 C 
HETATM   20  C20 UNL     1       0.286   5.735  11.405  1.00  0.00     0.013 C 
HETATM   21 CL1  UNL     1       1.100   5.800  12.934  1.00  0.00    -0.089 Cl
BRANCH  20  22
HETATM   22  C21 UNL     1       1.000   6.452  10.285  1.00  0.00     0.077 C 
BRANCH  22  23
HETATM   23  C22 UNL     1       2.493   6.123  10.228  1.00  0.00     0.169 C 
BRANCH  23  24
HETATM   24  O2  UNL     1       2.741   4.921   9.507  1.00  0.00    -0.401 OA
HETATM   25  H34 UNL     1       2.257   4.208   9.963  1.00  0.00     0.209 HD
ENDBRANCH  23  24
ENDBRANCH  22  23
ENDBRANCH  20  22
ENDBRANCH  16  19
ENDBRANCH  15  16
ENDBRANCH  12  14
ENDBRANCH   9  12
BRANCH   1  26
HETATM   26  C4  UNL     1      -9.186   6.031  11.374  1.00  0.00     0.063 C 
BRANCH  26  27
HETATM   27  C3  UNL     1     -10.245   7.096  11.503  1.00  0.00    -0.011 C 
HETATM   28  C2  UNL     1     -10.943   7.426  12.608  1.00  0.00     0.008 C 
HETATM   29  C1  UNL     1     -10.770   6.824  13.968  1.00  0.00     0.055 C 
BRANCH  28  30
HETATM   30  C23 UNL     1     -11.962   8.499  12.453  1.00  0.00     0.171 C 
HETATM   31  O3  UNL     1     -13.016   8.601  13.054  1.00  0.00    -0.646 OA
BRANCH  30  32
HETATM   32  O4  UNL     1     -11.598   9.419  11.545  1.00  0.00    -0.773 OA
HETATM   33  H36 UNL     1     -12.342  10.055  11.557  1.00  0.00     0.167 HD
ENDBRANCH  30  32
ENDBRANCH  28  30
ENDBRANCH  26  27
ENDBRANCH   1  26
TORSDOF 12
ENDMDL
MODEL 7
REMARK minimizedAffinity -7.89299965
REMARK  12 active torsions:
REMARK  status: ('A' for Active; 'I' for Inactive)
REMARK    1  A    between atoms: C2_2  and  C23_27 
REMARK    2  A    between atoms: C3_3  and  C4_4 
REMARK    3  A    between atoms: C4_4  and  C5_5 
REMARK    4  A    between atoms: C13_13  and  C14_14 
REMARK    5  A    between atoms: C14_14  and  C16_16 
REMARK    6  A    between atoms: C17_17  and  C18_18 
REMARK    7  A    between atoms: C18_18  and  O1_19 
REMARK    8  A    between atoms: C18_18  and  C19_20 
REMARK    9  A    between atoms: C20_21  and  C21_23 
REMARK   10  A    between atoms: C21_23  and  C22_24 
REMARK   11  A    between atoms: C22_24  and  O2_25 
REMARK   12  A    between atoms: C23_27  and  O4_29 
ROOT
HETATM    1  C5  UNL     1      -1.168   5.648  11.808  1.00  0.00     0.225 C 
HETATM    2  C6  UNL     1      -0.744   5.985  13.252  1.00  0.00     0.036 C 
HETATM    3  C7  UNL     1       0.766   5.956  13.421  1.00  0.00     0.005 C 
HETATM    4  C8  UNL     1       1.431   6.967  12.485  1.00  0.00     0.042 C 
HETATM    5  C9  UNL     1       0.746   7.071  11.099  1.00  0.00     0.162 C 
HETATM    6  C10 UNL     1      -0.068   8.386  10.997  1.00  0.00     0.042 C 
HETATM    7  C11 UNL     1      -0.311   8.594   9.511  1.00  0.00     0.003 C 
HETATM    8  C12 UNL     1       0.884   7.954   8.815  1.00  0.00     0.008 C 
HETATM    9  C13 UNL     1       1.752   7.298   9.918  1.00  0.00     0.031 C 
HETATM   10  N1  UNL     1      -0.104   5.902  10.817  1.00  0.00     0.098 N 
HETATM   11  H35 UNL     1       0.483   5.072  10.743  1.00  0.00     0.317 HD
ENDROOT
BRANCH   9  12
HETATM   12  C14 UNL     1       2.558   6.086   9.354  1.00  0.00     0.010 C 
HETATM   13  C15 UNL     1       2.665   6.162   7.820  1.00  0.00     0.015 C 
BRANCH  12  14
HETATM   14  C16 UNL     1       3.910   5.903  10.015  1.00  0.00    -0.023 C 
HETATM   15  C17 UNL     1       4.689   6.861  10.548  1.00  0.00     0.005 C 
BRANCH  15  16
HETATM   16  C18 UNL     1       6.018   6.611  11.200  1.00  0.00     0.165 C 
BRANCH  16  17
HETATM   17  O1  UNL     1       7.054   7.070  10.352  1.00  0.00    -0.388 OA
HETATM   18  H28 UNL     1       6.783   6.870   9.440  1.00  0.00     0.210 HD
ENDBRANCH  16  17
BRANCH  16  19
HETATM   19  C19 UNL     1       6.110   7.264  12.550  1.00  0.00     0.028 C 
HETATM   20  C20 UNL     1       5.979   8.559  12.895  1.00  0.00     0.013 C 
HETATM   21 CL1  UNL     1       5.560   9.789  11.747  1.00  0.00    -0.089 Cl
BRANCH  20  22
HETATM   22  C21 UNL     1       6.105   9.047  14.318  1.00  0.00     0.077 C 
BRANCH  22  23
HETATM   23  C22 UNL     1       6.360   7.912  15.312  1.00  0.00     0.169 C 
BRANCH  23  24
HETATM   24  O2  UNL     1       5.161   7.219  15.639  1.00  0.00    -0.401 OA
HETATM   25  H34 UNL     1       4.547   7.871  16.024  1.00  0.00     0.209 HD
ENDBRANCH  23  24
ENDBRANCH  22  23
ENDBRANCH  20  22
ENDBRANCH  16  19
ENDBRANCH  15  16
ENDBRANCH  12  14
ENDBRANCH   9  12
BRANCH   1  26
HETATM   26  C4  UNL     1      -1.652   4.179  11.718  1.00  0.00     0.063 C 
BRANCH  26  27
HETATM   27  C3  UNL     1      -3.126   4.049  11.431  1.00  0.00    -0.011 C 
HETATM   28  C2  UNL     1      -3.857   2.916  11.403  1.00  0.00     0.008 C 
HETATM   29  C1  UNL     1      -3.353   1.539  11.706  1.00  0.00     0.055 C 
BRANCH  28  30
HETATM   30  C23 UNL     1      -5.296   3.064  11.057  1.00  0.00     0.171 C 
HETATM   31  O3  UNL     1      -6.189   3.459  11.786  1.00  0.00    -0.646 OA
BRANCH  30  32
HETATM   32  O4  UNL     1      -5.553   2.717   9.786  1.00  0.00    -0.773 OA
HETATM   33  H36 UNL     1      -6.515   2.873   9.698  1.00  0.00     0.167 HD
ENDBRANCH  30  32
ENDBRANCH  28  30
ENDBRANCH  26  27
ENDBRANCH   1  26
TORSDOF 12
ENDMDL
MODEL 8
REMARK minimizedAffinity -7.88317299
REMARK  12 active torsions:
REMARK  status: ('A' for Active; 'I' for Inactive)
REMARK    1  A    between atoms: C2_2  and  C23_27 
REMARK    2  A    between atoms: C3_3  and  C4_4 
REMARK    3  A    between atoms: C4_4  and  C5_5 
REMARK    4  A    between atoms: C13_13  and  C14_14 
REMARK    5  A    between atoms: C14_14  and  C16_16 
REMARK    6  A    between atoms: C17_17  and  C18_18 
REMARK    7  A    between atoms: C18_18  and  O1_19 
REMARK    8  A    between atoms: C18_18  and  C19_20 
REMARK    9  A    between atoms: C20_21  and  C21_23 
REMARK   10  A    between atoms: C21_23  and  C22_24 
REMARK   11  A    between atoms: C22_24  and  O2_25 
REMARK   12  A    between atoms: C23_27  and  O4_29 
ROOT
HETATM    1  C5  UNL     1       0.683   7.116  11.877  1.00  0.00     0.225 C 
HETATM    2  C6  UNL     1       0.476   8.546  11.338  1.00  0.00     0.036 C 
HETATM    3  C7  UNL     1      -0.966   8.790  10.919  1.00  0.00     0.005 C 
HETATM    4  C8  UNL     1      -1.910   8.589  12.106  1.00  0.00     0.042 C 
HETATM    5  C9  UNL     1      -1.496   7.423  13.038  1.00  0.00     0.162 C 
HETATM    6  C10 UNL     1      -0.894   7.973  14.356  1.00  0.00     0.042 C 
HETATM    7  C11 UNL     1      -0.942   6.812  15.335  1.00  0.00     0.003 C 
HETATM    8  C12 UNL     1      -2.144   5.976  14.910  1.00  0.00     0.008 C 
HETATM    9  C13 UNL     1      -2.713   6.625  13.623  1.00  0.00     0.031 C 
HETATM   10  N1  UNL     1      -0.560   6.498  12.376  1.00  0.00     0.098 N 
HETATM   11  H35 UNL     1      -1.035   6.039  11.600  1.00  0.00     0.317 HD
ENDROOT
BRANCH   9  12
HETATM   12  C14 UNL     1      -3.436   5.568  12.732  1.00  0.00     0.010 C 
HETATM   13  C15 UNL     1      -2.627   4.259  12.664  1.00  0.00     0.015 C 
BRANCH  12  14
HETATM   14  C16 UNL     1      -4.879   5.330  13.131  1.00  0.00    -0.023 C 
HETATM   15  C17 UNL     1      -5.696   4.360  12.684  1.00  0.00     0.005 C 
BRANCH  15  16
HETATM   16  C18 UNL     1      -7.117   4.172  13.130  1.00  0.00     0.165 C 
BRANCH  16  17
HETATM   17  O1  UNL     1      -7.345   2.804  13.414  1.00  0.00    -0.388 OA
HETATM   18  H28 UNL     1      -6.847   2.291  12.756  1.00  0.00     0.210 HD
ENDBRANCH  16  17
BRANCH  16  19
HETATM   19  C19 UNL     1      -7.446   5.023  14.324  1.00  0.00     0.028 C 
HETATM   20  C20 UNL     1      -8.364   5.998  14.464  1.00  0.00     0.013 C 
HETATM   21 CL1  UNL     1      -9.478   6.415  13.202  1.00  0.00    -0.089 Cl
BRANCH  20  22
HETATM   22  C21 UNL     1      -8.562   6.762  15.751  1.00  0.00     0.077 C 
BRANCH  22  23
HETATM   23  C22 UNL     1      -7.317   6.755  16.641  1.00  0.00     0.169 C 
BRANCH  23  24
HETATM   24  O2  UNL     1      -6.357   7.714  16.212  1.00  0.00    -0.401 OA
HETATM   25  H34 UNL     1      -6.116   7.488  15.294  1.00  0.00     0.209 HD
ENDBRANCH  23  24
ENDBRANCH  22  23
ENDBRANCH  20  22
ENDBRANCH  16  19
ENDBRANCH  15  16
ENDBRANCH  12  14
ENDBRANCH   9  12
BRANCH   1  26
HETATM   26  C4  UNL     1       1.335   6.221  10.793  1.00  0.00     0.063 C 
BRANCH  26  27
HETATM   27  C3  UNL     1       1.553   6.929   9.481  1.00  0.00    -0.011 C 
HETATM   28  C2  UNL     1       2.687   7.518   9.047  1.00  0.00     0.008 C 
HETATM   29  C1  UNL     1       3.996   7.544   9.773  1.00  0.00     0.055 C 
BRANCH  28  30
HETATM   30  C23 UNL     1       2.622   8.182   7.717  1.00  0.00     0.171 C 
HETATM   31  O3  UNL     1       1.955   7.837   6.757  1.00  0.00    -0.646 OA
BRANCH  30  32
HETATM   32  O4  UNL     1       3.398   9.275   7.655  1.00  0.00    -0.773 OA
HETATM   33  H36 UNL     1       3.249   9.607   6.746  1.00  0.00     0.167 HD
ENDBRANCH  30  32
ENDBRANCH  28  30
ENDBRANCH  26  27
ENDBRANCH   1  26
TORSDOF 12
ENDMDL
MODEL 9
REMARK minimizedAffinity -7.79694843
REMARK  12 active torsions:
REMARK  status: ('A' for Active; 'I' for Inactive)
REMARK    1  A    between atoms: C2_2  and  C23_27 
REMARK    2  A    between atoms: C3_3  and  C4_4 
REMARK    3  A    between atoms: C4_4  and  C5_5 
REMARK    4  A    between atoms: C13_13  and  C14_14 
REMARK    5  A    between atoms: C14_14  and  C16_16 
REMARK    6  A    between atoms: C17_17  and  C18_18 
REMARK    7  A    between atoms: C18_18  and  O1_19 
REMARK    8  A    between atoms: C18_18  and  C19_20 
REMARK    9  A    between atoms: C20_21  and  C21_23 
REMARK   10  A    between atoms: C21_23  and  C22_24 
REMARK   11  A    between atoms: C22_24  and  O2_25 
REMARK   12  A    between atoms: C23_27  and  O4_29 
ROOT
HETATM    1  C5  UNL     1      -3.539   5.400  13.469  1.00  0.00     0.225 C 
HETATM    2  C6  UNL     1      -3.235   3.913  13.196  1.00  0.00     0.036 C 
HETATM    3  C7  UNL     1      -2.255   3.736  12.047  1.00  0.00     0.005 C 
HETATM    4  C8  UNL     1      -0.933   4.442  12.356  1.00  0.00     0.042 C 
HETATM    5  C9  UNL     1      -1.108   5.785  13.107  1.00  0.00     0.162 C 
HETATM    6  C10 UNL     1      -0.703   5.629  14.595  1.00  0.00     0.042 C 
HETATM    7  C11 UNL     1      -0.487   7.044  15.104  1.00  0.00     0.003 C 
HETATM    8  C12 UNL     1      -0.025   7.842  13.890  1.00  0.00     0.008 C 
HETATM    9  C13 UNL     1      -0.077   6.885  12.674  1.00  0.00     0.031 C 
HETATM   10  N1  UNL     1      -2.480   6.307  12.986  1.00  0.00     0.098 N 
HETATM   11  H35 UNL     1      -2.664   6.541  12.012  1.00  0.00     0.317 HD
ENDROOT
BRANCH   9  12
HETATM   12  C14 UNL     1      -0.311   7.673  11.347  1.00  0.00     0.010 C 
HETATM   13  C15 UNL     1      -1.015   9.015  11.620  1.00  0.00     0.015 C 
BRANCH  12  14
HETATM   14  C16 UNL     1       0.949   7.844  10.519  1.00  0.00    -0.023 C 
HETATM   15  C17 UNL     1       1.108   7.555   9.216  1.00  0.00     0.005 C 
BRANCH  15  16
HETATM   16  C18 UNL     1       2.383   7.759   8.450  1.00  0.00     0.165 C 
BRANCH  16  17
HETATM   17  O1  UNL     1       2.220   8.831   7.539  1.00  0.00    -0.388 OA
HETATM   18  H28 UNL     1       1.313   8.776   7.195  1.00  0.00     0.210 HD
ENDBRANCH  16  17
BRANCH  16  19
HETATM   19  C19 UNL     1       3.550   8.011   9.361  1.00  0.00     0.028 C 
HETATM   20  C20 UNL     1       4.261   7.150  10.115  1.00  0.00     0.013 C 
HETATM   21 CL1  UNL     1       3.976   5.440  10.091  1.00  0.00    -0.089 Cl
BRANCH  20  22
HETATM   22  C21 UNL     1       5.417   7.581  10.985  1.00  0.00     0.077 C 
BRANCH  22  23
HETATM   23  C22 UNL     1       6.444   6.467  11.197  1.00  0.00     0.169 C 
BRANCH  23  24
HETATM   24  O2  UNL     1       6.249   5.799  12.439  1.00  0.00    -0.401 OA
HETATM   25  H34 UNL     1       6.330   6.469  13.142  1.00  0.00     0.209 HD
ENDBRANCH  23  24
ENDBRANCH  22  23
ENDBRANCH  20  22
ENDBRANCH  16  19
ENDBRANCH  15  16
ENDBRANCH  12  14
ENDBRANCH   9  12
BRANCH   1  26
HETATM   26  C4  UNL     1      -4.907   5.791  12.856  1.00  0.00     0.063 C 
BRANCH  26  27
HETATM   27  C3  UNL     1      -6.014   4.823  13.189  1.00  0.00    -0.011 C 
HETATM   28  C2  UNL     1      -6.466   3.805  12.429  1.00  0.00     0.008 C 
HETATM   29  C1  UNL     1      -5.918   3.392  11.098  1.00  0.00     0.055 C 
BRANCH  28  30
HETATM   30  C23 UNL     1      -7.601   3.018  12.982  1.00  0.00     0.171 C 
HETATM   31  O3  UNL     1      -7.752   1.811  12.926  1.00  0.00    -0.646 OA
BRANCH  30  32
HETATM   32  O4  UNL     1      -8.503   3.794  13.604  1.00  0.00    -0.773 OA
HETATM   33  H36 UNL     1      -9.172   3.153  13.921  1.00  0.00     0.167 HD
ENDBRANCH  30  32
ENDBRANCH  28  30
ENDBRANCH  26  27
ENDBRANCH   1  26
TORSDOF 12
ENDMDL
