MODEL 1
REMARK minimizedAffinity -8.50347805
REMARK CNNscore 0.609490037
REMARK CNNaffinity 7.46078253
REMARK  18 active torsions:
REMARK  status: ('A' for Active; 'I' for Inactive)
REMARK    1  A    between atoms: C14_15  and  O2_16 
REMARK    2  A    between atoms: C14_15  and  C15_17 
REMARK    3  A    between atoms: C15_17  and  C16_19 
REMARK    4  A    between atoms: C16_19  and  O4_20 
REMARK    5  A    between atoms: O4_20  and  C17_21 
REMARK    6  A    between atoms: C17_21  and  C18_23 
REMARK    7  A    between atoms: C18_23  and  C19_24 
REMARK    8  A    between atoms: C19_24  and  C20_25 
REMARK       I    between atoms: C20_25  and  N1_27 
REMARK    9  A    between atoms: N1_27  and  C21_28 
REMARK   10  A    between atoms: C21_28  and  C22_29 
REMARK   11  A    between atoms: C22_29  and  C23_30 
REMARK   12  A    between atoms: C23_30  and  C24_31 
REMARK   13  A    between atoms: C24_31  and  C25_32 
REMARK   14  A    between atoms: C25_32  and  C26_33 
REMARK       I    between atoms: C26_33  and  N2_35 
REMARK   15  A    between atoms: N2_35  and  C27_36 
REMARK   16  A    between atoms: C27_36  and  C28_37 
REMARK   17  A    between atoms: C31_40  and  C32_41 
REMARK   18  A    between atoms: C32_41  and  O9_43 
ROOT
HETATM    1  C17 UNL     1      -4.093   3.634  11.766  1.00  0.00     0.259 C 
HETATM    2  O5  UNL     1      -4.074   3.513  10.549  1.00  0.00    -0.265 OA
ENDROOT
BRANCH   1   3
HETATM    3  O4  UNL     1      -3.027   3.939  12.542  1.00  0.00    -0.314 OA
BRANCH   3   4
HETATM    4  C16 UNL     1      -3.119   4.983  13.508  1.00  0.00     0.260 C 
BRANCH   4   5
HETATM    5  C15 UNL     1      -2.660   6.447  13.328  1.00  0.00     0.185 C 
HETATM    6  O3  UNL     1      -3.486   7.309  13.006  1.00  0.00    -0.292 OA
BRANCH   5   7
HETATM    7  C14 UNL     1      -1.177   6.801  13.653  1.00  0.00     0.128 C 
HETATM    8  C13 UNL     1      -0.291   5.580  13.369  1.00  0.00     0.047 C 
HETATM    9  C12 UNL     1       0.096   5.691  11.906  1.00  0.00     0.009 C 
HETATM   10  C11 UNL     1       0.144   7.191  11.576  1.00  0.00     0.002 C 
HETATM   11  C10 UNL     1       1.561   7.745  11.281  1.00  0.00    -0.004 C 
HETATM   12  C35 UNL     1      -0.557   7.937  12.761  1.00  0.00    -0.002 C 
HETATM   13  C9  UNL     1       2.212   7.075  10.059  1.00  0.00     0.010 C 
HETATM   14  C39 UNL     1       2.495   7.652  12.514  1.00  0.00     0.002 C 
HETATM   15  C8  UNL     1       3.554   7.720   9.735  1.00  0.00     0.035 C 
HETATM   16  C7  UNL     1       4.488   7.708  10.922  1.00  0.00    -0.068 C 
HETATM   17  C2  UNL     1       3.931   8.249  12.248  1.00  0.00    -0.016 C 
HETATM   18  C6  UNL     1       5.749   7.262  10.774  1.00  0.00     0.053 C 
HETATM   19  C1  UNL     1       3.910   9.792  12.155  1.00  0.00     0.020 C 
HETATM   20  C3  UNL     1       4.857   7.811  13.425  1.00  0.00     0.022 C 
HETATM   21  C4  UNL     1       6.338   8.025  13.149  1.00  0.00     0.084 C 
HETATM   22  C5  UNL     1       6.743   7.341  11.871  1.00  0.00     0.149 C 
HETATM   23  O1  UNL     1       7.882   6.916  11.688  1.00  0.00    -0.293 OA
HETATM   24  C38 UNL     1       1.813   8.199  13.792  1.00  0.00     0.007 C 
HETATM   25  C37 UNL     1       0.453   8.838  13.532  1.00  0.00     0.013 C 
HETATM   26  C36 UNL     1      -1.618   8.902  12.187  1.00  0.00     0.019 C 
BRANCH   7  27
HETATM   27  O2  UNL     1      -1.055   7.104  15.042  1.00  0.00    -0.381 OA
HETATM   28  H19 UNL     1      -1.198   6.257  15.511  1.00  0.00     0.211 HD
ENDBRANCH   7  27
ENDBRANCH   5   7
ENDBRANCH   4   5
ENDBRANCH   3   4
ENDBRANCH   1   3
BRANCH   1  29
HETATM   29  C18 UNL     1      -5.304   3.408  12.636  1.00  0.00     0.120 C 
BRANCH  29  30
HETATM   30  C19 UNL     1      -6.586   3.774  11.897  1.00  0.00     0.112 C 
BRANCH  30  31
HETATM   31  C20 UNL     1      -7.617   4.363  12.834  1.00  0.00     0.217 C 
HETATM   32  O6  UNL     1      -8.776   4.594  12.502  1.00  0.00    -0.274 OA
HETATM   33  N1  UNL     1      -7.121   4.598  14.099  1.00  0.00    -0.361 N 
HETATM   34  H26 UNL     1      -6.114   4.584  14.216  1.00  0.00     0.162 HD
BRANCH  33  35
HETATM   35  C21 UNL     1      -7.897   5.323  15.087  1.00  0.00     0.122 C 
BRANCH  35  36
HETATM   36  C22 UNL     1      -7.010   6.032  16.103  1.00  0.00     0.020 C 
BRANCH  36  37
HETATM   37  C23 UNL     1      -6.440   7.382  15.648  1.00  0.00     0.002 C 
BRANCH  37  38
HETATM   38  C24 UNL     1      -7.486   8.379  15.135  1.00  0.00     0.009 C 
BRANCH  38  39
HETATM   39  C25 UNL     1      -8.883   8.146  15.708  1.00  0.00     0.103 C 
BRANCH  39  40
HETATM   40  C26 UNL     1      -9.962   8.749  14.826  1.00  0.00     0.217 C 
HETATM   41  O7  UNL     1     -10.380   9.894  14.946  1.00  0.00    -0.274 OA
HETATM   42  N2  UNL     1     -10.421   7.865  13.874  1.00  0.00    -0.357 N 
HETATM   43  H37 UNL     1     -10.122   6.901  13.921  1.00  0.00     0.162 HD
BRANCH  42  44
HETATM   44  C27 UNL     1     -11.521   8.191  12.999  1.00  0.00     0.161 C 
BRANCH  44  45
HETATM   45  C28 UNL     1     -12.758   7.420  13.385  1.00  0.00    -0.040 A 
HETATM   46  C29 UNL     1     -12.667   6.368  14.308  1.00  0.00     0.010 A 
HETATM   47  C30 UNL     1     -13.801   5.631  14.657  1.00  0.00     0.019 A 
HETATM   48  C31 UNL     1     -15.042   5.937  14.085  1.00  0.00     0.037 A 
HETATM   49  C33 UNL     1     -15.137   6.979  13.156  1.00  0.00     0.019 A 
HETATM   50  C34 UNL     1     -14.000   7.714  12.805  1.00  0.00     0.010 A 
BRANCH  48  51
HETATM   51  C32 UNL     1     -16.217   5.129  14.487  1.00  0.00     0.176 C 
HETATM   52  O8  UNL     1     -16.519   4.821  15.626  1.00  0.00    -0.646 OA
BRANCH  51  53
HETATM   53  O9  UNL     1     -16.967   4.739  13.441  1.00  0.00    -0.773 OA
HETATM   54  H42 UNL     1     -17.694   4.229  13.857  1.00  0.00     0.167 HD
ENDBRANCH  51  53
ENDBRANCH  48  51
ENDBRANCH  44  45
ENDBRANCH  42  44
ENDBRANCH  39  40
ENDBRANCH  38  39
ENDBRANCH  37  38
ENDBRANCH  36  37
ENDBRANCH  35  36
ENDBRANCH  33  35
ENDBRANCH  30  31
ENDBRANCH  29  30
ENDBRANCH   1  29
TORSDOF 18
ENDMDL
MODEL 2
REMARK minimizedAffinity -7.97240019
REMARK CNNscore 0.353378832
REMARK CNNaffinity 7.64357042
REMARK  18 active torsions:
REMARK  status: ('A' for Active; 'I' for Inactive)
REMARK    1  A    between atoms: C14_15  and  O2_16 
REMARK    2  A    between atoms: C14_15  and  C15_17 
REMARK    3  A    between atoms: C15_17  and  C16_19 
REMARK    4  A    between atoms: C16_19  and  O4_20 
REMARK    5  A    between atoms: O4_20  and  C17_21 
REMARK    6  A    between atoms: C17_21  and  C18_23 
REMARK    7  A    between atoms: C18_23  and  C19_24 
REMARK    8  A    between atoms: C19_24  and  C20_25 
REMARK       I    between atoms: C20_25  and  N1_27 
REMARK    9  A    between atoms: N1_27  and  C21_28 
REMARK   10  A    between atoms: C21_28  and  C22_29 
REMARK   11  A    between atoms: C22_29  and  C23_30 
REMARK   12  A    between atoms: C23_30  and  C24_31 
REMARK   13  A    between atoms: C24_31  and  C25_32 
REMARK   14  A    between atoms: C25_32  and  C26_33 
REMARK       I    between atoms: C26_33  and  N2_35 
REMARK   15  A    between atoms: N2_35  and  C27_36 
REMARK   16  A    between atoms: C27_36  and  C28_37 
REMARK   17  A    between atoms: C31_40  and  C32_41 
REMARK   18  A    between atoms: C32_41  and  O9_43 
ROOT
HETATM    1  C17 UNL     1      -5.525   3.504  12.169  1.00  0.00     0.259 C 
HETATM    2  O5  UNL     1      -6.578   2.999  11.805  1.00  0.00    -0.265 OA
ENDROOT
BRANCH   1   3
HETATM    3  O4  UNL     1      -5.398   4.711  12.768  1.00  0.00    -0.314 OA
BRANCH   3   4
HETATM    4  C16 UNL     1      -4.742   4.820  14.029  1.00  0.00     0.260 C 
BRANCH   4   5
HETATM    5  C15 UNL     1      -4.360   6.126  14.759  1.00  0.00     0.185 C 
HETATM    6  O3  UNL     1      -3.188   6.311  15.105  1.00  0.00    -0.292 OA
BRANCH   5   7
HETATM    7  C14 UNL     1      -5.462   7.213  14.951  1.00  0.00     0.128 C 
HETATM    8  C13 UNL     1      -5.822   7.817  13.587  1.00  0.00     0.047 C 
HETATM    9  C12 UNL     1      -6.919   6.930  13.028  1.00  0.00     0.009 C 
HETATM   10  C11 UNL     1      -7.698   6.381  14.233  1.00  0.00     0.002 C 
HETATM   11  C10 UNL     1      -9.147   6.916  14.365  1.00  0.00    -0.004 C 
HETATM   12  C35 UNL     1      -6.832   6.675  15.504  1.00  0.00    -0.002 C 
HETATM   13  C9  UNL     1     -10.024   6.546  13.156  1.00  0.00     0.010 C 
HETATM   14  C39 UNL     1      -9.187   8.444  14.619  1.00  0.00     0.002 C 
HETATM   15  C8  UNL     1     -11.464   6.992  13.371  1.00  0.00     0.035 C 
HETATM   16  C7  UNL     1     -11.559   8.468  13.680  1.00  0.00    -0.068 C 
HETATM   17  C2  UNL     1     -10.652   9.003  14.799  1.00  0.00    -0.016 C 
HETATM   18  C6  UNL     1     -12.431   9.237  13.001  1.00  0.00     0.053 C 
HETATM   19  C1  UNL     1     -11.272   8.580  16.150  1.00  0.00     0.020 C 
HETATM   20  C3  UNL     1     -10.583  10.559  14.722  1.00  0.00     0.022 C 
HETATM   21  C4  UNL     1     -11.941  11.223  14.546  1.00  0.00     0.084 C 
HETATM   22  C5  UNL     1     -12.653  10.661  13.344  1.00  0.00     0.149 C 
HETATM   23  O1  UNL     1     -13.458  11.323  12.690  1.00  0.00    -0.293 OA
HETATM   24  C38 UNL     1      -8.212   8.863  15.745  1.00  0.00     0.007 C 
HETATM   25  C37 UNL     1      -7.549   7.684  16.450  1.00  0.00     0.013 C 
HETATM   26  C36 UNL     1      -6.686   5.372  16.321  1.00  0.00     0.019 C 
BRANCH   7  27
HETATM   27  O2  UNL     1      -4.951   8.268  15.765  1.00  0.00    -0.381 OA
HETATM   28  H19 UNL     1      -4.275   8.719  15.219  1.00  0.00     0.211 HD
ENDBRANCH   7  27
ENDBRANCH   5   7
ENDBRANCH   4   5
ENDBRANCH   3   4
ENDBRANCH   1   3
BRANCH   1  29
HETATM   29  C18 UNL     1      -4.160   2.896  11.963  1.00  0.00     0.120 C 
BRANCH  29  30
HETATM   30  C19 UNL     1      -3.559   3.335  10.633  1.00  0.00     0.112 C 
BRANCH  30  31
HETATM   31  C20 UNL     1      -2.047   3.338  10.682  1.00  0.00     0.217 C 
HETATM   32  O6  UNL     1      -1.359   2.381  10.341  1.00  0.00    -0.274 OA
HETATM   33  N1  UNL     1      -1.526   4.532  11.136  1.00  0.00    -0.361 N 
HETATM   34  H26 UNL     1      -2.163   5.175  11.596  1.00  0.00     0.162 HD
BRANCH  33  35
HETATM   35  C21 UNL     1      -0.112   4.673  11.426  1.00  0.00     0.122 C 
BRANCH  35  36
HETATM   36  C22 UNL     1       0.302   6.134  11.553  1.00  0.00     0.020 C 
BRANCH  36  37
HETATM   37  C23 UNL     1       1.015   6.724  10.329  1.00  0.00     0.002 C 
BRANCH  37  38
HETATM   38  C24 UNL     1       2.125   7.729  10.657  1.00  0.00     0.009 C 
BRANCH  38  39
HETATM   39  C25 UNL     1       2.215   8.076  12.142  1.00  0.00     0.103 C 
BRANCH  39  40
HETATM   40  C26 UNL     1       3.315   9.085  12.421  1.00  0.00     0.217 C 
HETATM   41  O7  UNL     1       3.135  10.146  13.005  1.00  0.00    -0.274 OA
HETATM   42  N2  UNL     1       4.540   8.675  11.942  1.00  0.00    -0.357 N 
HETATM   43  H37 UNL     1       4.584   7.852  11.358  1.00  0.00     0.162 HD
BRANCH  42  44
HETATM   44  C27 UNL     1       5.704   9.526  12.002  1.00  0.00     0.161 C 
BRANCH  44  45
HETATM   45  C28 UNL     1       6.528   9.220  13.226  1.00  0.00    -0.040 A 
HETATM   46  C29 UNL     1       6.681  10.190  14.228  1.00  0.00     0.010 A 
HETATM   47  C30 UNL     1       7.460   9.927  15.356  1.00  0.00     0.019 A 
HETATM   48  C31 UNL     1       8.099   8.689  15.497  1.00  0.00     0.037 A 
HETATM   49  C33 UNL     1       7.960   7.721  14.496  1.00  0.00     0.019 A 
HETATM   50  C34 UNL     1       7.182   7.988  13.365  1.00  0.00     0.010 A 
BRANCH  48  51
HETATM   51  C32 UNL     1       8.915   8.455  16.713  1.00  0.00     0.176 C 
HETATM   52  O8  UNL     1       9.366   9.314  17.447  1.00  0.00    -0.646 OA
BRANCH  51  53
HETATM   53  O9  UNL     1       9.130   7.150  16.955  1.00  0.00    -0.773 OA
HETATM   54  H42 UNL     1       9.667   7.155  17.775  1.00  0.00     0.167 HD
ENDBRANCH  51  53
ENDBRANCH  48  51
ENDBRANCH  44  45
ENDBRANCH  42  44
ENDBRANCH  39  40
ENDBRANCH  38  39
ENDBRANCH  37  38
ENDBRANCH  36  37
ENDBRANCH  35  36
ENDBRANCH  33  35
ENDBRANCH  30  31
ENDBRANCH  29  30
ENDBRANCH   1  29
TORSDOF 18
ENDMDL
MODEL 3
REMARK minimizedAffinity -9.03104973
REMARK CNNscore 0.308462441
REMARK CNNaffinity 6.88450623
REMARK  18 active torsions:
REMARK  status: ('A' for Active; 'I' for Inactive)
REMARK    1  A    between atoms: C14_15  and  O2_16 
REMARK    2  A    between atoms: C14_15  and  C15_17 
REMARK    3  A    between atoms: C15_17  and  C16_19 
REMARK    4  A    between atoms: C16_19  and  O4_20 
REMARK    5  A    between atoms: O4_20  and  C17_21 
REMARK    6  A    between atoms: C17_21  and  C18_23 
REMARK    7  A    between atoms: C18_23  and  C19_24 
REMARK    8  A    between atoms: C19_24  and  C20_25 
REMARK       I    between atoms: C20_25  and  N1_27 
REMARK    9  A    between atoms: N1_27  and  C21_28 
REMARK   10  A    between atoms: C21_28  and  C22_29 
REMARK   11  A    between atoms: C22_29  and  C23_30 
REMARK   12  A    between atoms: C23_30  and  C24_31 
REMARK   13  A    between atoms: C24_31  and  C25_32 
REMARK   14  A    between atoms: C25_32  and  C26_33 
REMARK       I    between atoms: C26_33  and  N2_35 
REMARK   15  A    between atoms: N2_35  and  C27_36 
REMARK   16  A    between atoms: C27_36  and  C28_37 
REMARK   17  A    between atoms: C31_40  and  C32_41 
REMARK   18  A    between atoms: C32_41  and  O9_43 
ROOT
HETATM    1  C17 UNL     1       2.524   7.271   9.539  1.00  0.00     0.259 C 
HETATM    2  O5  UNL     1       1.922   6.513   8.791  1.00  0.00    -0.265 OA
ENDROOT
BRANCH   1   3
HETATM    3  O4  UNL     1       1.957   8.218  10.322  1.00  0.00    -0.314 OA
BRANCH   3   4
HETATM    4  C16 UNL     1       1.929   8.054  11.738  1.00  0.00     0.260 C 
BRANCH   4   5
HETATM    5  C15 UNL     1       1.331   9.039  12.766  1.00  0.00     0.185 C 
HETATM    6  O3  UNL     1       2.049   9.915  13.261  1.00  0.00    -0.292 OA
BRANCH   5   7
HETATM    7  C14 UNL     1      -0.194   8.946  13.076  1.00  0.00     0.128 C 
HETATM    8  C13 UNL     1      -0.959   8.657  11.777  1.00  0.00     0.047 C 
HETATM    9  C12 UNL     1      -0.983   7.145  11.649  1.00  0.00     0.009 C 
HETATM   10  C11 UNL     1      -0.982   6.582  13.079  1.00  0.00     0.002 C 
HETATM   11  C10 UNL     1      -2.298   5.879  13.499  1.00  0.00    -0.004 C 
HETATM   12  C35 UNL     1      -0.605   7.766  14.031  1.00  0.00    -0.002 C 
HETATM   13  C9  UNL     1      -2.620   4.658  12.620  1.00  0.00     0.010 C 
HETATM   14  C39 UNL     1      -3.500   6.856  13.533  1.00  0.00     0.002 C 
HETATM   15  C8  UNL     1      -3.858   3.931  13.129  1.00  0.00     0.035 C 
HETATM   16  C7  UNL     1      -5.050   4.852  13.237  1.00  0.00    -0.068 C 
HETATM   17  C2  UNL     1      -4.842   6.170  13.999  1.00  0.00    -0.016 C 
HETATM   18  C6  UNL     1      -6.228   4.483  12.701  1.00  0.00     0.053 C 
HETATM   19  C1  UNL     1      -4.833   5.843  15.510  1.00  0.00     0.020 C 
HETATM   20  C3  UNL     1      -6.015   7.149  13.686  1.00  0.00     0.022 C 
HETATM   21  C4  UNL     1      -7.390   6.503  13.769  1.00  0.00     0.084 C 
HETATM   22  C5  UNL     1      -7.459   5.288  12.882  1.00  0.00     0.149 C 
HETATM   23  O1  UNL     1      -8.511   4.911  12.368  1.00  0.00    -0.293 OA
HETATM   24  C38 UNL     1      -3.159   8.156  14.301  1.00  0.00     0.007 C 
HETATM   25  C37 UNL     1      -1.791   8.127  14.974  1.00  0.00     0.013 C 
HETATM   26  C36 UNL     1       0.542   7.313  14.962  1.00  0.00     0.019 C 
BRANCH   7  27
HETATM   27  O2  UNL     1      -0.655  10.202  13.573  1.00  0.00    -0.381 OA
HETATM   28  H19 UNL     1      -0.611  10.819  12.814  1.00  0.00     0.211 HD
ENDBRANCH   7  27
ENDBRANCH   5   7
ENDBRANCH   4   5
ENDBRANCH   3   4
ENDBRANCH   1   3
BRANCH   1  29
HETATM   29  C18 UNL     1       4.024   7.326   9.684  1.00  0.00     0.120 C 
BRANCH  29  30
HETATM   30  C19 UNL     1       4.556   6.071  10.367  1.00  0.00     0.112 C 
BRANCH  30  31
HETATM   31  C20 UNL     1       5.792   6.368  11.188  1.00  0.00     0.217 C 
HETATM   32  O6  UNL     1       6.933   6.273  10.745  1.00  0.00    -0.274 OA
HETATM   33  N1  UNL     1       5.499   6.768  12.475  1.00  0.00    -0.361 N 
HETATM   34  H26 UNL     1       4.556   6.606  12.812  1.00  0.00     0.162 HD
BRANCH  33  35
HETATM   35  C21 UNL     1       6.544   6.924  13.468  1.00  0.00     0.122 C 
BRANCH  35  36
HETATM   36  C22 UNL     1       6.987   8.375  13.609  1.00  0.00     0.020 C 
BRANCH  36  37
HETATM   37  C23 UNL     1       8.504   8.605  13.585  1.00  0.00     0.002 C 
BRANCH  37  38
HETATM   38  C24 UNL     1       9.276   7.897  14.704  1.00  0.00     0.009 C 
BRANCH  38  39
HETATM   39  C25 UNL     1       8.869   8.346  16.106  1.00  0.00     0.103 C 
BRANCH  39  40
HETATM   40  C26 UNL     1       9.357   9.751  16.413  1.00  0.00     0.217 C 
HETATM   41  O7  UNL     1       9.157  10.716  15.687  1.00  0.00    -0.274 OA
HETATM   42  N2  UNL     1      10.052   9.820  17.600  1.00  0.00    -0.357 N 
HETATM   43  H37 UNL     1      10.288   8.961  18.077  1.00  0.00     0.162 HD
BRANCH  42  44
HETATM   44  C27 UNL     1      10.698  11.036  18.035  1.00  0.00     0.161 C 
BRANCH  44  45
HETATM   45  C28 UNL     1      10.081  11.541  19.315  1.00  0.00    -0.040 A 
HETATM   46  C29 UNL     1       8.691  11.483  19.492  1.00  0.00     0.010 A 
HETATM   47  C30 UNL     1       8.105  11.968  20.663  1.00  0.00     0.019 A 
HETATM   48  C31 UNL     1       8.903  12.520  21.672  1.00  0.00     0.037 A 
HETATM   49  C33 UNL     1      10.290  12.591  21.497  1.00  0.00     0.019 A 
HETATM   50  C34 UNL     1      10.874  12.107  20.322  1.00  0.00     0.010 A 
BRANCH  48  51
HETATM   51  C32 UNL     1       8.237  13.021  22.898  1.00  0.00     0.176 C 
HETATM   52  O8  UNL     1       8.726  13.771  23.722  1.00  0.00    -0.646 OA
BRANCH  51  53
HETATM   53  O9  UNL     1       6.982  12.559  23.038  1.00  0.00    -0.773 OA
HETATM   54  H42 UNL     1       6.677  12.973  23.872  1.00  0.00     0.167 HD
ENDBRANCH  51  53
ENDBRANCH  48  51
ENDBRANCH  44  45
ENDBRANCH  42  44
ENDBRANCH  39  40
ENDBRANCH  38  39
ENDBRANCH  37  38
ENDBRANCH  36  37
ENDBRANCH  35  36
ENDBRANCH  33  35
ENDBRANCH  30  31
ENDBRANCH  29  30
ENDBRANCH   1  29
TORSDOF 18
ENDMDL
MODEL 4
REMARK minimizedAffinity -8.90963745
REMARK CNNscore 0.308175325
REMARK CNNaffinity 6.73160553
REMARK  18 active torsions:
REMARK  status: ('A' for Active; 'I' for Inactive)
REMARK    1  A    between atoms: C14_15  and  O2_16 
REMARK    2  A    between atoms: C14_15  and  C15_17 
REMARK    3  A    between atoms: C15_17  and  C16_19 
REMARK    4  A    between atoms: C16_19  and  O4_20 
REMARK    5  A    between atoms: O4_20  and  C17_21 
REMARK    6  A    between atoms: C17_21  and  C18_23 
REMARK    7  A    between atoms: C18_23  and  C19_24 
REMARK    8  A    between atoms: C19_24  and  C20_25 
REMARK       I    between atoms: C20_25  and  N1_27 
REMARK    9  A    between atoms: N1_27  and  C21_28 
REMARK   10  A    between atoms: C21_28  and  C22_29 
REMARK   11  A    between atoms: C22_29  and  C23_30 
REMARK   12  A    between atoms: C23_30  and  C24_31 
REMARK   13  A    between atoms: C24_31  and  C25_32 
REMARK   14  A    between atoms: C25_32  and  C26_33 
REMARK       I    between atoms: C26_33  and  N2_35 
REMARK   15  A    between atoms: N2_35  and  C27_36 
REMARK   16  A    between atoms: C27_36  and  C28_37 
REMARK   17  A    between atoms: C31_40  and  C32_41 
REMARK   18  A    between atoms: C32_41  and  O9_43 
ROOT
HETATM    1  C17 UNL     1      -5.355   3.285  11.951  1.00  0.00     0.259 C 
HETATM    2  O5  UNL     1      -4.920   2.269  11.426  1.00  0.00    -0.265 OA
ENDROOT
BRANCH   1   3
HETATM    3  O4  UNL     1      -4.651   4.421  12.166  1.00  0.00    -0.314 OA
BRANCH   3   4
HETATM    4  C16 UNL     1      -3.413   4.374  12.872  1.00  0.00     0.260 C 
BRANCH   4   5
HETATM    5  C15 UNL     1      -2.967   5.315  14.012  1.00  0.00     0.185 C 
HETATM    6  O3  UNL     1      -3.789   5.675  14.863  1.00  0.00    -0.292 OA
BRANCH   5   7
HETATM    7  C14 UNL     1      -1.461   5.707  14.098  1.00  0.00     0.128 C 
HETATM    8  C13 UNL     1      -0.626   4.691  13.306  1.00  0.00     0.047 C 
HETATM    9  C12 UNL     1      -0.590   5.218  11.884  1.00  0.00     0.009 C 
HETATM   10  C11 UNL     1      -0.666   6.750  11.979  1.00  0.00     0.002 C 
HETATM   11  C10 UNL     1       0.628   7.490  11.555  1.00  0.00    -0.004 C 
HETATM   12  C35 UNL     1      -1.098   7.091  13.446  1.00  0.00    -0.002 C 
HETATM   13  C9  UNL     1       1.001   7.228  10.086  1.00  0.00     0.010 C 
HETATM   14  C39 UNL     1       1.823   7.163  12.485  1.00  0.00     0.002 C 
HETATM   15  C8  UNL     1       2.212   8.056   9.674  1.00  0.00     0.035 C 
HETATM   16  C7  UNL     1       3.394   7.820  10.585  1.00  0.00    -0.068 C 
HETATM   17  C2  UNL     1       3.141   7.940  12.096  1.00  0.00    -0.016 C 
HETATM   18  C6  UNL     1       4.600   7.547  10.055  1.00  0.00     0.053 C 
HETATM   19  C1  UNL     1       3.051   9.444  12.440  1.00  0.00     0.020 C 
HETATM   20  C3  UNL     1       4.325   7.296  12.881  1.00  0.00     0.022 C 
HETATM   21  C4  UNL     1       5.696   7.711  12.366  1.00  0.00     0.084 C 
HETATM   22  C5  UNL     1       5.816   7.427  10.893  1.00  0.00     0.149 C 
HETATM   23  O1  UNL     1       6.896   7.172  10.361  1.00  0.00    -0.293 OA
HETATM   24  C38 UNL     1       1.437   7.290  13.979  1.00  0.00     0.007 C 
HETATM   25  C37 UNL     1       0.034   7.847  14.202  1.00  0.00     0.013 C 
HETATM   26  C36 UNL     1      -2.292   8.070  13.400  1.00  0.00     0.019 C 
BRANCH   7  27
HETATM   27  O2  UNL     1      -1.032   5.645  15.458  1.00  0.00    -0.381 OA
HETATM   28  H19 UNL     1      -1.036   4.695  15.694  1.00  0.00     0.211 HD
ENDBRANCH   7  27
ENDBRANCH   5   7
ENDBRANCH   4   5
ENDBRANCH   3   4
ENDBRANCH   1   3
BRANCH   1  29
HETATM   29  C18 UNL     1      -6.747   3.438  12.510  1.00  0.00     0.120 C 
BRANCH  29  30
HETATM   30  C19 UNL     1      -6.801   4.557  13.545  1.00  0.00     0.112 C 
BRANCH  30  31
HETATM   31  C20 UNL     1      -7.986   5.469  13.314  1.00  0.00     0.217 C 
HETATM   32  O6  UNL     1      -8.354   5.827  12.200  1.00  0.00    -0.274 OA
HETATM   33  N1  UNL     1      -8.614   5.841  14.485  1.00  0.00    -0.361 N 
HETATM   34  H26 UNL     1      -8.116   5.680  15.354  1.00  0.00     0.162 HD
BRANCH  33  35
HETATM   35  C21 UNL     1      -9.654   6.851  14.490  1.00  0.00     0.122 C 
BRANCH  35  36
HETATM   36  C22 UNL     1     -10.433   6.876  13.180  1.00  0.00     0.020 C 
BRANCH  36  37
HETATM   37  C23 UNL     1     -11.932   7.175  13.313  1.00  0.00     0.002 C 
BRANCH  37  38
HETATM   38  C24 UNL     1     -12.595   6.585  14.563  1.00  0.00     0.009 C 
BRANCH  38  39
HETATM   39  C25 UNL     1     -13.945   7.217  14.894  1.00  0.00     0.103 C 
BRANCH  39  40
HETATM   40  C26 UNL     1     -15.103   6.368  14.398  1.00  0.00     0.217 C 
HETATM   41  O7  UNL     1     -15.608   6.485  13.289  1.00  0.00    -0.274 OA
HETATM   42  N2  UNL     1     -15.524   5.451  15.336  1.00  0.00    -0.357 N 
HETATM   43  H37 UNL     1     -15.147   5.503  16.271  1.00  0.00     0.162 HD
BRANCH  42  44
HETATM   44  C27 UNL     1     -16.680   4.615  15.117  1.00  0.00     0.161 C 
BRANCH  44  45
HETATM   45  C28 UNL     1     -16.354   3.169  15.395  1.00  0.00    -0.040 A 
HETATM   46  C29 UNL     1     -15.205   2.591  14.837  1.00  0.00     0.010 A 
HETATM   47  C30 UNL     1     -14.903   1.247  15.067  1.00  0.00     0.019 A 
HETATM   48  C31 UNL     1     -15.750   0.463  15.859  1.00  0.00     0.037 A 
HETATM   49  C33 UNL     1     -16.905   1.031  16.410  1.00  0.00     0.019 A 
HETATM   50  C34 UNL     1     -17.206   2.376  16.175  1.00  0.00     0.010 A 
BRANCH  48  51
HETATM   51  C32 UNL     1     -15.389  -0.959  16.077  1.00  0.00     0.176 C 
HETATM   52  O8  UNL     1     -15.967  -1.739  16.811  1.00  0.00    -0.646 OA
BRANCH  51  53
HETATM   53  O9  UNL     1     -14.316  -1.341  15.363  1.00  0.00    -0.773 OA
HETATM   54  H42 UNL     1     -14.206  -2.285  15.603  1.00  0.00     0.167 HD
ENDBRANCH  51  53
ENDBRANCH  48  51
ENDBRANCH  44  45
ENDBRANCH  42  44
ENDBRANCH  39  40
ENDBRANCH  38  39
ENDBRANCH  37  38
ENDBRANCH  36  37
ENDBRANCH  35  36
ENDBRANCH  33  35
ENDBRANCH  30  31
ENDBRANCH  29  30
ENDBRANCH   1  29
TORSDOF 18
ENDMDL
MODEL 5
REMARK minimizedAffinity -8.78711033
REMARK CNNscore 0.296420425
REMARK CNNaffinity 6.77486658
REMARK  18 active torsions:
REMARK  status: ('A' for Active; 'I' for Inactive)
REMARK    1  A    between atoms: C14_15  and  O2_16 
REMARK    2  A    between atoms: C14_15  and  C15_17 
REMARK    3  A    between atoms: C15_17  and  C16_19 
REMARK    4  A    between atoms: C16_19  and  O4_20 
REMARK    5  A    between atoms: O4_20  and  C17_21 
REMARK    6  A    between atoms: C17_21  and  C18_23 
REMARK    7  A    between atoms: C18_23  and  C19_24 
REMARK    8  A    between atoms: C19_24  and  C20_25 
REMARK       I    between atoms: C20_25  and  N1_27 
REMARK    9  A    between atoms: N1_27  and  C21_28 
REMARK   10  A    between atoms: C21_28  and  C22_29 
REMARK   11  A    between atoms: C22_29  and  C23_30 
REMARK   12  A    between atoms: C23_30  and  C24_31 
REMARK   13  A    between atoms: C24_31  and  C25_32 
REMARK   14  A    between atoms: C25_32  and  C26_33 
REMARK       I    between atoms: C26_33  and  N2_35 
REMARK   15  A    between atoms: N2_35  and  C27_36 
REMARK   16  A    between atoms: C27_36  and  C28_37 
REMARK   17  A    between atoms: C31_40  and  C32_41 
REMARK   18  A    between atoms: C32_41  and  O9_43 
ROOT
HETATM    1  C17 UNL     1       4.777   6.870  10.988  1.00  0.00     0.259 C 
HETATM    2  O5  UNL     1       5.651   6.412  10.265  1.00  0.00    -0.265 OA
ENDROOT
BRANCH   1   3
HETATM    3  O4  UNL     1       4.953   7.839  11.917  1.00  0.00    -0.314 OA
BRANCH   3   4
HETATM    4  C16 UNL     1       5.601   7.539  13.151  1.00  0.00     0.260 C 
BRANCH   4   5
HETATM    5  C15 UNL     1       7.102   7.712  13.469  1.00  0.00     0.185 C 
HETATM    6  O3  UNL     1       7.945   7.421  12.612  1.00  0.00    -0.292 OA
BRANCH   5   7
HETATM    7  C14 UNL     1       7.498   8.342  14.839  1.00  0.00     0.128 C 
HETATM    8  C13 UNL     1       8.822   7.728  15.315  1.00  0.00     0.047 C 
HETATM    9  C12 UNL     1       9.911   8.591  14.705  1.00  0.00     0.009 C 
HETATM   10  C11 UNL     1       9.332  10.009  14.581  1.00  0.00     0.002 C 
HETATM   11  C10 UNL     1       9.983  11.058  15.518  1.00  0.00    -0.004 C 
HETATM   12  C35 UNL     1       7.786   9.887  14.799  1.00  0.00    -0.002 C 
HETATM   13  C9  UNL     1      11.484  11.245  15.240  1.00  0.00     0.010 C 
HETATM   14  C39 UNL     1       9.743  10.736  17.015  1.00  0.00     0.002 C 
HETATM   15  C8  UNL     1      12.064  12.359  16.103  1.00  0.00     0.035 C 
HETATM   16  C7  UNL     1      11.808  12.125  17.574  1.00  0.00    -0.068 C 
HETATM   17  C2  UNL     1      10.361  11.815  17.986  1.00  0.00    -0.016 C 
HETATM   18  C6  UNL     1      12.824  12.222  18.451  1.00  0.00     0.053 C 
HETATM   19  C1  UNL     1       9.569  13.143  17.958  1.00  0.00     0.020 C 
HETATM   20  C3  UNL     1      10.340  11.227  19.430  1.00  0.00     0.022 C 
HETATM   21  C4  UNL     1      11.197  12.004  20.419  1.00  0.00     0.084 C 
HETATM   22  C5  UNL     1      12.610  12.124  19.914  1.00  0.00     0.149 C 
HETATM   23  O1  UNL     1      13.573  12.214  20.675  1.00  0.00    -0.293 OA
HETATM   24  C38 UNL     1       8.256  10.413  17.299  1.00  0.00     0.007 C 
HETATM   25  C37 UNL     1       7.343  10.627  16.096  1.00  0.00     0.013 C 
HETATM   26  C36 UNL     1       7.060  10.608  13.641  1.00  0.00     0.019 C 
BRANCH   7  27
HETATM   27  O2  UNL     1       6.505   8.023  15.813  1.00  0.00    -0.381 OA
HETATM   28  H19 UNL     1       6.587   7.060  15.969  1.00  0.00     0.211 HD
ENDBRANCH   7  27
ENDBRANCH   5   7
ENDBRANCH   4   5
ENDBRANCH   3   4
ENDBRANCH   1   3
BRANCH   1  29
HETATM   29  C18 UNL     1       3.346   6.397  11.016  1.00  0.00     0.120 C 
BRANCH  29  30
HETATM   30  C19 UNL     1       2.402   7.473  10.489  1.00  0.00     0.112 C 
BRANCH  30  31
HETATM   31  C20 UNL     1       0.959   7.148  10.806  1.00  0.00     0.217 C 
HETATM   32  O6  UNL     1       0.073   7.112   9.957  1.00  0.00    -0.274 OA
HETATM   33  N1  UNL     1       0.749   6.884  12.144  1.00  0.00    -0.361 N 
HETATM   34  H26 UNL     1       1.482   7.150  12.793  1.00  0.00     0.162 HD
BRANCH  33  35
HETATM   35  C21 UNL     1      -0.591   6.729  12.677  1.00  0.00     0.122 C 
BRANCH  35  36
HETATM   36  C22 UNL     1      -1.126   8.029  13.264  1.00  0.00     0.020 C 
BRANCH  36  37
HETATM   37  C23 UNL     1      -0.851   8.238  14.759  1.00  0.00     0.002 C 
BRANCH  37  38
HETATM   38  C24 UNL     1      -1.904   7.633  15.694  1.00  0.00     0.009 C 
BRANCH  38  39
HETATM   39  C25 UNL     1      -3.039   8.594  16.039  1.00  0.00     0.103 C 
BRANCH  39  40
HETATM   40  C26 UNL     1      -4.280   8.326  15.206  1.00  0.00     0.217 C 
HETATM   41  O7  UNL     1      -4.692   9.079  14.333  1.00  0.00    -0.274 OA
HETATM   42  N2  UNL     1      -4.894   7.139  15.541  1.00  0.00    -0.357 N 
HETATM   43  H37 UNL     1      -4.571   6.637  16.356  1.00  0.00     0.162 HD
BRANCH  42  44
HETATM   44  C27 UNL     1      -6.148   6.736  14.951  1.00  0.00     0.161 C 
BRANCH  44  45
HETATM   45  C28 UNL     1      -5.937   5.630  13.948  1.00  0.00    -0.040 A 
HETATM   46  C29 UNL     1      -7.030   4.874  13.499  1.00  0.00     0.010 A 
HETATM   47  C30 UNL     1      -6.845   3.832  12.589  1.00  0.00     0.019 A 
HETATM   48  C31 UNL     1      -5.562   3.531  12.116  1.00  0.00     0.037 A 
HETATM   49  C33 UNL     1      -4.466   4.274  12.569  1.00  0.00     0.019 A 
HETATM   50  C34 UNL     1      -4.653   5.315  13.484  1.00  0.00     0.010 A 
BRANCH  48  51
HETATM   51  C32 UNL     1      -5.414   2.417  11.150  1.00  0.00     0.176 C 
HETATM   52  O8  UNL     1      -5.317   1.236  11.429  1.00  0.00    -0.646 OA
BRANCH  51  53
HETATM   53  O9  UNL     1      -5.395   2.832   9.871  1.00  0.00    -0.773 OA
HETATM   54  H42 UNL     1      -5.300   2.000   9.361  1.00  0.00     0.167 HD
ENDBRANCH  51  53
ENDBRANCH  48  51
ENDBRANCH  44  45
ENDBRANCH  42  44
ENDBRANCH  39  40
ENDBRANCH  38  39
ENDBRANCH  37  38
ENDBRANCH  36  37
ENDBRANCH  35  36
ENDBRANCH  33  35
ENDBRANCH  30  31
ENDBRANCH  29  30
ENDBRANCH   1  29
TORSDOF 18
ENDMDL
MODEL 6
REMARK minimizedAffinity -8.79053974
REMARK CNNscore 0.290815383
REMARK CNNaffinity 7.07009935
REMARK  18 active torsions:
REMARK  status: ('A' for Active; 'I' for Inactive)
REMARK    1  A    between atoms: C14_15  and  O2_16 
REMARK    2  A    between atoms: C14_15  and  C15_17 
REMARK    3  A    between atoms: C15_17  and  C16_19 
REMARK    4  A    between atoms: C16_19  and  O4_20 
REMARK    5  A    between atoms: O4_20  and  C17_21 
REMARK    6  A    between atoms: C17_21  and  C18_23 
REMARK    7  A    between atoms: C18_23  and  C19_24 
REMARK    8  A    between atoms: C19_24  and  C20_25 
REMARK       I    between atoms: C20_25  and  N1_27 
REMARK    9  A    between atoms: N1_27  and  C21_28 
REMARK   10  A    between atoms: C21_28  and  C22_29 
REMARK   11  A    between atoms: C22_29  and  C23_30 
REMARK   12  A    between atoms: C23_30  and  C24_31 
REMARK   13  A    between atoms: C24_31  and  C25_32 
REMARK   14  A    between atoms: C25_32  and  C26_33 
REMARK       I    between atoms: C26_33  and  N2_35 
REMARK   15  A    between atoms: N2_35  and  C27_36 
REMARK   16  A    between atoms: C27_36  and  C28_37 
REMARK   17  A    between atoms: C31_40  and  C32_41 
REMARK   18  A    between atoms: C32_41  and  O9_43 
ROOT
HETATM    1  C17 UNL     1      -5.464   6.158  13.850  1.00  0.00     0.259 C 
HETATM    2  O5  UNL     1      -5.125   5.016  13.572  1.00  0.00    -0.265 OA
ENDROOT
BRANCH   1   3
HETATM    3  O4  UNL     1      -4.637   7.142  14.273  1.00  0.00    -0.314 OA
BRANCH   3   4
HETATM    4  C16 UNL     1      -3.814   6.942  15.420  1.00  0.00     0.260 C 
BRANCH   4   5
HETATM    5  C15 UNL     1      -2.426   7.569  15.678  1.00  0.00     0.185 C 
HETATM    6  O3  UNL     1      -2.304   8.446  16.541  1.00  0.00    -0.292 OA
BRANCH   5   7
HETATM    7  C14 UNL     1      -1.203   7.001  14.896  1.00  0.00     0.128 C 
HETATM    8  C13 UNL     1      -1.701   6.067  13.784  1.00  0.00     0.047 C 
HETATM    9  C12 UNL     1      -1.942   6.961  12.582  1.00  0.00     0.009 C 
HETATM   10  C11 UNL     1      -0.936   8.118  12.684  1.00  0.00     0.002 C 
HETATM   11  C10 UNL     1       0.167   8.115  11.596  1.00  0.00    -0.004 C 
HETATM   12  C35 UNL     1      -0.347   8.077  14.135  1.00  0.00    -0.002 C 
HETATM   13  C9  UNL     1      -0.408   8.248  10.175  1.00  0.00     0.010 C 
HETATM   14  C39 UNL     1       1.086   6.871  11.695  1.00  0.00     0.002 C 
HETATM   15  C8  UNL     1       0.707   8.351   9.143  1.00  0.00     0.035 C 
HETATM   16  C7  UNL     1       1.670   7.191   9.232  1.00  0.00    -0.068 C 
HETATM   17  C2  UNL     1       2.243   6.870  10.622  1.00  0.00    -0.016 C 
HETATM   18  C6  UNL     1       2.004   6.514   8.118  1.00  0.00     0.053 C 
HETATM   19  C1  UNL     1       3.329   7.923  10.937  1.00  0.00     0.020 C 
HETATM   20  C3  UNL     1       2.884   5.448  10.611  1.00  0.00     0.022 C 
HETATM   21  C4  UNL     1       3.781   5.191   9.408  1.00  0.00     0.084 C 
HETATM   22  C5  UNL     1       3.034   5.448   8.127  1.00  0.00     0.149 C 
HETATM   23  O1  UNL     1       3.301   4.856   7.082  1.00  0.00    -0.293 OA
HETATM   24  C38 UNL     1       1.575   6.635  13.145  1.00  0.00     0.007 C 
HETATM   25  C37 UNL     1       1.175   7.745  14.112  1.00  0.00     0.013 C 
HETATM   26  C36 UNL     1      -0.454   9.487  14.757  1.00  0.00     0.019 C 
BRANCH   7  27
HETATM   27  O2  UNL     1      -0.396   6.222  15.778  1.00  0.00    -0.381 OA
HETATM   28  H19 UNL     1      -0.925   5.426  15.988  1.00  0.00     0.211 HD
ENDBRANCH   7  27
ENDBRANCH   5   7
ENDBRANCH   4   5
ENDBRANCH   3   4
ENDBRANCH   1   3
BRANCH   1  29
HETATM   29  C18 UNL     1      -6.884   6.665  13.826  1.00  0.00     0.120 C 
BRANCH  29  30
HETATM   30  C19 UNL     1      -7.193   7.489  15.071  1.00  0.00     0.112 C 
BRANCH  30  31
HETATM   31  C20 UNL     1      -8.680   7.716  15.231  1.00  0.00     0.217 C 
HETATM   32  O6  UNL     1      -9.158   8.530  16.015  1.00  0.00    -0.274 OA
HETATM   33  N1  UNL     1      -9.438   6.922  14.395  1.00  0.00    -0.361 N 
HETATM   34  H26 UNL     1      -8.975   6.136  13.951  1.00  0.00     0.162 HD
BRANCH  33  35
HETATM   35  C21 UNL     1     -10.881   6.859  14.523  1.00  0.00     0.122 C 
BRANCH  35  36
HETATM   36  C22 UNL     1     -11.587   7.310  13.250  1.00  0.00     0.020 C 
BRANCH  36  37
HETATM   37  C23 UNL     1     -13.102   7.067  13.219  1.00  0.00     0.002 C 
BRANCH  37  38
HETATM   38  C24 UNL     1     -13.587   5.929  14.123  1.00  0.00     0.009 C 
BRANCH  38  39
HETATM   39  C25 UNL     1     -14.422   6.405  15.311  1.00  0.00     0.103 C 
BRANCH  39  40
HETATM   40  C26 UNL     1     -15.742   5.662  15.408  1.00  0.00     0.217 C 
HETATM   41  O7  UNL     1     -16.405   5.581  16.435  1.00  0.00    -0.274 OA
HETATM   42  N2  UNL     1     -16.114   5.087  14.213  1.00  0.00    -0.357 N 
HETATM   43  H37 UNL     1     -15.454   5.087  13.447  1.00  0.00     0.162 HD
BRANCH  42  44
HETATM   44  C27 UNL     1     -17.279   4.243  14.103  1.00  0.00     0.161 C 
BRANCH  44  45
HETATM   45  C28 UNL     1     -16.896   2.858  13.646  1.00  0.00    -0.040 A 
HETATM   46  C29 UNL     1     -15.965   2.111  14.382  1.00  0.00     0.010 A 
HETATM   47  C30 UNL     1     -15.583   0.837  13.958  1.00  0.00     0.019 A 
HETATM   48  C31 UNL     1     -16.128   0.294  12.788  1.00  0.00     0.037 A 
HETATM   49  C33 UNL     1     -17.048   1.039  12.043  1.00  0.00     0.019 A 
HETATM   50  C34 UNL     1     -17.427   2.316  12.468  1.00  0.00     0.010 A 
BRANCH  48  51
HETATM   51  C32 UNL     1     -15.694  -1.063  12.377  1.00  0.00     0.176 C 
HETATM   52  O8  UNL     1     -16.322  -2.093  12.533  1.00  0.00    -0.646 OA
BRANCH  51  53
HETATM   53  O9  UNL     1     -14.486  -1.070  11.786  1.00  0.00    -0.773 OA
HETATM   54  H42 UNL     1     -14.341  -2.015  11.570  1.00  0.00     0.167 HD
ENDBRANCH  51  53
ENDBRANCH  48  51
ENDBRANCH  44  45
ENDBRANCH  42  44
ENDBRANCH  39  40
ENDBRANCH  38  39
ENDBRANCH  37  38
ENDBRANCH  36  37
ENDBRANCH  35  36
ENDBRANCH  33  35
ENDBRANCH  30  31
ENDBRANCH  29  30
ENDBRANCH   1  29
TORSDOF 18
ENDMDL
MODEL 7
REMARK minimizedAffinity -7.88004208
REMARK CNNscore 0.238279775
REMARK CNNaffinity 6.24808121
REMARK  18 active torsions:
REMARK  status: ('A' for Active; 'I' for Inactive)
REMARK    1  A    between atoms: C14_15  and  O2_16 
REMARK    2  A    between atoms: C14_15  and  C15_17 
REMARK    3  A    between atoms: C15_17  and  C16_19 
REMARK    4  A    between atoms: C16_19  and  O4_20 
REMARK    5  A    between atoms: O4_20  and  C17_21 
REMARK    6  A    between atoms: C17_21  and  C18_23 
REMARK    7  A    between atoms: C18_23  and  C19_24 
REMARK    8  A    between atoms: C19_24  and  C20_25 
REMARK       I    between atoms: C20_25  and  N1_27 
REMARK    9  A    between atoms: N1_27  and  C21_28 
REMARK   10  A    between atoms: C21_28  and  C22_29 
REMARK   11  A    between atoms: C22_29  and  C23_30 
REMARK   12  A    between atoms: C23_30  and  C24_31 
REMARK   13  A    between atoms: C24_31  and  C25_32 
REMARK   14  A    between atoms: C25_32  and  C26_33 
REMARK       I    between atoms: C26_33  and  N2_35 
REMARK   15  A    between atoms: N2_35  and  C27_36 
REMARK   16  A    between atoms: C27_36  and  C28_37 
REMARK   17  A    between atoms: C31_40  and  C32_41 
REMARK   18  A    between atoms: C32_41  and  O9_43 
ROOT
HETATM    1  C17 UNL     1      -4.606   7.859  13.930  1.00  0.00     0.259 C 
HETATM    2  O5  UNL     1      -4.124   8.243  12.874  1.00  0.00    -0.265 OA
ENDROOT
BRANCH   1   3
HETATM    3  O4  UNL     1      -4.205   6.770  14.627  1.00  0.00    -0.314 OA
BRANCH   3   4
HETATM    4  C16 UNL     1      -3.046   6.835  15.455  1.00  0.00     0.260 C 
BRANCH   4   5
HETATM    5  C15 UNL     1      -2.244   8.104  15.817  1.00  0.00     0.185 C 
HETATM    6  O3  UNL     1      -2.812   9.042  16.389  1.00  0.00    -0.292 OA
BRANCH   5   7
HETATM    7  C14 UNL     1      -0.712   8.116  15.528  1.00  0.00     0.128 C 
HETATM    8  C13 UNL     1      -0.231   6.680  15.283  1.00  0.00     0.047 C 
HETATM    9  C12 UNL     1      -0.420   6.438  13.797  1.00  0.00     0.009 C 
HETATM   10  C11 UNL     1      -0.240   7.797  13.102  1.00  0.00     0.002 C 
HETATM   11  C10 UNL     1       1.031   7.911  12.222  1.00  0.00    -0.004 C 
HETATM   12  C35 UNL     1      -0.291   8.888  14.225  1.00  0.00    -0.002 C 
HETATM   13  C9  UNL     1       1.037   6.899  11.063  1.00  0.00     0.010 C 
HETATM   14  C39 UNL     1       2.333   7.792  13.053  1.00  0.00     0.002 C 
HETATM   15  C8  UNL     1       2.244   7.113  10.159  1.00  0.00     0.035 C 
HETATM   16  C7  UNL     1       3.543   7.065  10.928  1.00  0.00    -0.068 C 
HETATM   17  C2  UNL     1       3.640   7.948  12.182  1.00  0.00    -0.016 C 
HETATM   18  C6  UNL     1       4.552   6.293  10.485  1.00  0.00     0.053 C 
HETATM   19  C1  UNL     1       3.855   9.406  11.715  1.00  0.00     0.020 C 
HETATM   20  C3  UNL     1       4.852   7.495  13.052  1.00  0.00     0.022 C 
HETATM   21  C4  UNL     1       6.128   7.273  12.253  1.00  0.00     0.084 C 
HETATM   22  C5  UNL     1       5.886   6.300  11.129  1.00  0.00     0.149 C 
HETATM   23  O1  UNL     1       6.775   5.572  10.690  1.00  0.00    -0.293 OA
HETATM   24  C38 UNL     1       2.299   8.705  14.303  1.00  0.00     0.007 C 
HETATM   25  C37 UNL     1       1.078   9.618  14.360  1.00  0.00     0.013 C 
HETATM   26  C36 UNL     1      -1.304   9.980  13.813  1.00  0.00     0.019 C 
BRANCH   7  27
HETATM   27  O2  UNL     1      -0.017   8.610  16.672  1.00  0.00    -0.381 OA
HETATM   28  H19 UNL     1      -0.116   7.921  17.360  1.00  0.00     0.211 HD
ENDBRANCH   7  27
ENDBRANCH   5   7
ENDBRANCH   4   5
ENDBRANCH   3   4
ENDBRANCH   1   3
BRANCH   1  29
HETATM   29  C18 UNL     1      -5.779   8.501  14.626  1.00  0.00     0.120 C 
BRANCH  29  30
HETATM   30  C19 UNL     1      -6.620   7.459  15.357  1.00  0.00     0.112 C 
BRANCH  30  31
HETATM   31  C20 UNL     1      -8.017   7.373  14.784  1.00  0.00     0.217 C 
HETATM   32  O6  UNL     1      -8.291   6.742  13.768  1.00  0.00    -0.274 OA
HETATM   33  N1  UNL     1      -8.948   8.065  15.531  1.00  0.00    -0.361 N 
HETATM   34  H26 UNL     1      -8.599   8.726  16.216  1.00  0.00     0.162 HD
BRANCH  33  35
HETATM   35  C21 UNL     1     -10.304   8.253  15.052  1.00  0.00     0.122 C 
BRANCH  35  36
HETATM   36  C22 UNL     1     -10.835   7.016  14.339  1.00  0.00     0.020 C 
BRANCH  36  37
HETATM   37  C23 UNL     1     -11.762   7.292  13.147  1.00  0.00     0.002 C 
BRANCH  37  38
HETATM   38  C24 UNL     1     -13.241   6.982  13.401  1.00  0.00     0.009 C 
BRANCH  38  39
HETATM   39  C25 UNL     1     -14.196   7.951  12.705  1.00  0.00     0.103 C 
BRANCH  39  40
HETATM   40  C26 UNL     1     -15.453   7.252  12.216  1.00  0.00     0.217 C 
HETATM   41  O7  UNL     1     -15.939   7.422  11.106  1.00  0.00    -0.274 OA
HETATM   42  N2  UNL     1     -15.986   6.404  13.162  1.00  0.00    -0.357 N 
HETATM   43  H37 UNL     1     -15.605   6.416  14.097  1.00  0.00     0.162 HD
BRANCH  42  44
HETATM   44  C27 UNL     1     -17.240   5.720  12.951  1.00  0.00     0.161 C 
BRANCH  44  45
HETATM   45  C28 UNL     1     -17.115   4.257  13.294  1.00  0.00    -0.040 A 
HETATM   46  C29 UNL     1     -16.242   3.850  14.314  1.00  0.00     0.010 A 
HETATM   47  C30 UNL     1     -16.099   2.497  14.626  1.00  0.00     0.019 A 
HETATM   48  C31 UNL     1     -16.828   1.532  13.922  1.00  0.00     0.037 A 
HETATM   49  C33 UNL     1     -17.693   1.931  12.896  1.00  0.00     0.019 A 
HETATM   50  C34 UNL     1     -17.832   3.286  12.582  1.00  0.00     0.010 A 
BRANCH  48  51
HETATM   51  C32 UNL     1     -16.646   0.107  14.290  1.00  0.00     0.176 C 
HETATM   52  O8  UNL     1     -17.532  -0.681  14.559  1.00  0.00    -0.646 OA
BRANCH  51  53
HETATM   53  O9  UNL     1     -15.354  -0.268  14.304  1.00  0.00    -0.773 OA
HETATM   54  H42 UNL     1     -15.394  -1.215  14.554  1.00  0.00     0.167 HD
ENDBRANCH  51  53
ENDBRANCH  48  51
ENDBRANCH  44  45
ENDBRANCH  42  44
ENDBRANCH  39  40
ENDBRANCH  38  39
ENDBRANCH  37  38
ENDBRANCH  36  37
ENDBRANCH  35  36
ENDBRANCH  33  35
ENDBRANCH  30  31
ENDBRANCH  29  30
ENDBRANCH   1  29
TORSDOF 18
ENDMDL
MODEL 8
REMARK minimizedAffinity -8.33739281
REMARK CNNscore 0.228652626
REMARK CNNaffinity 5.79979944
REMARK  18 active torsions:
REMARK  status: ('A' for Active; 'I' for Inactive)
REMARK    1  A    between atoms: C14_15  and  O2_16 
REMARK    2  A    between atoms: C14_15  and  C15_17 
REMARK    3  A    between atoms: C15_17  and  C16_19 
REMARK    4  A    between atoms: C16_19  and  O4_20 
REMARK    5  A    between atoms: O4_20  and  C17_21 
REMARK    6  A    between atoms: C17_21  and  C18_23 
REMARK    7  A    between atoms: C18_23  and  C19_24 
REMARK    8  A    between atoms: C19_24  and  C20_25 
REMARK       I    between atoms: C20_25  and  N1_27 
REMARK    9  A    between atoms: N1_27  and  C21_28 
REMARK   10  A    between atoms: C21_28  and  C22_29 
REMARK   11  A    between atoms: C22_29  and  C23_30 
REMARK   12  A    between atoms: C23_30  and  C24_31 
REMARK   13  A    between atoms: C24_31  and  C25_32 
REMARK   14  A    between atoms: C25_32  and  C26_33 
REMARK       I    between atoms: C26_33  and  N2_35 
REMARK   15  A    between atoms: N2_35  and  C27_36 
REMARK   16  A    between atoms: C27_36  and  C28_37 
REMARK   17  A    between atoms: C31_40  and  C32_41 
REMARK   18  A    between atoms: C32_41  and  O9_43 
ROOT
HETATM    1  C17 UNL     1       0.550  11.560  18.316  1.00  0.00     0.259 C 
HETATM    2  O5  UNL     1       1.076  12.665  18.288  1.00  0.00    -0.265 OA
ENDROOT
BRANCH   1   3
HETATM    3  O4  UNL     1       0.794  10.598  19.236  1.00  0.00    -0.314 OA
BRANCH   3   4
HETATM    4  C16 UNL     1       2.136  10.232  19.551  1.00  0.00     0.260 C 
BRANCH   4   5
HETATM    5  C15 UNL     1       2.818  10.333  20.933  1.00  0.00     0.185 C 
HETATM    6  O3  UNL     1       3.129   9.299  21.536  1.00  0.00    -0.292 OA
BRANCH   5   7
HETATM    7  C14 UNL     1       3.174  11.749  21.478  1.00  0.00     0.128 C 
HETATM    8  C13 UNL     1       3.501  11.649  22.974  1.00  0.00     0.047 C 
HETATM    9  C12 UNL     1       4.986  11.346  23.044  1.00  0.00     0.009 C 
HETATM   10  C11 UNL     1       5.630  12.005  21.815  1.00  0.00     0.002 C 
HETATM   11  C10 UNL     1       6.560  13.203  22.135  1.00  0.00    -0.004 C 
HETATM   12  C35 UNL     1       4.461  12.396  20.848  1.00  0.00    -0.002 C 
HETATM   13  C9  UNL     1       7.760  12.799  23.009  1.00  0.00     0.010 C 
HETATM   14  C39 UNL     1       5.794  14.386  22.777  1.00  0.00     0.002 C 
HETATM   15  C8  UNL     1       8.708  13.974  23.211  1.00  0.00     0.035 C 
HETATM   16  C7  UNL     1       7.999  15.180  23.784  1.00  0.00    -0.068 C 
HETATM   17  C2  UNL     1       6.715  15.633  23.073  1.00  0.00    -0.016 C 
HETATM   18  C6  UNL     1       8.519  15.814  24.851  1.00  0.00     0.053 C 
HETATM   19  C1  UNL     1       7.129  16.368  21.777  1.00  0.00     0.020 C 
HETATM   20  C3  UNL     1       5.920  16.608  23.994  1.00  0.00     0.022 C 
HETATM   21  C4  UNL     1       6.783  17.687  24.632  1.00  0.00     0.084 C 
HETATM   22  C5  UNL     1       7.935  17.069  25.379  1.00  0.00     0.149 C 
HETATM   23  O1  UNL     1       8.444  17.609  26.360  1.00  0.00    -0.293 OA
HETATM   24  C38 UNL     1       4.506  14.729  21.990  1.00  0.00     0.007 C 
HETATM   25  C37 UNL     1       4.356  13.942  20.691  1.00  0.00     0.013 C 
HETATM   26  C36 UNL     1       4.780  11.857  19.436  1.00  0.00     0.019 C 
BRANCH   7  27
HETATM   27  O2  UNL     1       2.042  12.608  21.344  1.00  0.00    -0.381 OA
HETATM   28  H19 UNL     1       1.380  12.275  21.984  1.00  0.00     0.211 HD
ENDBRANCH   7  27
ENDBRANCH   5   7
ENDBRANCH   4   5
ENDBRANCH   3   4
ENDBRANCH   1   3
BRANCH   1  29
HETATM   29  C18 UNL     1      -0.430  11.045  17.293  1.00  0.00     0.120 C 
BRANCH  29  30
HETATM   30  C19 UNL     1       0.123  11.195  15.880  1.00  0.00     0.112 C 
BRANCH  30  31
HETATM   31  C20 UNL     1      -0.509  10.203  14.929  1.00  0.00     0.217 C 
HETATM   32  O6  UNL     1      -1.678   9.838  15.015  1.00  0.00    -0.274 OA
HETATM   33  N1  UNL     1       0.360   9.766  13.951  1.00  0.00    -0.361 N 
HETATM   34  H26 UNL     1       1.348   9.948  14.090  1.00  0.00     0.162 HD
BRANCH  33  35
HETATM   35  C21 UNL     1       0.001   8.682  13.057  1.00  0.00     0.122 C 
BRANCH  35  36
HETATM   36  C22 UNL     1       0.894   8.640  11.823  1.00  0.00     0.020 C 
BRANCH  36  37
HETATM   37  C23 UNL     1       0.478   7.630  10.745  1.00  0.00     0.002 C 
BRANCH  37  38
HETATM   38  C24 UNL     1      -0.307   6.422  11.269  1.00  0.00     0.009 C 
BRANCH  38  39
HETATM   39  C25 UNL     1       0.529   5.148  11.370  1.00  0.00     0.103 C 
BRANCH  39  40
HETATM   40  C26 UNL     1      -0.335   3.900  11.320  1.00  0.00     0.217 C 
HETATM   41  O7  UNL     1       0.086   2.770  11.535  1.00  0.00    -0.274 OA
HETATM   42  N2  UNL     1      -1.646   4.178  11.004  1.00  0.00    -0.357 N 
HETATM   43  H37 UNL     1      -1.888   5.115  10.713  1.00  0.00     0.162 HD
BRANCH  42  44
HETATM   44  C27 UNL     1      -2.618   3.131  10.796  1.00  0.00     0.161 C 
BRANCH  44  45
HETATM   45  C28 UNL     1      -3.886   3.420  11.559  1.00  0.00    -0.040 A 
HETATM   46  C29 UNL     1      -5.035   2.651  11.325  1.00  0.00     0.010 A 
HETATM   47  C30 UNL     1      -6.222   2.923  12.007  1.00  0.00     0.019 A 
HETATM   48  C31 UNL     1      -6.276   3.971  12.934  1.00  0.00     0.037 A 
HETATM   49  C33 UNL     1      -5.136   4.749  13.165  1.00  0.00     0.019 A 
HETATM   50  C34 UNL     1      -3.949   4.478  12.477  1.00  0.00     0.010 A 
BRANCH  48  51
HETATM   51  C32 UNL     1      -7.557   4.221  13.636  1.00  0.00     0.176 C 
HETATM   52  O8  UNL     1      -7.757   5.079  14.477  1.00  0.00    -0.646 OA
BRANCH  51  53
HETATM   53  O9  UNL     1      -8.537   3.383  13.253  1.00  0.00    -0.773 OA
HETATM   54  H42 UNL     1      -9.306   3.670  13.788  1.00  0.00     0.167 HD
ENDBRANCH  51  53
ENDBRANCH  48  51
ENDBRANCH  44  45
ENDBRANCH  42  44
ENDBRANCH  39  40
ENDBRANCH  38  39
ENDBRANCH  37  38
ENDBRANCH  36  37
ENDBRANCH  35  36
ENDBRANCH  33  35
ENDBRANCH  30  31
ENDBRANCH  29  30
ENDBRANCH   1  29
TORSDOF 18
ENDMDL
MODEL 9
REMARK minimizedAffinity -8.88147259
REMARK CNNscore 0.217187017
REMARK CNNaffinity 6.55637932
REMARK  18 active torsions:
REMARK  status: ('A' for Active; 'I' for Inactive)
REMARK    1  A    between atoms: C14_15  and  O2_16 
REMARK    2  A    between atoms: C14_15  and  C15_17 
REMARK    3  A    between atoms: C15_17  and  C16_19 
REMARK    4  A    between atoms: C16_19  and  O4_20 
REMARK    5  A    between atoms: O4_20  and  C17_21 
REMARK    6  A    between atoms: C17_21  and  C18_23 
REMARK    7  A    between atoms: C18_23  and  C19_24 
REMARK    8  A    between atoms: C19_24  and  C20_25 
REMARK       I    between atoms: C20_25  and  N1_27 
REMARK    9  A    between atoms: N1_27  and  C21_28 
REMARK   10  A    between atoms: C21_28  and  C22_29 
REMARK   11  A    between atoms: C22_29  and  C23_30 
REMARK   12  A    between atoms: C23_30  and  C24_31 
REMARK   13  A    between atoms: C24_31  and  C25_32 
REMARK   14  A    between atoms: C25_32  and  C26_33 
REMARK       I    between atoms: C26_33  and  N2_35 
REMARK   15  A    between atoms: N2_35  and  C27_36 
REMARK   16  A    between atoms: C27_36  and  C28_37 
REMARK   17  A    between atoms: C31_40  and  C32_41 
REMARK   18  A    between atoms: C32_41  and  O9_43 
ROOT
HETATM    1  C17 UNL     1       5.179   9.106  14.048  1.00  0.00     0.259 C 
HETATM    2  O5  UNL     1       4.682   8.393  14.909  1.00  0.00    -0.265 OA
ENDROOT
BRANCH   1   3
HETATM    3  O4  UNL     1       4.523   9.628  12.985  1.00  0.00    -0.314 OA
BRANCH   3   4
HETATM    4  C16 UNL     1       3.101   9.724  12.997  1.00  0.00     0.260 C 
BRANCH   4   5
HETATM    5  C15 UNL     1       2.106   8.744  12.337  1.00  0.00     0.185 C 
HETATM    6  O3  UNL     1       2.521   7.912  11.521  1.00  0.00    -0.292 OA
BRANCH   5   7
HETATM    7  C14 UNL     1       0.618   8.781  12.798  1.00  0.00     0.128 C 
HETATM    8  C13 UNL     1      -0.296   8.623  11.575  1.00  0.00     0.047 C 
HETATM    9  C12 UNL     1      -0.481   7.127  11.399  1.00  0.00     0.009 C 
HETATM   10  C11 UNL     1      -0.394   6.504  12.801  1.00  0.00     0.002 C 
HETATM   11  C10 UNL     1      -1.724   5.910  13.329  1.00  0.00    -0.004 C 
HETATM   12  C35 UNL     1       0.189   7.605  13.749  1.00  0.00    -0.002 C 
HETATM   13  C9  UNL     1      -2.250   4.765  12.446  1.00  0.00     0.010 C 
HETATM   14  C39 UNL     1      -2.816   6.994  13.520  1.00  0.00     0.002 C 
HETATM   15  C8  UNL     1      -3.497   4.136  13.054  1.00  0.00     0.035 C 
HETATM   16  C7  UNL     1      -4.577   5.159  13.316  1.00  0.00    -0.068 C 
HETATM   17  C2  UNL     1      -4.166   6.417  14.097  1.00  0.00    -0.016 C 
HETATM   18  C6  UNL     1      -5.832   4.927  12.891  1.00  0.00     0.053 C 
HETATM   19  C1  UNL     1      -4.039   6.025  15.587  1.00  0.00     0.020 C 
HETATM   20  C3  UNL     1      -5.262   7.515  13.939  1.00  0.00     0.022 C 
HETATM   21  C4  UNL     1      -6.679   6.998  14.141  1.00  0.00     0.084 C 
HETATM   22  C5  UNL     1      -6.954   5.836  13.225  1.00  0.00     0.149 C 
HETATM   23  O1  UNL     1      -8.084   5.582  12.809  1.00  0.00    -0.293 OA
HETATM   24  C38 UNL     1      -2.275   8.221  14.293  1.00  0.00     0.007 C 
HETATM   25  C37 UNL     1      -0.856   8.033  14.821  1.00  0.00     0.013 C 
HETATM   26  C36 UNL     1       1.373   7.006  14.541  1.00  0.00     0.019 C 
BRANCH   7  27
HETATM   27  O2  UNL     1       0.334  10.052  13.382  1.00  0.00    -0.381 OA
HETATM   28  H19 UNL     1       0.362  10.695  12.644  1.00  0.00     0.211 HD
ENDBRANCH   7  27
ENDBRANCH   5   7
ENDBRANCH   4   5
ENDBRANCH   3   4
ENDBRANCH   1   3
BRANCH   1  29
HETATM   29  C18 UNL     1       6.636   9.490  13.983  1.00  0.00     0.120 C 
BRANCH  29  30
HETATM   30  C19 UNL     1       7.517   8.401  14.585  1.00  0.00     0.112 C 
BRANCH  30  31
HETATM   31  C20 UNL     1       8.028   8.795  15.953  1.00  0.00     0.217 C 
HETATM   32  O6  UNL     1       7.544   8.377  17.000  1.00  0.00    -0.274 OA
HETATM   33  N1  UNL     1       9.101   9.660  15.897  1.00  0.00    -0.361 N 
HETATM   34  H26 UNL     1       9.288  10.117  15.011  1.00  0.00     0.162 HD
BRANCH  33  35
HETATM   35  C21 UNL     1       9.618  10.294  17.095  1.00  0.00     0.122 C 
BRANCH  35  36
HETATM   36  C22 UNL     1       8.736  11.447  17.557  1.00  0.00     0.020 C 
BRANCH  36  37
HETATM   37  C23 UNL     1       8.567  11.577  19.077  1.00  0.00     0.002 C 
BRANCH  37  38
HETATM   38  C24 UNL     1       9.858  11.389  19.883  1.00  0.00     0.009 C 
BRANCH  38  39
HETATM   39  C25 UNL     1      10.042  12.424  20.991  1.00  0.00     0.103 C 
BRANCH  39  40
HETATM   40  C26 UNL     1       9.032  12.239  22.110  1.00  0.00     0.217 C 
HETATM   41  O7  UNL     1       9.096  11.346  22.945  1.00  0.00    -0.274 OA
HETATM   42  N2  UNL     1       8.035  13.189  22.082  1.00  0.00    -0.357 N 
HETATM   43  H37 UNL     1       7.978  13.812  21.289  1.00  0.00     0.162 HD
BRANCH  42  44
HETATM   44  C27 UNL     1       6.912  13.141  22.988  1.00  0.00     0.161 C 
BRANCH  44  45
HETATM   45  C28 UNL     1       5.824  12.250  22.442  1.00  0.00    -0.040 A 
HETATM   46  C29 UNL     1       5.198  11.315  23.281  1.00  0.00     0.010 A 
HETATM   47  C30 UNL     1       4.206  10.469  22.783  1.00  0.00     0.019 A 
HETATM   48  C31 UNL     1       3.827  10.546  21.437  1.00  0.00     0.037 A 
HETATM   49  C33 UNL     1       4.455  11.468  20.593  1.00  0.00     0.019 A 
HETATM   50  C34 UNL     1       5.451  12.313  21.093  1.00  0.00     0.010 A 
BRANCH  48  51
HETATM   51  C32 UNL     1       2.768   9.628  20.954  1.00  0.00     0.176 C 
HETATM   52  O8  UNL     1       2.123   8.856  21.639  1.00  0.00    -0.646 OA
BRANCH  51  53
HETATM   53  O9  UNL     1       2.563   9.717  19.628  1.00  0.00    -0.773 OA
HETATM   54  H42 UNL     1       1.846   9.069  19.463  1.00  0.00     0.167 HD
ENDBRANCH  51  53
ENDBRANCH  48  51
ENDBRANCH  44  45
ENDBRANCH  42  44
ENDBRANCH  39  40
ENDBRANCH  38  39
ENDBRANCH  37  38
ENDBRANCH  36  37
ENDBRANCH  35  36
ENDBRANCH  33  35
ENDBRANCH  30  31
ENDBRANCH  29  30
ENDBRANCH   1  29
TORSDOF 18
ENDMDL
