MODEL 1
REMARK minimizedAffinity -9.85268021
REMARK  4 active torsions:
REMARK  status: ('A' for Active; 'I' for Inactive)
REMARK    1  A    between atoms: C4_4  and  C5_5 
REMARK    2  A    between atoms: C5_5  and  C6_6 
REMARK    3  A    between atoms: C6_6  and  C7_7 
REMARK    4  A    between atoms: C25_26  and  O2_27 
ROOT
HETATM    1  C7  UNL     1       0.593  52.664 -22.034  1.00  0.00     0.023 C 
HETATM    2  C8  UNL     1       0.183  51.702 -21.212  1.00  0.00    -0.034 C 
HETATM    3  C9  UNL     1       0.380  52.077 -19.796  1.00  0.00     0.163 C 
HETATM    4  C10 UNL     1      -0.870  51.540 -19.089  1.00  0.00     0.048 C 
HETATM    5  C11 UNL     1      -1.698  50.800 -20.202  1.00  0.00    -0.019 C 
HETATM    6  C12 UNL     1      -2.700  51.880 -20.756  1.00  0.00     0.017 C 
HETATM    7  C13 UNL     1      -0.594  50.443 -21.255  1.00  0.00     0.027 C 
HETATM    8  C14 UNL     1      -1.180  49.859 -22.531  1.00  0.00     0.010 C 
HETATM    9  C15 UNL     1      -2.000  48.599 -22.197  1.00  0.00     0.007 C 
HETATM   10  C16 UNL     1      -3.075  48.842 -21.104  1.00  0.00     0.011 C 
HETATM   11  C17 UNL     1      -4.088  47.637 -20.910  1.00  0.00    -0.032 C 
HETATM   12  C18 UNL     1      -5.161  47.795 -22.044  1.00  0.00     0.016 C 
HETATM   13  C19 UNL     1      -3.455  46.230 -21.100  1.00  0.00     0.017 C 
HETATM   14  C20 UNL     1      -4.206  45.095 -20.392  1.00  0.00     0.079 C 
HETATM   15  C21 UNL     1      -5.659  45.410 -20.083  1.00  0.00     0.131 C 
HETATM   16  O1  UNL     1      -6.542  44.582 -20.306  1.00  0.00    -0.298 OA
HETATM   17  C22 UNL     1      -5.969  46.745 -19.401  1.00  0.00     0.059 C 
HETATM   18  C23 UNL     1      -6.398  46.444 -17.967  1.00  0.00     0.018 C 
HETATM   19  C24 UNL     1      -4.725  47.660 -19.477  1.00  0.00     0.041 C 
HETATM   20  C25 UNL     1      -4.937  49.080 -18.944  1.00  0.00     0.194 C 
HETATM   21  C26 UNL     1      -3.592  49.797 -18.800  1.00  0.00     0.165 C 
HETATM   22  O3  UNL     1      -3.439  50.616 -17.890  1.00  0.00    -0.294 OA
HETATM   23  C27 UNL     1      -2.461  49.465 -19.791  1.00  0.00     0.032 C 
HETATM   24  C28 UNL     1      -1.528  48.468 -19.057  1.00  0.00     0.025 C 
HETATM   25  O4  UNL     1       0.566  53.469 -19.848  1.00  0.00    -0.308 OA
HETATM   26  C29 UNL     1       0.944  53.782 -21.129  1.00  0.00     0.290 C 
HETATM   27  O5  UNL     1       1.437  54.844 -21.470  1.00  0.00    -0.260 OA
ENDROOT
BRANCH   1  28
HETATM   28  C6  UNL     1       0.634  52.790 -23.516  1.00  0.00     0.049 C 
BRANCH  28  29
HETATM   29  C5  UNL     1      -0.101  51.691 -24.304  1.00  0.00     0.032 C 
BRANCH  29  30
HETATM   30  C4  UNL     1      -0.126  51.880 -25.799  1.00  0.00    -0.024 C 
HETATM   31  C2  UNL     1       0.885  51.677 -26.666  1.00  0.00    -0.091 C 
HETATM   32  C1  UNL     1       2.280  51.279 -26.273  1.00  0.00     0.042 C 
HETATM   33  C3  UNL     1       0.663  51.842 -28.146  1.00  0.00     0.042 C 
ENDBRANCH  29  30
ENDBRANCH  28  29
ENDBRANCH   1  28
BRANCH  20  34
HETATM   34  O2  UNL     1      -5.844  49.816 -19.743  1.00  0.00    -0.388 OA
HETATM   35  H37 UNL     1      -5.921  50.703 -19.347  1.00  0.00     0.210 HD
ENDBRANCH  20  34
TORSDOF 4
ENDMDL
MODEL 2
REMARK minimizedAffinity -9.85062408
REMARK  4 active torsions:
REMARK  status: ('A' for Active; 'I' for Inactive)
REMARK    1  A    between atoms: C4_4  and  C5_5 
REMARK    2  A    between atoms: C5_5  and  C6_6 
REMARK    3  A    between atoms: C6_6  and  C7_7 
REMARK    4  A    between atoms: C25_26  and  O2_27 
ROOT
HETATM    1  C7  UNL     1      -0.668  52.132 -25.995  1.00  0.00     0.023 C 
HETATM    2  C8  UNL     1      -0.384  51.605 -24.807  1.00  0.00    -0.034 C 
HETATM    3  C9  UNL     1       0.707  52.340 -24.133  1.00  0.00     0.163 C 
HETATM    4  C10 UNL     1       0.282  52.373 -22.661  1.00  0.00     0.048 C 
HETATM    5  C11 UNL     1      -1.055  51.551 -22.590  1.00  0.00    -0.019 C 
HETATM    6  C12 UNL     1      -2.203  52.617 -22.754  1.00  0.00     0.017 C 
HETATM    7  C13 UNL     1      -0.945  50.626 -23.849  1.00  0.00     0.027 C 
HETATM    8  C14 UNL     1      -2.219  49.837 -24.101  1.00  0.00     0.010 C 
HETATM    9  C15 UNL     1      -2.557  48.985 -22.864  1.00  0.00     0.007 C 
HETATM   10  C16 UNL     1      -2.617  49.811 -21.551  1.00  0.00     0.011 C 
HETATM   11  C17 UNL     1      -3.192  49.013 -20.307  1.00  0.00    -0.032 C 
HETATM   12  C18 UNL     1      -4.753  49.069 -20.450  1.00  0.00     0.016 C 
HETATM   13  C19 UNL     1      -2.810  47.507 -20.279  1.00  0.00     0.017 C 
HETATM   14  C20 UNL     1      -2.847  46.868 -18.884  1.00  0.00     0.079 C 
HETATM   15  C21 UNL     1      -3.718  47.610 -17.885  1.00  0.00     0.131 C 
HETATM   16  O1  UNL     1      -4.492  46.996 -17.150  1.00  0.00    -0.298 OA
HETATM   17  C22 UNL     1      -3.528  49.124 -17.761  1.00  0.00     0.059 C 
HETATM   18  C23 UNL     1      -2.864  49.397 -16.413  1.00  0.00     0.018 C 
HETATM   19  C24 UNL     1      -2.692  49.635 -18.957  1.00  0.00     0.041 C 
HETATM   20  C25 UNL     1      -2.534  51.157 -19.028  1.00  0.00     0.194 C 
HETATM   21  C26 UNL     1      -1.469  51.530 -20.063  1.00  0.00     0.165 C 
HETATM   22  O3  UNL     1      -0.768  52.527 -19.874  1.00  0.00    -0.294 OA
HETATM   23  C27 UNL     1      -1.297  50.639 -21.308  1.00  0.00     0.032 C 
HETATM   24  C28 UNL     1      -0.081  49.723 -21.013  1.00  0.00     0.025 C 
HETATM   25  O4  UNL     1       0.764  53.557 -24.835  1.00  0.00    -0.308 OA
HETATM   26  C29 UNL     1       0.166  53.354 -26.053  1.00  0.00     0.290 C 
HETATM   27  O5  UNL     1       0.264  54.102 -27.010  1.00  0.00    -0.260 OA
ENDROOT
BRANCH   1  28
HETATM   28  C6  UNL     1      -1.645  51.778 -27.060  1.00  0.00     0.049 C 
BRANCH  28  29
HETATM   29  C5  UNL     1      -2.867  50.961 -26.606  1.00  0.00     0.032 C 
BRANCH  29  30
HETATM   30  C4  UNL     1      -3.425  50.013 -27.637  1.00  0.00    -0.024 C 
HETATM   31  C2  UNL     1      -4.160  48.905 -27.416  1.00  0.00    -0.091 C 
HETATM   32  C1  UNL     1      -4.505  48.366 -26.056  1.00  0.00     0.042 C 
HETATM   33  C3  UNL     1      -4.703  48.110 -28.573  1.00  0.00     0.042 C 
ENDBRANCH  29  30
ENDBRANCH  28  29
ENDBRANCH   1  28
BRANCH  20  34
HETATM   34  O2  UNL     1      -3.766  51.807 -19.280  1.00  0.00    -0.388 OA
HETATM   35  H37 UNL     1      -3.583  52.764 -19.316  1.00  0.00     0.210 HD
ENDBRANCH  20  34
TORSDOF 4
ENDMDL
MODEL 3
REMARK minimizedAffinity -9.78167343
REMARK  4 active torsions:
REMARK  status: ('A' for Active; 'I' for Inactive)
REMARK    1  A    between atoms: C4_4  and  C5_5 
REMARK    2  A    between atoms: C5_5  and  C6_6 
REMARK    3  A    between atoms: C6_6  and  C7_7 
REMARK    4  A    between atoms: C25_26  and  O2_27 
ROOT
HETATM    1  C7  UNL     1      -0.227  51.649 -22.465  1.00  0.00     0.023 C 
HETATM    2  C8  UNL     1      -0.956  50.610 -22.067  1.00  0.00    -0.034 C 
HETATM    3  C9  UNL     1      -0.555  50.149 -20.721  1.00  0.00     0.163 C 
HETATM    4  C10 UNL     1      -1.879  49.789 -20.039  1.00  0.00     0.048 C 
HETATM    5  C11 UNL     1      -2.989  50.019 -21.127  1.00  0.00    -0.019 C 
HETATM    6  C12 UNL     1      -3.487  51.496 -20.902  1.00  0.00     0.017 C 
HETATM    7  C13 UNL     1      -2.182  49.881 -22.462  1.00  0.00     0.027 C 
HETATM    8  C14 UNL     1      -3.016  50.235 -23.682  1.00  0.00     0.010 C 
HETATM    9  C15 UNL     1      -4.263  49.334 -23.739  1.00  0.00     0.007 C 
HETATM   10  C16 UNL     1      -5.091  49.352 -22.426  1.00  0.00     0.011 C 
HETATM   11  C17 UNL     1      -6.497  48.629 -22.534  1.00  0.00    -0.032 C 
HETATM   12  C18 UNL     1      -7.464  49.673 -23.194  1.00  0.00     0.016 C 
HETATM   13  C19 UNL     1      -6.507  47.380 -23.459  1.00  0.00     0.017 C 
HETATM   14  C20 UNL     1      -7.621  46.371 -23.154  1.00  0.00     0.079 C 
HETATM   15  C21 UNL     1      -8.801  46.960 -22.400  1.00  0.00     0.131 C 
HETATM   16  O1  UNL     1      -9.956  46.700 -22.740  1.00  0.00    -0.298 OA
HETATM   17  C22 UNL     1      -8.504  47.801 -21.156  1.00  0.00     0.059 C 
HETATM   18  C23 UNL     1      -8.950  46.997 -19.937  1.00  0.00     0.018 C 
HETATM   19  C24 UNL     1      -6.999  48.155 -21.126  1.00  0.00     0.041 C 
HETATM   20  C25 UNL     1      -6.585  49.106 -19.998  1.00  0.00     0.194 C 
HETATM   21  C26 UNL     1      -5.059  49.159 -19.886  1.00  0.00     0.165 C 
HETATM   22  O3  UNL     1      -4.540  49.318 -18.778  1.00  0.00    -0.294 OA
HETATM   23  C27 UNL     1      -4.212  49.000 -21.163  1.00  0.00     0.032 C 
HETATM   24  C28 UNL     1      -3.736  47.525 -21.180  1.00  0.00     0.025 C 
HETATM   25  O4  UNL     1       0.183  51.230 -20.210  1.00  0.00    -0.308 OA
HETATM   26  C29 UNL     1       0.594  51.985 -21.279  1.00  0.00     0.290 C 
HETATM   27  O5  UNL     1       1.462  52.840 -21.236  1.00  0.00    -0.260 OA
ENDROOT
BRANCH   1  28
HETATM   28  C6  UNL     1      -0.210  52.466 -23.708  1.00  0.00     0.049 C 
BRANCH  28  29
HETATM   29  C5  UNL     1      -0.190  51.677 -25.029  1.00  0.00     0.032 C 
BRANCH  29  30
HETATM   30  C4  UNL     1       1.142  51.638 -25.734  1.00  0.00    -0.024 C 
HETATM   31  C2  UNL     1       1.370  51.732 -27.059  1.00  0.00    -0.091 C 
HETATM   32  C1  UNL     1       0.295  51.828 -28.105  1.00  0.00     0.042 C 
HETATM   33  C3  UNL     1       2.778  51.750 -27.589  1.00  0.00     0.042 C 
ENDBRANCH  29  30
ENDBRANCH  28  29
ENDBRANCH   1  28
BRANCH  20  34
HETATM   34  O2  UNL     1      -7.148  50.395 -20.157  1.00  0.00    -0.388 OA
HETATM   35  H37 UNL     1      -6.835  50.938 -19.411  1.00  0.00     0.210 HD
ENDBRANCH  20  34
TORSDOF 4
ENDMDL
MODEL 4
REMARK minimizedAffinity -9.43226814
REMARK  4 active torsions:
REMARK  status: ('A' for Active; 'I' for Inactive)
REMARK    1  A    between atoms: C4_4  and  C5_5 
REMARK    2  A    between atoms: C5_5  and  C6_6 
REMARK    3  A    between atoms: C6_6  and  C7_7 
REMARK    4  A    between atoms: C25_26  and  O2_27 
ROOT
HETATM    1  C7  UNL     1      -4.248  49.228 -25.985  1.00  0.00     0.023 C 
HETATM    2  C8  UNL     1      -4.292  49.761 -24.768  1.00  0.00    -0.034 C 
HETATM    3  C9  UNL     1      -5.519  49.366 -24.045  1.00  0.00     0.163 C 
HETATM    4  C10 UNL     1      -5.047  49.136 -22.604  1.00  0.00     0.048 C 
HETATM    5  C11 UNL     1      -3.519  49.503 -22.598  1.00  0.00    -0.019 C 
HETATM    6  C12 UNL     1      -2.768  48.146 -22.866  1.00  0.00     0.017 C 
HETATM    7  C13 UNL     1      -3.405  50.475 -23.822  1.00  0.00     0.027 C 
HETATM    8  C14 UNL     1      -1.964  50.845 -24.135  1.00  0.00     0.010 C 
HETATM    9  C15 UNL     1      -1.314  51.494 -22.899  1.00  0.00     0.007 C 
HETATM   10  C16 UNL     1      -1.442  50.630 -21.616  1.00  0.00     0.011 C 
HETATM   11  C17 UNL     1      -0.582  51.154 -20.391  1.00  0.00    -0.032 C 
HETATM   12  C18 UNL     1       0.875  50.628 -20.637  1.00  0.00     0.016 C 
HETATM   13  C19 UNL     1      -0.478  52.702 -20.296  1.00  0.00     0.017 C 
HETATM   14  C20 UNL     1      -0.170  53.234 -18.890  1.00  0.00     0.079 C 
HETATM   15  C21 UNL     1       0.480  52.214 -17.970  1.00  0.00     0.131 C 
HETATM   16  O1  UNL     1       1.444  52.526 -17.271  1.00  0.00    -0.298 OA
HETATM   17  C22 UNL     1      -0.162  50.828 -17.875  1.00  0.00     0.059 C 
HETATM   18  C23 UNL     1      -0.804  50.710 -16.495  1.00  0.00     0.018 C 
HETATM   19  C24 UNL     1      -1.177  50.654 -19.029  1.00  0.00     0.041 C 
HETATM   20  C25 UNL     1      -1.802  49.259 -19.130  1.00  0.00     0.194 C 
HETATM   21  C26 UNL     1      -2.984  49.280 -20.103  1.00  0.00     0.165 C 
HETATM   22  O3  UNL     1      -3.949  48.539 -19.897  1.00  0.00    -0.294 OA
HETATM   23  C27 UNL     1      -2.939  50.237 -21.310  1.00  0.00     0.032 C 
HETATM   24  C28 UNL     1      -3.793  51.467 -20.911  1.00  0.00     0.025 C 
HETATM   25  O4  UNL     1      -5.987  48.259 -24.774  1.00  0.00    -0.308 OA
HETATM   26  C29 UNL     1      -5.422  48.325 -26.022  1.00  0.00     0.290 C 
HETATM   27  O5  UNL     1      -5.797  47.689 -26.991  1.00  0.00    -0.260 OA
ENDROOT
BRANCH   1  28
HETATM   28  C6  UNL     1      -3.268  49.313 -27.102  1.00  0.00     0.049 C 
BRANCH  28  29
HETATM   29  C5  UNL     1      -1.845  49.752 -26.714  1.00  0.00     0.032 C 
BRANCH  29  30
HETATM   30  C4  UNL     1      -1.326  50.965 -27.444  1.00  0.00    -0.024 C 
HETATM   31  C2  UNL     1      -0.091  51.498 -27.368  1.00  0.00    -0.091 C 
HETATM   32  C1  UNL     1       1.000  51.001 -26.461  1.00  0.00     0.042 C 
HETATM   33  C3  UNL     1       0.284  52.674 -28.228  1.00  0.00     0.042 C 
ENDBRANCH  29  30
ENDBRANCH  28  29
ENDBRANCH   1  28
BRANCH  20  34
HETATM   34  O2  UNL     1      -0.848  48.275 -19.479  1.00  0.00    -0.388 OA
HETATM   35  H37 UNL     1      -1.320  47.423 -19.530  1.00  0.00     0.210 HD
ENDBRANCH  20  34
TORSDOF 4
ENDMDL
MODEL 5
REMARK minimizedAffinity -9.29141045
REMARK  4 active torsions:
REMARK  status: ('A' for Active; 'I' for Inactive)
REMARK    1  A    between atoms: C4_4  and  C5_5 
REMARK    2  A    between atoms: C5_5  and  C6_6 
REMARK    3  A    between atoms: C6_6  and  C7_7 
REMARK    4  A    between atoms: C25_26  and  O2_27 
ROOT
HETATM    1  C7  UNL     1      -0.426  51.153 -17.705  1.00  0.00     0.023 C 
HETATM    2  C8  UNL     1      -0.741  50.277 -18.654  1.00  0.00    -0.034 C 
HETATM    3  C9  UNL     1      -1.352  49.057 -18.088  1.00  0.00     0.163 C 
HETATM    4  C10 UNL     1      -2.461  48.696 -19.083  1.00  0.00     0.048 C 
HETATM    5  C11 UNL     1      -2.349  49.754 -20.239  1.00  0.00    -0.019 C 
HETATM    6  C12 UNL     1      -3.338  50.911 -19.838  1.00  0.00     0.017 C 
HETATM    7  C13 UNL     1      -0.854  50.211 -20.129  1.00  0.00     0.027 C 
HETATM    8  C14 UNL     1      -0.536  51.377 -21.051  1.00  0.00     0.010 C 
HETATM    9  C15 UNL     1      -0.850  50.989 -22.508  1.00  0.00     0.007 C 
HETATM   10  C16 UNL     1      -2.294  50.454 -22.700  1.00  0.00     0.011 C 
HETATM   11  C17 UNL     1      -2.723  50.273 -24.216  1.00  0.00    -0.032 C 
HETATM   12  C18 UNL     1      -3.152  51.698 -24.711  1.00  0.00     0.016 C 
HETATM   13  C19 UNL     1      -1.575  49.811 -25.157  1.00  0.00     0.017 C 
HETATM   14  C20 UNL     1      -2.046  49.102 -26.433  1.00  0.00     0.079 C 
HETATM   15  C21 UNL     1      -3.479  49.417 -26.825  1.00  0.00     0.131 C 
HETATM   16  O1  UNL     1      -3.768  49.674 -27.994  1.00  0.00    -0.298 OA
HETATM   17  C22 UNL     1      -4.555  49.308 -25.741  1.00  0.00     0.059 C 
HETATM   18  C23 UNL     1      -5.413  48.087 -26.062  1.00  0.00     0.018 C 
HETATM   19  C24 UNL     1      -3.876  49.219 -24.354  1.00  0.00     0.041 C 
HETATM   20  C25 UNL     1      -4.841  49.236 -23.164  1.00  0.00     0.194 C 
HETATM   21  C26 UNL     1      -4.100  48.857 -21.879  1.00  0.00     0.165 C 
HETATM   22  O3  UNL     1      -4.699  48.234 -20.998  1.00  0.00    -0.294 OA
HETATM   23  C27 UNL     1      -2.620  49.256 -21.727  1.00  0.00     0.032 C 
HETATM   24  C28 UNL     1      -1.798  47.988 -22.071  1.00  0.00     0.025 C 
HETATM   25  O4  UNL     1      -1.727  49.450 -16.791  1.00  0.00    -0.308 OA
HETATM   26  C29 UNL     1      -0.981  50.555 -16.469  1.00  0.00     0.290 C 
HETATM   27  O5  UNL     1      -0.850  51.004 -15.343  1.00  0.00    -0.260 OA
ENDROOT
BRANCH   1  28
HETATM   28  C6  UNL     1       0.209  52.499 -17.728  1.00  0.00     0.049 C 
BRANCH  28  29
HETATM   29  C5  UNL     1       1.708  52.539 -17.382  1.00  0.00     0.032 C 
BRANCH  29  30
HETATM   30  C4  UNL     1       2.069  51.985 -16.027  1.00  0.00    -0.024 C 
HETATM   31  C2  UNL     1       3.296  51.910 -15.475  1.00  0.00    -0.091 C 
HETATM   32  C1  UNL     1       4.569  52.316 -16.164  1.00  0.00     0.042 C 
HETATM   33  C3  UNL     1       3.468  51.393 -14.073  1.00  0.00     0.042 C 
ENDBRANCH  29  30
ENDBRANCH  28  29
ENDBRANCH   1  28
BRANCH  20  34
HETATM   34  O2  UNL     1      -5.511  50.476 -23.041  1.00  0.00    -0.388 OA
HETATM   35  H37 UNL     1      -6.096  50.410 -22.265  1.00  0.00     0.210 HD
ENDBRANCH  20  34
TORSDOF 4
ENDMDL
MODEL 6
REMARK minimizedAffinity -9.15315723
REMARK  4 active torsions:
REMARK  status: ('A' for Active; 'I' for Inactive)
REMARK    1  A    between atoms: C4_4  and  C5_5 
REMARK    2  A    between atoms: C5_5  and  C6_6 
REMARK    3  A    between atoms: C6_6  and  C7_7 
REMARK    4  A    between atoms: C25_26  and  O2_27 
ROOT
HETATM    1  C7  UNL     1      -2.369  52.024 -24.906  1.00  0.00     0.023 C 
HETATM    2  C8  UNL     1      -3.066  51.666 -23.832  1.00  0.00    -0.034 C 
HETATM    3  C9  UNL     1      -4.305  50.950 -24.201  1.00  0.00     0.163 C 
HETATM    4  C10 UNL     1      -4.424  49.841 -23.150  1.00  0.00     0.048 C 
HETATM    5  C11 UNL     1      -3.218  50.062 -22.167  1.00  0.00    -0.019 C 
HETATM    6  C12 UNL     1      -2.060  49.154 -22.725  1.00  0.00     0.017 C 
HETATM    7  C13 UNL     1      -2.903  51.584 -22.363  1.00  0.00     0.027 C 
HETATM    8  C14 UNL     1      -1.642  52.012 -21.631  1.00  0.00     0.010 C 
HETATM    9  C15 UNL     1      -1.782  51.705 -20.129  1.00  0.00     0.007 C 
HETATM   10  C16 UNL     1      -2.166  50.229 -19.840  1.00  0.00     0.011 C 
HETATM   11  C17 UNL     1      -2.085  49.824 -18.309  1.00  0.00    -0.032 C 
HETATM   12  C18 UNL     1      -0.572  49.517 -18.029  1.00  0.00     0.016 C 
HETATM   13  C19 UNL     1      -2.491  50.955 -17.324  1.00  0.00     0.017 C 
HETATM   14  C20 UNL     1      -2.963  50.462 -15.950  1.00  0.00     0.079 C 
HETATM   15  C21 UNL     1      -2.479  49.067 -15.592  1.00  0.00     0.131 C 
HETATM   16  O1  UNL     1      -2.029  48.827 -14.472  1.00  0.00    -0.298 OA
HETATM   17  C22 UNL     1      -2.663  47.961 -16.634  1.00  0.00     0.059 C 
HETATM   18  C23 UNL     1      -3.750  47.019 -16.123  1.00  0.00     0.018 C 
HETATM   19  C24 UNL     1      -3.011  48.597 -18.000  1.00  0.00     0.041 C 
HETATM   20  C25 UNL     1      -3.096  47.608 -19.167  1.00  0.00     0.194 C 
HETATM   21  C26 UNL     1      -3.719  48.287 -20.390  1.00  0.00     0.165 C 
HETATM   22  O3  UNL     1      -4.417  47.620 -21.159  1.00  0.00    -0.294 OA
HETATM   23  C27 UNL     1      -3.466  49.789 -20.618  1.00  0.00     0.032 C 
HETATM   24  C28 UNL     1      -4.730  50.519 -20.097  1.00  0.00     0.025 C 
HETATM   25  O4  UNL     1      -4.082  50.575 -25.538  1.00  0.00    -0.308 OA
HETATM   26  C29 UNL     1      -3.099  51.396 -26.031  1.00  0.00     0.290 C 
HETATM   27  O5  UNL     1      -2.835  51.534 -27.213  1.00  0.00    -0.260 OA
ENDROOT
BRANCH   1  28
HETATM   28  C6  UNL     1      -1.090  52.761 -25.093  1.00  0.00     0.049 C 
BRANCH  28  29
HETATM   29  C5  UNL     1       0.182  52.024 -24.638  1.00  0.00     0.032 C 
BRANCH  29  30
HETATM   30  C4  UNL     1       1.150  51.675 -25.739  1.00  0.00    -0.024 C 
HETATM   31  C2  UNL     1       1.170  52.160 -26.996  1.00  0.00    -0.091 C 
HETATM   32  C1  UNL     1       0.153  53.113 -27.560  1.00  0.00     0.042 C 
HETATM   33  C3  UNL     1       2.261  51.756 -27.950  1.00  0.00     0.042 C 
ENDBRANCH  29  30
ENDBRANCH  28  29
ENDBRANCH   1  28
BRANCH  20  34
HETATM   34  O2  UNL     1      -1.838  47.032 -19.467  1.00  0.00    -0.388 OA
HETATM   35  H37 UNL     1      -1.972  46.425 -20.217  1.00  0.00     0.210 HD
ENDBRANCH  20  34
TORSDOF 4
ENDMDL
MODEL 7
REMARK minimizedAffinity -9.11007595
REMARK  4 active torsions:
REMARK  status: ('A' for Active; 'I' for Inactive)
REMARK    1  A    between atoms: C4_4  and  C5_5 
REMARK    2  A    between atoms: C5_5  and  C6_6 
REMARK    3  A    between atoms: C6_6  and  C7_7 
REMARK    4  A    between atoms: C25_26  and  O2_27 
ROOT
HETATM    1  C7  UNL     1      -3.809  47.271 -20.405  1.00  0.00     0.023 C 
HETATM    2  C8  UNL     1      -3.821  48.477 -20.966  1.00  0.00    -0.034 C 
HETATM    3  C9  UNL     1      -3.976  49.545 -19.955  1.00  0.00     0.163 C 
HETATM    4  C10 UNL     1      -3.047  50.662 -20.445  1.00  0.00     0.048 C 
HETATM    5  C11 UNL     1      -2.453  50.148 -21.806  1.00  0.00    -0.019 C 
HETATM    6  C12 UNL     1      -1.099  49.441 -21.424  1.00  0.00     0.017 C 
HETATM    7  C13 UNL     1      -3.532  49.112 -22.271  1.00  0.00     0.027 C 
HETATM    8  C14 UNL     1      -3.098  48.338 -23.506  1.00  0.00     0.010 C 
HETATM    9  C15 UNL     1      -2.796  49.318 -24.654  1.00  0.00     0.007 C 
HETATM   10  C16 UNL     1      -1.786  50.429 -24.261  1.00  0.00     0.011 C 
HETATM   11  C17 UNL     1      -1.274  51.304 -25.480  1.00  0.00    -0.032 C 
HETATM   12  C18 UNL     1      -0.136  50.466 -26.159  1.00  0.00     0.016 C 
HETATM   13  C19 UNL     1      -2.344  51.560 -26.579  1.00  0.00     0.017 C 
HETATM   14  C20 UNL     1      -2.091  52.808 -27.434  1.00  0.00     0.079 C 
HETATM   15  C21 UNL     1      -0.645  53.274 -27.438  1.00  0.00     0.131 C 
HETATM   16  O1  UNL     1      -0.094  53.600 -28.490  1.00  0.00    -0.298 OA
HETATM   17  C22 UNL     1       0.062  53.415 -26.088  1.00  0.00     0.059 C 
HETATM   18  C23 UNL     1       0.255  54.905 -25.820  1.00  0.00     0.018 C 
HETATM   19  C24 UNL     1      -0.775  52.710 -24.996  1.00  0.00     0.041 C 
HETATM   20  C25 UNL     1      -0.118  52.662 -23.613  1.00  0.00     0.194 C 
HETATM   21  C26 UNL     1      -1.135  52.210 -22.561  1.00  0.00     0.165 C 
HETATM   22  O3  UNL     1      -1.056  52.659 -21.414  1.00  0.00    -0.294 OA
HETATM   23  C27 UNL     1      -2.236  51.214 -22.969  1.00  0.00     0.032 C 
HETATM   24  C28 UNL     1      -3.509  52.063 -23.219  1.00  0.00     0.025 C 
HETATM   25  O4  UNL     1      -3.659  48.901 -18.746  1.00  0.00    -0.308 OA
HETATM   26  C29 UNL     1      -3.811  47.553 -18.951  1.00  0.00     0.290 C 
HETATM   27  O5  UNL     1      -3.876  46.717 -18.066  1.00  0.00    -0.260 OA
ENDROOT
BRANCH   1  28
HETATM   28  C6  UNL     1      -3.697  45.892 -20.953  1.00  0.00     0.049 C 
BRANCH  28  29
HETATM   29  C5  UNL     1      -4.990  45.058 -20.942  1.00  0.00     0.032 C 
BRANCH  29  30
HETATM   30  C4  UNL     1      -6.134  45.636 -21.733  1.00  0.00    -0.024 C 
HETATM   31  C2  UNL     1      -7.060  44.962 -22.444  1.00  0.00    -0.091 C 
HETATM   32  C1  UNL     1      -7.072  43.471 -22.633  1.00  0.00     0.042 C 
HETATM   33  C3  UNL     1      -8.187  45.698 -23.117  1.00  0.00     0.042 C 
ENDBRANCH  29  30
ENDBRANCH  28  29
ENDBRANCH   1  28
BRANCH  20  34
HETATM   34  O2  UNL     1       1.044  51.854 -23.605  1.00  0.00    -0.388 OA
HETATM   35  H37 UNL     1       1.397  51.869 -22.697  1.00  0.00     0.210 HD
ENDBRANCH  20  34
TORSDOF 4
ENDMDL
MODEL 8
REMARK minimizedAffinity -8.94146347
REMARK  4 active torsions:
REMARK  status: ('A' for Active; 'I' for Inactive)
REMARK    1  A    between atoms: C4_4  and  C5_5 
REMARK    2  A    between atoms: C5_5  and  C6_6 
REMARK    3  A    between atoms: C6_6  and  C7_7 
REMARK    4  A    between atoms: C25_26  and  O2_27 
ROOT
HETATM    1  C7  UNL     1      -0.959  52.987 -25.926  1.00  0.00     0.023 C 
HETATM    2  C8  UNL     1      -2.138  52.445 -25.634  1.00  0.00    -0.034 C 
HETATM    3  C9  UNL     1      -2.740  51.786 -26.811  1.00  0.00     0.163 C 
HETATM    4  C10 UNL     1      -3.380  50.515 -26.243  1.00  0.00     0.048 C 
HETATM    5  C11 UNL     1      -3.141  50.582 -24.691  1.00  0.00    -0.019 C 
HETATM    6  C12 UNL     1      -1.800  49.795 -24.446  1.00  0.00     0.017 C 
HETATM    7  C13 UNL     1      -2.960  52.119 -24.447  1.00  0.00     0.027 C 
HETATM    8  C14 UNL     1      -2.542  52.433 -23.020  1.00  0.00     0.010 C 
HETATM    9  C15 UNL     1      -3.587  51.875 -22.037  1.00  0.00     0.007 C 
HETATM   10  C16 UNL     1      -3.886  50.368 -22.252  1.00  0.00     0.011 C 
HETATM   11  C17 UNL     1      -4.771  49.712 -21.112  1.00  0.00    -0.032 C 
HETATM   12  C18 UNL     1      -3.782  49.380 -19.941  1.00  0.00     0.016 C 
HETATM   13  C19 UNL     1      -5.853  50.656 -20.517  1.00  0.00     0.017 C 
HETATM   14  C20 UNL     1      -7.041  49.933 -19.869  1.00  0.00     0.079 C 
HETATM   15  C21 UNL     1      -6.744  48.504 -19.450  1.00  0.00     0.131 C 
HETATM   16  O1  UNL     1      -7.106  48.084 -18.350  1.00  0.00    -0.298 OA
HETATM   17  C22 UNL     1      -6.070  47.587 -20.474  1.00  0.00     0.059 C 
HETATM   18  C23 UNL     1      -7.106  46.559 -20.925  1.00  0.00     0.018 C 
HETATM   19  C24 UNL     1      -5.520  48.439 -21.641  1.00  0.00     0.041 C 
HETATM   20  C25 UNL     1      -4.706  47.660 -22.678  1.00  0.00     0.194 C 
HETATM   21  C26 UNL     1      -4.460  48.527 -23.916  1.00  0.00     0.165 C 
HETATM   22  O3  UNL     1      -4.403  47.991 -25.026  1.00  0.00    -0.294 OA
HETATM   23  C27 UNL     1      -4.302  50.049 -23.740  1.00  0.00     0.032 C 
HETATM   24  C28 UNL     1      -5.677  50.666 -24.103  1.00  0.00     0.025 C 
HETATM   25  O4  UNL     1      -1.659  51.645 -27.698  1.00  0.00    -0.308 OA
HETATM   26  C29 UNL     1      -0.699  52.549 -27.317  1.00  0.00     0.290 C 
HETATM   27  O5  UNL     1       0.251  52.886 -28.002  1.00  0.00    -0.260 OA
ENDROOT
BRANCH   1  28
HETATM   28  C6  UNL     1       0.034  53.761 -25.132  1.00  0.00     0.049 C 
BRANCH  28  29
HETATM   29  C5  UNL     1       0.824  52.959 -24.082  1.00  0.00     0.032 C 
BRANCH  29  30
HETATM   30  C4  UNL     1       0.941  53.614 -22.729  1.00  0.00    -0.024 C 
HETATM   31  C2  UNL     1       0.825  53.025 -21.523  1.00  0.00    -0.091 C 
HETATM   32  C1  UNL     1       0.478  51.578 -21.309  1.00  0.00     0.042 C 
HETATM   33  C3  UNL     1       1.047  53.819 -20.264  1.00  0.00     0.042 C 
ENDBRANCH  29  30
ENDBRANCH  28  29
ENDBRANCH   1  28
BRANCH  20  34
HETATM   34  O2  UNL     1      -3.499  47.158 -22.137  1.00  0.00    -0.388 OA
HETATM   35  H37 UNL     1      -3.038  46.684 -22.853  1.00  0.00     0.210 HD
ENDBRANCH  20  34
TORSDOF 4
ENDMDL
MODEL 9
REMARK minimizedAffinity -8.81662369
REMARK  4 active torsions:
REMARK  status: ('A' for Active; 'I' for Inactive)
REMARK    1  A    between atoms: C4_4  and  C5_5 
REMARK    2  A    between atoms: C5_5  and  C6_6 
REMARK    3  A    between atoms: C6_6  and  C7_7 
REMARK    4  A    between atoms: C25_26  and  O2_27 
ROOT
HETATM    1  C7  UNL     1      -2.445  51.424 -24.538  1.00  0.00     0.023 C 
HETATM    2  C8  UNL     1      -3.240  51.131 -23.512  1.00  0.00    -0.034 C 
HETATM    3  C9  UNL     1      -4.523  51.860 -23.593  1.00  0.00     0.163 C 
HETATM    4  C10 UNL     1      -5.564  50.839 -23.122  1.00  0.00     0.048 C 
HETATM    5  C11 UNL     1      -4.746  49.558 -22.720  1.00  0.00    -0.019 C 
HETATM    6  C12 UNL     1      -4.723  48.662 -24.014  1.00  0.00     0.017 C 
HETATM    7  C13 UNL     1      -3.331  50.152 -22.406  1.00  0.00     0.027 C 
HETATM    8  C14 UNL     1      -2.293  49.071 -22.150  1.00  0.00     0.010 C 
HETATM    9  C15 UNL     1      -2.749  48.178 -20.981  1.00  0.00     0.007 C 
HETATM   10  C16 UNL     1      -4.177  47.601 -21.174  1.00  0.00     0.011 C 
HETATM   11  C17 UNL     1      -4.579  46.495 -20.111  1.00  0.00    -0.032 C 
HETATM   12  C18 UNL     1      -3.936  45.159 -20.622  1.00  0.00     0.016 C 
HETATM   13  C19 UNL     1      -4.008  46.738 -18.686  1.00  0.00     0.017 C 
HETATM   14  C20 UNL     1      -4.800  46.059 -17.560  1.00  0.00     0.079 C 
HETATM   15  C21 UNL     1      -5.647  44.885 -18.018  1.00  0.00     0.131 C 
HETATM   16  O1  UNL     1      -5.662  43.834 -17.378  1.00  0.00    -0.298 OA
HETATM   17  C22 UNL     1      -6.548  45.090 -19.239  1.00  0.00     0.059 C 
HETATM   18  C23 UNL     1      -7.994  45.115 -18.748  1.00  0.00     0.018 C 
HETATM   19  C24 UNL     1      -6.137  46.392 -19.965  1.00  0.00     0.041 C 
HETATM   20  C25 UNL     1      -6.875  46.654 -21.282  1.00  0.00     0.194 C 
HETATM   21  C26 UNL     1      -6.608  48.084 -21.761  1.00  0.00     0.165 C 
HETATM   22  O3  UNL     1      -7.492  48.690 -22.372  1.00  0.00    -0.294 OA
HETATM   23  C27 UNL     1      -5.243  48.729 -21.455  1.00  0.00     0.032 C 
HETATM   24  C28 UNL     1      -5.467  49.638 -20.220  1.00  0.00     0.025 C 
HETATM   25  O4  UNL     1      -4.573  52.289 -24.931  1.00  0.00    -0.308 OA
HETATM   26  C29 UNL     1      -3.288  52.270 -25.413  1.00  0.00     0.290 C 
HETATM   27  O5  UNL     1      -2.921  52.820 -26.437  1.00  0.00    -0.260 OA
ENDROOT
BRANCH   1  28
HETATM   28  C6  UNL     1      -1.074  50.991 -24.922  1.00  0.00     0.049 C 
BRANCH  28  29
HETATM   29  C5  UNL     1       0.026  52.060 -24.801  1.00  0.00     0.032 C 
BRANCH  29  30
HETATM   30  C4  UNL     1       1.265  51.802 -25.619  1.00  0.00    -0.024 C 
HETATM   31  C2  UNL     1       1.406  51.928 -26.953  1.00  0.00    -0.091 C 
HETATM   32  C1  UNL     1       0.296  52.293 -27.898  1.00  0.00     0.042 C 
HETATM   33  C3  UNL     1       2.745  51.701 -27.601  1.00  0.00     0.042 C 
ENDBRANCH  29  30
ENDBRANCH  28  29
ENDBRANCH   1  28
BRANCH  20  34
HETATM   34  O2  UNL     1      -6.550  45.697 -22.271  1.00  0.00    -0.388 OA
HETATM   35  H37 UNL     1      -7.050  45.933 -23.074  1.00  0.00     0.210 HD
ENDBRANCH  20  34
TORSDOF 4
ENDMDL
