MODEL 1
REMARK minimizedAffinity -9.83017445
REMARK  4 active torsions:
REMARK  status: ('A' for Active; 'I' for Inactive)
REMARK    1  A    between atoms: C3_8  and  C4_9 
REMARK       I    between atoms: N4_17  and  C11_18 
REMARK    2  A    between atoms: C11_18  and  C12_20 
REMARK    3  A    between atoms: C12_20  and  O3_21 
REMARK    4  A    between atoms: O3_21  and  C13_22 
ROOT
HETATM    1  C4  UNL     1      -0.261  52.037 -24.389  1.00  0.00     0.011 A 
HETATM    2  C5  UNL     1      -1.386  51.204 -24.224  1.00  0.00     0.018 A 
HETATM    3  C6  UNL     1      -1.738  50.698 -22.968  1.00  0.00     0.039 A 
HETATM    4  C7  UNL     1      -0.964  51.033 -21.868  1.00  0.00     0.090 A 
HETATM    5  O1  UNL     1      -1.347  50.598 -20.623  1.00  0.00    -0.347 OA
HETATM    6  C8  UNL     1      -1.856  51.687 -19.818  1.00  0.00     0.213 C 
HETATM    7  C9  UNL     1      -1.221  51.680 -18.398  1.00  0.00     0.265 C 
HETATM    8  C10 UNL     1      -1.577  50.312 -17.741  1.00  0.00     0.163 C 
HETATM    9  N4  UNL     1      -1.088  50.254 -16.365  1.00  0.00    -0.346 N 
HETATM   10  C11 UNL     1      -1.961  50.656 -15.349  1.00  0.00     0.244 C 
HETATM   11  O2  UNL     1      -3.115  51.005 -15.596  1.00  0.00    -0.271 OA
HETATM   12  C19 UNL     1       0.358  50.425 -16.287  1.00  0.00     0.156 C 
HETATM   13  C20 UNL     1       0.754  51.773 -16.926  1.00  0.00     0.293 C 
HETATM   14  N5  UNL     1       0.277  51.927 -18.330  1.00  0.00     0.106 N 
HETATM   15  C21 UNL     1       0.669  53.298 -18.799  1.00  0.00     0.369 C 
HETATM   16  C22 UNL     1       0.886  53.343 -20.318  1.00  0.00     0.230 C 
HETATM   17  O4  UNL     1       0.953  54.396 -20.944  1.00  0.00    -0.278 OA
HETATM   18  N6  UNL     1       0.961  52.073 -20.873  1.00  0.00    -0.225 NA
HETATM   19  C23 UNL     1       0.181  51.826 -22.021  1.00  0.00     0.049 A 
HETATM   20  C24 UNL     1       0.512  52.361 -23.265  1.00  0.00     0.042 A 
HETATM   21  H25 UNL     1       0.776  51.389 -20.132  1.00  0.00     0.136 HD
ENDROOT
BRANCH  10  22
HETATM   22  C12 UNL     1      -1.410  50.611 -13.913  1.00  0.00     0.278 C 
BRANCH  22  23
HETATM   23  O3  UNL     1      -1.064  51.865 -13.344  1.00  0.00    -0.342 OA
BRANCH  23  24
HETATM   24  C13 UNL     1      -1.913  52.401 -12.415  1.00  0.00     0.069 A 
HETATM   25  C14 UNL     1      -3.307  52.411 -12.479  1.00  0.00     0.037 A 
HETATM   26  C15 UNL     1      -4.054  53.000 -11.452  1.00  0.00     0.003 A 
HETATM   27  C16 UNL     1      -3.412  53.585 -10.362  1.00  0.00     0.000 A 
HETATM   28  C17 UNL     1      -2.021  53.586 -10.297  1.00  0.00     0.003 A 
HETATM   29  C18 UNL     1      -1.277  52.999 -11.323  1.00  0.00     0.037 A 
ENDBRANCH  23  24
ENDBRANCH  22  23
ENDBRANCH  10  22
BRANCH   1  30
HETATM   30  C3  UNL     1       0.038  52.558 -25.724  1.00  0.00     0.133 A 
HETATM   31  N1  UNL     1       1.128  52.254 -26.509  1.00  0.00    -0.280 N 
HETATM   32  C1  UNL     1       2.195  51.318 -26.266  1.00  0.00     0.179 C 
HETATM   33  N2  UNL     1       1.089  52.915 -27.684  1.00  0.00    -0.293 N 
HETATM   34  C2  UNL     1      -0.059  53.582 -27.574  1.00  0.00     0.199 A 
ATOM     35  H2  UNL     1       1.759  52.906 -28.453  1.00  0.00     0.188 HD
HETATM   36  N3  UNL     1      -0.739  53.377 -26.412  1.00  0.00    -0.336 N 
ATOM     37  H3  UNL     1      -1.641  53.766 -26.136  1.00  0.00     0.168 HD
ENDBRANCH   1  30
TORSDOF 4
ENDMDL
MODEL 2
REMARK minimizedAffinity -9.64315128
REMARK  4 active torsions:
REMARK  status: ('A' for Active; 'I' for Inactive)
REMARK    1  A    between atoms: C3_8  and  C4_9 
REMARK       I    between atoms: N4_17  and  C11_18 
REMARK    2  A    between atoms: C11_18  and  C12_20 
REMARK    3  A    between atoms: C12_20  and  O3_21 
REMARK    4  A    between atoms: O3_21  and  C13_22 
ROOT
HETATM    1  C4  UNL     1      -0.694  51.843 -24.559  1.00  0.00     0.011 A 
HETATM    2  C5  UNL     1      -1.881  51.121 -24.326  1.00  0.00     0.018 A 
HETATM    3  C6  UNL     1      -2.220  50.675 -23.044  1.00  0.00     0.039 A 
HETATM    4  C7  UNL     1      -1.371  50.960 -21.986  1.00  0.00     0.090 A 
HETATM    5  O1  UNL     1      -1.736  50.588 -20.716  1.00  0.00    -0.347 OA
HETATM    6  C8  UNL     1      -2.107  51.735 -19.917  1.00  0.00     0.213 C 
HETATM    7  C9  UNL     1      -1.413  51.699 -18.526  1.00  0.00     0.265 C 
HETATM    8  C10 UNL     1      -1.861  50.383 -17.820  1.00  0.00     0.163 C 
HETATM    9  N4  UNL     1      -1.319  50.309 -16.466  1.00  0.00    -0.346 N 
HETATM   10  C11 UNL     1      -2.105  50.809 -15.424  1.00  0.00     0.244 C 
HETATM   11  O2  UNL     1      -3.233  51.257 -15.629  1.00  0.00    -0.271 OA
HETATM   12  C19 UNL     1       0.139  50.348 -16.454  1.00  0.00     0.156 C 
HETATM   13  C20 UNL     1       0.626  51.641 -17.141  1.00  0.00     0.293 C 
HETATM   14  N5  UNL     1       0.103  51.809 -18.528  1.00  0.00     0.106 N 
HETATM   15  C21 UNL     1       0.596  53.128 -19.046  1.00  0.00     0.369 C 
HETATM   16  C22 UNL     1       0.748  53.122 -20.573  1.00  0.00     0.230 C 
HETATM   17  O4  UNL     1       0.882  54.152 -21.227  1.00  0.00    -0.278 OA
HETATM   18  N6  UNL     1       0.683  51.840 -21.100  1.00  0.00    -0.225 NA
HETATM   19  C23 UNL     1      -0.167  51.642 -22.207  1.00  0.00     0.049 A 
HETATM   20  C24 UNL     1       0.155  52.119 -23.477  1.00  0.00     0.042 A 
HETATM   21  H25 UNL     1       0.470  51.191 -20.335  1.00  0.00     0.136 HD
ENDROOT
BRANCH  10  22
HETATM   22  C12 UNL     1      -1.497  50.743 -14.011  1.00  0.00     0.278 C 
BRANCH  22  23
HETATM   23  O3  UNL     1      -2.425  50.750 -12.937  1.00  0.00    -0.342 OA
BRANCH  23  24
HETATM   24  C13 UNL     1      -2.471  51.861 -12.140  1.00  0.00     0.069 A 
HETATM   25  C14 UNL     1      -1.381  52.489 -11.535  1.00  0.00     0.037 A 
HETATM   26  C15 UNL     1      -1.575  53.622 -10.738  1.00  0.00     0.003 A 
HETATM   27  C16 UNL     1      -2.858  54.130 -10.538  1.00  0.00     0.000 A 
HETATM   28  C17 UNL     1      -3.951  53.503 -11.131  1.00  0.00     0.003 A 
HETATM   29  C18 UNL     1      -3.755  52.371 -11.925  1.00  0.00     0.037 A 
ENDBRANCH  23  24
ENDBRANCH  22  23
ENDBRANCH  10  22
BRANCH   1  30
HETATM   30  C3  UNL     1      -0.408  52.308 -25.918  1.00  0.00     0.133 A 
HETATM   31  N1  UNL     1      -1.272  52.317 -26.990  1.00  0.00    -0.280 N 
HETATM   32  C1  UNL     1      -2.664  51.950 -27.045  1.00  0.00     0.179 C 
HETATM   33  N2  UNL     1      -0.680  52.813 -28.096  1.00  0.00    -0.293 N 
HETATM   34  C2  UNL     1       0.531  53.118 -27.633  1.00  0.00     0.199 A 
ATOM     35  H2  UNL     1      -1.059  52.926 -29.036  1.00  0.00     0.188 HD
HETATM   36  N3  UNL     1       0.731  52.850 -26.312  1.00  0.00    -0.336 N 
ATOM     37  H3  UNL     1       1.567  53.026 -25.756  1.00  0.00     0.168 HD
ENDBRANCH   1  30
TORSDOF 4
ENDMDL
MODEL 3
REMARK minimizedAffinity -9.5952158
REMARK  4 active torsions:
REMARK  status: ('A' for Active; 'I' for Inactive)
REMARK    1  A    between atoms: C3_8  and  C4_9 
REMARK       I    between atoms: N4_17  and  C11_18 
REMARK    2  A    between atoms: C11_18  and  C12_20 
REMARK    3  A    between atoms: C12_20  and  O3_21 
REMARK    4  A    between atoms: O3_21  and  C13_22 
ROOT
HETATM    1  C4  UNL     1       0.719  51.398 -16.927  1.00  0.00     0.011 A 
HETATM    2  C5  UNL     1      -0.038  50.211 -16.890  1.00  0.00     0.018 A 
HETATM    3  C6  UNL     1      -0.858  49.839 -17.961  1.00  0.00     0.039 A 
HETATM    4  C7  UNL     1      -0.915  50.655 -19.080  1.00  0.00     0.090 A 
HETATM    5  O1  UNL     1      -1.661  50.257 -20.162  1.00  0.00    -0.347 OA
HETATM    6  C8  UNL     1      -0.817  49.854 -21.265  1.00  0.00     0.213 C 
HETATM    7  C9  UNL     1      -1.282  50.508 -22.596  1.00  0.00     0.265 C 
HETATM    8  C10 UNL     1      -2.751  50.051 -22.847  1.00  0.00     0.163 C 
HETATM    9  N4  UNL     1      -3.241  50.555 -24.128  1.00  0.00    -0.346 N 
HETATM   10  C11 UNL     1      -3.086  49.735 -25.250  1.00  0.00     0.244 C 
HETATM   11  O2  UNL     1      -2.595  48.610 -25.159  1.00  0.00    -0.271 OA
HETATM   12  C19 UNL     1      -3.208  52.012 -24.195  1.00  0.00     0.156 C 
HETATM   13  C20 UNL     1      -1.767  52.507 -23.955  1.00  0.00     0.293 C 
HETATM   14  N5  UNL     1      -1.178  52.022 -22.673  1.00  0.00     0.106 N 
HETATM   15  C21 UNL     1       0.236  52.519 -22.603  1.00  0.00     0.369 C 
HETATM   16  C22 UNL     1       0.702  52.715 -21.154  1.00  0.00     0.230 C 
HETATM   17  O4  UNL     1       1.884  52.860 -20.855  1.00  0.00    -0.278 OA
HETATM   18  N6  UNL     1      -0.354  52.676 -20.255  1.00  0.00    -0.225 NA
HETATM   19  C23 UNL     1      -0.199  51.859 -19.116  1.00  0.00     0.049 A 
HETATM   20  C24 UNL     1       0.646  52.213 -18.066  1.00  0.00     0.042 A 
HETATM   21  H25 UNL     1      -1.207  52.446 -20.775  1.00  0.00     0.136 HD
ENDROOT
BRANCH  10  22
HETATM   22  C12 UNL     1      -3.585  50.303 -26.590  1.00  0.00     0.278 C 
BRANCH  22  23
HETATM   23  O3  UNL     1      -2.605  50.440 -27.608  1.00  0.00    -0.342 OA
BRANCH  23  24
HETATM   24  C13 UNL     1      -1.565  51.299 -27.381  1.00  0.00     0.069 A 
HETATM   25  C14 UNL     1      -1.568  52.677 -27.601  1.00  0.00     0.037 A 
HETATM   26  C15 UNL     1      -0.426  53.437 -27.325  1.00  0.00     0.003 A 
HETATM   27  C16 UNL     1       0.725  52.823 -26.834  1.00  0.00     0.000 A 
HETATM   28  C17 UNL     1       0.738  51.448 -26.621  1.00  0.00     0.003 A 
HETATM   29  C18 UNL     1      -0.402  50.691 -26.898  1.00  0.00     0.037 A 
ENDBRANCH  23  24
ENDBRANCH  22  23
ENDBRANCH  10  22
BRANCH   1  30
HETATM   30  C3  UNL     1       1.581  51.718 -15.787  1.00  0.00     0.133 A 
HETATM   31  N1  UNL     1       1.184  51.985 -14.496  1.00  0.00    -0.280 N 
HETATM   32  C1  UNL     1      -0.136  51.952 -13.922  1.00  0.00     0.179 C 
HETATM   33  N2  UNL     1       2.241  52.240 -13.698  1.00  0.00    -0.293 N 
HETATM   34  C2  UNL     1       3.257  52.086 -14.547  1.00  0.00     0.199 A 
ATOM     35  H2  UNL     1       2.259  52.485 -12.708  1.00  0.00     0.188 HD
HETATM   36  N3  UNL     1       2.902  51.747 -15.818  1.00  0.00    -0.336 N 
ATOM     37  H3  UNL     1       3.516  51.559 -16.611  1.00  0.00     0.168 HD
ENDBRANCH   1  30
TORSDOF 4
ENDMDL
MODEL 4
REMARK minimizedAffinity -9.05917645
REMARK  4 active torsions:
REMARK  status: ('A' for Active; 'I' for Inactive)
REMARK    1  A    between atoms: C3_8  and  C4_9 
REMARK       I    between atoms: N4_17  and  C11_18 
REMARK    2  A    between atoms: C11_18  and  C12_20 
REMARK    3  A    between atoms: C12_20  and  O3_21 
REMARK    4  A    between atoms: O3_21  and  C13_22 
ROOT
HETATM    1  C4  UNL     1      -0.482  52.763 -24.413  1.00  0.00     0.011 A 
HETATM    2  C5  UNL     1       0.636  53.199 -23.675  1.00  0.00     0.018 A 
HETATM    3  C6  UNL     1       0.698  53.037 -22.287  1.00  0.00     0.039 A 
HETATM    4  C7  UNL     1      -0.362  52.428 -21.633  1.00  0.00     0.090 A 
HETATM    5  O1  UNL     1      -0.273  52.202 -20.281  1.00  0.00    -0.347 OA
HETATM    6  C8  UNL     1      -0.096  50.796 -19.992  1.00  0.00     0.213 C 
HETATM    7  C9  UNL     1      -1.072  50.324 -18.878  1.00  0.00     0.265 C 
HETATM    8  C10 UNL     1      -0.770  51.176 -17.608  1.00  0.00     0.163 C 
HETATM    9  N4  UNL     1      -1.589  50.738 -16.481  1.00  0.00    -0.346 N 
HETATM   10  C11 UNL     1      -1.051  49.774 -15.623  1.00  0.00     0.244 C 
HETATM   11  O2  UNL     1       0.090  49.339 -15.783  1.00  0.00    -0.271 OA
HETATM   12  C19 UNL     1      -3.016  50.846 -16.763  1.00  0.00     0.156 C 
HETATM   13  C20 UNL     1      -3.360  50.011 -18.014  1.00  0.00     0.293 C 
HETATM   14  N5  UNL     1      -2.553  50.380 -19.213  1.00  0.00     0.106 N 
HETATM   15  C21 UNL     1      -2.939  49.451 -20.327  1.00  0.00     0.369 C 
HETATM   16  C22 UNL     1      -2.760  50.104 -21.704  1.00  0.00     0.230 C 
HETATM   17  O4  UNL     1      -2.763  49.456 -22.747  1.00  0.00    -0.278 OA
HETATM   18  N6  UNL     1      -2.569  51.475 -21.612  1.00  0.00    -0.225 NA
HETATM   19  C23 UNL     1      -1.498  52.026 -22.346  1.00  0.00     0.049 A 
HETATM   20  C24 UNL     1      -1.546  52.152 -23.734  1.00  0.00     0.042 A 
HETATM   21  H25 UNL     1      -2.516  51.723 -20.619  1.00  0.00     0.136 HD
ENDROOT
BRANCH  10  22
HETATM   22  C12 UNL     1      -1.947  49.311 -14.461  1.00  0.00     0.278 C 
BRANCH  22  23
HETATM   23  O3  UNL     1      -1.595  49.801 -13.176  1.00  0.00    -0.342 OA
BRANCH  23  24
HETATM   24  C13 UNL     1      -2.429  50.714 -12.590  1.00  0.00     0.069 A 
HETATM   25  C14 UNL     1      -2.735  51.985 -13.077  1.00  0.00     0.037 A 
HETATM   26  C15 UNL     1      -3.607  52.819 -12.369  1.00  0.00     0.003 A 
HETATM   27  C16 UNL     1      -4.173  52.388 -11.170  1.00  0.00     0.000 A 
HETATM   28  C17 UNL     1      -3.865  51.124 -10.674  1.00  0.00     0.003 A 
HETATM   29  C18 UNL     1      -2.993  50.294 -11.381  1.00  0.00     0.037 A 
ENDBRANCH  23  24
ENDBRANCH  22  23
ENDBRANCH  10  22
BRANCH   1  30
HETATM   30  C3  UNL     1      -0.475  52.934 -25.867  1.00  0.00     0.133 A 
HETATM   31  N1  UNL     1      -0.714  51.967 -26.818  1.00  0.00    -0.280 N 
HETATM   32  C1  UNL     1      -1.095  50.589 -26.643  1.00  0.00     0.179 C 
HETATM   33  N2  UNL     1      -0.627  52.471 -28.066  1.00  0.00    -0.293 N 
HETATM   34  C2  UNL     1      -0.363  53.753 -27.816  1.00  0.00     0.199 A 
ATOM     35  H2  UNL     1      -0.736  51.998 -28.963  1.00  0.00     0.188 HD
HETATM   36  N3  UNL     1      -0.284  54.081 -26.496  1.00  0.00    -0.336 N 
ATOM     37  H3  UNL     1      -0.118  55.000 -26.088  1.00  0.00     0.168 HD
ENDBRANCH   1  30
TORSDOF 4
ENDMDL
MODEL 5
REMARK minimizedAffinity -8.98488712
REMARK  4 active torsions:
REMARK  status: ('A' for Active; 'I' for Inactive)
REMARK    1  A    between atoms: C3_8  and  C4_9 
REMARK       I    between atoms: N4_17  and  C11_18 
REMARK    2  A    between atoms: C11_18  and  C12_20 
REMARK    3  A    between atoms: C12_20  and  O3_21 
REMARK    4  A    between atoms: O3_21  and  C13_22 
ROOT
HETATM    1  C4  UNL     1       0.281  52.731 -22.112  1.00  0.00     0.011 A 
HETATM    2  C5  UNL     1       1.242  53.529 -21.459  1.00  0.00     0.018 A 
HETATM    3  C6  UNL     1       1.329  53.564 -20.064  1.00  0.00     0.039 A 
HETATM    4  C7  UNL     1       0.455  52.791 -19.315  1.00  0.00     0.090 A 
HETATM    5  O1  UNL     1       0.585  52.767 -17.948  1.00  0.00    -0.347 OA
HETATM    6  C8  UNL     1       1.116  51.502 -17.491  1.00  0.00     0.213 C 
HETATM    7  C9  UNL     1       0.283  50.939 -16.305  1.00  0.00     0.265 C 
HETATM    8  C10 UNL     1       0.343  51.993 -15.158  1.00  0.00     0.163 C 
HETATM    9  N4  UNL     1      -0.347  51.505 -13.967  1.00  0.00    -0.346 N 
HETATM   10  C11 UNL     1       0.412  50.828 -13.009  1.00  0.00     0.244 C 
HETATM   11  O2  UNL     1       1.628  50.683 -13.139  1.00  0.00    -0.271 OA
HETATM   12  C19 UNL     1      -1.751  51.207 -14.228  1.00  0.00     0.156 C 
HETATM   13  C20 UNL     1      -1.855  50.161 -15.357  1.00  0.00     0.293 C 
HETATM   14  N5  UNL     1      -1.159  50.570 -16.611  1.00  0.00     0.106 N 
HETATM   15  C21 UNL     1      -1.282  49.441 -17.591  1.00  0.00     0.369 C 
HETATM   16  C22 UNL     1      -1.263  49.939 -19.043  1.00  0.00     0.230 C 
HETATM   17  O4  UNL     1      -1.089  49.186 -19.997  1.00  0.00    -0.278 OA
HETATM   18  N6  UNL     1      -1.432  51.314 -19.126  1.00  0.00    -0.225 NA
HETATM   19  C23 UNL     1      -0.532  52.024 -19.948  1.00  0.00     0.049 A 
HETATM   20  C24 UNL     1      -0.597  51.958 -21.338  1.00  0.00     0.042 A 
HETATM   21  H25 UNL     1      -1.455  51.691 -18.173  1.00  0.00     0.136 HD
ENDROOT
BRANCH  10  22
HETATM   22  C12 UNL     1      -0.346  50.300 -11.778  1.00  0.00     0.278 C 
BRANCH  22  23
HETATM   23  O3  UNL     1      -0.525  51.227 -10.717  1.00  0.00    -0.342 OA
BRANCH  23  24
HETATM   24  C13 UNL     1      -1.698  51.928 -10.673  1.00  0.00     0.069 A 
HETATM   25  C14 UNL     1      -2.983  51.397 -10.795  1.00  0.00     0.037 A 
HETATM   26  C15 UNL     1      -4.101  52.237 -10.733  1.00  0.00     0.003 A 
HETATM   27  C16 UNL     1      -3.939  53.610 -10.554  1.00  0.00     0.000 A 
HETATM   28  C17 UNL     1      -2.660  54.148 -10.441  1.00  0.00     0.003 A 
HETATM   29  C18 UNL     1      -1.545  53.308 -10.505  1.00  0.00     0.037 A 
ENDBRANCH  23  24
ENDBRANCH  22  23
ENDBRANCH  10  22
BRANCH   1  30
HETATM   30  C3  UNL     1       0.259  52.714 -23.576  1.00  0.00     0.133 A 
HETATM   31  N1  UNL     1      -0.429  51.837 -24.386  1.00  0.00    -0.280 N 
HETATM   32  C1  UNL     1      -1.338  50.781 -24.023  1.00  0.00     0.179 C 
HETATM   33  N2  UNL     1      -0.225  52.109 -25.691  1.00  0.00    -0.293 N 
HETATM   34  C2  UNL     1       0.568  53.177 -25.619  1.00  0.00     0.199 A 
ATOM     35  H2  UNL     1      -0.584  51.627 -26.515  1.00  0.00     0.188 HD
HETATM   36  N3  UNL     1       0.868  53.591 -24.355  1.00  0.00    -0.336 N 
ATOM     37  H3  UNL     1       1.432  54.393 -24.076  1.00  0.00     0.168 HD
ENDBRANCH   1  30
TORSDOF 4
ENDMDL
MODEL 6
REMARK minimizedAffinity -8.74644566
REMARK  4 active torsions:
REMARK  status: ('A' for Active; 'I' for Inactive)
REMARK    1  A    between atoms: C3_8  and  C4_9 
REMARK       I    between atoms: N4_17  and  C11_18 
REMARK    2  A    between atoms: C11_18  and  C12_20 
REMARK    3  A    between atoms: C12_20  and  O3_21 
REMARK    4  A    between atoms: O3_21  and  C13_22 
ROOT
HETATM    1  C4  UNL     1      -8.026  45.941 -27.311  1.00  0.00     0.011 A 
HETATM    2  C5  UNL     1      -7.201  46.037 -28.449  1.00  0.00     0.018 A 
HETATM    3  C6  UNL     1      -6.168  46.977 -28.520  1.00  0.00     0.039 A 
HETATM    4  C7  UNL     1      -5.953  47.823 -27.442  1.00  0.00     0.090 A 
HETATM    5  O1  UNL     1      -4.895  48.698 -27.478  1.00  0.00    -0.347 OA
HETATM    6  C8  UNL     1      -3.844  48.290 -26.572  1.00  0.00     0.213 C 
HETATM    7  C9  UNL     1      -3.357  49.484 -25.703  1.00  0.00     0.265 C 
HETATM    8  C10 UNL     1      -2.834  50.582 -26.677  1.00  0.00     0.163 C 
HETATM    9  N4  UNL     1      -2.277  51.712 -25.937  1.00  0.00    -0.346 N 
HETATM   10  C11 UNL     1      -0.907  51.694 -25.660  1.00  0.00     0.244 C 
HETATM   11  O2  UNL     1      -0.183  50.783 -26.062  1.00  0.00    -0.271 OA
HETATM   12  C19 UNL     1      -3.260  52.329 -25.054  1.00  0.00     0.156 C 
HETATM   13  C20 UNL     1      -3.803  51.275 -24.068  1.00  0.00     0.293 C 
HETATM   14  N5  UNL     1      -4.375  50.073 -24.740  1.00  0.00     0.106 N 
HETATM   15  C21 UNL     1      -4.799  49.109 -23.670  1.00  0.00     0.369 C 
HETATM   16  C22 UNL     1      -5.969  48.226 -24.126  1.00  0.00     0.230 C 
HETATM   17  O4  UNL     1      -6.302  47.209 -23.525  1.00  0.00    -0.278 OA
HETATM   18  N6  UNL     1      -6.560  48.701 -25.288  1.00  0.00    -0.225 NA
HETATM   19  C23 UNL     1      -6.790  47.768 -26.320  1.00  0.00     0.049 A 
HETATM   20  C24 UNL     1      -7.796  46.807 -26.232  1.00  0.00     0.042 A 
HETATM   21  H25 UNL     1      -6.016  49.506 -25.617  1.00  0.00     0.136 HD
ENDROOT
BRANCH  10  22
HETATM   22  C12 UNL     1      -0.353  52.883 -24.855  1.00  0.00     0.278 C 
BRANCH  22  23
HETATM   23  O3  UNL     1       0.728  52.588 -23.982  1.00  0.00    -0.342 OA
BRANCH  23  24
HETATM   24  C13 UNL     1       0.510  52.701 -22.636  1.00  0.00     0.069 A 
HETATM   25  C14 UNL     1      -0.348  51.912 -21.869  1.00  0.00     0.037 A 
HETATM   26  C15 UNL     1      -0.475  52.142 -20.494  1.00  0.00     0.003 A 
HETATM   27  C16 UNL     1       0.252  53.162 -19.882  1.00  0.00     0.000 A 
HETATM   28  C17 UNL     1       1.103  53.958 -20.643  1.00  0.00     0.003 A 
HETATM   29  C18 UNL     1       1.227  53.728 -22.015  1.00  0.00     0.037 A 
ENDBRANCH  23  24
ENDBRANCH  22  23
ENDBRANCH  10  22
BRANCH   1  30
HETATM   30  C3  UNL     1      -9.072  44.916 -27.285  1.00  0.00     0.133 A 
HETATM   31  N1  UNL     1     -10.268  44.933 -27.969  1.00  0.00    -0.280 N 
HETATM   32  C1  UNL     1     -10.763  45.897 -28.917  1.00  0.00     0.179 C 
HETATM   33  N2  UNL     1     -10.996  43.827 -27.715  1.00  0.00    -0.293 N 
HETATM   34  C2  UNL     1     -10.185  43.158 -26.897  1.00  0.00     0.199 A 
ATOM     35  H2  UNL     1     -11.921  43.569 -28.059  1.00  0.00     0.188 HD
HETATM   36  N3  UNL     1      -8.999  43.772 -26.628  1.00  0.00    -0.336 N 
ATOM     37  H3  UNL     1      -8.230  43.427 -26.052  1.00  0.00     0.168 HD
ENDBRANCH   1  30
TORSDOF 4
ENDMDL
MODEL 7
REMARK minimizedAffinity -8.73095894
REMARK  4 active torsions:
REMARK  status: ('A' for Active; 'I' for Inactive)
REMARK    1  A    between atoms: C3_8  and  C4_9 
REMARK       I    between atoms: N4_17  and  C11_18 
REMARK    2  A    between atoms: C11_18  and  C12_20 
REMARK    3  A    between atoms: C12_20  and  O3_21 
REMARK    4  A    between atoms: O3_21  and  C13_22 
ROOT
HETATM    1  C4  UNL     1      -1.822  69.114 -41.184  1.00  0.00     0.011 A 
HETATM    2  C5  UNL     1      -1.000  68.413 -42.089  1.00  0.00     0.018 A 
HETATM    3  C6  UNL     1       0.273  67.967 -41.717  1.00  0.00     0.039 A 
HETATM    4  C7  UNL     1       0.723  68.216 -40.429  1.00  0.00     0.090 A 
HETATM    5  O1  UNL     1       1.941  67.716 -40.038  1.00  0.00    -0.347 OA
HETATM    6  C8  UNL     1       1.786  66.621 -39.107  1.00  0.00     0.213 C 
HETATM    7  C9  UNL     1       2.716  66.797 -37.873  1.00  0.00     0.265 C 
HETATM    8  C10 UNL     1       4.181  66.851 -38.403  1.00  0.00     0.163 C 
HETATM    9  N4  UNL     1       5.132  66.931 -37.296  1.00  0.00    -0.346 N 
HETATM   10  C11 UNL     1       5.649  65.732 -36.797  1.00  0.00     0.244 C 
HETATM   11  O2  UNL     1       5.352  64.647 -37.298  1.00  0.00    -0.271 OA
HETATM   12  C19 UNL     1       4.913  68.111 -36.467  1.00  0.00     0.156 C 
HETATM   13  C20 UNL     1       3.471  68.095 -35.918  1.00  0.00     0.293 C 
HETATM   14  N5  UNL     1       2.431  67.995 -36.982  1.00  0.00     0.106 N 
HETATM   15  C21 UNL     1       1.092  67.921 -36.308  1.00  0.00     0.369 C 
HETATM   16  C22 UNL     1      -0.023  68.503 -37.186  1.00  0.00     0.230 C 
HETATM   17  O4  UNL     1      -1.213  68.313 -36.953  1.00  0.00    -0.278 OA
HETATM   18  N6  UNL     1       0.479  69.223 -38.260  1.00  0.00    -0.225 NA
HETATM   19  C23 UNL     1      -0.066  68.946 -39.531  1.00  0.00     0.049 A 
HETATM   20  C24 UNL     1      -1.348  69.360 -39.888  1.00  0.00     0.042 A 
HETATM   21  H25 UNL     1       1.500  69.132 -38.256  1.00  0.00     0.136 HD
ENDROOT
BRANCH  10  22
HETATM   22  C12 UNL     1       6.626  65.845 -35.614  1.00  0.00     0.278 C 
BRANCH  22  23
HETATM   23  O3  UNL     1       6.797  64.668 -34.838  1.00  0.00    -0.342 OA
BRANCH  23  24
HETATM   24  C13 UNL     1       5.840  64.374 -33.906  1.00  0.00     0.069 A 
HETATM   25  C14 UNL     1       5.358  65.232 -32.917  1.00  0.00     0.037 A 
HETATM   26  C15 UNL     1       4.375  64.795 -32.023  1.00  0.00     0.003 A 
HETATM   27  C16 UNL     1       3.871  63.498 -32.111  1.00  0.00     0.000 A 
HETATM   28  C17 UNL     1       4.354  62.633 -33.090  1.00  0.00     0.003 A 
HETATM   29  C18 UNL     1       5.337  63.071 -33.980  1.00  0.00     0.037 A 
ENDBRANCH  23  24
ENDBRANCH  22  23
ENDBRANCH  10  22
BRANCH   1  30
HETATM   30  C3  UNL     1      -3.156  69.530 -41.624  1.00  0.00     0.133 A 
HETATM   31  N1  UNL     1      -3.946  70.510 -41.066  1.00  0.00    -0.280 N 
HETATM   32  C1  UNL     1      -3.654  71.409 -39.979  1.00  0.00     0.179 C 
HETATM   33  N2  UNL     1      -5.117  70.633 -41.723  1.00  0.00    -0.293 N 
HETATM   34  C2  UNL     1      -4.975  69.726 -42.689  1.00  0.00     0.199 A 
ATOM     35  H2  UNL     1      -5.903  71.255 -41.533  1.00  0.00     0.188 HD
HETATM   36  N3  UNL     1      -3.791  69.051 -42.680  1.00  0.00    -0.336 N 
ATOM     37  H3  UNL     1      -3.470  68.340 -43.336  1.00  0.00     0.168 HD
ENDBRANCH   1  30
TORSDOF 4
ENDMDL
MODEL 8
REMARK minimizedAffinity -8.66592407
REMARK  4 active torsions:
REMARK  status: ('A' for Active; 'I' for Inactive)
REMARK    1  A    between atoms: C3_8  and  C4_9 
REMARK       I    between atoms: N4_17  and  C11_18 
REMARK    2  A    between atoms: C11_18  and  C12_20 
REMARK    3  A    between atoms: C12_20  and  O3_21 
REMARK    4  A    between atoms: O3_21  and  C13_22 
ROOT
HETATM    1  C4  UNL     1      -0.795  52.457 -24.501  1.00  0.00     0.011 A 
HETATM    2  C5  UNL     1      -2.017  51.792 -24.279  1.00  0.00     0.018 A 
HETATM    3  C6  UNL     1      -2.329  51.242 -23.031  1.00  0.00     0.039 A 
HETATM    4  C7  UNL     1      -1.416  51.364 -21.995  1.00  0.00     0.090 A 
HETATM    5  O1  UNL     1      -1.748  50.889 -20.750  1.00  0.00    -0.347 OA
HETATM    6  C8  UNL     1      -2.004  51.971 -19.825  1.00  0.00     0.213 C 
HETATM    7  C9  UNL     1      -1.252  51.750 -18.482  1.00  0.00     0.265 C 
HETATM    8  C10 UNL     1      -1.758  50.402 -17.886  1.00  0.00     0.163 C 
HETATM    9  N4  UNL     1      -1.162  50.157 -16.575  1.00  0.00    -0.346 N 
HETATM   10  C11 UNL     1      -1.864  50.598 -15.450  1.00  0.00     0.244 C 
HETATM   11  O2  UNL     1      -2.967  51.136 -15.553  1.00  0.00    -0.271 OA
HETATM   12  C19 UNL     1       0.295  50.102 -16.634  1.00  0.00     0.156 C 
HETATM   13  C20 UNL     1       0.838  51.423 -17.216  1.00  0.00     0.293 C 
HETATM   14  N5  UNL     1       0.266  51.763 -18.551  1.00  0.00     0.106 N 
HETATM   15  C21 UNL     1       0.825  53.094 -18.962  1.00  0.00     0.369 C 
HETATM   16  C22 UNL     1       0.908  53.232 -20.488  1.00  0.00     0.230 C 
HETATM   17  O4  UNL     1       1.083  54.312 -21.045  1.00  0.00    -0.278 OA
HETATM   18  N6  UNL     1       0.732  52.017 -21.134  1.00  0.00    -0.225 NA
HETATM   19  C23 UNL     1      -0.179  51.986 -22.210  1.00  0.00     0.049 A 
HETATM   20  C24 UNL     1       0.118  52.567 -23.442  1.00  0.00     0.042 A 
HETATM   21  H25 UNL     1       0.509  51.309 -20.426  1.00  0.00     0.136 HD
ENDROOT
BRANCH  10  22
HETATM   22  C12 UNL     1      -1.200  50.352 -14.084  1.00  0.00     0.278 C 
BRANCH  22  23
HETATM   23  O3  UNL     1      -0.520  51.462 -13.518  1.00  0.00    -0.342 OA
BRANCH  23  24
HETATM   24  C13 UNL     1       0.742  51.258 -13.030  1.00  0.00     0.069 A 
HETATM   25  C14 UNL     1       1.564  52.217 -12.438  1.00  0.00     0.037 A 
HETATM   26  C15 UNL     1       2.840  51.866 -11.984  1.00  0.00     0.003 A 
HETATM   27  C16 UNL     1       3.302  50.558 -12.125  1.00  0.00     0.000 A 
HETATM   28  C17 UNL     1       2.490  49.598 -12.724  1.00  0.00     0.003 A 
HETATM   29  C18 UNL     1       1.217  49.951 -13.177  1.00  0.00     0.037 A 
ENDBRANCH  23  24
ENDBRANCH  22  23
ENDBRANCH  10  22
BRANCH   1  30
HETATM   30  C3  UNL     1      -0.539  53.037 -25.821  1.00  0.00     0.133 A 
HETATM   31  N1  UNL     1      -0.680  52.416 -27.042  1.00  0.00    -0.280 N 
HETATM   32  C1  UNL     1      -1.168  51.095 -27.343  1.00  0.00     0.179 C 
HETATM   33  N2  UNL     1      -0.359  53.245 -28.056  1.00  0.00    -0.293 N 
HETATM   34  C2  UNL     1      -0.060  54.365 -27.399  1.00  0.00     0.199 A 
ATOM     35  H2  UNL     1      -0.349  53.064 -29.060  1.00  0.00     0.188 HD
HETATM   36  N3  UNL     1      -0.178  54.289 -26.043  1.00  0.00    -0.336 N 
ATOM     37  H3  UNL     1      -0.024  55.029 -25.358  1.00  0.00     0.168 HD
ENDBRANCH   1  30
TORSDOF 4
ENDMDL
MODEL 9
REMARK minimizedAffinity -8.65719986
REMARK  4 active torsions:
REMARK  status: ('A' for Active; 'I' for Inactive)
REMARK    1  A    between atoms: C3_8  and  C4_9 
REMARK       I    between atoms: N4_17  and  C11_18 
REMARK    2  A    between atoms: C11_18  and  C12_20 
REMARK    3  A    between atoms: C12_20  and  O3_21 
REMARK    4  A    between atoms: O3_21  and  C13_22 
ROOT
HETATM    1  C4  UNL     1      -2.931  49.436 -23.548  1.00  0.00     0.011 A 
HETATM    2  C5  UNL     1      -3.927  48.823 -22.761  1.00  0.00     0.018 A 
HETATM    3  C6  UNL     1      -3.825  48.777 -21.367  1.00  0.00     0.039 A 
HETATM    4  C7  UNL     1      -2.724  49.355 -20.754  1.00  0.00     0.090 A 
HETATM    5  O1  UNL     1      -2.656  49.376 -19.382  1.00  0.00    -0.347 OA
HETATM    6  C8  UNL     1      -2.866  50.710 -18.865  1.00  0.00     0.213 C 
HETATM    7  C9  UNL     1      -1.784  51.080 -17.810  1.00  0.00     0.265 C 
HETATM    8  C10 UNL     1      -1.885  50.033 -16.659  1.00  0.00     0.163 C 
HETATM    9  N4  UNL     1      -0.955  50.357 -15.580  1.00  0.00    -0.346 N 
HETATM   10  C11 UNL     1      -1.430  51.148 -14.530  1.00  0.00     0.244 C 
HETATM   11  O2  UNL     1      -2.602  51.524 -14.489  1.00  0.00    -0.271 OA
HETATM   12  C19 UNL     1       0.430  50.388 -16.037  1.00  0.00     0.156 C 
HETATM   13  C20 UNL     1       0.575  51.417 -17.177  1.00  0.00     0.293 C 
HETATM   14  N5  UNL     1      -0.355  51.173 -18.318  1.00  0.00     0.106 N 
HETATM   15  C21 UNL     1      -0.155  52.277 -19.314  1.00  0.00     0.369 C 
HETATM   16  C22 UNL     1      -0.471  51.821 -20.745  1.00  0.00     0.230 C 
HETATM   17  O4  UNL     1      -0.628  52.611 -21.671  1.00  0.00    -0.278 OA
HETATM   18  N6  UNL     1      -0.581  50.441 -20.841  1.00  0.00    -0.225 NA
HETATM   19  C23 UNL     1      -1.706  49.932 -21.524  1.00  0.00     0.049 A 
HETATM   20  C24 UNL     1      -1.823  50.012 -22.910  1.00  0.00     0.042 A 
HETATM   21  H25 UNL     1      -0.498  50.048 -19.898  1.00  0.00     0.136 HD
ENDROOT
BRANCH  10  22
HETATM   22  C12 UNL     1      -0.422  51.497 -13.421  1.00  0.00     0.278 C 
BRANCH  22  23
HETATM   23  O3  UNL     1      -0.922  51.451 -12.093  1.00  0.00    -0.342 OA
BRANCH  23  24
HETATM   24  C13 UNL     1      -1.217  52.638 -11.481  1.00  0.00     0.069 A 
HETATM   25  C14 UNL     1      -2.483  53.069 -11.080  1.00  0.00     0.037 A 
HETATM   26  C15 UNL     1      -2.639  54.316 -10.464  1.00  0.00     0.003 A 
HETATM   27  C16 UNL     1      -1.534  55.138 -10.250  1.00  0.00     0.000 A 
HETATM   28  C17 UNL     1      -0.270  54.718 -10.656  1.00  0.00     0.003 A 
HETATM   29  C18 UNL     1      -0.116  53.474 -11.272  1.00  0.00     0.037 A 
ENDBRANCH  23  24
ENDBRANCH  22  23
ENDBRANCH  10  22
BRANCH   1  30
HETATM   30  C3  UNL     1      -3.110  49.478 -25.001  1.00  0.00     0.133 A 
HETATM   31  N1  UNL     1      -3.437  50.575 -25.766  1.00  0.00    -0.280 N 
HETATM   32  C1  UNL     1      -3.614  51.947 -25.365  1.00  0.00     0.179 C 
HETATM   33  N2  UNL     1      -3.520  50.257 -27.074  1.00  0.00    -0.293 N 
HETATM   34  C2  UNL     1      -3.206  48.962 -27.052  1.00  0.00     0.199 A 
ATOM     35  H2  UNL     1      -3.759  50.849 -27.869  1.00  0.00     0.188 HD
HETATM   36  N3  UNL     1      -2.928  48.455 -25.818  1.00  0.00    -0.336 N 
ATOM     37  H3  UNL     1      -2.644  47.505 -25.580  1.00  0.00     0.168 HD
ENDBRANCH   1  30
TORSDOF 4
ENDMDL
