MODEL 1
REMARK minimizedAffinity -9.4313345
REMARK  6 active torsions:
REMARK  status: ('A' for Active; 'I' for Inactive)
REMARK    1  A    between atoms: C2_2  and  C30_32 
REMARK    2  A    between atoms: C3_3  and  C4_4 
REMARK    3  A    between atoms: C4_4  and  C5_6 
REMARK    4  A    between atoms: C5_6  and  C6_7 
REMARK    5  A    between atoms: C6_7  and  C8_9 
REMARK    6  A    between atoms: C30_32  and  O4_34 
ROOT
HETATM    1  C8  UNL     1       0.217  51.728 -23.153  1.00  0.00    -0.001 C 
HETATM    2  C9  UNL     1       0.445  52.508 -21.822  1.00  0.00     0.007 C 
HETATM    3  C10 UNL     1      -0.658  52.078 -20.839  1.00  0.00     0.015 C 
HETATM    4  C11 UNL     1      -1.288  50.825 -21.479  1.00  0.00    -0.013 C 
HETATM    5  C12 UNL     1      -0.372  49.628 -21.077  1.00  0.00     0.021 C 
HETATM    6  C13 UNL     1      -2.696  50.434 -21.060  1.00  0.00    -0.070 C 
HETATM    7  C14 UNL     1      -3.260  50.809 -19.898  1.00  0.00    -0.022 C 
HETATM    8  C15 UNL     1      -4.609  50.308 -19.482  1.00  0.00     0.034 C 
HETATM    9  C16 UNL     1      -4.726  48.831 -19.889  1.00  0.00     0.013 C 
HETATM   10  C17 UNL     1      -5.909  48.059 -19.225  1.00  0.00     0.018 C 
HETATM   11  C18 UNL     1      -5.525  47.642 -17.790  1.00  0.00     0.023 C 
HETATM   12  C19 UNL     1      -7.209  48.881 -19.137  1.00  0.00     0.023 C 
HETATM   13  C20 UNL     1      -6.168  46.757 -19.997  1.00  0.00     0.135 C 
HETATM   14  O2  UNL     1      -7.246  46.163 -19.933  1.00  0.00    -0.297 OA
HETATM   15  C21 UNL     1      -5.011  46.150 -20.763  1.00  0.00     0.080 C 
HETATM   16  C22 UNL     1      -4.233  47.139 -21.640  1.00  0.00     0.017 C 
HETATM   17  C23 UNL     1      -4.597  48.634 -21.443  1.00  0.00    -0.031 C 
HETATM   18  C24 UNL     1      -5.919  48.912 -22.209  1.00  0.00     0.016 C 
HETATM   19  C25 UNL     1      -3.522  49.635 -22.073  1.00  0.00     0.024 C 
HETATM   20  C26 UNL     1      -2.686  49.049 -23.238  1.00  0.00     0.010 C 
HETATM   21  C27 UNL     1      -1.627  49.988 -23.859  1.00  0.00     0.011 C 
HETATM   22  C28 UNL     1      -1.254  51.216 -23.001  1.00  0.00    -0.029 C 
HETATM   23  C29 UNL     1      -2.224  52.387 -23.359  1.00  0.00     0.016 C 
ENDROOT
BRANCH   1  24
HETATM   24  C6  UNL     1       0.624  52.570 -24.398  1.00  0.00    -0.007 C 
HETATM   25  C7  UNL     1      -0.369  53.702 -24.688  1.00  0.00     0.011 C 
BRANCH  24  26
HETATM   26  C5  UNL     1       0.733  51.665 -25.648  1.00  0.00     0.087 C 
BRANCH  26  27
HETATM   27  C4  UNL     1      -0.090  52.179 -26.817  1.00  0.00     0.150 C 
HETATM   28  O1  UNL     1       0.044  53.325 -27.240  1.00  0.00    -0.293 OA
BRANCH  27  29
HETATM   29  C3  UNL     1      -1.085  51.237 -27.402  1.00  0.00     0.063 C 
HETATM   30  C2  UNL     1      -2.407  51.256 -27.148  1.00  0.00     0.015 C 
HETATM   31  C1  UNL     1      -3.143  52.246 -26.297  1.00  0.00     0.055 C 
BRANCH  30  32
HETATM   32  C30 UNL     1      -3.184  50.193 -27.823  1.00  0.00     0.171 C 
HETATM   33  O3  UNL     1      -3.532  49.134 -27.332  1.00  0.00    -0.646 OA
BRANCH  32  34
HETATM   34  O4  UNL     1      -3.504  50.509 -29.086  1.00  0.00    -0.773 OA
HETATM   35  H44 UNL     1      -4.016  49.737 -29.404  1.00  0.00     0.167 HD
ENDBRANCH  32  34
ENDBRANCH  30  32
ENDBRANCH  27  29
ENDBRANCH  26  27
ENDBRANCH  24  26
ENDBRANCH   1  24
TORSDOF 6
ENDMDL
MODEL 2
REMARK minimizedAffinity -9.41031647
REMARK  6 active torsions:
REMARK  status: ('A' for Active; 'I' for Inactive)
REMARK    1  A    between atoms: C2_2  and  C30_32 
REMARK    2  A    between atoms: C3_3  and  C4_4 
REMARK    3  A    between atoms: C4_4  and  C5_6 
REMARK    4  A    between atoms: C5_6  and  C6_7 
REMARK    5  A    between atoms: C6_7  and  C8_9 
REMARK    6  A    between atoms: C30_32  and  O4_34 
ROOT
HETATM    1  C8  UNL     1      -0.817  50.321 -22.187  1.00  0.00    -0.001 C 
HETATM    2  C9  UNL     1      -0.538  49.877 -20.719  1.00  0.00     0.007 C 
HETATM    3  C10 UNL     1      -1.826  49.233 -20.177  1.00  0.00     0.015 C 
HETATM    4  C11 UNL     1      -2.703  49.001 -21.424  1.00  0.00    -0.013 C 
HETATM    5  C12 UNL     1      -2.217  47.658 -22.051  1.00  0.00     0.021 C 
HETATM    6  C13 UNL     1      -4.204  48.853 -21.230  1.00  0.00    -0.070 C 
HETATM    7  C14 UNL     1      -4.772  48.477 -20.070  1.00  0.00    -0.022 C 
HETATM    8  C15 UNL     1      -6.248  48.240 -19.959  1.00  0.00     0.034 C 
HETATM    9  C16 UNL     1      -6.728  47.552 -21.247  1.00  0.00     0.013 C 
HETATM   10  C17 UNL     1      -8.150  46.917 -21.160  1.00  0.00     0.018 C 
HETATM   11  C18 UNL     1      -8.072  45.549 -20.450  1.00  0.00     0.023 C 
HETATM   12  C19 UNL     1      -9.167  47.782 -20.391  1.00  0.00     0.023 C 
HETATM   13  C20 UNL     1      -8.672  46.636 -22.577  1.00  0.00     0.135 C 
HETATM   14  O2  UNL     1      -9.874  46.498 -22.815  1.00  0.00    -0.297 OA
HETATM   15  C21 UNL     1      -7.651  46.418 -23.674  1.00  0.00     0.080 C 
HETATM   16  C22 UNL     1      -6.528  47.461 -23.722  1.00  0.00     0.017 C 
HETATM   17  C23 UNL     1      -6.476  48.440 -22.520  1.00  0.00    -0.031 C 
HETATM   18  C24 UNL     1      -7.566  49.525 -22.737  1.00  0.00     0.016 C 
HETATM   19  C25 UNL     1      -5.095  49.238 -22.413  1.00  0.00     0.024 C 
HETATM   20  C26 UNL     1      -4.327  49.397 -23.749  1.00  0.00     0.010 C 
HETATM   21  C27 UNL     1      -2.980  50.152 -23.677  1.00  0.00     0.011 C 
HETATM   22  C28 UNL     1      -2.381  50.291 -22.262  1.00  0.00    -0.029 C 
HETATM   23  C29 UNL     1      -2.931  51.602 -21.614  1.00  0.00     0.016 C 
ENDROOT
BRANCH   1  24
HETATM   24  C6  UNL     1      -0.045  51.621 -22.560  1.00  0.00    -0.007 C 
HETATM   25  C7  UNL     1       0.530  52.333 -21.329  1.00  0.00     0.011 C 
BRANCH  24  26
HETATM   26  C5  UNL     1      -0.970  52.600 -23.319  1.00  0.00     0.087 C 
BRANCH  26  27
HETATM   27  C4  UNL     1      -0.556  52.795 -24.767  1.00  0.00     0.150 C 
HETATM   28  O1  UNL     1      -1.287  53.369 -25.571  1.00  0.00    -0.293 OA
BRANCH  27  29
HETATM   29  C3  UNL     1       0.763  52.230 -25.170  1.00  0.00     0.063 C 
HETATM   30  C2  UNL     1       1.194  52.108 -26.439  1.00  0.00     0.015 C 
HETATM   31  C1  UNL     1       0.484  52.564 -27.677  1.00  0.00     0.055 C 
BRANCH  30  32
HETATM   32  C30 UNL     1       2.528  51.482 -26.583  1.00  0.00     0.171 C 
HETATM   33  O3  UNL     1       2.945  50.525 -25.955  1.00  0.00    -0.646 OA
BRANCH  32  34
HETATM   34  O4  UNL     1       3.278  52.075 -27.523  1.00  0.00    -0.773 OA
HETATM   35  H44 UNL     1       4.113  51.562 -27.520  1.00  0.00     0.167 HD
ENDBRANCH  32  34
ENDBRANCH  30  32
ENDBRANCH  27  29
ENDBRANCH  26  27
ENDBRANCH  24  26
ENDBRANCH   1  24
TORSDOF 6
ENDMDL
MODEL 3
REMARK minimizedAffinity -9.39705181
REMARK  6 active torsions:
REMARK  status: ('A' for Active; 'I' for Inactive)
REMARK    1  A    between atoms: C2_2  and  C30_32 
REMARK    2  A    between atoms: C3_3  and  C4_4 
REMARK    3  A    between atoms: C4_4  and  C5_6 
REMARK    4  A    between atoms: C5_6  and  C6_7 
REMARK    5  A    between atoms: C6_7  and  C8_9 
REMARK    6  A    between atoms: C30_32  and  O4_34 
ROOT
HETATM    1  C8  UNL     1      -3.779  50.553 -24.553  1.00  0.00    -0.001 C 
HETATM    2  C9  UNL     1      -5.282  50.644 -24.150  1.00  0.00     0.007 C 
HETATM    3  C10 UNL     1      -5.361  50.498 -22.620  1.00  0.00     0.015 C 
HETATM    4  C11 UNL     1      -3.909  50.673 -22.134  1.00  0.00    -0.013 C 
HETATM    5  C12 UNL     1      -3.665  52.211 -22.041  1.00  0.00     0.021 C 
HETATM    6  C13 UNL     1      -3.533  50.107 -20.774  1.00  0.00    -0.070 C 
HETATM    7  C14 UNL     1      -4.424  49.865 -19.795  1.00  0.00    -0.022 C 
HETATM    8  C15 UNL     1      -3.991  49.410 -18.434  1.00  0.00     0.034 C 
HETATM    9  C16 UNL     1      -2.702  50.157 -18.059  1.00  0.00     0.013 C 
HETATM   10  C17 UNL     1      -2.311  50.074 -16.550  1.00  0.00     0.018 C 
HETATM   11  C18 UNL     1      -3.144  51.086 -15.735  1.00  0.00     0.023 C 
HETATM   12  C19 UNL     1      -2.536  48.682 -15.931  1.00  0.00     0.023 C 
HETATM   13  C20 UNL     1      -0.842  50.489 -16.379  1.00  0.00     0.135 C 
HETATM   14  O2  UNL     1      -0.183  50.162 -15.390  1.00  0.00    -0.297 OA
HETATM   15  C21 UNL     1      -0.247  51.418 -17.416  1.00  0.00     0.080 C 
HETATM   16  C22 UNL     1      -0.514  51.012 -18.870  1.00  0.00     0.017 C 
HETATM   17  C23 UNL     1      -1.531  49.855 -19.064  1.00  0.00    -0.031 C 
HETATM   18  C24 UNL     1      -0.798  48.518 -18.769  1.00  0.00     0.016 C 
HETATM   19  C25 UNL     1      -2.065  49.727 -20.565  1.00  0.00     0.024 C 
HETATM   20  C26 UNL     1      -1.112  50.290 -21.648  1.00  0.00     0.010 C 
HETATM   21  C27 UNL     1      -1.607  50.194 -23.110  1.00  0.00     0.011 C 
HETATM   22  C28 UNL     1      -3.120  49.934 -23.275  1.00  0.00    -0.029 C 
HETATM   23  C29 UNL     1      -3.361  48.390 -23.293  1.00  0.00     0.016 C 
ENDROOT
BRANCH   1  24
HETATM   24  C6  UNL     1      -3.586  49.868 -25.938  1.00  0.00    -0.007 C 
HETATM   25  C7  UNL     1      -4.337  48.534 -26.039  1.00  0.00     0.011 C 
BRANCH  24  26
HETATM   26  C5  UNL     1      -2.085  49.620 -26.213  1.00  0.00     0.087 C 
BRANCH  26  27
HETATM   27  C4  UNL     1      -1.354  50.876 -26.654  1.00  0.00     0.150 C 
HETATM   28  O1  UNL     1      -1.943  51.795 -27.218  1.00  0.00    -0.293 OA
BRANCH  27  29
HETATM   29  C3  UNL     1       0.113  50.924 -26.398  1.00  0.00     0.063 C 
HETATM   30  C2  UNL     1       1.023  51.467 -27.228  1.00  0.00     0.015 C 
HETATM   31  C1  UNL     1       0.751  52.179 -28.518  1.00  0.00     0.055 C 
BRANCH  30  32
HETATM   32  C30 UNL     1       2.425  51.358 -26.767  1.00  0.00     0.171 C 
HETATM   33  O3  UNL     1       2.830  50.666 -25.850  1.00  0.00    -0.646 OA
BRANCH  32  34
HETATM   34  O4  UNL     1       3.267  52.113 -27.489  1.00  0.00    -0.773 OA
HETATM   35  H44 UNL     1       4.145  51.939 -27.091  1.00  0.00     0.167 HD
ENDBRANCH  32  34
ENDBRANCH  30  32
ENDBRANCH  27  29
ENDBRANCH  26  27
ENDBRANCH  24  26
ENDBRANCH   1  24
TORSDOF 6
ENDMDL
MODEL 4
REMARK minimizedAffinity -9.35708714
REMARK  6 active torsions:
REMARK  status: ('A' for Active; 'I' for Inactive)
REMARK    1  A    between atoms: C2_2  and  C30_32 
REMARK    2  A    between atoms: C3_3  and  C4_4 
REMARK    3  A    between atoms: C4_4  and  C5_6 
REMARK    4  A    between atoms: C5_6  and  C6_7 
REMARK    5  A    between atoms: C6_7  and  C8_9 
REMARK    6  A    between atoms: C30_32  and  O4_34 
ROOT
HETATM    1  C8  UNL     1       0.104  51.682 -20.687  1.00  0.00    -0.001 C 
HETATM    2  C9  UNL     1      -0.405  52.426 -19.415  1.00  0.00     0.007 C 
HETATM    3  C10 UNL     1      -1.708  51.740 -18.969  1.00  0.00     0.015 C 
HETATM    4  C11 UNL     1      -1.748  50.419 -19.763  1.00  0.00    -0.013 C 
HETATM    5  C12 UNL     1      -0.866  49.408 -18.968  1.00  0.00     0.021 C 
HETATM    6  C13 UNL     1      -3.093  49.738 -19.958  1.00  0.00    -0.070 C 
HETATM    7  C14 UNL     1      -4.154  49.938 -19.154  1.00  0.00    -0.022 C 
HETATM    8  C15 UNL     1      -5.424  49.160 -19.322  1.00  0.00     0.034 C 
HETATM    9  C16 UNL     1      -5.063  47.711 -19.681  1.00  0.00     0.013 C 
HETATM   10  C17 UNL     1      -6.235  46.689 -19.544  1.00  0.00     0.018 C 
HETATM   11  C18 UNL     1      -6.411  46.287 -18.065  1.00  0.00     0.023 C 
HETATM   12  C19 UNL     1      -7.588  47.233 -20.041  1.00  0.00     0.023 C 
HETATM   13  C20 UNL     1      -5.881  45.401 -20.302  1.00  0.00     0.135 C 
HETATM   14  O2  UNL     1      -6.746  44.603 -20.671  1.00  0.00    -0.297 OA
HETATM   15  C21 UNL     1      -4.415  45.072 -20.488  1.00  0.00     0.080 C 
HETATM   16  C22 UNL     1      -3.556  46.236 -20.997  1.00  0.00     0.017 C 
HETATM   17  C23 UNL     1      -4.260  47.619 -21.030  1.00  0.00    -0.031 C 
HETATM   18  C24 UNL     1      -5.167  47.667 -22.290  1.00  0.00     0.016 C 
HETATM   19  C25 UNL     1      -3.243  48.842 -21.190  1.00  0.00     0.024 C 
HETATM   20  C26 UNL     1      -1.899  48.489 -21.875  1.00  0.00     0.010 C 
HETATM   21  C27 UNL     1      -0.888  49.648 -22.032  1.00  0.00     0.011 C 
HETATM   22  C28 UNL     1      -1.161  50.883 -21.146  1.00  0.00    -0.029 C 
HETATM   23  C29 UNL     1      -2.105  51.855 -21.923  1.00  0.00     0.016 C 
ENDROOT
BRANCH   1  24
HETATM   24  C6  UNL     1       0.818  52.647 -21.680  1.00  0.00    -0.007 C 
HETATM   25  C7  UNL     1       0.824  54.098 -21.183  1.00  0.00     0.011 C 
BRANCH  24  26
HETATM   26  C5  UNL     1       0.136  52.595 -23.067  1.00  0.00     0.087 C 
BRANCH  26  27
HETATM   27  C4  UNL     1       0.691  53.627 -24.033  1.00  0.00     0.150 C 
HETATM   28  O1  UNL     1       1.609  54.378 -23.710  1.00  0.00    -0.293 OA
BRANCH  27  29
HETATM   29  C3  UNL     1       0.048  53.704 -25.375  1.00  0.00     0.063 C 
HETATM   30  C2  UNL     1       0.357  52.919 -26.424  1.00  0.00     0.015 C 
HETATM   31  C1  UNL     1       1.340  51.788 -26.441  1.00  0.00     0.055 C 
BRANCH  30  32
HETATM   32  C30 UNL     1      -0.398  53.214 -27.662  1.00  0.00     0.171 C 
HETATM   33  O3  UNL     1      -1.230  54.092 -27.807  1.00  0.00    -0.646 OA
BRANCH  32  34
HETATM   34  O4  UNL     1      -0.066  52.401 -28.676  1.00  0.00    -0.773 OA
HETATM   35  H44 UNL     1      -0.621  52.709 -29.422  1.00  0.00     0.167 HD
ENDBRANCH  32  34
ENDBRANCH  30  32
ENDBRANCH  27  29
ENDBRANCH  26  27
ENDBRANCH  24  26
ENDBRANCH   1  24
TORSDOF 6
ENDMDL
MODEL 5
REMARK minimizedAffinity -9.3520155
REMARK  6 active torsions:
REMARK  status: ('A' for Active; 'I' for Inactive)
REMARK    1  A    between atoms: C2_2  and  C30_32 
REMARK    2  A    between atoms: C3_3  and  C4_4 
REMARK    3  A    between atoms: C4_4  and  C5_6 
REMARK    4  A    between atoms: C5_6  and  C6_7 
REMARK    5  A    between atoms: C6_7  and  C8_9 
REMARK    6  A    between atoms: C30_32  and  O4_34 
ROOT
HETATM    1  C8  UNL     1      -0.073  50.952 -18.441  1.00  0.00    -0.001 C 
HETATM    2  C9  UNL     1      -1.430  50.199 -18.295  1.00  0.00     0.007 C 
HETATM    3  C10 UNL     1      -2.085  50.151 -19.687  1.00  0.00     0.015 C 
HETATM    4  C11 UNL     1      -0.962  50.559 -20.663  1.00  0.00    -0.013 C 
HETATM    5  C12 UNL     1      -0.134  49.265 -20.934  1.00  0.00     0.021 C 
HETATM    6  C13 UNL     1      -1.357  51.098 -22.028  1.00  0.00    -0.070 C 
HETATM    7  C14 UNL     1      -2.542  50.848 -22.614  1.00  0.00    -0.022 C 
HETATM    8  C15 UNL     1      -2.842  51.311 -24.008  1.00  0.00     0.034 C 
HETATM    9  C16 UNL     1      -1.574  51.144 -24.859  1.00  0.00     0.013 C 
HETATM   10  C17 UNL     1      -1.801  51.240 -26.400  1.00  0.00     0.018 C 
HETATM   11  C18 UNL     1      -2.346  49.898 -26.935  1.00  0.00     0.023 C 
HETATM   12  C19 UNL     1      -2.796  52.342 -26.810  1.00  0.00     0.023 C 
HETATM   13  C20 UNL     1      -0.454  51.467 -27.102  1.00  0.00     0.135 C 
HETATM   14  O2  UNL     1      -0.382  51.945 -28.237  1.00  0.00    -0.297 OA
HETATM   15  C21 UNL     1       0.797  50.978 -26.403  1.00  0.00     0.080 C 
HETATM   16  C22 UNL     1       0.900  51.370 -24.924  1.00  0.00     0.017 C 
HETATM   17  C23 UNL     1      -0.377  52.004 -24.312  1.00  0.00    -0.031 C 
HETATM   18  C24 UNL     1      -0.436  53.491 -24.757  1.00  0.00     0.016 C 
HETATM   19  C25 UNL     1      -0.363  52.039 -22.714  1.00  0.00     0.024 C 
HETATM   20  C26 UNL     1       1.047  52.034 -22.072  1.00  0.00     0.010 C 
HETATM   21  C27 UNL     1       1.095  52.052 -20.527  1.00  0.00     0.011 C 
HETATM   22  C28 UNL     1      -0.225  51.666 -19.825  1.00  0.00    -0.029 C 
HETATM   23  C29 UNL     1      -1.079  52.959 -19.623  1.00  0.00     0.016 C 
ENDROOT
BRANCH   1  24
HETATM   24  C6  UNL     1       0.272  51.783 -17.170  1.00  0.00    -0.007 C 
HETATM   25  C7  UNL     1       1.678  52.394 -17.235  1.00  0.00     0.011 C 
BRANCH  24  26
HETATM   26  C5  UNL     1       0.166  50.902 -15.903  1.00  0.00     0.087 C 
BRANCH  26  27
HETATM   27  C4  UNL     1       0.919  51.483 -14.720  1.00  0.00     0.150 C 
HETATM   28  O1  UNL     1       0.726  52.636 -14.342  1.00  0.00    -0.293 OA
BRANCH  27  29
HETATM   29  C3  UNL     1       1.921  50.598 -14.062  1.00  0.00     0.063 C 
HETATM   30  C2  UNL     1       3.253  50.679 -14.238  1.00  0.00     0.015 C 
HETATM   31  C1  UNL     1       3.991  51.692 -15.057  1.00  0.00     0.055 C 
BRANCH  30  32
HETATM   32  C30 UNL     1       4.038  49.662 -13.502  1.00  0.00     0.171 C 
HETATM   33  O3  UNL     1       5.107  49.843 -12.945  1.00  0.00    -0.646 OA
BRANCH  32  34
HETATM   34  O4  UNL     1       3.441  48.462 -13.483  1.00  0.00    -0.773 OA
HETATM   35  H44 UNL     1       4.052  47.899 -12.963  1.00  0.00     0.167 HD
ENDBRANCH  32  34
ENDBRANCH  30  32
ENDBRANCH  27  29
ENDBRANCH  26  27
ENDBRANCH  24  26
ENDBRANCH   1  24
TORSDOF 6
ENDMDL
MODEL 6
REMARK minimizedAffinity -9.18135357
REMARK  6 active torsions:
REMARK  status: ('A' for Active; 'I' for Inactive)
REMARK    1  A    between atoms: C2_2  and  C30_32 
REMARK    2  A    between atoms: C3_3  and  C4_4 
REMARK    3  A    between atoms: C4_4  and  C5_6 
REMARK    4  A    between atoms: C5_6  and  C6_7 
REMARK    5  A    between atoms: C6_7  and  C8_9 
REMARK    6  A    between atoms: C30_32  and  O4_34 
ROOT
HETATM    1  C8  UNL     1      -2.501  51.437 -24.385  1.00  0.00    -0.001 C 
HETATM    2  C9  UNL     1      -3.624  52.466 -24.718  1.00  0.00     0.007 C 
HETATM    3  C10 UNL     1      -4.935  51.932 -24.113  1.00  0.00     0.015 C 
HETATM    4  C11 UNL     1      -4.496  50.803 -23.160  1.00  0.00    -0.013 C 
HETATM    5  C12 UNL     1      -4.086  51.499 -21.825  1.00  0.00     0.021 C 
HETATM    6  C13 UNL     1      -5.517  49.742 -22.782  1.00  0.00    -0.070 C 
HETATM    7  C14 UNL     1      -6.848  49.932 -22.847  1.00  0.00    -0.022 C 
HETATM    8  C15 UNL     1      -7.813  48.894 -22.360  1.00  0.00     0.034 C 
HETATM    9  C16 UNL     1      -7.242  48.260 -21.082  1.00  0.00     0.013 C 
HETATM   10  C17 UNL     1      -8.265  47.423 -20.252  1.00  0.00     0.018 C 
HETATM   11  C18 UNL     1      -9.145  48.364 -19.401  1.00  0.00     0.023 C 
HETATM   12  C19 UNL     1      -9.206  46.564 -21.117  1.00  0.00     0.023 C 
HETATM   13  C20 UNL     1      -7.508  46.528 -19.260  1.00  0.00     0.135 C 
HETATM   14  O2  UNL     1      -8.021  45.522 -18.765  1.00  0.00    -0.297 OA
HETATM   15  C21 UNL     1      -6.134  46.980 -18.809  1.00  0.00     0.080 C 
HETATM   16  C22 UNL     1      -5.200  47.420 -19.943  1.00  0.00     0.017 C 
HETATM   17  C23 UNL     1      -5.863  47.552 -21.340  1.00  0.00    -0.031 C 
HETATM   18  C24 UNL     1      -6.006  46.126 -21.939  1.00  0.00     0.016 C 
HETATM   19  C25 UNL     1      -4.973  48.367 -22.388  1.00  0.00     0.024 C 
HETATM   20  C26 UNL     1      -3.450  48.355 -22.101  1.00  0.00     0.010 C 
HETATM   21  C27 UNL     1      -2.563  49.147 -23.089  1.00  0.00     0.011 C 
HETATM   22  C28 UNL     1      -3.314  50.164 -23.976  1.00  0.00    -0.029 C 
HETATM   23  C29 UNL     1      -3.783  49.438 -25.277  1.00  0.00     0.016 C 
ENDROOT
BRANCH   1  24
HETATM   24  C6  UNL     1      -1.435  51.350 -25.517  1.00  0.00    -0.007 C 
HETATM   25  C7  UNL     1      -1.448  49.991 -26.228  1.00  0.00     0.011 C 
BRANCH  24  26
HETATM   26  C5  UNL     1      -0.021  51.605 -24.947  1.00  0.00     0.087 C 
BRANCH  26  27
HETATM   27  C4  UNL     1       0.370  53.072 -24.982  1.00  0.00     0.150 C 
HETATM   28  O1  UNL     1       0.231  53.749 -25.998  1.00  0.00    -0.293 OA
BRANCH  27  29
HETATM   29  C3  UNL     1       0.958  53.639 -23.735  1.00  0.00     0.063 C 
HETATM   30  C2  UNL     1       0.717  53.183 -22.492  1.00  0.00     0.015 C 
HETATM   31  C1  UNL     1      -0.120  51.998 -22.117  1.00  0.00     0.055 C 
BRANCH  30  32
HETATM   32  C30 UNL     1       1.392  53.937 -21.413  1.00  0.00     0.171 C 
HETATM   33  O3  UNL     1       1.380  53.662 -20.226  1.00  0.00    -0.646 OA
BRANCH  32  34
HETATM   34  O4  UNL     1       2.068  55.001 -21.870  1.00  0.00    -0.773 OA
HETATM   35  H44 UNL     1       2.468  55.394 -21.067  1.00  0.00     0.167 HD
ENDBRANCH  32  34
ENDBRANCH  30  32
ENDBRANCH  27  29
ENDBRANCH  26  27
ENDBRANCH  24  26
ENDBRANCH   1  24
TORSDOF 6
ENDMDL
MODEL 7
REMARK minimizedAffinity -9.11789417
REMARK  6 active torsions:
REMARK  status: ('A' for Active; 'I' for Inactive)
REMARK    1  A    between atoms: C2_2  and  C30_32 
REMARK    2  A    between atoms: C3_3  and  C4_4 
REMARK    3  A    between atoms: C4_4  and  C5_6 
REMARK    4  A    between atoms: C5_6  and  C6_7 
REMARK    5  A    between atoms: C6_7  and  C8_9 
REMARK    6  A    between atoms: C30_32  and  O4_34 
ROOT
HETATM    1  C8  UNL     1      -2.767  50.813 -24.870  1.00  0.00    -0.001 C 
HETATM    2  C9  UNL     1      -3.800  51.969 -25.032  1.00  0.00     0.007 C 
HETATM    3  C10 UNL     1      -4.985  51.664 -24.100  1.00  0.00     0.015 C 
HETATM    4  C11 UNL     1      -4.477  50.543 -23.172  1.00  0.00    -0.013 C 
HETATM    5  C12 UNL     1      -3.679  51.251 -22.034  1.00  0.00     0.021 C 
HETATM    6  C13 UNL     1      -5.504  49.662 -22.478  1.00  0.00    -0.070 C 
HETATM    7  C14 UNL     1      -6.777  50.035 -22.256  1.00  0.00    -0.022 C 
HETATM    8  C15 UNL     1      -7.721  49.176 -21.471  1.00  0.00     0.034 C 
HETATM    9  C16 UNL     1      -6.948  48.544 -20.304  1.00  0.00     0.013 C 
HETATM   10  C17 UNL     1      -7.840  47.912 -19.191  1.00  0.00     0.018 C 
HETATM   11  C18 UNL     1      -8.369  49.016 -18.251  1.00  0.00     0.023 C 
HETATM   12  C19 UNL     1      -9.059  47.145 -19.738  1.00  0.00     0.023 C 
HETATM   13  C20 UNL     1      -6.987  46.978 -18.319  1.00  0.00     0.135 C 
HETATM   14  O2  UNL     1      -7.489  46.087 -17.632  1.00  0.00    -0.297 OA
HETATM   15  C21 UNL     1      -5.501  47.256 -18.235  1.00  0.00     0.080 C 
HETATM   16  C22 UNL     1      -4.814  47.490 -19.586  1.00  0.00     0.017 C 
HETATM   17  C23 UNL     1      -5.767  47.632 -20.802  1.00  0.00    -0.031 C 
HETATM   18  C24 UNL     1      -6.226  46.209 -21.222  1.00  0.00     0.016 C 
HETATM   19  C25 UNL     1      -5.057  48.249 -22.095  1.00  0.00     0.024 C 
HETATM   20  C26 UNL     1      -3.524  48.038 -22.161  1.00  0.00     0.010 C 
HETATM   21  C27 UNL     1      -2.804  48.636 -23.392  1.00  0.00     0.011 C 
HETATM   22  C28 UNL     1      -3.611  49.695 -24.173  1.00  0.00    -0.029 C 
HETATM   23  C29 UNL     1      -4.463  48.968 -25.263  1.00  0.00     0.016 C 
ENDROOT
BRANCH   1  24
HETATM   24  C6  UNL     1      -2.019  50.509 -26.202  1.00  0.00    -0.007 C 
HETATM   25  C7  UNL     1      -2.338  49.109 -26.744  1.00  0.00     0.011 C 
BRANCH  24  26
HETATM   26  C5  UNL     1      -0.491  50.634 -26.004  1.00  0.00     0.087 C 
BRANCH  26  27
HETATM   27  C4  UNL     1       0.146  51.624 -26.963  1.00  0.00     0.150 C 
HETATM   28  O1  UNL     1       0.490  51.290 -28.094  1.00  0.00    -0.293 OA
BRANCH  27  29
HETATM   29  C3  UNL     1       0.360  53.008 -26.454  1.00  0.00     0.063 C 
HETATM   30  C2  UNL     1       0.490  53.340 -25.156  1.00  0.00     0.015 C 
HETATM   31  C1  UNL     1       0.513  52.403 -23.987  1.00  0.00     0.055 C 
BRANCH  30  32
HETATM   32  C30 UNL     1       0.658  54.789 -24.900  1.00  0.00     0.171 C 
HETATM   33  O3  UNL     1       0.192  55.696 -25.566  1.00  0.00    -0.646 OA
BRANCH  32  34
HETATM   34  O4  UNL     1       1.395  55.038 -23.808  1.00  0.00    -0.773 OA
HETATM   35  H44 UNL     1       1.415  56.016 -23.752  1.00  0.00     0.167 HD
ENDBRANCH  32  34
ENDBRANCH  30  32
ENDBRANCH  27  29
ENDBRANCH  26  27
ENDBRANCH  24  26
ENDBRANCH   1  24
TORSDOF 6
ENDMDL
MODEL 8
REMARK minimizedAffinity -9.1125946
REMARK  6 active torsions:
REMARK  status: ('A' for Active; 'I' for Inactive)
REMARK    1  A    between atoms: C2_2  and  C30_32 
REMARK    2  A    between atoms: C3_3  and  C4_4 
REMARK    3  A    between atoms: C4_4  and  C5_6 
REMARK    4  A    between atoms: C5_6  and  C6_7 
REMARK    5  A    between atoms: C6_7  and  C8_9 
REMARK    6  A    between atoms: C30_32  and  O4_34 
ROOT
HETATM    1  C8  UNL     1      -0.593  50.165 -18.014  1.00  0.00    -0.001 C 
HETATM    2  C9  UNL     1      -1.615  48.991 -17.937  1.00  0.00     0.007 C 
HETATM    3  C10 UNL     1      -2.221  48.813 -19.340  1.00  0.00     0.015 C 
HETATM    4  C11 UNL     1      -1.308  49.636 -20.270  1.00  0.00    -0.013 C 
HETATM    5  C12 UNL     1      -0.092  48.718 -20.606  1.00  0.00     0.021 C 
HETATM    6  C13 UNL     1      -1.868  50.095 -21.606  1.00  0.00    -0.070 C 
HETATM    7  C14 UNL     1      -2.902  49.497 -22.226  1.00  0.00    -0.022 C 
HETATM    8  C15 UNL     1      -3.347  49.919 -23.594  1.00  0.00     0.034 C 
HETATM    9  C16 UNL     1      -2.102  50.244 -24.432  1.00  0.00     0.013 C 
HETATM   10  C17 UNL     1      -2.355  50.355 -25.968  1.00  0.00     0.018 C 
HETATM   11  C18 UNL     1      -2.417  48.945 -26.594  1.00  0.00     0.023 C 
HETATM   12  C19 UNL     1      -3.667  51.079 -26.327  1.00  0.00     0.023 C 
HETATM   13  C20 UNL     1      -1.168  51.068 -26.633  1.00  0.00     0.135 C 
HETATM   14  O2  UNL     1      -1.268  51.613 -27.734  1.00  0.00    -0.297 OA
HETATM   15  C21 UNL     1       0.178  50.988 -25.943  1.00  0.00     0.080 C 
HETATM   16  C22 UNL     1       0.149  51.297 -24.442  1.00  0.00     0.017 C 
HETATM   17  C23 UNL     1      -1.264  51.422 -23.814  1.00  0.00    -0.031 C 
HETATM   18  C24 UNL     1      -1.824  52.827 -24.168  1.00  0.00     0.016 C 
HETATM   19  C25 UNL     1      -1.255  51.358 -22.216  1.00  0.00     0.024 C 
HETATM   20  C26 UNL     1       0.077  51.790 -21.553  1.00  0.00     0.010 C 
HETATM   21  C27 UNL     1       0.123  51.725 -20.009  1.00  0.00     0.011 C 
HETATM   22  C28 UNL     1      -0.985  50.872 -19.354  1.00  0.00    -0.029 C 
HETATM   23  C29 UNL     1      -2.224  51.785 -19.088  1.00  0.00     0.016 C 
ENDROOT
BRANCH   1  24
HETATM   24  C6  UNL     1      -0.544  50.982 -16.688  1.00  0.00    -0.007 C 
HETATM   25  C7  UNL     1       0.873  51.465 -16.352  1.00  0.00     0.011 C 
BRANCH  24  26
HETATM   26  C5  UNL     1      -1.077  50.133 -15.511  1.00  0.00     0.087 C 
BRANCH  26  27
HETATM   27  C4  UNL     1      -0.842  50.789 -14.161  1.00  0.00     0.150 C 
HETATM   28  O1  UNL     1       0.081  50.438 -13.431  1.00  0.00    -0.293 OA
BRANCH  27  29
HETATM   29  C3  UNL     1      -1.803  51.853 -13.756  1.00  0.00     0.063 C 
HETATM   30  C2  UNL     1      -2.902  51.654 -13.005  1.00  0.00     0.015 C 
HETATM   31  C1  UNL     1      -3.341  50.365 -12.379  1.00  0.00     0.055 C 
BRANCH  30  32
HETATM   32  C30 UNL     1      -3.719  52.865 -12.768  1.00  0.00     0.171 C 
HETATM   33  O3  UNL     1      -3.977  53.358 -11.685  1.00  0.00    -0.646 OA
BRANCH  32  34
HETATM   34  O4  UNL     1      -4.168  53.416 -13.905  1.00  0.00    -0.773 OA
HETATM   35  H44 UNL     1      -4.674  54.200 -13.607  1.00  0.00     0.167 HD
ENDBRANCH  32  34
ENDBRANCH  30  32
ENDBRANCH  27  29
ENDBRANCH  26  27
ENDBRANCH  24  26
ENDBRANCH   1  24
TORSDOF 6
ENDMDL
MODEL 9
REMARK minimizedAffinity -9.10065556
REMARK  6 active torsions:
REMARK  status: ('A' for Active; 'I' for Inactive)
REMARK    1  A    between atoms: C2_2  and  C30_32 
REMARK    2  A    between atoms: C3_3  and  C4_4 
REMARK    3  A    between atoms: C4_4  and  C5_6 
REMARK    4  A    between atoms: C5_6  and  C6_7 
REMARK    5  A    between atoms: C6_7  and  C8_9 
REMARK    6  A    between atoms: C30_32  and  O4_34 
ROOT
HETATM    1  C8  UNL     1      -5.875  49.542 -21.556  1.00  0.00    -0.001 C 
HETATM    2  C9  UNL     1      -5.258  50.305 -20.345  1.00  0.00     0.007 C 
HETATM    3  C10 UNL     1      -3.997  51.030 -20.848  1.00  0.00     0.015 C 
HETATM    4  C11 UNL     1      -4.094  50.964 -22.385  1.00  0.00    -0.013 C 
HETATM    5  C12 UNL     1      -5.022  52.143 -22.812  1.00  0.00     0.021 C 
HETATM    6  C13 UNL     1      -2.816  51.124 -23.193  1.00  0.00    -0.070 C 
HETATM    7  C14 UNL     1      -1.712  51.738 -22.729  1.00  0.00    -0.022 C 
HETATM    8  C15 UNL     1      -0.515  51.966 -23.602  1.00  0.00     0.034 C 
HETATM    9  C16 UNL     1      -1.005  52.343 -25.009  1.00  0.00     0.013 C 
HETATM   10  C17 UNL     1       0.087  52.956 -25.941  1.00  0.00     0.018 C 
HETATM   11  C18 UNL     1       0.288  54.448 -25.604  1.00  0.00     0.023 C 
HETATM   12  C19 UNL     1       1.458  52.264 -25.823  1.00  0.00     0.023 C 
HETATM   13  C20 UNL     1      -0.398  52.906 -27.398  1.00  0.00     0.135 C 
HETATM   14  O2  UNL     1       0.385  52.966 -28.348  1.00  0.00    -0.297 OA
HETATM   15  C21 UNL     1      -1.892  52.894 -27.644  1.00  0.00     0.080 C 
HETATM   16  C22 UNL     1      -2.674  51.887 -26.792  1.00  0.00     0.017 C 
HETATM   17  C23 UNL     1      -1.865  51.200 -25.661  1.00  0.00    -0.031 C 
HETATM   18  C24 UNL     1      -1.007  50.074 -26.300  1.00  0.00     0.016 C 
HETATM   19  C25 UNL     1      -2.787  50.470 -24.577  1.00  0.00     0.024 C 
HETATM   20  C26 UNL     1      -4.181  50.033 -25.093  1.00  0.00     0.010 C 
HETATM   21  C27 UNL     1      -5.102  49.338 -24.064  1.00  0.00     0.011 C 
HETATM   22  C28 UNL     1      -4.696  49.527 -22.586  1.00  0.00    -0.029 C 
HETATM   23  C29 UNL     1      -3.709  48.382 -22.190  1.00  0.00     0.016 C 
ENDROOT
BRANCH   1  24
HETATM   24  C6  UNL     1      -6.548  48.207 -21.122  1.00  0.00    -0.007 C 
HETATM   25  C7  UNL     1      -5.818  46.977 -21.678  1.00  0.00     0.011 C 
BRANCH  24  26
HETATM   26  C5  UNL     1      -8.021  48.168 -21.590  1.00  0.00     0.087 C 
BRANCH  26  27
HETATM   27  C4  UNL     1      -8.216  47.342 -22.849  1.00  0.00     0.150 C 
HETATM   28  O1  UNL     1      -8.221  46.114 -22.815  1.00  0.00    -0.293 OA
BRANCH  27  29
HETATM   29  C3  UNL     1      -8.369  48.092 -24.127  1.00  0.00     0.063 C 
HETATM   30  C2  UNL     1      -9.417  47.982 -24.965  1.00  0.00     0.015 C 
HETATM   31  C1  UNL     1     -10.648  47.153 -24.760  1.00  0.00     0.055 C 
BRANCH  30  32
HETATM   32  C30 UNL     1      -9.320  48.807 -26.191  1.00  0.00     0.171 C 
HETATM   33  O3  UNL     1      -9.029  48.409 -27.305  1.00  0.00    -0.646 OA
BRANCH  32  34
HETATM   34  O4  UNL     1      -9.605  50.098 -25.969  1.00  0.00    -0.773 OA
HETATM   35  H44 UNL     1      -9.516  50.517 -26.850  1.00  0.00     0.167 HD
ENDBRANCH  32  34
ENDBRANCH  30  32
ENDBRANCH  27  29
ENDBRANCH  26  27
ENDBRANCH  24  26
ENDBRANCH   1  24
TORSDOF 6
ENDMDL
