MODEL 1
REMARK minimizedAffinity -7.45665789
REMARK CNNscore 0.912955165
REMARK CNNaffinity 6.42922449
REMARK  11 active torsions:
REMARK  status: ('A' for Active; 'I' for Inactive)
REMARK    1  A    between atoms: C2_2  and  C27_32 
REMARK    2  A    between atoms: C3_3  and  C4_4 
REMARK    3  A    between atoms: C4_4  and  C5_5 
REMARK    4  A    between atoms: C5_5  and  C6_6 
REMARK    5  A    between atoms: C6_6  and  C8_8 
REMARK    6  A    between atoms: C10_10  and  O1_11 
REMARK    7  A    between atoms: C11_12  and  O2_13 
REMARK    8  A    between atoms: C21_23  and  O3_24 
REMARK    9  A    between atoms: C24_27  and  O4_28 
REMARK   10  A    between atoms: C26_30  and  O5_31 
REMARK   11  A    between atoms: C27_32  and  O6_33 
ROOT
HETATM    1  C8  UNL     1       2.072  54.266  -9.805  1.00  0.00     0.003 C 
HETATM    2  C9  UNL     1       2.456  52.789  -9.671  1.00  0.00     0.041 C 
HETATM    3  C10 UNL     1       1.103  52.100  -9.577  1.00  0.00     0.156 C 
HETATM    4  C11 UNL     1       0.343  52.953  -8.536  1.00  0.00     0.122 C 
HETATM    5  C12 UNL     1       0.869  54.445  -8.788  1.00  0.00    -0.003 C 
HETATM    6  C13 UNL     1       1.273  55.106  -7.460  1.00  0.00     0.019 C 
HETATM    7  C14 UNL     1      -0.221  55.325  -9.451  1.00  0.00     0.013 C 
HETATM    8  C15 UNL     1      -1.093  54.551 -10.435  1.00  0.00     0.009 C 
HETATM    9  C16 UNL     1      -1.933  53.434  -9.776  1.00  0.00     0.032 C 
HETATM   10  C17 UNL     1      -2.652  52.479 -10.833  1.00  0.00    -0.031 C 
HETATM   11  C18 UNL     1      -4.144  52.945 -10.873  1.00  0.00     0.016 C 
HETATM   12  C19 UNL     1      -2.105  52.582 -12.289  1.00  0.00     0.012 C 
HETATM   13  C20 UNL     1      -2.795  51.636 -13.279  1.00  0.00     0.032 C 
HETATM   14  C21 UNL     1      -2.815  50.187 -12.800  1.00  0.00     0.118 C 
HETATM   15  C22 UNL     1      -3.312  50.047 -11.361  1.00  0.00     0.039 C 
HETATM   16  C23 UNL     1      -2.533  50.985 -10.426  1.00  0.00     0.025 C 
HETATM   17  C24 UNL     1      -2.847  50.802  -8.943  1.00  0.00     0.126 C 
HETATM   18  C25 UNL     1      -1.675  51.355  -8.145  1.00  0.00     0.073 C 
HETATM   19  C26 UNL     1      -1.223  52.786  -8.532  1.00  0.00     0.099 C 
ENDROOT
BRANCH   1  20
HETATM   20  C6  UNL     1       3.327  55.190  -9.880  1.00  0.00    -0.013 C 
HETATM   21  C7  UNL     1       3.291  56.331 -10.893  1.00  0.00     0.010 C 
BRANCH  20  22
HETATM   22  C5  UNL     1       4.682  54.436  -9.798  1.00  0.00     0.008 C 
BRANCH  22  23
HETATM   23  C4  UNL     1       6.003  55.213  -9.814  1.00  0.00     0.028 C 
BRANCH  23  24
HETATM   24  C3  UNL     1       6.836  55.069  -8.571  1.00  0.00    -0.022 C 
HETATM   25  C2  UNL     1       6.702  55.751  -7.415  1.00  0.00    -0.064 C 
HETATM   26  C1  UNL     1       7.616  55.466  -6.250  1.00  0.00     0.045 C 
BRANCH  25  27
HETATM   27  C27 UNL     1       5.673  56.819  -7.157  1.00  0.00     0.197 C 
BRANCH  27  28
HETATM   28  O6  UNL     1       4.504  56.215  -6.625  1.00  0.00    -0.397 OA
HETATM   29  H46 UNL     1       4.783  55.729  -5.829  1.00  0.00     0.209 HD
ENDBRANCH  27  28
ENDBRANCH  25  27
ENDBRANCH  23  24
ENDBRANCH  22  23
ENDBRANCH  20  22
ENDBRANCH   1  20
BRANCH   3  30
HETATM   30  O1  UNL     1       1.299  50.758  -9.163  1.00  0.00    -0.392 OA
HETATM   31  H17 UNL     1       1.475  50.818  -8.201  1.00  0.00     0.210 HD
ENDBRANCH   3  30
BRANCH   4  32
HETATM   32  O2  UNL     1       0.819  52.488  -7.241  1.00  0.00    -0.383 OA
HETATM   33  H18 UNL     1       0.135  52.786  -6.603  1.00  0.00     0.210 HD
ENDBRANCH   4  32
BRANCH  19  34
HETATM   34  O5  UNL     1      -1.648  53.538  -7.342  1.00  0.00    -0.386 OA
HETATM   35  H43 UNL     1      -1.824  54.463  -7.575  1.00  0.00     0.210 HD
ENDBRANCH  19  34
BRANCH  17  36
HETATM   36  O4  UNL     1      -2.994  49.417  -8.636  1.00  0.00    -0.395 OA
HETATM   37  H40 UNL     1      -3.114  49.338  -7.674  1.00  0.00     0.210 HD
ENDBRANCH  17  36
BRANCH  14  38
HETATM   38  O3  UNL     1      -3.648  49.432 -13.673  1.00  0.00    -0.396 OA
HETATM   39  H35 UNL     1      -3.630  48.509 -13.361  1.00  0.00     0.210 HD
ENDBRANCH  14  38
TORSDOF 11
ENDMDL
MODEL 2
REMARK minimizedAffinity -7.45357561
REMARK CNNscore 0.874249101
REMARK CNNaffinity 6.80170488
REMARK  11 active torsions:
REMARK  status: ('A' for Active; 'I' for Inactive)
REMARK    1  A    between atoms: C2_2  and  C27_32 
REMARK    2  A    between atoms: C3_3  and  C4_4 
REMARK    3  A    between atoms: C4_4  and  C5_5 
REMARK    4  A    between atoms: C5_5  and  C6_6 
REMARK    5  A    between atoms: C6_6  and  C8_8 
REMARK    6  A    between atoms: C10_10  and  O1_11 
REMARK    7  A    between atoms: C11_12  and  O2_13 
REMARK    8  A    between atoms: C21_23  and  O3_24 
REMARK    9  A    between atoms: C24_27  and  O4_28 
REMARK   10  A    between atoms: C26_30  and  O5_31 
REMARK   11  A    between atoms: C27_32  and  O6_33 
ROOT
HETATM    1  C8  UNL     1       1.605  51.850 -14.283  1.00  0.00     0.003 C 
HETATM    2  C9  UNL     1       0.119  52.218 -14.319  1.00  0.00     0.041 C 
HETATM    3  C10 UNL     1      -0.251  52.258 -12.844  1.00  0.00     0.156 C 
HETATM    4  C11 UNL     1       0.362  50.951 -12.290  1.00  0.00     0.122 C 
HETATM    5  C12 UNL     1       1.701  50.750 -13.145  1.00  0.00    -0.003 C 
HETATM    6  C13 UNL     1       1.789  49.311 -13.679  1.00  0.00     0.019 C 
HETATM    7  C14 UNL     1       2.965  51.023 -12.289  1.00  0.00     0.013 C 
HETATM    8  C15 UNL     1       2.763  52.141 -11.271  1.00  0.00     0.009 C 
HETATM    9  C16 UNL     1       1.704  51.817 -10.193  1.00  0.00     0.032 C 
HETATM   10  C17 UNL     1       1.326  53.072  -9.283  1.00  0.00    -0.031 C 
HETATM   11  C18 UNL     1       2.093  52.862  -7.938  1.00  0.00     0.016 C 
HETATM   12  C19 UNL     1       1.775  54.454  -9.850  1.00  0.00     0.012 C 
HETATM   13  C20 UNL     1       1.377  55.644  -8.970  1.00  0.00     0.032 C 
HETATM   14  C21 UNL     1      -0.108  55.651  -8.617  1.00  0.00     0.118 C 
HETATM   15  C22 UNL     1      -0.596  54.301  -8.090  1.00  0.00     0.039 C 
HETATM   16  C23 UNL     1      -0.207  53.171  -9.055  1.00  0.00     0.025 C 
HETATM   17  C24 UNL     1      -0.790  51.806  -8.696  1.00  0.00     0.126 C 
HETATM   18  C25 UNL     1      -0.796  50.954  -9.958  1.00  0.00     0.073 C 
HETATM   19  C26 UNL     1       0.548  50.895 -10.727  1.00  0.00     0.099 C 
ENDROOT
BRANCH   1  20
HETATM   20  C6  UNL     1       2.206  51.711 -15.716  1.00  0.00    -0.013 C 
HETATM   21  C7  UNL     1       3.319  52.681 -16.101  1.00  0.00     0.010 C 
BRANCH  20  22
HETATM   22  C5  UNL     1       1.153  51.455 -16.829  1.00  0.00     0.008 C 
BRANCH  22  23
HETATM   23  C4  UNL     1       0.814  52.553 -17.842  1.00  0.00     0.028 C 
BRANCH  23  24
HETATM   24  C3  UNL     1       0.518  52.062 -19.231  1.00  0.00    -0.022 C 
HETATM   25  C2  UNL     1       0.567  52.773 -20.377  1.00  0.00    -0.064 C 
HETATM   26  C1  UNL     1       0.259  52.115 -21.698  1.00  0.00     0.045 C 
BRANCH  25  27
HETATM   27  C27 UNL     1       0.926  54.231 -20.473  1.00  0.00     0.197 C 
BRANCH  27  28
HETATM   28  O6  UNL     1       1.850  54.410 -21.536  1.00  0.00    -0.397 OA
HETATM   29  H46 UNL     1       1.424  54.052 -22.334  1.00  0.00     0.209 HD
ENDBRANCH  27  28
ENDBRANCH  25  27
ENDBRANCH  23  24
ENDBRANCH  22  23
ENDBRANCH  20  22
ENDBRANCH   1  20
BRANCH   3  30
HETATM   30  O1  UNL     1      -1.663  52.308 -12.724  1.00  0.00    -0.392 OA
HETATM   31  H17 UNL     1      -1.959  51.390 -12.903  1.00  0.00     0.210 HD
ENDBRANCH   3  30
BRANCH   4  32
HETATM   32  O2  UNL     1      -0.591  49.907 -12.637  1.00  0.00    -0.383 OA
HETATM   33  H18 UNL     1      -0.376  49.162 -12.035  1.00  0.00     0.210 HD
ENDBRANCH   4  32
BRANCH  19  34
HETATM   34  O5  UNL     1       0.945  49.502 -10.476  1.00  0.00    -0.386 OA
HETATM   35  H43 UNL     1       1.911  49.416 -10.518  1.00  0.00     0.210 HD
ENDBRANCH  19  34
BRANCH  17  36
HETATM   36  O4  UNL     1      -2.131  51.947  -8.235  1.00  0.00    -0.395 OA
HETATM   37  H40 UNL     1      -2.491  51.054  -8.093  1.00  0.00     0.210 HD
ENDBRANCH  17  36
BRANCH  14  38
HETATM   38  O3  UNL     1      -0.336  56.661  -7.640  1.00  0.00    -0.396 OA
HETATM   39  H35 UNL     1      -1.291  56.661  -7.445  1.00  0.00     0.210 HD
ENDBRANCH  14  38
TORSDOF 11
ENDMDL
MODEL 3
REMARK minimizedAffinity -7.13329124
REMARK CNNscore 0.759670973
REMARK CNNaffinity 6.10548162
REMARK  11 active torsions:
REMARK  status: ('A' for Active; 'I' for Inactive)
REMARK    1  A    between atoms: C2_2  and  C27_32 
REMARK    2  A    between atoms: C3_3  and  C4_4 
REMARK    3  A    between atoms: C4_4  and  C5_5 
REMARK    4  A    between atoms: C5_5  and  C6_6 
REMARK    5  A    between atoms: C6_6  and  C8_8 
REMARK    6  A    between atoms: C10_10  and  O1_11 
REMARK    7  A    between atoms: C11_12  and  O2_13 
REMARK    8  A    between atoms: C21_23  and  O3_24 
REMARK    9  A    between atoms: C24_27  and  O4_28 
REMARK   10  A    between atoms: C26_30  and  O5_31 
REMARK   11  A    between atoms: C27_32  and  O6_33 
ROOT
HETATM    1  C8  UNL     1      -3.563  48.965 -20.577  1.00  0.00     0.003 C 
HETATM    2  C9  UNL     1      -4.458  50.191 -20.371  1.00  0.00     0.041 C 
HETATM    3  C10 UNL     1      -5.836  49.571 -20.196  1.00  0.00     0.156 C 
HETATM    4  C11 UNL     1      -5.918  48.556 -21.359  1.00  0.00     0.122 C 
HETATM    5  C12 UNL     1      -4.418  48.019 -21.520  1.00  0.00    -0.003 C 
HETATM    6  C13 UNL     1      -3.985  48.060 -22.996  1.00  0.00     0.019 C 
HETATM    7  C14 UNL     1      -4.283  46.558 -21.020  1.00  0.00     0.013 C 
HETATM    8  C15 UNL     1      -5.171  46.257 -19.817  1.00  0.00     0.009 C 
HETATM    9  C16 UNL     1      -6.683  46.359 -20.119  1.00  0.00     0.032 C 
HETATM   10  C17 UNL     1      -7.594  46.282 -18.812  1.00  0.00    -0.031 C 
HETATM   11  C18 UNL     1      -8.165  44.828 -18.782  1.00  0.00     0.016 C 
HETATM   12  C19 UNL     1      -6.834  46.499 -17.467  1.00  0.00     0.012 C 
HETATM   13  C20 UNL     1      -7.736  46.445 -16.229  1.00  0.00     0.032 C 
HETATM   14  C21 UNL     1      -8.943  47.374 -16.334  1.00  0.00     0.118 C 
HETATM   15  C22 UNL     1      -9.696  47.218 -17.655  1.00  0.00     0.039 C 
HETATM   16  C23 UNL     1      -8.731  47.340 -18.845  1.00  0.00     0.025 C 
HETATM   17  C24 UNL     1      -9.413  47.358 -20.211  1.00  0.00     0.126 C 
HETATM   18  C25 UNL     1      -8.459  48.011 -21.201  1.00  0.00     0.073 C 
HETATM   19  C26 UNL     1      -7.018  47.439 -21.211  1.00  0.00     0.099 C 
ENDROOT
BRANCH   1  20
HETATM   20  C6  UNL     1      -2.074  49.365 -20.821  1.00  0.00    -0.013 C 
HETATM   21  C7  UNL     1      -1.058  48.232 -20.925  1.00  0.00     0.010 C 
BRANCH  20  22
HETATM   22  C5  UNL     1      -1.598  50.591 -19.997  1.00  0.00     0.008 C 
BRANCH  22  23
HETATM   23  C4  UNL     1      -0.244  51.246 -20.292  1.00  0.00     0.028 C 
BRANCH  23  24
HETATM   24  C3  UNL     1      -0.140  51.902 -21.640  1.00  0.00    -0.022 C 
HETATM   25  C2  UNL     1       0.712  52.881 -22.008  1.00  0.00    -0.064 C 
HETATM   26  C1  UNL     1       0.698  53.416 -23.417  1.00  0.00     0.045 C 
BRANCH  25  27
HETATM   27  C27 UNL     1       1.734  53.520 -21.106  1.00  0.00     0.197 C 
BRANCH  27  28
HETATM   28  O6  UNL     1       1.087  54.474 -20.278  1.00  0.00    -0.397 OA
HETATM   29  H46 UNL     1       0.381  53.997 -19.806  1.00  0.00     0.209 HD
ENDBRANCH  27  28
ENDBRANCH  25  27
ENDBRANCH  23  24
ENDBRANCH  22  23
ENDBRANCH  20  22
ENDBRANCH   1  20
BRANCH   3  30
HETATM   30  O1  UNL     1      -6.814  50.595 -20.279  1.00  0.00    -0.392 OA
HETATM   31  H17 UNL     1      -6.886  50.793 -21.237  1.00  0.00     0.210 HD
ENDBRANCH   3  30
BRANCH   4  32
HETATM   32  O2  UNL     1      -6.274  49.345 -22.529  1.00  0.00    -0.383 OA
HETATM   33  H18 UNL     1      -6.628  48.693 -23.172  1.00  0.00     0.210 HD
ENDBRANCH   4  32
BRANCH  19  34
HETATM   34  O5  UNL     1      -7.002  46.763 -22.517  1.00  0.00    -0.386 OA
HETATM   35  H43 UNL     1      -6.366  46.031 -22.508  1.00  0.00     0.210 HD
ENDBRANCH  19  34
BRANCH  17  36
HETATM   36  O4  UNL     1     -10.610  48.130 -20.156  1.00  0.00    -0.395 OA
HETATM   37  H40 UNL     1     -10.970  48.182 -21.058  1.00  0.00     0.210 HD
ENDBRANCH  17  36
BRANCH  14  38
HETATM   38  O3  UNL     1      -9.819  47.103 -15.245  1.00  0.00    -0.396 OA
HETATM   39  H35 UNL     1     -10.570  47.719 -15.320  1.00  0.00     0.210 HD
ENDBRANCH  14  38
TORSDOF 11
ENDMDL
MODEL 4
REMARK minimizedAffinity -7.3079586
REMARK CNNscore 0.651300311
REMARK CNNaffinity 5.71699381
REMARK  11 active torsions:
REMARK  status: ('A' for Active; 'I' for Inactive)
REMARK    1  A    between atoms: C2_2  and  C27_32 
REMARK    2  A    between atoms: C3_3  and  C4_4 
REMARK    3  A    between atoms: C4_4  and  C5_5 
REMARK    4  A    between atoms: C5_5  and  C6_6 
REMARK    5  A    between atoms: C6_6  and  C8_8 
REMARK    6  A    between atoms: C10_10  and  O1_11 
REMARK    7  A    between atoms: C11_12  and  O2_13 
REMARK    8  A    between atoms: C21_23  and  O3_24 
REMARK    9  A    between atoms: C24_27  and  O4_28 
REMARK   10  A    between atoms: C26_30  and  O5_31 
REMARK   11  A    between atoms: C27_32  and  O6_33 
ROOT
HETATM    1  C8  UNL     1     -11.090  44.758 -34.630  1.00  0.00     0.003 C 
HETATM    2  C9  UNL     1     -11.587  44.045 -33.369  1.00  0.00     0.041 C 
HETATM    3  C10 UNL     1     -10.483  44.336 -32.364  1.00  0.00     0.156 C 
HETATM    4  C11 UNL     1      -9.193  44.019 -33.153  1.00  0.00     0.122 C 
HETATM    5  C12 UNL     1      -9.535  44.450 -34.657  1.00  0.00    -0.003 C 
HETATM    6  C13 UNL     1      -9.141  43.335 -35.641  1.00  0.00     0.019 C 
HETATM    7  C14 UNL     1      -8.775  45.739 -35.062  1.00  0.00     0.013 C 
HETATM    8  C15 UNL     1      -8.617  46.724 -33.908  1.00  0.00     0.009 C 
HETATM    9  C16 UNL     1      -7.751  46.187 -32.746  1.00  0.00     0.032 C 
HETATM   10  C17 UNL     1      -7.788  47.116 -31.450  1.00  0.00    -0.031 C 
HETATM   11  C18 UNL     1      -6.448  47.920 -31.470  1.00  0.00     0.016 C 
HETATM   12  C19 UNL     1      -8.944  48.161 -31.424  1.00  0.00     0.012 C 
HETATM   13  C20 UNL     1      -8.974  49.023 -30.157  1.00  0.00     0.032 C 
HETATM   14  C21 UNL     1      -8.953  48.195 -28.875  1.00  0.00     0.118 C 
HETATM   15  C22 UNL     1      -7.854  47.132 -28.876  1.00  0.00     0.039 C 
HETATM   16  C23 UNL     1      -7.930  46.277 -30.150  1.00  0.00     0.025 C 
HETATM   17  C24 UNL     1      -6.974  45.086 -30.169  1.00  0.00     0.126 C 
HETATM   18  C25 UNL     1      -7.515  44.068 -31.163  1.00  0.00     0.073 C 
HETATM   19  C26 UNL     1      -7.867  44.630 -32.564  1.00  0.00     0.099 C 
ENDROOT
BRANCH   1  20
HETATM   20  C6  UNL     1     -12.063  44.562 -35.833  1.00  0.00    -0.013 C 
HETATM   21  C7  UNL     1     -12.115  43.176 -36.468  1.00  0.00     0.010 C 
BRANCH  20  22
HETATM   22  C5  UNL     1     -12.075  45.741 -36.844  1.00  0.00     0.008 C 
BRANCH  22  23
HETATM   23  C4  UNL     1     -12.996  46.945 -36.619  1.00  0.00     0.028 C 
BRANCH  23  24
HETATM   24  C3  UNL     1     -12.687  48.145 -37.472  1.00  0.00    -0.022 C 
HETATM   25  C2  UNL     1     -13.444  48.660 -38.462  1.00  0.00    -0.064 C 
HETATM   26  C1  UNL     1     -12.992  49.890 -39.208  1.00  0.00     0.045 C 
BRANCH  25  27
HETATM   27  C27 UNL     1     -14.768  48.104 -38.915  1.00  0.00     0.197 C 
BRANCH  27  28
HETATM   28  O6  UNL     1     -15.733  48.326 -37.898  1.00  0.00    -0.397 OA
HETATM   29  H46 UNL     1     -15.740  49.284 -37.729  1.00  0.00     0.209 HD
ENDBRANCH  27  28
ENDBRANCH  25  27
ENDBRANCH  23  24
ENDBRANCH  22  23
ENDBRANCH  20  22
ENDBRANCH   1  20
BRANCH   3  30
HETATM   30  O1  UNL     1     -10.664  43.504 -31.229  1.00  0.00    -0.392 OA
HETATM   31  H17 UNL     1     -10.343  42.622 -31.515  1.00  0.00     0.210 HD
ENDBRANCH   3  30
BRANCH   4  32
HETATM   32  O2  UNL     1      -9.054  42.571 -33.089  1.00  0.00    -0.383 OA
HETATM   33  H18 UNL     1      -8.110  42.401 -33.300  1.00  0.00     0.210 HD
ENDBRANCH   4  32
BRANCH  19  34
HETATM   34  O5  UNL     1      -6.810  44.011 -33.379  1.00  0.00    -0.386 OA
HETATM   35  H43 UNL     1      -6.625  44.558 -34.159  1.00  0.00     0.210 HD
ENDBRANCH  19  34
BRANCH  17  36
HETATM   36  O4  UNL     1      -6.917  44.478 -28.880  1.00  0.00    -0.395 OA
HETATM   37  H40 UNL     1      -6.363  43.682 -28.953  1.00  0.00     0.210 HD
ENDBRANCH  17  36
BRANCH  14  38
HETATM   38  O3  UNL     1      -8.773  49.073 -27.770  1.00  0.00    -0.396 OA
HETATM   39  H35 UNL     1      -8.783  48.527 -26.964  1.00  0.00     0.210 HD
ENDBRANCH  14  38
TORSDOF 11
ENDMDL
MODEL 5
REMARK minimizedAffinity -8.11390972
REMARK CNNscore 0.600428641
REMARK CNNaffinity 6.38801003
REMARK  11 active torsions:
REMARK  status: ('A' for Active; 'I' for Inactive)
REMARK    1  A    between atoms: C2_2  and  C27_32 
REMARK    2  A    between atoms: C3_3  and  C4_4 
REMARK    3  A    between atoms: C4_4  and  C5_5 
REMARK    4  A    between atoms: C5_5  and  C6_6 
REMARK    5  A    between atoms: C6_6  and  C8_8 
REMARK    6  A    between atoms: C10_10  and  O1_11 
REMARK    7  A    between atoms: C11_12  and  O2_13 
REMARK    8  A    between atoms: C21_23  and  O3_24 
REMARK    9  A    between atoms: C24_27  and  O4_28 
REMARK   10  A    between atoms: C26_30  and  O5_31 
REMARK   11  A    between atoms: C27_32  and  O6_33 
ROOT
HETATM    1  C8  UNL     1      -5.430  48.692 -21.241  1.00  0.00     0.003 C 
HETATM    2  C9  UNL     1      -6.396  49.718 -21.841  1.00  0.00     0.041 C 
HETATM    3  C10 UNL     1      -5.554  50.377 -22.922  1.00  0.00     0.156 C 
HETATM    4  C11 UNL     1      -4.221  50.679 -22.199  1.00  0.00     0.122 C 
HETATM    5  C12 UNL     1      -4.046  49.462 -21.172  1.00  0.00    -0.003 C 
HETATM    6  C13 UNL     1      -3.696  49.986 -19.769  1.00  0.00     0.019 C 
HETATM    7  C14 UNL     1      -2.914  48.502 -21.622  1.00  0.00     0.013 C 
HETATM    8  C15 UNL     1      -2.824  48.358 -23.138  1.00  0.00     0.009 C 
HETATM    9  C16 UNL     1      -2.447  49.668 -23.866  1.00  0.00     0.032 C 
HETATM   10  C17 UNL     1      -2.590  49.572 -25.452  1.00  0.00    -0.031 C 
HETATM   11  C18 UNL     1      -1.136  49.391 -25.994  1.00  0.00     0.016 C 
HETATM   12  C19 UNL     1      -3.420  48.356 -25.964  1.00  0.00     0.012 C 
HETATM   13  C20 UNL     1      -3.564  48.301 -27.489  1.00  0.00     0.032 C 
HETATM   14  C21 UNL     1      -4.080  49.609 -28.084  1.00  0.00     0.118 C 
HETATM   15  C22 UNL     1      -3.314  50.831 -27.578  1.00  0.00     0.039 C 
HETATM   16  C23 UNL     1      -3.264  50.841 -26.042  1.00  0.00     0.025 C 
HETATM   17  C24 UNL     1      -2.659  52.106 -25.438  1.00  0.00     0.126 C 
HETATM   18  C25 UNL     1      -3.157  52.223 -24.004  1.00  0.00     0.073 C 
HETATM   19  C26 UNL     1      -2.985  50.952 -23.134  1.00  0.00     0.099 C 
ENDROOT
BRANCH   1  20
HETATM   20  C6  UNL     1      -6.076  47.903 -20.060  1.00  0.00    -0.013 C 
HETATM   21  C7  UNL     1      -5.371  46.629 -19.606  1.00  0.00     0.010 C 
BRANCH  20  22
HETATM   22  C5  UNL     1      -7.624  47.800 -20.131  1.00  0.00     0.008 C 
BRANCH  22  23
HETATM   23  C4  UNL     1      -8.480  48.130 -18.903  1.00  0.00     0.028 C 
BRANCH  23  24
HETATM   24  C3  UNL     1      -9.963  48.022 -19.120  1.00  0.00    -0.022 C 
HETATM   25  C2  UNL     1     -10.892  47.622 -18.226  1.00  0.00    -0.064 C 
HETATM   26  C1  UNL     1     -12.352  47.592 -18.604  1.00  0.00     0.045 C 
BRANCH  25  27
HETATM   27  C27 UNL     1     -10.601  47.189 -16.814  1.00  0.00     0.197 C 
BRANCH  27  28
HETATM   28  O6  UNL     1     -10.434  48.341 -16.003  1.00  0.00    -0.397 OA
HETATM   29  H46 UNL     1     -11.247  48.867 -16.099  1.00  0.00     0.209 HD
ENDBRANCH  27  28
ENDBRANCH  25  27
ENDBRANCH  23  24
ENDBRANCH  22  23
ENDBRANCH  20  22
ENDBRANCH   1  20
BRANCH   3  30
HETATM   30  O1  UNL     1      -6.220  51.543 -23.377  1.00  0.00    -0.392 OA
HETATM   31  H17 UNL     1      -6.063  52.208 -22.674  1.00  0.00     0.210 HD
ENDBRANCH   3  30
BRANCH   4  32
HETATM   32  O2  UNL     1      -4.463  51.905 -21.453  1.00  0.00    -0.383 OA
HETATM   33  H18 UNL     1      -3.569  52.261 -21.260  1.00  0.00     0.210 HD
ENDBRANCH   4  32
BRANCH  19  34
HETATM   34  O5  UNL     1      -1.938  51.398 -22.203  1.00  0.00    -0.386 OA
HETATM   35  H43 UNL     1      -1.430  50.638 -21.881  1.00  0.00     0.210 HD
ENDBRANCH  19  34
BRANCH  17  36
HETATM   36  O4  UNL     1      -3.088  53.255 -26.165  1.00  0.00    -0.395 OA
HETATM   37  H40 UNL     1      -2.748  54.041 -25.704  1.00  0.00     0.210 HD
ENDBRANCH  17  36
BRANCH  14  38
HETATM   38  O3  UNL     1      -3.982  49.532 -29.501  1.00  0.00    -0.396 OA
HETATM   39  H35 UNL     1      -4.335  50.366 -29.860  1.00  0.00     0.210 HD
ENDBRANCH  14  38
TORSDOF 11
ENDMDL
MODEL 6
REMARK minimizedAffinity -8.10778046
REMARK CNNscore 0.58889544
REMARK CNNaffinity 6.13273621
REMARK  11 active torsions:
REMARK  status: ('A' for Active; 'I' for Inactive)
REMARK    1  A    between atoms: C2_2  and  C27_32 
REMARK    2  A    between atoms: C3_3  and  C4_4 
REMARK    3  A    between atoms: C4_4  and  C5_5 
REMARK    4  A    between atoms: C5_5  and  C6_6 
REMARK    5  A    between atoms: C6_6  and  C8_8 
REMARK    6  A    between atoms: C10_10  and  O1_11 
REMARK    7  A    between atoms: C11_12  and  O2_13 
REMARK    8  A    between atoms: C21_23  and  O3_24 
REMARK    9  A    between atoms: C24_27  and  O4_28 
REMARK   10  A    between atoms: C26_30  and  O5_31 
REMARK   11  A    between atoms: C27_32  and  O6_33 
ROOT
HETATM    1  C8  UNL     1      -2.445  51.189 -21.519  1.00  0.00     0.003 C 
HETATM    2  C9  UNL     1      -3.862  51.237 -20.940  1.00  0.00     0.041 C 
HETATM    3  C10 UNL     1      -3.737  50.394 -19.681  1.00  0.00     0.156 C 
HETATM    4  C11 UNL     1      -2.984  49.136 -20.170  1.00  0.00     0.122 C 
HETATM    5  C12 UNL     1      -1.992  49.685 -21.301  1.00  0.00    -0.003 C 
HETATM    6  C13 UNL     1      -2.086  48.819 -22.569  1.00  0.00     0.019 C 
HETATM    7  C14 UNL     1      -0.519  49.670 -20.817  1.00  0.00     0.013 C 
HETATM    8  C15 UNL     1      -0.378  49.987 -19.332  1.00  0.00     0.009 C 
HETATM    9  C16 UNL     1      -1.035  48.939 -18.407  1.00  0.00     0.032 C 
HETATM   10  C17 UNL     1      -1.095  49.395 -16.879  1.00  0.00    -0.031 C 
HETATM   11  C18 UNL     1       0.063  48.626 -16.165  1.00  0.00     0.016 C 
HETATM   12  C19 UNL     1      -0.847  50.915 -16.637  1.00  0.00     0.012 C 
HETATM   13  C20 UNL     1      -0.936  51.331 -15.165  1.00  0.00     0.032 C 
HETATM   14  C21 UNL     1      -2.227  50.872 -14.495  1.00  0.00     0.118 C 
HETATM   15  C22 UNL     1      -2.526  49.392 -14.738  1.00  0.00     0.039 C 
HETATM   16  C23 UNL     1      -2.473  49.070 -16.240  1.00  0.00     0.025 C 
HETATM   17  C24 UNL     1      -2.915  47.653 -16.597  1.00  0.00     0.126 C 
HETATM   18  C25 UNL     1      -3.330  47.648 -18.062  1.00  0.00     0.073 C 
HETATM   19  C26 UNL     1      -2.305  48.268 -19.046  1.00  0.00     0.099 C 
ENDROOT
BRANCH   1  20
HETATM   20  C6  UNL     1      -2.338  51.971 -22.865  1.00  0.00    -0.013 C 
HETATM   21  C7  UNL     1      -3.614  52.118 -23.688  1.00  0.00     0.010 C 
BRANCH  20  22
HETATM   22  C5  UNL     1      -1.065  51.647 -23.692  1.00  0.00     0.008 C 
BRANCH  22  23
HETATM   23  C4  UNL     1      -0.209  52.779 -24.272  1.00  0.00     0.028 C 
BRANCH  23  24
HETATM   24  C3  UNL     1       1.050  52.330 -24.962  1.00  0.00    -0.022 C 
HETATM   25  C2  UNL     1       1.185  51.952 -26.250  1.00  0.00    -0.064 C 
HETATM   26  C1  UNL     1       2.533  51.548 -26.790  1.00  0.00     0.045 C 
BRANCH  25  27
HETATM   27  C27 UNL     1       0.066  51.899 -27.255  1.00  0.00     0.197 C 
BRANCH  27  28
HETATM   28  O6  UNL     1      -0.674  50.703 -27.059  1.00  0.00    -0.397 OA
HETATM   29  H46 UNL     1      -0.971  50.712 -26.132  1.00  0.00     0.209 HD
ENDBRANCH  27  28
ENDBRANCH  25  27
ENDBRANCH  23  24
ENDBRANCH  22  23
ENDBRANCH  20  22
ENDBRANCH   1  20
BRANCH   3  30
HETATM   30  O1  UNL     1      -5.036  50.111 -19.186  1.00  0.00    -0.392 OA
HETATM   31  H17 UNL     1      -5.378  49.405 -19.775  1.00  0.00     0.210 HD
ENDBRANCH   3  30
BRANCH   4  32
HETATM   32  O2  UNL     1      -4.003  48.299 -20.790  1.00  0.00    -0.383 OA
HETATM   33  H18 UNL     1      -3.608  47.401 -20.812  1.00  0.00     0.210 HD
ENDBRANCH   4  32
BRANCH  19  34
HETATM   34  O5  UNL     1      -1.854  47.065 -19.762  1.00  0.00    -0.386 OA
HETATM   35  H43 UNL     1      -0.954  47.194 -20.100  1.00  0.00     0.210 HD
ENDBRANCH  19  34
BRANCH  17  36
HETATM   36  O4  UNL     1      -4.036  47.270 -15.805  1.00  0.00    -0.395 OA
HETATM   37  H40 UNL     1      -4.334  46.398 -16.116  1.00  0.00     0.210 HD
ENDBRANCH  17  36
BRANCH  14  38
HETATM   38  O3  UNL     1      -2.126  51.119 -13.097  1.00  0.00    -0.396 OA
HETATM   39  H35 UNL     1      -2.967  50.838 -12.693  1.00  0.00     0.210 HD
ENDBRANCH  14  38
TORSDOF 11
ENDMDL
MODEL 7
REMARK minimizedAffinity -7.87790585
REMARK CNNscore 0.563009679
REMARK CNNaffinity 6.37160158
REMARK  11 active torsions:
REMARK  status: ('A' for Active; 'I' for Inactive)
REMARK    1  A    between atoms: C2_2  and  C27_32 
REMARK    2  A    between atoms: C3_3  and  C4_4 
REMARK    3  A    between atoms: C4_4  and  C5_5 
REMARK    4  A    between atoms: C5_5  and  C6_6 
REMARK    5  A    between atoms: C6_6  and  C8_8 
REMARK    6  A    between atoms: C10_10  and  O1_11 
REMARK    7  A    between atoms: C11_12  and  O2_13 
REMARK    8  A    between atoms: C21_23  and  O3_24 
REMARK    9  A    between atoms: C24_27  and  O4_28 
REMARK   10  A    between atoms: C26_30  and  O5_31 
REMARK   11  A    between atoms: C27_32  and  O6_33 
ROOT
HETATM    1  C8  UNL     1      -4.455  49.539 -21.222  1.00  0.00     0.003 C 
HETATM    2  C9  UNL     1      -4.737  50.755 -20.334  1.00  0.00     0.041 C 
HETATM    3  C10 UNL     1      -3.342  51.191 -19.914  1.00  0.00     0.156 C 
HETATM    4  C11 UNL     1      -2.672  49.868 -19.479  1.00  0.00     0.122 C 
HETATM    5  C12 UNL     1      -3.296  48.769 -20.462  1.00  0.00    -0.003 C 
HETATM    6  C13 UNL     1      -3.782  47.546 -19.667  1.00  0.00     0.019 C 
HETATM    7  C14 UNL     1      -2.252  48.282 -21.501  1.00  0.00     0.013 C 
HETATM    8  C15 UNL     1      -1.302  49.387 -21.951  1.00  0.00     0.009 C 
HETATM    9  C16 UNL     1      -0.403  49.933 -20.818  1.00  0.00     0.032 C 
HETATM   10  C17 UNL     1       0.410  51.241 -21.234  1.00  0.00    -0.031 C 
HETATM   11  C18 UNL     1       1.866  50.754 -21.531  1.00  0.00     0.016 C 
HETATM   12  C19 UNL     1      -0.102  51.951 -22.524  1.00  0.00     0.012 C 
HETATM   13  C20 UNL     1       0.680  53.219 -22.886  1.00  0.00     0.032 C 
HETATM   14  C21 UNL     1       0.789  54.201 -21.724  1.00  0.00     0.118 C 
HETATM   15  C22 UNL     1       1.255  53.536 -20.429  1.00  0.00     0.039 C 
HETATM   16  C23 UNL     1       0.386  52.310 -20.107  1.00  0.00     0.025 C 
HETATM   17  C24 UNL     1       0.672  51.672 -18.750  1.00  0.00     0.126 C 
HETATM   18  C25 UNL     1      -0.559  50.875 -18.340  1.00  0.00     0.073 C 
HETATM   19  C26 UNL     1      -1.099  49.891 -19.409  1.00  0.00     0.099 C 
ENDROOT
BRANCH   1  20
HETATM   20  C6  UNL     1      -5.770  48.885 -21.750  1.00  0.00    -0.013 C 
HETATM   21  C7  UNL     1      -6.854  48.575 -20.722  1.00  0.00     0.010 C 
BRANCH  20  22
HETATM   22  C5  UNL     1      -5.549  47.778 -22.816  1.00  0.00     0.008 C 
BRANCH  22  23
HETATM   23  C4  UNL     1      -5.516  48.133 -24.307  1.00  0.00     0.028 C 
BRANCH  23  24
HETATM   24  C3  UNL     1      -4.170  48.552 -24.827  1.00  0.00    -0.022 C 
HETATM   25  C2  UNL     1      -3.773  48.609 -26.116  1.00  0.00    -0.064 C 
HETATM   26  C1  UNL     1      -2.383  49.075 -26.468  1.00  0.00     0.045 C 
BRANCH  25  27
HETATM   27  C27 UNL     1      -4.628  48.241 -27.298  1.00  0.00     0.197 C 
BRANCH  27  28
HETATM   28  O6  UNL     1      -3.834  48.285 -28.474  1.00  0.00    -0.397 OA
HETATM   29  H46 UNL     1      -3.083  47.684 -28.322  1.00  0.00     0.209 HD
ENDBRANCH  27  28
ENDBRANCH  25  27
ENDBRANCH  23  24
ENDBRANCH  22  23
ENDBRANCH  20  22
ENDBRANCH   1  20
BRANCH   3  30
HETATM   30  O1  UNL     1      -3.453  52.134 -18.860  1.00  0.00    -0.392 OA
HETATM   31  H17 UNL     1      -3.660  51.596 -18.066  1.00  0.00     0.210 HD
ENDBRANCH   3  30
BRANCH   4  32
HETATM   32  O2  UNL     1      -3.149  49.626 -18.125  1.00  0.00    -0.383 OA
HETATM   33  H18 UNL     1      -2.507  48.990 -17.743  1.00  0.00     0.210 HD
ENDBRANCH   4  32
BRANCH  19  34
HETATM   34  O5  UNL     1      -0.762  48.601 -18.789  1.00  0.00    -0.386 OA
HETATM   35  H43 UNL     1      -0.645  47.922 -19.472  1.00  0.00     0.210 HD
ENDBRANCH  19  34
BRANCH  17  36
HETATM   36  O4  UNL     1       0.908  52.680 -17.770  1.00  0.00    -0.395 OA
HETATM   37  H40 UNL     1       1.006  52.239 -16.909  1.00  0.00     0.210 HD
ENDBRANCH  17  36
BRANCH  14  38
HETATM   38  O3  UNL     1       1.696  55.235 -22.088  1.00  0.00    -0.396 OA
HETATM   39  H35 UNL     1       1.735  55.860 -21.342  1.00  0.00     0.210 HD
ENDBRANCH  14  38
TORSDOF 11
ENDMDL
MODEL 8
REMARK minimizedAffinity -7.387959
REMARK CNNscore 0.560826838
REMARK CNNaffinity 5.39439631
REMARK  11 active torsions:
REMARK  status: ('A' for Active; 'I' for Inactive)
REMARK    1  A    between atoms: C2_2  and  C27_32 
REMARK    2  A    between atoms: C3_3  and  C4_4 
REMARK    3  A    between atoms: C4_4  and  C5_5 
REMARK    4  A    between atoms: C5_5  and  C6_6 
REMARK    5  A    between atoms: C6_6  and  C8_8 
REMARK    6  A    between atoms: C10_10  and  O1_11 
REMARK    7  A    between atoms: C11_12  and  O2_13 
REMARK    8  A    between atoms: C21_23  and  O3_24 
REMARK    9  A    between atoms: C24_27  and  O4_28 
REMARK   10  A    between atoms: C26_30  and  O5_31 
REMARK   11  A    between atoms: C27_32  and  O6_33 
ROOT
HETATM    1  C8  UNL     1      -6.915  46.639 -29.250  1.00  0.00     0.003 C 
HETATM    2  C9  UNL     1      -8.400  47.010 -29.292  1.00  0.00     0.041 C 
HETATM    3  C10 UNL     1      -8.852  46.426 -30.621  1.00  0.00     0.156 C 
HETATM    4  C11 UNL     1      -7.757  46.895 -31.606  1.00  0.00     0.122 C 
HETATM    5  C12 UNL     1      -6.414  46.889 -30.734  1.00  0.00    -0.003 C 
HETATM    6  C13 UNL     1      -5.646  48.209 -30.915  1.00  0.00     0.019 C 
HETATM    7  C14 UNL     1      -5.476  45.726 -31.149  1.00  0.00     0.013 C 
HETATM    8  C15 UNL     1      -6.234  44.467 -31.556  1.00  0.00     0.009 C 
HETATM    9  C16 UNL     1      -7.106  44.647 -32.819  1.00  0.00     0.032 C 
HETATM   10  C17 UNL     1      -8.075  43.411 -33.097  1.00  0.00    -0.031 C 
HETATM   11  C18 UNL     1      -7.395  42.594 -34.243  1.00  0.00     0.016 C 
HETATM   12  C19 UNL     1      -8.260  42.437 -31.894  1.00  0.00     0.012 C 
HETATM   13  C20 UNL     1      -9.215  41.272 -32.180  1.00  0.00     0.032 C 
HETATM   14  C21 UNL     1     -10.564  41.732 -32.727  1.00  0.00     0.118 C 
HETATM   15  C22 UNL     1     -10.426  42.718 -33.888  1.00  0.00     0.039 C 
HETATM   16  C23 UNL     1      -9.500  43.881 -33.501  1.00  0.00     0.025 C 
HETATM   17  C24 UNL     1      -9.426  45.000 -34.537  1.00  0.00     0.126 C 
HETATM   18  C25 UNL     1      -8.956  46.263 -33.829  1.00  0.00     0.073 C 
HETATM   19  C26 UNL     1      -7.679  46.104 -32.965  1.00  0.00     0.099 C 
ENDROOT
BRANCH   1  20
HETATM   20  C6  UNL     1      -6.214  47.180 -27.965  1.00  0.00    -0.013 C 
HETATM   21  C7  UNL     1      -7.115  47.655 -26.829  1.00  0.00     0.010 C 
BRANCH  20  22
HETATM   22  C5  UNL     1      -4.983  48.085 -28.241  1.00  0.00     0.008 C 
BRANCH  22  23
HETATM   23  C4  UNL     1      -3.841  48.172 -27.223  1.00  0.00     0.028 C 
BRANCH  23  24
HETATM   24  C3  UNL     1      -3.888  49.373 -26.321  1.00  0.00    -0.022 C 
HETATM   25  C2  UNL     1      -3.326  50.581 -26.539  1.00  0.00    -0.064 C 
HETATM   26  C1  UNL     1      -3.489  51.691 -25.532  1.00  0.00     0.045 C 
BRANCH  25  27
HETATM   27  C27 UNL     1      -2.518  50.950 -27.754  1.00  0.00     0.197 C 
BRANCH  27  28
HETATM   28  O6  UNL     1      -3.365  50.936 -28.893  1.00  0.00    -0.397 OA
HETATM   29  H46 UNL     1      -4.097  51.547 -28.700  1.00  0.00     0.209 HD
ENDBRANCH  27  28
ENDBRANCH  25  27
ENDBRANCH  23  24
ENDBRANCH  22  23
ENDBRANCH  20  22
ENDBRANCH   1  20
BRANCH   3  30
HETATM   30  O1  UNL     1     -10.139  46.935 -30.933  1.00  0.00    -0.392 OA
HETATM   31  H17 UNL     1      -9.975  47.849 -31.248  1.00  0.00     0.210 HD
ENDBRANCH   3  30
BRANCH   4  32
HETATM   32  O2  UNL     1      -8.107  48.269 -31.938  1.00  0.00    -0.383 OA
HETATM   33  H18 UNL     1      -7.622  48.455 -32.771  1.00  0.00     0.210 HD
ENDBRANCH   4  32
BRANCH  19  34
HETATM   34  O5  UNL     1      -6.714  46.878 -33.760  1.00  0.00    -0.386 OA
HETATM   35  H43 UNL     1      -5.814  46.551 -33.606  1.00  0.00     0.210 HD
ENDBRANCH  19  34
BRANCH  17  36
HETATM   36  O4  UNL     1     -10.716  45.244 -35.094  1.00  0.00    -0.395 OA
HETATM   37  H40 UNL     1     -10.642  46.011 -35.687  1.00  0.00     0.210 HD
ENDBRANCH  17  36
BRANCH  14  38
HETATM   38  O3  UNL     1     -11.294  40.587 -33.152  1.00  0.00    -0.396 OA
HETATM   39  H35 UNL     1     -12.157  40.900 -33.478  1.00  0.00     0.210 HD
ENDBRANCH  14  38
TORSDOF 11
ENDMDL
MODEL 9
REMARK minimizedAffinity -7.61943054
REMARK CNNscore 0.545451939
REMARK CNNaffinity 5.63054466
REMARK  11 active torsions:
REMARK  status: ('A' for Active; 'I' for Inactive)
REMARK    1  A    between atoms: C2_2  and  C27_32 
REMARK    2  A    between atoms: C3_3  and  C4_4 
REMARK    3  A    between atoms: C4_4  and  C5_5 
REMARK    4  A    between atoms: C5_5  and  C6_6 
REMARK    5  A    between atoms: C6_6  and  C8_8 
REMARK    6  A    between atoms: C10_10  and  O1_11 
REMARK    7  A    between atoms: C11_12  and  O2_13 
REMARK    8  A    between atoms: C21_23  and  O3_24 
REMARK    9  A    between atoms: C24_27  and  O4_28 
REMARK   10  A    between atoms: C26_30  and  O5_31 
REMARK   11  A    between atoms: C27_32  and  O6_33 
ROOT
HETATM    1  C8  UNL     1      -8.246  46.435 -29.296  1.00  0.00     0.003 C 
HETATM    2  C9  UNL     1      -8.060  46.525 -27.779  1.00  0.00     0.041 C 
HETATM    3  C10 UNL     1      -9.493  46.543 -27.268  1.00  0.00     0.156 C 
HETATM    4  C11 UNL     1     -10.180  47.588 -28.176  1.00  0.00     0.122 C 
HETATM    5  C12 UNL     1      -9.457  47.415 -29.594  1.00  0.00    -0.003 C 
HETATM    6  C13 UNL     1      -9.027  48.782 -30.151  1.00  0.00     0.019 C 
HETATM    7  C14 UNL     1     -10.398  46.748 -30.631  1.00  0.00     0.013 C 
HETATM    8  C15 UNL     1     -11.321  45.703 -30.011  1.00  0.00     0.009 C 
HETATM    9  C16 UNL     1     -12.323  46.286 -28.990  1.00  0.00     0.032 C 
HETATM   10  C17 UNL     1     -13.114  45.167 -28.173  1.00  0.00    -0.031 C 
HETATM   11  C18 UNL     1     -14.531  45.091 -28.829  1.00  0.00     0.016 C 
HETATM   12  C19 UNL     1     -12.500  43.737 -28.254  1.00  0.00     0.012 C 
HETATM   13  C20 UNL     1     -13.264  42.686 -27.440  1.00  0.00     0.032 C 
HETATM   14  C21 UNL     1     -13.488  43.107 -25.991  1.00  0.00     0.118 C 
HETATM   15  C22 UNL     1     -14.058  44.520 -25.866  1.00  0.00     0.039 C 
HETATM   16  C23 UNL     1     -13.204  45.519 -26.662  1.00  0.00     0.025 C 
HETATM   17  C24 UNL     1     -13.600  46.981 -26.470  1.00  0.00     0.126 C 
HETATM   18  C25 UNL     1     -12.400  47.842 -26.839  1.00  0.00     0.073 C 
HETATM   19  C26 UNL     1     -11.753  47.529 -28.212  1.00  0.00     0.099 C 
ENDROOT
BRANCH   1  20
HETATM   20  C6  UNL     1      -6.881  46.442 -30.053  1.00  0.00    -0.013 C 
HETATM   21  C7  UNL     1      -5.791  47.364 -29.513  1.00  0.00     0.010 C 
BRANCH  20  22
HETATM   22  C5  UNL     1      -7.008  46.422 -31.600  1.00  0.00     0.008 C 
BRANCH  22  23
HETATM   23  C4  UNL     1      -6.034  45.596 -32.447  1.00  0.00     0.028 C 
BRANCH  23  24
HETATM   24  C3  UNL     1      -4.726  46.273 -32.747  1.00  0.00    -0.022 C 
HETATM   25  C2  UNL     1      -4.508  47.279 -33.619  1.00  0.00    -0.064 C 
HETATM   26  C1  UNL     1      -3.127  47.861 -33.784  1.00  0.00     0.045 C 
BRANCH  25  27
HETATM   27  C27 UNL     1      -5.562  47.915 -34.484  1.00  0.00     0.197 C 
BRANCH  27  28
HETATM   28  O6  UNL     1      -4.955  48.903 -35.302  1.00  0.00    -0.397 OA
HETATM   29  H46 UNL     1      -4.249  48.454 -35.799  1.00  0.00     0.209 HD
ENDBRANCH  27  28
ENDBRANCH  25  27
ENDBRANCH  23  24
ENDBRANCH  22  23
ENDBRANCH  20  22
ENDBRANCH   1  20
BRANCH   3  30
HETATM   30  O1  UNL     1      -9.488  46.909 -25.898  1.00  0.00    -0.392 OA
HETATM   31  H17 UNL     1      -9.345  47.880 -25.901  1.00  0.00     0.210 HD
ENDBRANCH   3  30
BRANCH   4  32
HETATM   32  O2  UNL     1      -9.821  48.880 -27.609  1.00  0.00    -0.383 OA
HETATM   33  H18 UNL     1     -10.487  49.504 -27.970  1.00  0.00     0.210 HD
ENDBRANCH   4  32
BRANCH  19  34
HETATM   34  O5  UNL     1     -12.127  48.732 -28.971  1.00  0.00    -0.386 OA
HETATM   35  H43 UNL     1     -12.173  48.529 -29.919  1.00  0.00     0.210 HD
ENDBRANCH  19  34
BRANCH  17  36
HETATM   36  O4  UNL     1     -13.935  47.227 -25.107  1.00  0.00    -0.395 OA
HETATM   37  H40 UNL     1     -14.103  48.180 -25.011  1.00  0.00     0.210 HD
ENDBRANCH  17  36
BRANCH  14  38
HETATM   38  O3  UNL     1     -14.374  42.175 -25.381  1.00  0.00    -0.396 OA
HETATM   39  H35 UNL     1     -14.487  42.450 -24.453  1.00  0.00     0.210 HD
ENDBRANCH  14  38
TORSDOF 11
ENDMDL
