MODEL 1
REMARK minimizedAffinity -8.36622143
REMARK CNNscore 0.405084431
REMARK CNNaffinity 6.71695566
REMARK  11 active torsions:
REMARK  status: ('A' for Active; 'I' for Inactive)
REMARK    1  A    between atoms: C3_4  and  O2_5 
REMARK    2  A    between atoms: O2_5  and  C4_6 
REMARK    3  A    between atoms: C7_9  and  C8_10 
REMARK    4  A    between atoms: N1_11  and  C9_13 
REMARK    5  A    between atoms: C9_13  and  C10_14 
REMARK    6  A    between atoms: C10_14  and  C11_15 
REMARK    7  A    between atoms: C22_26  and  C23_27 
REMARK    8  A    between atoms: C29_35  and  O5_36 
REMARK    9  A    between atoms: C33_40  and  O6_41 
REMARK   10  A    between atoms: C36_44  and  O7_45 
REMARK   11  A    between atoms: C37_46  and  O8_47 
ROOT
HETATM    1  C4  UNL     1      -4.193   6.881  14.322  1.00  0.00     0.127 C 
HETATM    2  C5  UNL     1      -3.253   6.223  15.336  1.00  0.00     0.033 C 
HETATM    3  C6  UNL     1      -2.793   7.211  16.401  1.00  0.00     0.021 C 
HETATM    4  C7  UNL     1      -2.066   8.480  15.846  1.00  0.00     0.026 C 
HETATM    5  C17 UNL     1      -2.632   9.757  16.598  1.00  0.00     0.009 C 
HETATM    6  C18 UNL     1      -2.421   9.737  18.130  1.00  0.00     0.007 C 
HETATM    7  C19 UNL     1      -3.056  10.941  18.820  1.00  0.00     0.013 C 
HETATM    8  C20 UNL     1      -2.513  12.298  18.290  1.00  0.00    -0.005 C 
HETATM    9  C21 UNL     1      -1.053  12.468  18.764  1.00  0.00     0.019 C 
HETATM   10  C22 UNL     1      -3.466  13.438  18.794  1.00  0.00     0.028 C 
HETATM   11  C27 UNL     1      -4.617  13.446  17.761  1.00  0.00     0.013 C 
HETATM   12  C28 UNL     1      -4.161  12.627  16.545  1.00  0.00     0.040 C 
HETATM   13  C29 UNL     1      -2.662  12.354  16.744  1.00  0.00     0.070 C 
HETATM   14  C30 UNL     1      -2.127  11.093  16.002  1.00  0.00     0.026 C 
HETATM   15  C31 UNL     1      -2.440  11.161  14.498  1.00  0.00     0.011 C 
HETATM   16  C32 UNL     1      -1.839   9.986  13.750  1.00  0.00     0.039 C 
HETATM   17  C33 UNL     1      -2.269   8.608  14.291  1.00  0.00     0.073 C 
HETATM   18  C34 UNL     1      -3.727   8.289  13.899  1.00  0.00     0.071 C 
ENDROOT
BRANCH   1  19
HETATM   19  O2  UNL     1      -4.361   6.100  13.134  1.00  0.00    -0.356 OA
BRANCH  19  20
HETATM   20  C3  UNL     1      -5.166   4.933  13.297  1.00  0.00     0.263 C 
HETATM   21  O1  UNL     1      -5.234   4.189  12.085  1.00  0.00    -0.354 OA
HETATM   22  C2  UNL     1      -5.801   2.883  12.289  1.00  0.00     0.151 C 
HETATM   23  C1  UNL     1      -5.965   2.251  10.908  1.00  0.00     0.042 C 
HETATM   24  C37 UNL     1      -7.102   2.958  13.128  1.00  0.00     0.175 C 
HETATM   25  C36 UNL     1      -7.638   4.394  13.190  1.00  0.00     0.154 C 
HETATM   26  C35 UNL     1      -6.582   5.383  13.677  1.00  0.00     0.095 C 
BRANCH  24  27
HETATM   27  O8  UNL     1      -8.121   2.086  12.642  1.00  0.00    -0.390 OA
HETATM   28  H51 UNL     1      -8.612   2.599  11.967  1.00  0.00     0.210 HD
ENDBRANCH  24  27
BRANCH  25  29
HETATM   29  O7  UNL     1      -8.098   4.768  11.882  1.00  0.00    -0.393 OA
HETATM   30  H49 UNL     1      -7.297   4.887  11.320  1.00  0.00     0.210 HD
ENDBRANCH  25  29
ENDBRANCH  19  20
ENDBRANCH   1  19
BRANCH  17  31
HETATM   31  O6  UNL     1      -1.435   7.650  13.615  1.00  0.00    -0.389 OA
HETATM   32  H43 UNL     1      -1.517   7.788  12.651  1.00  0.00     0.210 HD
ENDBRANCH  17  31
BRANCH   4  33
HETATM   33  C8  UNL     1      -0.555   8.330  16.110  1.00  0.00     0.068 C 
HETATM   34  N1  UNL     1       0.044   7.192  15.998  1.00  0.00    -0.401 N 
ATOM     35  H1  UNL     1      -0.442   6.336  15.731  1.00  0.00     0.158 HD
BRANCH  34  36
HETATM   36  C9  UNL     1       1.484   7.232  16.287  1.00  0.00     0.123 C 
BRANCH  36  37
HETATM   37  C10 UNL     1       2.253   7.536  14.995  1.00  0.00     0.058 C 
BRANCH  37  38
HETATM   38  C11 UNL     1       3.446   8.441  15.196  1.00  0.00    -0.057 A 
HETATM   39  C12 UNL     1       3.299   9.685  15.825  1.00  0.00     0.007 A 
HETATM   40  C13 UNL     1       4.403  10.523  16.002  1.00  0.00     0.001 A 
HETATM   41  C14 UNL     1       5.661  10.128  15.548  1.00  0.00     0.000 A 
HETATM   42  C15 UNL     1       5.817   8.895  14.920  1.00  0.00     0.001 A 
HETATM   43  C16 UNL     1       4.716   8.056  14.742  1.00  0.00     0.007 A 
ENDBRANCH  37  38
ENDBRANCH  36  37
ENDBRANCH  34  36
ENDBRANCH   4  33
BRANCH  13  44
HETATM   44  O5  UNL     1      -1.974  13.497  16.219  1.00  0.00    -0.389 OA
HETATM   45  H37 UNL     1      -1.016  13.331  16.263  1.00  0.00     0.210 HD
ENDBRANCH  13  44
BRANCH  10  46
HETATM   46  C23 UNL     1      -2.850  14.802  19.009  1.00  0.00    -0.045 A 
HETATM   47  C24 UNL     1      -2.695  15.808  18.145  1.00  0.00     0.087 A 
HETATM   48  C25 UNL     1      -2.064  16.908  18.871  1.00  0.00     0.283 A 
HETATM   49  O3  UNL     1      -1.754  17.979  18.384  1.00  0.00    -0.260 OA
HETATM   50  O4  UNL     1      -1.877  16.540  20.167  1.00  0.00    -0.314 OA
HETATM   51  C26 UNL     1      -2.367  15.214  20.351  1.00  0.00     0.213 A 
ENDBRANCH  10  46
TORSDOF 11
ENDMDL
MODEL 2
REMARK minimizedAffinity -10.6879263
REMARK CNNscore 0.300374329
REMARK CNNaffinity 7.02166986
REMARK  11 active torsions:
REMARK  status: ('A' for Active; 'I' for Inactive)
REMARK    1  A    between atoms: C3_4  and  O2_5 
REMARK    2  A    between atoms: O2_5  and  C4_6 
REMARK    3  A    between atoms: C7_9  and  C8_10 
REMARK    4  A    between atoms: N1_11  and  C9_13 
REMARK    5  A    between atoms: C9_13  and  C10_14 
REMARK    6  A    between atoms: C10_14  and  C11_15 
REMARK    7  A    between atoms: C22_26  and  C23_27 
REMARK    8  A    between atoms: C29_35  and  O5_36 
REMARK    9  A    between atoms: C33_40  and  O6_41 
REMARK   10  A    between atoms: C36_44  and  O7_45 
REMARK   11  A    between atoms: C37_46  and  O8_47 
ROOT
HETATM    1  C4  UNL     1      -4.615   5.586  12.849  1.00  0.00     0.127 C 
HETATM    2  C5  UNL     1      -4.774   7.045  13.284  1.00  0.00     0.033 C 
HETATM    3  C6  UNL     1      -3.525   7.863  12.978  1.00  0.00     0.021 C 
HETATM    4  C7  UNL     1      -2.213   7.322  13.635  1.00  0.00     0.026 C 
HETATM    5  C17 UNL     1      -1.055   7.354  12.550  1.00  0.00     0.009 C 
HETATM    6  C18 UNL     1      -0.746   8.763  11.993  1.00  0.00     0.007 C 
HETATM    7  C19 UNL     1       0.312   8.733  10.893  1.00  0.00     0.013 C 
HETATM    8  C20 UNL     1       1.657   8.110  11.362  1.00  0.00    -0.005 C 
HETATM    9  C21 UNL     1       2.337   9.083  12.350  1.00  0.00     0.019 C 
HETATM   10  C22 UNL     1       2.527   7.806  10.093  1.00  0.00     0.028 C 
HETATM   11  C27 UNL     1       2.009   6.431   9.607  1.00  0.00     0.013 C 
HETATM   12  C28 UNL     1       1.168   5.821  10.737  1.00  0.00     0.040 C 
HETATM   13  C29 UNL     1       1.397   6.705  11.973  1.00  0.00     0.070 C 
HETATM   14  C30 UNL     1       0.247   6.663  13.024  1.00  0.00     0.026 C 
HETATM   15  C31 UNL     1      -0.043   5.222  13.472  1.00  0.00     0.011 C 
HETATM   16  C32 UNL     1      -1.094   5.178  14.565  1.00  0.00     0.039 C 
HETATM   17  C33 UNL     1      -2.422   5.865  14.190  1.00  0.00     0.073 C 
HETATM   18  C34 UNL     1      -3.227   5.006  13.192  1.00  0.00     0.071 C 
ENDROOT
BRANCH   1  19
HETATM   19  O2  UNL     1      -5.603   4.725  13.424  1.00  0.00    -0.356 OA
BRANCH  19  20
HETATM   20  C3  UNL     1      -6.776   5.391  13.888  1.00  0.00     0.263 C 
HETATM   21  O1  UNL     1      -6.475   6.713  14.319  1.00  0.00    -0.354 OA
HETATM   22  C2  UNL     1      -7.665   7.493  14.530  1.00  0.00     0.151 C 
HETATM   23  C1  UNL     1      -7.221   8.824  15.133  1.00  0.00     0.042 C 
HETATM   24  C37 UNL     1      -8.708   6.714  15.371  1.00  0.00     0.175 C 
HETATM   25  C36 UNL     1      -8.066   5.506  16.065  1.00  0.00     0.154 C 
HETATM   26  C35 UNL     1      -7.329   4.601  15.082  1.00  0.00     0.095 C 
BRANCH  24  27
HETATM   27  O8  UNL     1      -9.357   7.535  16.340  1.00  0.00    -0.390 OA
HETATM   28  H51 UNL     1      -8.792   7.502  17.140  1.00  0.00     0.210 HD
ENDBRANCH  24  27
BRANCH  25  29
HETATM   29  O7  UNL     1      -7.159   5.983  17.071  1.00  0.00    -0.393 OA
HETATM   30  H49 UNL     1      -6.384   6.366  16.599  1.00  0.00     0.210 HD
ENDBRANCH  25  29
ENDBRANCH  19  20
ENDBRANCH   1  19
BRANCH  17  31
HETATM   31  O6  UNL     1      -3.186   5.918  15.407  1.00  0.00    -0.389 OA
HETATM   32  H43 UNL     1      -3.248   5.016  15.779  1.00  0.00     0.210 HD
ENDBRANCH  17  31
BRANCH   4  33
HETATM   33  C8  UNL     1      -1.854   8.230  14.827  1.00  0.00     0.068 C 
HETATM   34  N1  UNL     1      -0.630   8.530  15.108  1.00  0.00    -0.401 N 
ATOM     35  H1  UNL     1       0.161   8.187  14.563  1.00  0.00     0.158 HD
BRANCH  34  36
HETATM   36  C9  UNL     1      -0.471   9.404  16.277  1.00  0.00     0.123 C 
BRANCH  36  37
HETATM   37  C10 UNL     1      -0.981  10.810  15.934  1.00  0.00     0.058 C 
BRANCH  37  38
HETATM   38  C11 UNL     1      -2.056  11.312  16.867  1.00  0.00    -0.057 A 
HETATM   39  C12 UNL     1      -2.459  10.545  17.969  1.00  0.00     0.007 A 
HETATM   40  C13 UNL     1      -3.461  11.010  18.826  1.00  0.00     0.001 A 
HETATM   41  C14 UNL     1      -4.070  12.241  18.588  1.00  0.00     0.000 A 
HETATM   42  C15 UNL     1      -3.678  13.010  17.495  1.00  0.00     0.001 A 
HETATM   43  C16 UNL     1      -2.679  12.548  16.637  1.00  0.00     0.007 A 
ENDBRANCH  37  38
ENDBRANCH  36  37
ENDBRANCH  34  36
ENDBRANCH   4  33
BRANCH  13  44
HETATM   44  O5  UNL     1       2.585   6.210  12.605  1.00  0.00    -0.389 OA
HETATM   45  H37 UNL     1       2.726   6.700  13.433  1.00  0.00     0.210 HD
ENDBRANCH  13  44
BRANCH  10  46
HETATM   46  C23 UNL     1       4.028   7.850  10.263  1.00  0.00    -0.045 A 
HETATM   47  C24 UNL     1       4.844   8.904  10.315  1.00  0.00     0.087 A 
HETATM   48  C25 UNL     1       6.199   8.394  10.514  1.00  0.00     0.283 A 
HETATM   49  O3  UNL     1       7.201   9.080  10.586  1.00  0.00    -0.260 OA
HETATM   50  O4  UNL     1       6.157   7.037  10.603  1.00  0.00    -0.314 OA
HETATM   51  C26 UNL     1       4.805   6.603  10.471  1.00  0.00     0.213 A 
ENDBRANCH  10  46
TORSDOF 11
ENDMDL
MODEL 3
REMARK minimizedAffinity -8.94153118
REMARK CNNscore 0.285388052
REMARK CNNaffinity 6.89894152
REMARK  11 active torsions:
REMARK  status: ('A' for Active; 'I' for Inactive)
REMARK    1  A    between atoms: C3_4  and  O2_5 
REMARK    2  A    between atoms: O2_5  and  C4_6 
REMARK    3  A    between atoms: C7_9  and  C8_10 
REMARK    4  A    between atoms: N1_11  and  C9_13 
REMARK    5  A    between atoms: C9_13  and  C10_14 
REMARK    6  A    between atoms: C10_14  and  C11_15 
REMARK    7  A    between atoms: C22_26  and  C23_27 
REMARK    8  A    between atoms: C29_35  and  O5_36 
REMARK    9  A    between atoms: C33_40  and  O6_41 
REMARK   10  A    between atoms: C36_44  and  O7_45 
REMARK   11  A    between atoms: C37_46  and  O8_47 
ROOT
HETATM    1  C4  UNL     1      -4.391   7.034  14.280  1.00  0.00     0.127 C 
HETATM    2  C5  UNL     1      -3.484   6.269  15.248  1.00  0.00     0.033 C 
HETATM    3  C6  UNL     1      -2.902   7.184  16.318  1.00  0.00     0.021 C 
HETATM    4  C7  UNL     1      -2.080   8.395  15.767  1.00  0.00     0.026 C 
HETATM    5  C17 UNL     1      -2.503   9.699  16.566  1.00  0.00     0.009 C 
HETATM    6  C18 UNL     1      -2.246   9.622  18.089  1.00  0.00     0.007 C 
HETATM    7  C19 UNL     1      -2.747  10.861  18.826  1.00  0.00     0.013 C 
HETATM    8  C20 UNL     1      -2.099  12.177  18.308  1.00  0.00    -0.005 C 
HETATM    9  C21 UNL     1      -0.616  12.201  18.736  1.00  0.00     0.019 C 
HETATM   10  C22 UNL     1      -2.927  13.385  18.869  1.00  0.00     0.028 C 
HETATM   11  C27 UNL     1      -4.105  13.523  17.875  1.00  0.00     0.013 C 
HETATM   12  C28 UNL     1      -3.765  12.696  16.627  1.00  0.00     0.040 C 
HETATM   13  C29 UNL     1      -2.291  12.284  16.769  1.00  0.00     0.070 C 
HETATM   14  C30 UNL     1      -1.897  10.999  15.982  1.00  0.00     0.026 C 
HETATM   15  C31 UNL     1      -2.249  11.133  14.492  1.00  0.00     0.011 C 
HETATM   16  C32 UNL     1      -1.782   9.926  13.698  1.00  0.00     0.039 C 
HETATM   17  C33 UNL     1      -2.319   8.580  14.223  1.00  0.00     0.073 C 
HETATM   18  C34 UNL     1      -3.812   8.405  13.873  1.00  0.00     0.071 C 
ENDROOT
BRANCH   1  19
HETATM   19  O2  UNL     1      -4.667   6.302  13.082  1.00  0.00    -0.356 OA
BRANCH  19  20
HETATM   20  C3  UNL     1      -5.422   5.106  13.275  1.00  0.00     0.263 C 
HETATM   21  O1  UNL     1      -5.379   4.285  12.113  1.00  0.00    -0.354 OA
HETATM   22  C2  UNL     1      -5.892   2.966  12.370  1.00  0.00     0.151 C 
HETATM   23  C1  UNL     1      -5.940   2.240  11.027  1.00  0.00     0.042 C 
HETATM   24  C37 UNL     1      -7.244   3.024  13.125  1.00  0.00     0.175 C 
HETATM   25  C36 UNL     1      -7.853   4.431  13.060  1.00  0.00     0.154 C 
HETATM   26  C35 UNL     1      -6.879   5.503  13.541  1.00  0.00     0.095 C 
BRANCH  24  27
HETATM   27  O8  UNL     1      -8.187   2.071  12.640  1.00  0.00    -0.390 OA
HETATM   28  H51 UNL     1      -8.660   2.513  11.904  1.00  0.00     0.210 HD
ENDBRANCH  24  27
BRANCH  25  29
HETATM   29  O7  UNL     1      -8.249   4.697  11.706  1.00  0.00    -0.393 OA
HETATM   30  H49 UNL     1      -7.422   4.822  11.185  1.00  0.00     0.210 HD
ENDBRANCH  25  29
ENDBRANCH  19  20
ENDBRANCH   1  19
BRANCH  17  31
HETATM   31  O6  UNL     1      -1.598   7.568  13.499  1.00  0.00    -0.389 OA
HETATM   32  H43 UNL     1      -1.697   7.737  12.541  1.00  0.00     0.210 HD
ENDBRANCH  17  31
BRANCH   4  33
HETATM   33  C8  UNL     1      -0.582   8.103  15.977  1.00  0.00     0.068 C 
HETATM   34  N1  UNL     1       0.226   7.951  14.981  1.00  0.00    -0.401 N 
ATOM     35  H1  UNL     1      -0.076   8.016  14.010  1.00  0.00     0.158 HD
BRANCH  34  36
HETATM   36  C9  UNL     1       1.618   7.677  15.364  1.00  0.00     0.123 C 
BRANCH  36  37
HETATM   37  C10 UNL     1       2.526   7.856  14.141  1.00  0.00     0.058 C 
BRANCH  37  38
HETATM   38  C11 UNL     1       1.839   7.574  12.826  1.00  0.00    -0.057 A 
HETATM   39  C12 UNL     1       1.597   6.255  12.416  1.00  0.00     0.007 A 
HETATM   40  C13 UNL     1       0.968   5.998  11.194  1.00  0.00     0.001 A 
HETATM   41  C14 UNL     1       0.579   7.055  10.372  1.00  0.00     0.000 A 
HETATM   42  C15 UNL     1       0.817   8.368  10.769  1.00  0.00     0.001 A 
HETATM   43  C16 UNL     1       1.446   8.627  11.988  1.00  0.00     0.007 A 
ENDBRANCH  37  38
ENDBRANCH  36  37
ENDBRANCH  34  36
ENDBRANCH   4  33
BRANCH  13  44
HETATM   44  O5  UNL     1      -1.518  13.372  16.247  1.00  0.00    -0.389 OA
HETATM   45  H37 UNL     1      -0.579  13.120  16.255  1.00  0.00     0.210 HD
ENDBRANCH  13  44
BRANCH  10  46
HETATM   46  C23 UNL     1      -2.183  14.682  19.093  1.00  0.00    -0.045 A 
HETATM   47  C24 UNL     1      -1.244  14.975  19.994  1.00  0.00     0.087 A 
HETATM   48  C25 UNL     1      -0.841  16.361  19.764  1.00  0.00     0.283 A 
HETATM   49  O3  UNL     1      -0.016  16.967  20.422  1.00  0.00    -0.260 OA
HETATM   50  O4  UNL     1      -1.535  16.859  18.706  1.00  0.00    -0.314 OA
HETATM   51  C26 UNL     1      -2.405  15.848  18.202  1.00  0.00     0.213 A 
ENDBRANCH  10  46
TORSDOF 11
ENDMDL
MODEL 4
REMARK minimizedAffinity -9.99399662
REMARK CNNscore 0.282531589
REMARK CNNaffinity 6.94080782
REMARK  11 active torsions:
REMARK  status: ('A' for Active; 'I' for Inactive)
REMARK    1  A    between atoms: C3_4  and  O2_5 
REMARK    2  A    between atoms: O2_5  and  C4_6 
REMARK    3  A    between atoms: C7_9  and  C8_10 
REMARK    4  A    between atoms: N1_11  and  C9_13 
REMARK    5  A    between atoms: C9_13  and  C10_14 
REMARK    6  A    between atoms: C10_14  and  C11_15 
REMARK    7  A    between atoms: C22_26  and  C23_27 
REMARK    8  A    between atoms: C29_35  and  O5_36 
REMARK    9  A    between atoms: C33_40  and  O6_41 
REMARK   10  A    between atoms: C36_44  and  O7_45 
REMARK   11  A    between atoms: C37_46  and  O8_47 
ROOT
HETATM    1  C4  UNL     1      -4.785   6.852  13.884  1.00  0.00     0.127 C 
HETATM    2  C5  UNL     1      -4.829   8.357  13.605  1.00  0.00     0.033 C 
HETATM    3  C6  UNL     1      -3.541   8.848  12.956  1.00  0.00     0.021 C 
HETATM    4  C7  UNL     1      -2.243   8.565  13.783  1.00  0.00     0.026 C 
HETATM    5  C17 UNL     1      -1.129   8.010  12.799  1.00  0.00     0.009 C 
HETATM    6  C18 UNL     1      -0.746   8.984  11.660  1.00  0.00     0.007 C 
HETATM    7  C19 UNL     1       0.264   8.375  10.691  1.00  0.00     0.013 C 
HETATM    8  C20 UNL     1       1.581   7.932  11.389  1.00  0.00    -0.005 C 
HETATM    9  C21 UNL     1       2.362   9.192  11.821  1.00  0.00     0.019 C 
HETATM   10  C22 UNL     1       2.380   7.018  10.395  1.00  0.00     0.028 C 
HETATM   11  C27 UNL     1       1.752   5.617  10.592  1.00  0.00     0.013 C 
HETATM   12  C28 UNL     1       0.916   5.654  11.878  1.00  0.00     0.040 C 
HETATM   13  C29 UNL     1       1.251   6.983  12.574  1.00  0.00     0.070 C 
HETATM   14  C30 UNL     1       0.142   7.513  13.532  1.00  0.00     0.026 C 
HETATM   15  C31 UNL     1      -0.227   6.460  14.589  1.00  0.00     0.011 C 
HETATM   16  C32 UNL     1      -1.236   6.999  15.585  1.00  0.00     0.039 C 
HETATM   17  C33 UNL     1      -2.529   7.541  14.942  1.00  0.00     0.073 C 
HETATM   18  C34 UNL     1      -3.427   6.387  14.448  1.00  0.00     0.071 C 
ENDROOT
BRANCH   1  19
HETATM   19  O2  UNL     1      -5.806   6.427  14.792  1.00  0.00    -0.356 OA
BRANCH  19  20
HETATM   20  C3  UNL     1      -6.426   5.187  14.453  1.00  0.00     0.263 C 
HETATM   21  O1  UNL     1      -5.915   4.681  13.225  1.00  0.00    -0.354 OA
HETATM   22  C2  UNL     1      -6.313   3.317  13.000  1.00  0.00     0.151 C 
HETATM   23  C1  UNL     1      -5.842   2.944  11.597  1.00  0.00     0.042 C 
HETATM   24  C37 UNL     1      -7.831   3.124  13.249  1.00  0.00     0.175 C 
HETATM   25  C36 UNL     1      -8.560   4.474  13.290  1.00  0.00     0.154 C 
HETATM   26  C35 UNL     1      -7.931   5.438  14.292  1.00  0.00     0.095 C 
BRANCH  24  27
HETATM   27  O8  UNL     1      -8.444   2.277  12.279  1.00  0.00    -0.390 OA
HETATM   28  H51 UNL     1      -8.712   2.865  11.542  1.00  0.00     0.210 HD
ENDBRANCH  24  27
BRANCH  25  29
HETATM   29  O7  UNL     1      -8.538   5.047  11.974  1.00  0.00    -0.393 OA
HETATM   30  H49 UNL     1      -7.611   5.335  11.803  1.00  0.00     0.210 HD
ENDBRANCH  25  29
ENDBRANCH  19  20
ENDBRANCH   1  19
BRANCH  17  31
HETATM   31  O6  UNL     1      -3.241   8.200  16.004  1.00  0.00    -0.389 OA
HETATM   32  H43 UNL     1      -3.349   7.573  16.746  1.00  0.00     0.210 HD
ENDBRANCH  17  31
BRANCH   4  33
HETATM   33  C8  UNL     1      -1.779   9.885  14.428  1.00  0.00     0.068 C 
HETATM   34  N1  UNL     1      -2.611  10.696  14.990  1.00  0.00    -0.401 N 
ATOM     35  H1  UNL     1      -3.613  10.511  15.040  1.00  0.00     0.158 HD
BRANCH  34  36
HETATM   36  C9  UNL     1      -1.996  11.905  15.552  1.00  0.00     0.123 C 
BRANCH  36  37
HETATM   37  C10 UNL     1      -1.436  12.767  14.414  1.00  0.00     0.058 C 
BRANCH  37  38
HETATM   38  C11 UNL     1      -1.837  14.221  14.497  1.00  0.00    -0.057 A 
HETATM   39  C12 UNL     1      -3.083  14.645  14.016  1.00  0.00     0.007 A 
HETATM   40  C13 UNL     1      -3.447  15.993  14.087  1.00  0.00     0.001 A 
HETATM   41  C14 UNL     1      -2.569  16.927  14.635  1.00  0.00     0.000 A 
HETATM   42  C15 UNL     1      -1.328  16.515  15.113  1.00  0.00     0.001 A 
HETATM   43  C16 UNL     1      -0.961  15.171  15.043  1.00  0.00     0.007 A 
ENDBRANCH  37  38
ENDBRANCH  36  37
ENDBRANCH  34  36
ENDBRANCH   4  33
BRANCH  13  44
HETATM   44  O5  UNL     1       2.426   6.739  13.358  1.00  0.00    -0.389 OA
HETATM   45  H37 UNL     1       2.631   7.540  13.871  1.00  0.00     0.210 HD
ENDBRANCH  13  44
BRANCH  10  46
HETATM   46  C23 UNL     1       3.886   7.019  10.521  1.00  0.00    -0.045 A 
HETATM   47  C24 UNL     1       4.722   8.046  10.685  1.00  0.00     0.087 A 
HETATM   48  C25 UNL     1       6.072   7.495  10.772  1.00  0.00     0.283 A 
HETATM   49  O3  UNL     1       7.089   8.152  10.901  1.00  0.00    -0.260 OA
HETATM   50  O4  UNL     1       6.009   6.139  10.683  1.00  0.00    -0.314 OA
HETATM   51  C26 UNL     1       4.647   5.744  10.538  1.00  0.00     0.213 A 
ENDBRANCH  10  46
TORSDOF 11
ENDMDL
MODEL 5
REMARK minimizedAffinity -9.55751705
REMARK CNNscore 0.271400541
REMARK CNNaffinity 6.96600962
REMARK  11 active torsions:
REMARK  status: ('A' for Active; 'I' for Inactive)
REMARK    1  A    between atoms: C3_4  and  O2_5 
REMARK    2  A    between atoms: O2_5  and  C4_6 
REMARK    3  A    between atoms: C7_9  and  C8_10 
REMARK    4  A    between atoms: N1_11  and  C9_13 
REMARK    5  A    between atoms: C9_13  and  C10_14 
REMARK    6  A    between atoms: C10_14  and  C11_15 
REMARK    7  A    between atoms: C22_26  and  C23_27 
REMARK    8  A    between atoms: C29_35  and  O5_36 
REMARK    9  A    between atoms: C33_40  and  O6_41 
REMARK   10  A    between atoms: C36_44  and  O7_45 
REMARK   11  A    between atoms: C37_46  and  O8_47 
ROOT
HETATM    1  C4  UNL     1      -3.128   5.692  14.195  1.00  0.00     0.127 C 
HETATM    2  C5  UNL     1      -1.767   5.005  14.335  1.00  0.00     0.033 C 
HETATM    3  C6  UNL     1      -0.705   5.962  14.863  1.00  0.00     0.021 C 
HETATM    4  C7  UNL     1      -0.492   7.246  13.995  1.00  0.00     0.026 C 
HETATM    5  C17 UNL     1      -0.406   8.501  14.962  1.00  0.00     0.009 C 
HETATM    6  C18 UNL     1       0.753   8.437  15.984  1.00  0.00     0.007 C 
HETATM    7  C19 UNL     1       0.744   9.621  16.947  1.00  0.00     0.013 C 
HETATM    8  C20 UNL     1       0.836  10.993  16.221  1.00  0.00    -0.005 C 
HETATM    9  C21 UNL     1       2.254  11.148  15.631  1.00  0.00     0.019 C 
HETATM   10  C22 UNL     1       0.465  12.118  17.249  1.00  0.00     0.028 C 
HETATM   11  C27 UNL     1      -1.082  12.156  17.218  1.00  0.00     0.013 C 
HETATM   12  C28 UNL     1      -1.545  11.372  15.982  1.00  0.00     0.040 C 
HETATM   13  C29 UNL     1      -0.284  11.093  15.148  1.00  0.00     0.070 C 
HETATM   14  C30 UNL     1      -0.387   9.854  14.210  1.00  0.00     0.026 C 
HETATM   15  C31 UNL     1      -1.604   9.965  13.276  1.00  0.00     0.011 C 
HETATM   16  C32 UNL     1      -1.659   8.812  12.292  1.00  0.00     0.039 C 
HETATM   17  C33 UNL     1      -1.658   7.419  12.953  1.00  0.00     0.073 C 
HETATM   18  C34 UNL     1      -3.025   7.112  13.601  1.00  0.00     0.071 C 
ENDROOT
BRANCH   1  19
HETATM   19  O2  UNL     1      -4.045   4.946  13.388  1.00  0.00    -0.356 OA
BRANCH  19  20
HETATM   20  C3  UNL     1      -5.373   5.467  13.356  1.00  0.00     0.263 C 
HETATM   21  O1  UNL     1      -5.847   5.733  14.672  1.00  0.00    -0.354 OA
HETATM   22  C2  UNL     1      -7.059   6.507  14.659  1.00  0.00     0.151 C 
HETATM   23  C1  UNL     1      -7.548   6.590  16.103  1.00  0.00     0.042 C 
HETATM   24  C37 UNL     1      -8.089   5.926  13.657  1.00  0.00     0.175 C 
HETATM   25  C36 UNL     1      -7.710   4.499  13.241  1.00  0.00     0.154 C 
HETATM   26  C35 UNL     1      -6.281   4.413  12.711  1.00  0.00     0.095 C 
BRANCH  24  27
HETATM   27  O8  UNL     1      -9.421   5.938  14.168  1.00  0.00    -0.390 OA
HETATM   28  H51 UNL     1      -9.528   5.096  14.657  1.00  0.00     0.210 HD
ENDBRANCH  24  27
BRANCH  25  29
HETATM   29  O7  UNL     1      -7.867   3.633  14.376  1.00  0.00    -0.393 OA
HETATM   30  H49 UNL     1      -7.138   3.849  15.003  1.00  0.00     0.210 HD
ENDBRANCH  25  29
ENDBRANCH  19  20
ENDBRANCH   1  19
BRANCH  17  31
HETATM   31  O6  UNL     1      -1.485   6.481  11.876  1.00  0.00    -0.389 OA
HETATM   32  H43 UNL     1      -2.174   6.646  11.202  1.00  0.00     0.210 HD
ENDBRANCH  17  31
BRANCH   4  33
HETATM   33  C8  UNL     1       0.822   7.088  13.206  1.00  0.00     0.068 C 
HETATM   34  N1  UNL     1       1.498   8.110  12.801  1.00  0.00    -0.401 N 
ATOM     35  H1  UNL     1       1.205   9.071  12.978  1.00  0.00     0.158 HD
BRANCH  34  36
HETATM   36  C9  UNL     1       2.723   7.776  12.063  1.00  0.00     0.123 C 
BRANCH  36  37
HETATM   37  C10 UNL     1       2.483   6.515  11.223  1.00  0.00     0.058 C 
BRANCH  37  38
HETATM   38  C11 UNL     1       2.202   6.798   9.767  1.00  0.00    -0.057 A 
HETATM   39  C12 UNL     1       2.787   6.014   8.762  1.00  0.00     0.007 A 
HETATM   40  C13 UNL     1       2.531   6.285   7.415  1.00  0.00     0.001 A 
HETATM   41  C14 UNL     1       1.693   7.342   7.060  1.00  0.00     0.000 A 
HETATM   42  C15 UNL     1       1.110   8.127   8.051  1.00  0.00     0.001 A 
HETATM   43  C16 UNL     1       1.364   7.860   9.397  1.00  0.00     0.007 A 
ENDBRANCH  37  38
ENDBRANCH  36  37
ENDBRANCH  34  36
ENDBRANCH   4  33
BRANCH  13  44
HETATM   44  O5  UNL     1      -0.084  12.250  14.326  1.00  0.00    -0.389 OA
HETATM   45  H37 UNL     1       0.667  12.083  13.731  1.00  0.00     0.210 HD
ENDBRANCH  13  44
BRANCH  10  46
HETATM   46  C23 UNL     1       1.097  13.475  17.039  1.00  0.00    -0.045 A 
HETATM   47  C24 UNL     1       0.633  14.532  16.370  1.00  0.00     0.087 A 
HETATM   48  C25 UNL     1       1.627  15.596  16.498  1.00  0.00     0.283 A 
HETATM   49  O3  UNL     1       1.540  16.698  15.990  1.00  0.00    -0.260 OA
HETATM   50  O4  UNL     1       2.658  15.154  17.267  1.00  0.00    -0.314 OA
HETATM   51  C26 UNL     1       2.396  13.813  17.673  1.00  0.00     0.213 A 
ENDBRANCH  10  46
TORSDOF 11
ENDMDL
MODEL 6
REMARK minimizedAffinity -8.39511299
REMARK CNNscore 0.267994434
REMARK CNNaffinity 6.90953207
REMARK  11 active torsions:
REMARK  status: ('A' for Active; 'I' for Inactive)
REMARK    1  A    between atoms: C3_4  and  O2_5 
REMARK    2  A    between atoms: O2_5  and  C4_6 
REMARK    3  A    between atoms: C7_9  and  C8_10 
REMARK    4  A    between atoms: N1_11  and  C9_13 
REMARK    5  A    between atoms: C9_13  and  C10_14 
REMARK    6  A    between atoms: C10_14  and  C11_15 
REMARK    7  A    between atoms: C22_26  and  C23_27 
REMARK    8  A    between atoms: C29_35  and  O5_36 
REMARK    9  A    between atoms: C33_40  and  O6_41 
REMARK   10  A    between atoms: C36_44  and  O7_45 
REMARK   11  A    between atoms: C37_46  and  O8_47 
ROOT
HETATM    1  C4  UNL     1      -3.962   6.545  14.867  1.00  0.00     0.127 C 
HETATM    2  C5  UNL     1      -2.743   5.619  14.878  1.00  0.00     0.033 C 
HETATM    3  C6  UNL     1      -1.472   6.365  15.266  1.00  0.00     0.021 C 
HETATM    4  C7  UNL     1      -1.123   7.582  14.348  1.00  0.00     0.026 C 
HETATM    5  C17 UNL     1      -0.703   8.805  15.269  1.00  0.00     0.009 C 
HETATM    6  C18 UNL     1       0.530   8.532  16.162  1.00  0.00     0.007 C 
HETATM    7  C19 UNL     1       0.844   9.702  17.091  1.00  0.00     0.013 C 
HETATM    8  C20 UNL     1       1.106  11.030  16.325  1.00  0.00    -0.005 C 
HETATM    9  C21 UNL     1       2.455  10.917  15.583  1.00  0.00     0.019 C 
HETATM   10  C22 UNL     1       1.062  12.210  17.357  1.00  0.00     0.028 C 
HETATM   11  C27 UNL     1      -0.446  12.533  17.491  1.00  0.00     0.013 C 
HETATM   12  C28 UNL     1      -1.177  11.842  16.331  1.00  0.00     0.040 C 
HETATM   13  C29 UNL     1      -0.088  11.330  15.375  1.00  0.00     0.070 C 
HETATM   14  C30 UNL     1      -0.518  10.127  14.484  1.00  0.00     0.026 C 
HETATM   15  C31 UNL     1      -1.788  10.457  13.684  1.00  0.00     0.011 C 
HETATM   16  C32 UNL     1      -2.162   9.328  12.740  1.00  0.00     0.039 C 
HETATM   17  C33 UNL     1      -2.344   7.963  13.432  1.00  0.00     0.073 C 
HETATM   18  C34 UNL     1      -3.665   7.918  14.230  1.00  0.00     0.071 C 
ENDROOT
BRANCH   1  19
HETATM   19  O2  UNL     1      -5.083   5.977  14.182  1.00  0.00    -0.356 OA
BRANCH  19  20
HETATM   20  C3  UNL     1      -4.846   4.691  13.613  1.00  0.00     0.263 C 
HETATM   21  O1  UNL     1      -4.210   4.804  12.345  1.00  0.00    -0.354 OA
HETATM   22  C2  UNL     1      -3.714   3.537  11.878  1.00  0.00     0.151 C 
HETATM   23  C1  UNL     1      -3.202   3.758  10.456  1.00  0.00     0.042 C 
HETATM   24  C37 UNL     1      -4.786   2.426  12.017  1.00  0.00     0.175 C 
HETATM   25  C36 UNL     1      -6.179   3.028  12.246  1.00  0.00     0.154 C 
HETATM   26  C35 UNL     1      -6.201   3.999  13.423  1.00  0.00     0.095 C 
BRANCH  24  27
HETATM   27  O8  UNL     1      -4.820   1.551  10.891  1.00  0.00    -0.390 OA
HETATM   28  H51 UNL     1      -5.435   1.964  10.250  1.00  0.00     0.210 HD
ENDBRANCH  24  27
BRANCH  25  29
HETATM   29  O7  UNL     1      -6.591   3.700  11.045  1.00  0.00    -0.393 OA
HETATM   30  H49 UNL     1      -6.041   4.514  10.970  1.00  0.00     0.210 HD
ENDBRANCH  25  29
ENDBRANCH  19  20
ENDBRANCH   1  19
BRANCH  17  31
HETATM   31  O6  UNL     1      -2.465   7.004  12.367  1.00  0.00    -0.389 OA
HETATM   32  H43 UNL     1      -3.182   7.291  11.766  1.00  0.00     0.210 HD
ENDBRANCH  17  31
BRANCH   4  33
HETATM   33  C8  UNL     1       0.045   7.180  13.428  1.00  0.00     0.068 C 
HETATM   34  N1  UNL     1       0.437   5.954  13.324  1.00  0.00    -0.401 N 
ATOM     35  H1  UNL     1       0.000   5.190  13.838  1.00  0.00     0.158 HD
BRANCH  34  36
HETATM   36  C9  UNL     1       1.563   5.752  12.403  1.00  0.00     0.123 C 
BRANCH  36  37
HETATM   37  C10 UNL     1       1.026   5.348  11.024  1.00  0.00     0.058 C 
BRANCH  37  38
HETATM   38  C11 UNL     1       1.266   6.382   9.950  1.00  0.00    -0.057 A 
HETATM   39  C12 UNL     1       2.422   6.332   9.159  1.00  0.00     0.007 A 
HETATM   40  C13 UNL     1       2.646   7.296   8.171  1.00  0.00     0.001 A 
HETATM   41  C14 UNL     1       1.719   8.318   7.969  1.00  0.00     0.000 A 
HETATM   42  C15 UNL     1       0.569   8.377   8.751  1.00  0.00     0.001 A 
HETATM   43  C16 UNL     1       0.344   7.417   9.738  1.00  0.00     0.007 A 
ENDBRANCH  37  38
ENDBRANCH  36  37
ENDBRANCH  34  36
ENDBRANCH   4  33
BRANCH  13  44
HETATM   44  O5  UNL     1       0.231  12.426  14.508  1.00  0.00    -0.389 OA
HETATM   45  H37 UNL     1       0.868  12.120  13.840  1.00  0.00     0.210 HD
ENDBRANCH  13  44
BRANCH  10  46
HETATM   46  C23 UNL     1       1.906  13.425  17.048  1.00  0.00    -0.045 A 
HETATM   47  C24 UNL     1       3.229  13.525  16.911  1.00  0.00     0.087 A 
HETATM   48  C25 UNL     1       3.527  14.919  16.590  1.00  0.00     0.283 A 
HETATM   49  O3  UNL     1       4.643  15.374  16.420  1.00  0.00    -0.260 OA
HETATM   50  O4  UNL     1       2.364  15.620  16.518  1.00  0.00    -0.314 OA
HETATM   51  C26 UNL     1       1.273  14.740  16.779  1.00  0.00     0.213 A 
ENDBRANCH  10  46
TORSDOF 11
ENDMDL
MODEL 7
REMARK minimizedAffinity -8.30144215
REMARK CNNscore 0.23940146
REMARK CNNaffinity 6.10538864
REMARK  11 active torsions:
REMARK  status: ('A' for Active; 'I' for Inactive)
REMARK    1  A    between atoms: C3_4  and  O2_5 
REMARK    2  A    between atoms: O2_5  and  C4_6 
REMARK    3  A    between atoms: C7_9  and  C8_10 
REMARK    4  A    between atoms: N1_11  and  C9_13 
REMARK    5  A    between atoms: C9_13  and  C10_14 
REMARK    6  A    between atoms: C10_14  and  C11_15 
REMARK    7  A    between atoms: C22_26  and  C23_27 
REMARK    8  A    between atoms: C29_35  and  O5_36 
REMARK    9  A    between atoms: C33_40  and  O6_41 
REMARK   10  A    between atoms: C36_44  and  O7_45 
REMARK   11  A    between atoms: C37_46  and  O8_47 
ROOT
HETATM    1  C4  UNL     1      -2.783   8.071  14.214  1.00  0.00     0.127 C 
HETATM    2  C5  UNL     1      -2.189   7.516  15.512  1.00  0.00     0.033 C 
HETATM    3  C6  UNL     1      -2.359   8.490  16.672  1.00  0.00     0.021 C 
HETATM    4  C7  UNL     1      -1.729   9.902  16.437  1.00  0.00     0.026 C 
HETATM    5  C17 UNL     1      -2.767  11.004  16.914  1.00  0.00     0.009 C 
HETATM    6  C18 UNL     1      -3.148  10.911  18.410  1.00  0.00     0.007 C 
HETATM    7  C19 UNL     1      -4.211  11.933  18.803  1.00  0.00     0.013 C 
HETATM    8  C20 UNL     1      -3.775  13.399  18.521  1.00  0.00    -0.005 C 
HETATM    9  C21 UNL     1      -2.661  13.786  19.519  1.00  0.00     0.019 C 
HETATM   10  C22 UNL     1      -5.043  14.317  18.621  1.00  0.00     0.028 C 
HETATM   11  C27 UNL     1      -5.700  14.198  17.225  1.00  0.00     0.013 C 
HETATM   12  C28 UNL     1      -4.674  13.560  16.277  1.00  0.00     0.040 C 
HETATM   13  C29 UNL     1      -3.338  13.539  17.036  1.00  0.00     0.070 C 
HETATM   14  C30 UNL     1      -2.335  12.447  16.556  1.00  0.00     0.026 C 
HETATM   15  C31 UNL     1      -2.065  12.568  15.048  1.00  0.00     0.011 C 
HETATM   16  C32 UNL     1      -1.017  11.572  14.587  1.00  0.00     0.039 C 
HETATM   17  C33 UNL     1      -1.352  10.104  14.923  1.00  0.00     0.073 C 
HETATM   18  C34 UNL     1      -2.467   9.566  14.002  1.00  0.00     0.071 C 
ENDROOT
BRANCH   1  19
HETATM   19  O2  UNL     1      -2.342   7.360  13.053  1.00  0.00    -0.356 OA
BRANCH  19  20
HETATM   20  C3  UNL     1      -0.953   7.037  13.045  1.00  0.00     0.263 C 
HETATM   21  O1  UNL     1      -0.283   7.698  11.977  1.00  0.00    -0.354 OA
HETATM   22  C2  UNL     1       1.147   7.613  12.107  1.00  0.00     0.151 C 
HETATM   23  C1  UNL     1       1.744   8.215  10.836  1.00  0.00     0.042 C 
HETATM   24  C37 UNL     1       1.600   6.163  12.414  1.00  0.00     0.175 C 
HETATM   25  C36 UNL     1       0.476   5.160  12.123  1.00  0.00     0.154 C 
HETATM   26  C35 UNL     1      -0.820   5.522  12.843  1.00  0.00     0.095 C 
BRANCH  24  27
HETATM   27  O8  UNL     1       2.774   5.790  11.694  1.00  0.00    -0.390 OA
HETATM   28  H51 UNL     1       2.461   5.435  10.837  1.00  0.00     0.210 HD
ENDBRANCH  24  27
BRANCH  25  29
HETATM   29  O7  UNL     1       0.256   5.116  10.704  1.00  0.00    -0.393 OA
HETATM   30  H49 UNL     1      -0.177   5.966  10.456  1.00  0.00     0.210 HD
ENDBRANCH  25  29
ENDBRANCH  19  20
ENDBRANCH   1  19
BRANCH  17  31
HETATM   31  O6  UNL     1      -0.161   9.358  14.619  1.00  0.00    -0.389 OA
HETATM   32  H43 UNL     1       0.102   9.548  13.697  1.00  0.00     0.210 HD
ENDBRANCH  17  31
BRANCH   4  33
HETATM   33  C8  UNL     1      -0.430   9.999  17.260  1.00  0.00     0.068 C 
HETATM   34  N1  UNL     1      -0.221  10.967  18.088  1.00  0.00    -0.401 N 
ATOM     35  H1  UNL     1      -0.896  11.716  18.243  1.00  0.00     0.158 HD
BRANCH  34  36
HETATM   36  C9  UNL     1       1.070  10.902  18.786  1.00  0.00     0.123 C 
BRANCH  36  37
HETATM   37  C10 UNL     1       0.827  10.864  20.300  1.00  0.00     0.058 C 
BRANCH  37  38
HETATM   38  C11 UNL     1       2.031  10.425  21.099  1.00  0.00    -0.057 A 
HETATM   39  C12 UNL     1       1.968   9.288  21.916  1.00  0.00     0.007 A 
HETATM   40  C13 UNL     1       3.082   8.889  22.661  1.00  0.00     0.001 A 
HETATM   41  C14 UNL     1       4.265   9.624  22.597  1.00  0.00     0.000 A 
HETATM   42  C15 UNL     1       4.337  10.756  21.789  1.00  0.00     0.001 A 
HETATM   43  C16 UNL     1       3.226  11.157  21.046  1.00  0.00     0.007 A 
ENDBRANCH  37  38
ENDBRANCH  36  37
ENDBRANCH  34  36
ENDBRANCH   4  33
BRANCH  13  44
HETATM   44  O5  UNL     1      -2.731  14.819  16.815  1.00  0.00    -0.389 OA
HETATM   45  H37 UNL     1      -1.848  14.820  17.222  1.00  0.00     0.210 HD
ENDBRANCH  13  44
BRANCH  10  46
HETATM   46  C23 UNL     1      -4.822  15.748  19.055  1.00  0.00    -0.045 A 
HETATM   47  C24 UNL     1      -4.577  16.830  18.313  1.00  0.00     0.087 A 
HETATM   48  C25 UNL     1      -4.468  17.965  19.227  1.00  0.00     0.283 A 
HETATM   49  O3  UNL     1      -4.225  19.110  18.894  1.00  0.00    -0.260 OA
HETATM   50  O4  UNL     1      -4.677  17.536  20.500  1.00  0.00    -0.314 OA
HETATM   51  C26 UNL     1      -4.929  16.133  20.484  1.00  0.00     0.213 A 
ENDBRANCH  10  46
TORSDOF 11
ENDMDL
MODEL 8
REMARK minimizedAffinity -9.15091515
REMARK CNNscore 0.204110742
REMARK CNNaffinity 6.66005516
REMARK  11 active torsions:
REMARK  status: ('A' for Active; 'I' for Inactive)
REMARK    1  A    between atoms: C3_4  and  O2_5 
REMARK    2  A    between atoms: O2_5  and  C4_6 
REMARK    3  A    between atoms: C7_9  and  C8_10 
REMARK    4  A    between atoms: N1_11  and  C9_13 
REMARK    5  A    between atoms: C9_13  and  C10_14 
REMARK    6  A    between atoms: C10_14  and  C11_15 
REMARK    7  A    between atoms: C22_26  and  C23_27 
REMARK    8  A    between atoms: C29_35  and  O5_36 
REMARK    9  A    between atoms: C33_40  and  O6_41 
REMARK   10  A    between atoms: C36_44  and  O7_45 
REMARK   11  A    between atoms: C37_46  and  O8_47 
ROOT
HETATM    1  C4  UNL     1      -4.061   6.271  13.235  1.00  0.00     0.127 C 
HETATM    2  C5  UNL     1      -4.240   7.779  13.039  1.00  0.00     0.033 C 
HETATM    3  C6  UNL     1      -2.957   8.439  12.546  1.00  0.00     0.021 C 
HETATM    4  C7  UNL     1      -1.717   8.234  13.478  1.00  0.00     0.026 C 
HETATM    5  C17 UNL     1      -0.465   7.860  12.578  1.00  0.00     0.009 C 
HETATM    6  C18 UNL     1      -0.087   8.940  11.537  1.00  0.00     0.007 C 
HETATM    7  C19 UNL     1       1.066   8.501  10.639  1.00  0.00     0.013 C 
HETATM    8  C20 UNL     1       2.354   8.147  11.435  1.00  0.00    -0.005 C 
HETATM    9  C21 UNL     1       2.954   9.448  12.011  1.00  0.00     0.019 C 
HETATM   10  C22 UNL     1       3.332   7.386  10.474  1.00  0.00     0.028 C 
HETATM   11  C27 UNL     1       2.842   5.919  10.529  1.00  0.00     0.013 C 
HETATM   12  C28 UNL     1       1.893   5.787  11.729  1.00  0.00     0.040 C 
HETATM   13  C29 UNL     1       2.020   7.094  12.528  1.00  0.00     0.070 C 
HETATM   14  C30 UNL     1       0.779   7.445  13.401  1.00  0.00     0.026 C 
HETATM   15  C31 UNL     1       0.430   6.293  14.356  1.00  0.00     0.011 C 
HETATM   16  C32 UNL     1      -0.718   6.661  15.279  1.00  0.00     0.039 C 
HETATM   17  C33 UNL     1      -1.997   7.112  14.545  1.00  0.00     0.073 C 
HETATM   18  C34 UNL     1      -2.719   5.908  13.902  1.00  0.00     0.071 C 
ENDROOT
BRANCH   1  19
HETATM   19  O2  UNL     1      -5.110   5.686  14.014  1.00  0.00    -0.356 OA
BRANCH  19  20
HETATM   20  C3  UNL     1      -6.420   6.148  13.693  1.00  0.00     0.263 C 
HETATM   21  O1  UNL     1      -7.248   6.176  14.851  1.00  0.00    -0.354 OA
HETATM   22  C2  UNL     1      -8.475   6.890  14.617  1.00  0.00     0.151 C 
HETATM   23  C1  UNL     1      -9.334   6.717  15.867  1.00  0.00     0.042 C 
HETATM   24  C37 UNL     1      -9.148   6.435  13.297  1.00  0.00     0.175 C 
HETATM   25  C36 UNL     1      -8.551   5.112  12.800  1.00  0.00     0.154 C 
HETATM   26  C35 UNL     1      -7.032   5.175  12.678  1.00  0.00     0.095 C 
BRANCH  24  27
HETATM   27  O8  UNL     1     -10.564   6.307  13.418  1.00  0.00    -0.390 OA
HETATM   28  H51 UNL     1     -10.724   5.393  13.732  1.00  0.00     0.210 HD
ENDBRANCH  24  27
BRANCH  25  29
HETATM   29  O7  UNL     1      -8.929   4.067  13.711  1.00  0.00    -0.393 OA
HETATM   30  H49 UNL     1      -8.415   4.210  14.539  1.00  0.00     0.210 HD
ENDBRANCH  25  29
ENDBRANCH  19  20
ENDBRANCH   1  19
BRANCH  17  31
HETATM   31  O6  UNL     1      -2.868   7.625  15.568  1.00  0.00    -0.389 OA
HETATM   32  H43 UNL     1      -2.976   6.942  16.260  1.00  0.00     0.210 HD
ENDBRANCH  17  31
BRANCH   4  33
HETATM   33  C8  UNL     1      -1.456   9.548  14.238  1.00  0.00     0.068 C 
HETATM   34  N1  UNL     1      -2.205   9.925  15.220  1.00  0.00    -0.401 N 
ATOM     35  H1  UNL     1      -3.004   9.381  15.545  1.00  0.00     0.158 HD
BRANCH  34  36
HETATM   36  C9  UNL     1      -1.813  11.203  15.829  1.00  0.00     0.123 C 
BRANCH  36  37
HETATM   37  C10 UNL     1      -1.438  12.199  14.724  1.00  0.00     0.058 C 
BRANCH  37  38
HETATM   38  C11 UNL     1      -2.042  13.570  14.910  1.00  0.00    -0.057 A 
HETATM   39  C12 UNL     1      -2.351  14.045  16.192  1.00  0.00     0.007 A 
HETATM   40  C13 UNL     1      -2.918  15.312  16.359  1.00  0.00     0.001 A 
HETATM   41  C14 UNL     1      -3.184  16.112  15.249  1.00  0.00     0.000 A 
HETATM   42  C15 UNL     1      -2.883  15.648  13.971  1.00  0.00     0.001 A 
HETATM   43  C16 UNL     1      -2.317  14.383  13.801  1.00  0.00     0.007 A 
ENDBRANCH  37  38
ENDBRANCH  36  37
ENDBRANCH  34  36
ENDBRANCH   4  33
BRANCH  13  44
HETATM   44  O5  UNL     1       3.139   6.918  13.407  1.00  0.00    -0.389 OA
HETATM   45  H37 UNL     1       3.210   7.700  13.981  1.00  0.00     0.210 HD
ENDBRANCH  13  44
BRANCH  10  46
HETATM   46  C23 UNL     1       4.812   7.530  10.746  1.00  0.00    -0.045 A 
HETATM   47  C24 UNL     1       5.655   6.672  11.324  1.00  0.00     0.087 A 
HETATM   48  C25 UNL     1       6.977   7.293  11.318  1.00  0.00     0.283 A 
HETATM   49  O3  UNL     1       7.984   6.798  11.789  1.00  0.00    -0.260 OA
HETATM   50  O4  UNL     1       6.898   8.507  10.710  1.00  0.00    -0.314 OA
HETATM   51  C26 UNL     1       5.553   8.734  10.295  1.00  0.00     0.213 A 
ENDBRANCH  10  46
TORSDOF 11
ENDMDL
MODEL 9
REMARK minimizedAffinity -8.1155405
REMARK CNNscore 0.201070756
REMARK CNNaffinity 6.07181311
REMARK  11 active torsions:
REMARK  status: ('A' for Active; 'I' for Inactive)
REMARK    1  A    between atoms: C3_4  and  O2_5 
REMARK    2  A    between atoms: O2_5  and  C4_6 
REMARK    3  A    between atoms: C7_9  and  C8_10 
REMARK    4  A    between atoms: N1_11  and  C9_13 
REMARK    5  A    between atoms: C9_13  and  C10_14 
REMARK    6  A    between atoms: C10_14  and  C11_15 
REMARK    7  A    between atoms: C22_26  and  C23_27 
REMARK    8  A    between atoms: C29_35  and  O5_36 
REMARK    9  A    between atoms: C33_40  and  O6_41 
REMARK   10  A    between atoms: C36_44  and  O7_45 
REMARK   11  A    between atoms: C37_46  and  O8_47 
ROOT
HETATM    1  C4  UNL     1      -1.580   8.048  14.438  1.00  0.00     0.127 C 
HETATM    2  C5  UNL     1      -1.958   7.697  15.879  1.00  0.00     0.033 C 
HETATM    3  C6  UNL     1      -2.549   8.894  16.614  1.00  0.00     0.021 C 
HETATM    4  C7  UNL     1      -1.621  10.151  16.669  1.00  0.00     0.026 C 
HETATM    5  C17 UNL     1      -2.489  11.436  16.331  1.00  0.00     0.009 C 
HETATM    6  C18 UNL     1      -3.661  11.685  17.309  1.00  0.00     0.007 C 
HETATM    7  C19 UNL     1      -4.518  12.878  16.896  1.00  0.00     0.013 C 
HETATM    8  C20 UNL     1      -3.706  14.200  16.793  1.00  0.00    -0.005 C 
HETATM    9  C21 UNL     1      -3.304  14.648  18.215  1.00  0.00     0.019 C 
HETATM   10  C22 UNL     1      -4.582  15.257  16.034  1.00  0.00     0.028 C 
HETATM   11  C27 UNL     1      -4.337  14.939  14.539  1.00  0.00     0.013 C 
HETATM   12  C28 UNL     1      -3.115  14.014  14.451  1.00  0.00     0.040 C 
HETATM   13  C29 UNL     1      -2.486  13.993  15.853  1.00  0.00     0.070 C 
HETATM   14  C30 UNL     1      -1.642  12.721  16.167  1.00  0.00     0.026 C 
HETATM   15  C31 UNL     1      -0.545  12.510  15.110  1.00  0.00     0.011 C 
HETATM   16  C32 UNL     1       0.344  11.330  15.458  1.00  0.00     0.039 C 
HETATM   17  C33 UNL     1      -0.419  10.006  15.664  1.00  0.00     0.073 C 
HETATM   18  C34 UNL     1      -0.896   9.425  14.316  1.00  0.00     0.071 C 
ENDROOT
BRANCH   1  19
HETATM   19  O2  UNL     1      -0.717   7.076  13.839  1.00  0.00    -0.356 OA
BRANCH  19  20
HETATM   20  C3  UNL     1       0.274   7.615  12.966  1.00  0.00     0.263 C 
HETATM   21  O1  UNL     1      -0.160   7.565  11.611  1.00  0.00    -0.354 OA
HETATM   22  C2  UNL     1       0.687   8.343  10.747  1.00  0.00     0.151 C 
HETATM   23  C1  UNL     1       0.219   8.086   9.317  1.00  0.00     0.042 C 
HETATM   24  C37 UNL     1       2.185   8.040  11.005  1.00  0.00     0.175 C 
HETATM   25  C36 UNL     1       2.356   6.747  11.814  1.00  0.00     0.154 C 
HETATM   26  C35 UNL     1       1.543   6.765  13.105  1.00  0.00     0.095 C 
BRANCH  24  27
HETATM   27  O8  UNL     1       2.944   7.955   9.800  1.00  0.00    -0.390 OA
HETATM   28  H51 UNL     1       2.879   7.022   9.508  1.00  0.00     0.210 HD
ENDBRANCH  24  27
BRANCH  25  29
HETATM   29  O7  UNL     1       1.956   5.637  10.995  1.00  0.00    -0.393 OA
HETATM   30  H49 UNL     1       0.976   5.682  10.911  1.00  0.00     0.210 HD
ENDBRANCH  25  29
ENDBRANCH  19  20
ENDBRANCH   1  19
BRANCH  17  31
HETATM   31  O6  UNL     1       0.547   9.084  16.198  1.00  0.00    -0.389 OA
HETATM   32  H43 UNL     1       1.320   9.057  15.600  1.00  0.00     0.210 HD
ENDBRANCH  17  31
BRANCH   4  33
HETATM   33  C8  UNL     1      -1.033  10.261  18.089  1.00  0.00     0.068 C 
HETATM   34  N1  UNL     1      -0.161  11.162  18.395  1.00  0.00    -0.401 N 
ATOM     35  H1  UNL     1       0.186  11.846  17.722  1.00  0.00     0.158 HD
BRANCH  34  36
HETATM   36  C9  UNL     1       0.292  11.121  19.792  1.00  0.00     0.123 C 
BRANCH  36  37
HETATM   37  C10 UNL     1       1.757  10.668  19.838  1.00  0.00     0.058 C 
BRANCH  37  38
HETATM   38  C11 UNL     1       2.268  10.402  21.234  1.00  0.00    -0.057 A 
HETATM   39  C12 UNL     1       2.813  11.439  22.004  1.00  0.00     0.007 A 
HETATM   40  C13 UNL     1       3.293  11.188  23.292  1.00  0.00     0.001 A 
HETATM   41  C14 UNL     1       3.234   9.899  23.821  1.00  0.00     0.000 A 
HETATM   42  C15 UNL     1       2.696   8.861  23.064  1.00  0.00     0.001 A 
HETATM   43  C16 UNL     1       2.217   9.110  21.777  1.00  0.00     0.007 A 
ENDBRANCH  37  38
ENDBRANCH  36  37
ENDBRANCH  34  36
ENDBRANCH   4  33
BRANCH  13  44
HETATM   44  O5  UNL     1      -1.610  15.126  15.917  1.00  0.00    -0.389 OA
HETATM   45  H37 UNL     1      -1.138  15.108  16.767  1.00  0.00     0.210 HD
ENDBRANCH  13  44
BRANCH  10  46
HETATM   46  C23 UNL     1      -4.354  16.711  16.378  1.00  0.00    -0.045 A 
HETATM   47  C24 UNL     1      -3.506  17.588  15.837  1.00  0.00     0.087 A 
HETATM   48  C25 UNL     1      -3.705  18.863  16.522  1.00  0.00     0.283 A 
HETATM   49  O3  UNL     1      -3.080  19.882  16.297  1.00  0.00    -0.260 OA
HETATM   50  O4  UNL     1      -4.693  18.724  17.446  1.00  0.00    -0.314 OA
HETATM   51  C26 UNL     1      -5.179  17.384  17.412  1.00  0.00     0.213 A 
ENDBRANCH  10  46
TORSDOF 11
ENDMDL
