MODEL 1
REMARK minimizedAffinity -7.046597
REMARK CNNscore 0.685737669
REMARK CNNaffinity 6.87353516
REMARK  4 active torsions:
REMARK  status: ('A' for Active; 'I' for Inactive)
REMARK    1  A    between atoms: C4_4  and  C5_5 
REMARK    2  A    between atoms: C5_5  and  C6_6 
REMARK    3  A    between atoms: C6_6  and  C7_7 
REMARK    4  A    between atoms: C7_7  and  C9_9 
ROOT
HETATM    1  C9  UNL     1      -1.928  52.315 -11.020  1.00  0.00    -0.002 C 
HETATM    2  C10 UNL     1      -1.342  50.890 -11.257  1.00  0.00     0.007 C 
HETATM    3  C11 UNL     1       0.178  50.969 -11.027  1.00  0.00     0.015 C 
HETATM    4  C12 UNL     1       0.491  52.479 -10.989  1.00  0.00    -0.013 C 
HETATM    5  C13 UNL     1       0.622  52.929 -12.480  1.00  0.00     0.021 C 
HETATM    6  C14 UNL     1       1.770  52.929 -10.294  1.00  0.00    -0.070 C 
HETATM    7  C15 UNL     1       2.870  52.162 -10.233  1.00  0.00    -0.022 C 
HETATM    8  C16 UNL     1       4.172  52.571  -9.622  1.00  0.00     0.034 C 
HETATM    9  C17 UNL     1       4.286  54.020  -9.082  1.00  0.00     0.013 C 
HETATM   10  C18 UNL     1       4.519  54.116  -7.531  1.00  0.00     0.018 C 
HETATM   11  C19 UNL     1       5.809  53.360  -7.133  1.00  0.00     0.023 C 
HETATM   12  C20 UNL     1       3.353  53.579  -6.692  1.00  0.00     0.023 C 
HETATM   13  C21 UNL     1       4.747  55.588  -7.138  1.00  0.00     0.135 C 
HETATM   14  O1  UNL     1       5.175  55.909  -6.028  1.00  0.00    -0.297 OA
HETATM   15  C22 UNL     1       4.446  56.647  -8.171  1.00  0.00     0.080 C 
HETATM   16  C23 UNL     1       3.128  56.313  -8.846  1.00  0.00     0.017 C 
HETATM   17  C24 UNL     1       3.188  54.993  -9.669  1.00  0.00    -0.031 C 
HETATM   18  C25 UNL     1       3.618  55.359 -11.119  1.00  0.00     0.016 C 
HETATM   19  C26 UNL     1       1.764  54.320  -9.672  1.00  0.00     0.024 C 
HETATM   20  C27 UNL     1       0.631  55.221 -10.227  1.00  0.00     0.010 C 
HETATM   21  C28 UNL     1      -0.770  54.571 -10.295  1.00  0.00     0.011 C 
HETATM   22  C29 UNL     1      -0.775  53.027 -10.236  1.00  0.00    -0.029 C 
HETATM   23  C30 UNL     1      -0.850  52.582  -8.741  1.00  0.00     0.016 C 
ENDROOT
BRANCH   1  24
HETATM   24  C7  UNL     1      -3.369  52.265 -10.423  1.00  0.00    -0.014 C 
HETATM   25  C8  UNL     1      -4.150  53.554 -10.695  1.00  0.00     0.010 C 
BRANCH  24  26
HETATM   26  C6  UNL     1      -4.140  51.042 -10.998  1.00  0.00     0.008 C 
BRANCH  26  27
HETATM   27  C5  UNL     1      -4.788  50.099  -9.974  1.00  0.00     0.028 C 
BRANCH  27  28
HETATM   28  C4  UNL     1      -6.283  50.013 -10.106  1.00  0.00    -0.025 C 
HETATM   29  C2  UNL     1      -6.993  49.095 -10.792  1.00  0.00    -0.091 C 
HETATM   30  C1  UNL     1      -8.496  49.171 -10.849  1.00  0.00     0.042 C 
HETATM   31  C3  UNL     1      -6.403  47.929 -11.536  1.00  0.00     0.042 C 
ENDBRANCH  27  28
ENDBRANCH  26  27
ENDBRANCH  24  26
ENDBRANCH   1  24
TORSDOF 4
ENDMDL
MODEL 2
REMARK minimizedAffinity -6.58065891
REMARK CNNscore 0.580866158
REMARK CNNaffinity 6.05107355
REMARK  4 active torsions:
REMARK  status: ('A' for Active; 'I' for Inactive)
REMARK    1  A    between atoms: C4_4  and  C5_5 
REMARK    2  A    between atoms: C5_5  and  C6_6 
REMARK    3  A    between atoms: C6_6  and  C7_7 
REMARK    4  A    between atoms: C7_7  and  C9_9 
ROOT
HETATM    1  C9  UNL     1     -11.556  45.775 -28.254  1.00  0.00    -0.002 C 
HETATM    2  C10 UNL     1     -11.495  44.244 -28.543  1.00  0.00     0.007 C 
HETATM    3  C11 UNL     1     -12.637  43.577 -27.755  1.00  0.00     0.015 C 
HETATM    4  C12 UNL     1     -13.125  44.664 -26.777  1.00  0.00    -0.013 C 
HETATM    5  C13 UNL     1     -12.155  44.609 -25.553  1.00  0.00     0.021 C 
HETATM    6  C14 UNL     1     -14.534  44.538 -26.210  1.00  0.00    -0.070 C 
HETATM    7  C15 UNL     1     -15.136  43.352 -26.023  1.00  0.00    -0.022 C 
HETATM    8  C16 UNL     1     -16.488  43.159 -25.414  1.00  0.00     0.034 C 
HETATM    9  C17 UNL     1     -17.222  44.419 -24.887  1.00  0.00     0.013 C 
HETATM   10  C18 UNL     1     -18.562  44.749 -25.639  1.00  0.00     0.018 C 
HETATM   11  C19 UNL     1     -19.542  43.555 -25.541  1.00  0.00     0.023 C 
HETATM   12  C20 UNL     1     -18.374  45.112 -27.117  1.00  0.00     0.023 C 
HETATM   13  C21 UNL     1     -19.261  45.933 -24.945  1.00  0.00     0.135 C 
HETATM   14  O1  UNL     1     -20.428  46.241 -25.195  1.00  0.00    -0.297 OA
HETATM   15  C22 UNL     1     -18.473  46.713 -23.919  1.00  0.00     0.080 C 
HETATM   16  C23 UNL     1     -17.075  46.959 -24.458  1.00  0.00     0.017 C 
HETATM   17  C24 UNL     1     -16.258  45.647 -24.642  1.00  0.00    -0.031 C 
HETATM   18  C25 UNL     1     -15.491  45.378 -23.315  1.00  0.00     0.016 C 
HETATM   19  C26 UNL     1     -15.245  45.831 -25.834  1.00  0.00     0.024 C 
HETATM   20  C27 UNL     1     -14.271  47.026 -25.667  1.00  0.00     0.010 C 
HETATM   21  C28 UNL     1     -13.226  47.202 -26.794  1.00  0.00     0.011 C 
HETATM   22  C29 UNL     1     -12.999  45.950 -27.671  1.00  0.00    -0.029 C 
HETATM   23  C30 UNL     1     -14.008  45.980 -28.862  1.00  0.00     0.016 C 
ENDROOT
BRANCH   1  24
HETATM   24  C7  UNL     1     -11.097  46.624 -29.481  1.00  0.00    -0.014 C 
HETATM   25  C8  UNL     1      -9.926  47.549 -29.135  1.00  0.00     0.010 C 
BRANCH  24  26
HETATM   26  C6  UNL     1     -10.705  45.685 -30.658  1.00  0.00     0.008 C 
BRANCH  26  27
HETATM   27  C5  UNL     1     -10.365  46.366 -31.991  1.00  0.00     0.028 C 
BRANCH  27  28
HETATM   28  C4  UNL     1     -11.187  45.863 -33.145  1.00  0.00    -0.025 C 
HETATM   29  C2  UNL     1     -10.814  45.768 -34.437  1.00  0.00    -0.091 C 
HETATM   30  C1  UNL     1     -11.777  45.270 -35.481  1.00  0.00     0.042 C 
HETATM   31  C3  UNL     1      -9.450  46.116 -34.967  1.00  0.00     0.042 C 
ENDBRANCH  27  28
ENDBRANCH  26  27
ENDBRANCH  24  26
ENDBRANCH   1  24
TORSDOF 4
ENDMDL
MODEL 3
REMARK minimizedAffinity -6.67751741
REMARK CNNscore 0.553302646
REMARK CNNaffinity 5.34416246
REMARK  4 active torsions:
REMARK  status: ('A' for Active; 'I' for Inactive)
REMARK    1  A    between atoms: C4_4  and  C5_5 
REMARK    2  A    between atoms: C5_5  and  C6_6 
REMARK    3  A    between atoms: C6_6  and  C7_7 
REMARK    4  A    between atoms: C7_7  and  C9_9 
ROOT
HETATM    1  C9  UNL     1       3.609  67.878 -37.111  1.00  0.00    -0.002 C 
HETATM    2  C10 UNL     1       3.964  69.358 -36.772  1.00  0.00     0.007 C 
HETATM    3  C11 UNL     1       3.243  70.255 -37.795  1.00  0.00     0.015 C 
HETATM    4  C12 UNL     1       2.761  69.286 -38.894  1.00  0.00    -0.013 C 
HETATM    5  C13 UNL     1       3.983  69.068 -39.842  1.00  0.00     0.021 C 
HETATM    6  C14 UNL     1       1.605  69.729 -39.783  1.00  0.00    -0.070 C 
HETATM    7  C15 UNL     1       1.369  71.017 -40.076  1.00  0.00    -0.022 C 
HETATM    8  C16 UNL     1       0.293  71.509 -40.991  1.00  0.00     0.034 C 
HETATM    9  C17 UNL     1      -0.571  70.446 -41.716  1.00  0.00     0.013 C 
HETATM   10  C18 UNL     1      -2.093  70.471 -41.323  1.00  0.00     0.018 C 
HETATM   11  C19 UNL     1      -2.703  71.861 -41.623  1.00  0.00     0.023 C 
HETATM   12  C20 UNL     1      -2.363  70.120 -39.855  1.00  0.00     0.023 C 
HETATM   13  C21 UNL     1      -2.865  69.467 -42.200  1.00  0.00     0.135 C 
HETATM   14  O1  UNL     1      -4.096  69.457 -42.251  1.00  0.00    -0.297 OA
HETATM   15  C22 UNL     1      -2.062  68.490 -43.025  1.00  0.00     0.080 C 
HETATM   16  C23 UNL     1      -0.939  67.933 -42.169  1.00  0.00     0.017 C 
HETATM   17  C24 UNL     1       0.099  69.015 -41.754  1.00  0.00    -0.031 C 
HETATM   18  C25 UNL     1       1.208  69.051 -42.846  1.00  0.00     0.016 C 
HETATM   19  C26 UNL     1       0.717  68.632 -40.357  1.00  0.00     0.024 C 
HETATM   20  C27 UNL     1       1.387  67.234 -40.316  1.00  0.00     0.010 C 
HETATM   21  C28 UNL     1       2.052  66.849 -38.974  1.00  0.00     0.011 C 
HETATM   22  C29 UNL     1       2.354  68.036 -38.033  1.00  0.00    -0.029 C 
HETATM   23  C30 UNL     1       1.107  68.286 -37.125  1.00  0.00     0.016 C 
ENDROOT
BRANCH   1  24
HETATM   24  C7  UNL     1       3.539  66.984 -35.835  1.00  0.00    -0.014 C 
HETATM   25  C8  UNL     1       2.617  65.776 -36.027  1.00  0.00     0.010 C 
BRANCH  24  26
HETATM   26  C6  UNL     1       4.967  66.508 -35.441  1.00  0.00     0.008 C 
BRANCH  26  27
HETATM   27  C5  UNL     1       5.148  66.005 -34.002  1.00  0.00     0.028 C 
BRANCH  27  28
HETATM   28  C4  UNL     1       4.861  64.538 -33.841  1.00  0.00    -0.025 C 
HETATM   29  C2  UNL     1       4.315  63.922 -32.773  1.00  0.00    -0.091 C 
HETATM   30  C1  UNL     1       4.124  62.429 -32.761  1.00  0.00     0.042 C 
HETATM   31  C3  UNL     1       3.839  64.619 -31.528  1.00  0.00     0.042 C 
ENDBRANCH  27  28
ENDBRANCH  26  27
ENDBRANCH  24  26
ENDBRANCH   1  24
TORSDOF 4
ENDMDL
MODEL 4
REMARK minimizedAffinity -7.01692343
REMARK CNNscore 0.485687196
REMARK CNNaffinity 5.88618326
REMARK  4 active torsions:
REMARK  status: ('A' for Active; 'I' for Inactive)
REMARK    1  A    between atoms: C4_4  and  C5_5 
REMARK    2  A    between atoms: C5_5  and  C6_6 
REMARK    3  A    between atoms: C6_6  and  C7_7 
REMARK    4  A    between atoms: C7_7  and  C9_9 
ROOT
HETATM    1  C9  UNL     1     -11.692  45.601 -28.304  1.00  0.00    -0.002 C 
HETATM    2  C10 UNL     1     -11.632  44.055 -28.496  1.00  0.00     0.007 C 
HETATM    3  C11 UNL     1     -12.764  43.439 -27.653  1.00  0.00     0.015 C 
HETATM    4  C12 UNL     1     -13.242  44.586 -26.740  1.00  0.00    -0.013 C 
HETATM    5  C13 UNL     1     -12.257  44.609 -25.527  1.00  0.00     0.021 C 
HETATM    6  C14 UNL     1     -14.644  44.495 -26.149  1.00  0.00    -0.070 C 
HETATM    7  C15 UNL     1     -15.242  43.323 -25.881  1.00  0.00    -0.022 C 
HETATM    8  C16 UNL     1     -16.586  43.169 -25.244  1.00  0.00     0.034 C 
HETATM    9  C17 UNL     1     -17.316  44.459 -24.790  1.00  0.00     0.013 C 
HETATM   10  C18 UNL     1     -18.665  44.740 -25.545  1.00  0.00     0.018 C 
HETATM   11  C19 UNL     1     -19.642  43.554 -25.359  1.00  0.00     0.023 C 
HETATM   12  C20 UNL     1     -18.495  45.009 -27.045  1.00  0.00     0.023 C 
HETATM   13  C21 UNL     1     -19.357  45.965 -24.920  1.00  0.00     0.135 C 
HETATM   14  O1  UNL     1     -20.527  46.256 -25.174  1.00  0.00    -0.297 OA
HETATM   15  C22 UNL     1     -18.558  46.809 -23.955  1.00  0.00     0.080 C 
HETATM   16  C23 UNL     1     -17.167  47.021 -24.526  1.00  0.00     0.017 C 
HETATM   17  C24 UNL     1     -16.350  45.701 -24.635  1.00  0.00    -0.031 C 
HETATM   18  C25 UNL     1     -15.567  45.517 -23.303  1.00  0.00     0.016 C 
HETATM   19  C26 UNL     1     -15.352  45.809 -25.849  1.00  0.00     0.024 C 
HETATM   20  C27 UNL     1     -14.377  47.012 -25.770  1.00  0.00     0.010 C 
HETATM   21  C28 UNL     1     -13.347  47.117 -26.918  1.00  0.00     0.011 C 
HETATM   22  C29 UNL     1     -13.128  45.812 -27.716  1.00  0.00    -0.029 C 
HETATM   23  C30 UNL     1     -14.152  45.766 -28.894  1.00  0.00     0.016 C 
ENDROOT
BRANCH   1  24
HETATM   24  C7  UNL     1     -11.249  46.370 -29.588  1.00  0.00    -0.014 C 
HETATM   25  C8  UNL     1     -11.626  47.853 -29.530  1.00  0.00     0.010 C 
BRANCH  24  26
HETATM   26  C6  UNL     1      -9.714  46.217 -29.794  1.00  0.00     0.008 C 
BRANCH  26  27
HETATM   27  C5  UNL     1      -8.936  47.500 -30.120  1.00  0.00     0.028 C 
BRANCH  27  28
HETATM   28  C4  UNL     1      -7.864  47.820 -29.115  1.00  0.00    -0.025 C 
HETATM   29  C2  UNL     1      -6.559  47.489 -29.177  1.00  0.00    -0.091 C 
HETATM   30  C1  UNL     1      -5.618  47.860 -28.062  1.00  0.00     0.042 C 
HETATM   31  C3  UNL     1      -5.910  46.756 -30.318  1.00  0.00     0.042 C 
ENDBRANCH  27  28
ENDBRANCH  26  27
ENDBRANCH  24  26
ENDBRANCH   1  24
TORSDOF 4
ENDMDL
MODEL 5
REMARK minimizedAffinity -7.25775051
REMARK CNNscore 0.468958735
REMARK CNNaffinity 6.74539042
REMARK  4 active torsions:
REMARK  status: ('A' for Active; 'I' for Inactive)
REMARK    1  A    between atoms: C4_4  and  C5_5 
REMARK    2  A    between atoms: C5_5  and  C6_6 
REMARK    3  A    between atoms: C6_6  and  C7_7 
REMARK    4  A    between atoms: C7_7  and  C9_9 
ROOT
HETATM    1  C9  UNL     1       0.287  54.890  -8.088  1.00  0.00    -0.002 C 
HETATM    2  C10 UNL     1       1.323  53.841  -7.581  1.00  0.00     0.007 C 
HETATM    3  C11 UNL     1       1.110  52.550  -8.394  1.00  0.00     0.015 C 
HETATM    4  C12 UNL     1      -0.238  52.757  -9.113  1.00  0.00    -0.013 C 
HETATM    5  C13 UNL     1      -1.342  52.369  -8.077  1.00  0.00     0.021 C 
HETATM    6  C14 UNL     1      -0.518  51.932 -10.363  1.00  0.00    -0.070 C 
HETATM    7  C15 UNL     1      -0.002  50.707 -10.553  1.00  0.00    -0.022 C 
HETATM    8  C16 UNL     1      -0.289  49.824 -11.725  1.00  0.00     0.034 C 
HETATM    9  C17 UNL     1      -1.320  50.329 -12.767  1.00  0.00     0.013 C 
HETATM   10  C18 UNL     1      -0.724  50.577 -14.200  1.00  0.00     0.018 C 
HETATM   11  C19 UNL     1      -0.092  49.277 -14.752  1.00  0.00     0.023 C 
HETATM   12  C20 UNL     1       0.323  51.696 -14.254  1.00  0.00     0.023 C 
HETATM   13  C21 UNL     1      -1.861  50.947 -15.171  1.00  0.00     0.135 C 
HETATM   14  O1  UNL     1      -1.697  50.967 -16.392  1.00  0.00    -0.297 OA
HETATM   15  C22 UNL     1      -3.213  51.271 -14.581  1.00  0.00     0.080 C 
HETATM   16  C23 UNL     1      -3.018  52.174 -13.376  1.00  0.00     0.017 C 
HETATM   17  C24 UNL     1      -2.259  51.473 -12.212  1.00  0.00    -0.031 C 
HETATM   18  C25 UNL     1      -3.320  50.798 -11.295  1.00  0.00     0.016 C 
HETATM   19  C26 UNL     1      -1.440  52.550 -11.406  1.00  0.00     0.024 C 
HETATM   20  C27 UNL     1      -2.297  53.711 -10.837  1.00  0.00     0.010 C 
HETATM   21  C28 UNL     1      -1.532  54.757  -9.993  1.00  0.00     0.011 C 
HETATM   22  C29 UNL     1      -0.160  54.287  -9.462  1.00  0.00    -0.029 C 
HETATM   23  C30 UNL     1       0.933  54.626 -10.525  1.00  0.00     0.016 C 
ENDROOT
BRANCH   1  24
HETATM   24  C7  UNL     1       0.843  56.347  -8.014  1.00  0.00    -0.014 C 
HETATM   25  C8  UNL     1      -0.049  57.262  -7.170  1.00  0.00     0.010 C 
BRANCH  24  26
HETATM   26  C6  UNL     1       2.289  56.334  -7.440  1.00  0.00     0.008 C 
BRANCH  26  27
HETATM   27  C5  UNL     1       3.383  56.943  -8.328  1.00  0.00     0.028 C 
BRANCH  27  28
HETATM   28  C4  UNL     1       4.601  56.071  -8.459  1.00  0.00    -0.025 C 
HETATM   29  C2  UNL     1       5.042  55.441  -9.565  1.00  0.00    -0.091 C 
HETATM   30  C1  UNL     1       6.271  54.572  -9.517  1.00  0.00     0.042 C 
HETATM   31  C3  UNL     1       4.402  55.534 -10.923  1.00  0.00     0.042 C 
ENDBRANCH  27  28
ENDBRANCH  26  27
ENDBRANCH  24  26
ENDBRANCH   1  24
TORSDOF 4
ENDMDL
MODEL 6
REMARK minimizedAffinity -6.5180645
REMARK CNNscore 0.468477756
REMARK CNNaffinity 6.61607122
REMARK  4 active torsions:
REMARK  status: ('A' for Active; 'I' for Inactive)
REMARK    1  A    between atoms: C4_4  and  C5_5 
REMARK    2  A    between atoms: C5_5  and  C6_6 
REMARK    3  A    between atoms: C6_6  and  C7_7 
REMARK    4  A    between atoms: C7_7  and  C9_9 
ROOT
HETATM    1  C9  UNL     1       0.762  54.345 -10.390  1.00  0.00    -0.002 C 
HETATM    2  C10 UNL     1       1.160  53.284 -11.460  1.00  0.00     0.007 C 
HETATM    3  C11 UNL     1       2.613  52.861 -11.175  1.00  0.00     0.015 C 
HETATM    4  C12 UNL     1       3.136  53.908 -10.170  1.00  0.00    -0.013 C 
HETATM    5  C13 UNL     1       3.588  55.136 -11.024  1.00  0.00     0.021 C 
HETATM    6  C14 UNL     1       4.329  53.532  -9.299  1.00  0.00    -0.070 C 
HETATM    7  C15 UNL     1       5.275  52.668  -9.700  1.00  0.00    -0.022 C 
HETATM    8  C16 UNL     1       6.499  52.308  -8.920  1.00  0.00     0.034 C 
HETATM    9  C17 UNL     1       6.733  53.045  -7.576  1.00  0.00     0.013 C 
HETATM   10  C18 UNL     1       6.707  52.110  -6.313  1.00  0.00     0.018 C 
HETATM   11  C19 UNL     1       7.782  51.004  -6.440  1.00  0.00     0.023 C 
HETATM   12  C20 UNL     1       5.348  51.450  -6.055  1.00  0.00     0.023 C 
HETATM   13  C21 UNL     1       7.081  52.929  -5.063  1.00  0.00     0.135 C 
HETATM   14  O1  UNL     1       7.354  52.391  -3.988  1.00  0.00    -0.297 OA
HETATM   15  C22 UNL     1       7.123  54.433  -5.192  1.00  0.00     0.080 C 
HETATM   16  C23 UNL     1       5.907  54.891  -5.975  1.00  0.00     0.017 C 
HETATM   17  C24 UNL     1       5.910  54.388  -7.447  1.00  0.00    -0.031 C 
HETATM   18  C25 UNL     1       6.633  55.460  -8.313  1.00  0.00     0.016 C 
HETATM   19  C26 UNL     1       4.423  54.201  -7.934  1.00  0.00     0.024 C 
HETATM   20  C27 UNL     1       3.550  55.478  -7.829  1.00  0.00     0.010 C 
HETATM   21  C28 UNL     1       2.100  55.343  -8.349  1.00  0.00     0.011 C 
HETATM   22  C29 UNL     1       1.856  54.142  -9.290  1.00  0.00    -0.029 C 
HETATM   23  C30 UNL     1       1.459  52.902  -8.427  1.00  0.00     0.016 C 
ENDROOT
BRANCH   1  24
HETATM   24  C7  UNL     1      -0.752  54.264 -10.018  1.00  0.00    -0.014 C 
HETATM   25  C8  UNL     1      -1.450  55.621 -10.144  1.00  0.00     0.010 C 
BRANCH  24  26
HETATM   26  C6  UNL     1      -1.463  53.212 -10.917  1.00  0.00     0.008 C 
BRANCH  26  27
HETATM   27  C5  UNL     1      -2.943  53.471 -11.233  1.00  0.00     0.028 C 
BRANCH  27  28
HETATM   28  C4  UNL     1      -3.875  52.491 -10.575  1.00  0.00    -0.025 C 
HETATM   29  C2  UNL     1      -4.140  51.227 -10.961  1.00  0.00    -0.091 C 
HETATM   30  C1  UNL     1      -5.132  50.385 -10.205  1.00  0.00     0.042 C 
HETATM   31  C3  UNL     1      -3.499  50.531 -12.130  1.00  0.00     0.042 C 
ENDBRANCH  27  28
ENDBRANCH  26  27
ENDBRANCH  24  26
ENDBRANCH   1  24
TORSDOF 4
ENDMDL
MODEL 7
REMARK minimizedAffinity -6.49714041
REMARK CNNscore 0.435525358
REMARK CNNaffinity 6.77030754
REMARK  4 active torsions:
REMARK  status: ('A' for Active; 'I' for Inactive)
REMARK    1  A    between atoms: C4_4  and  C5_5 
REMARK    2  A    between atoms: C5_5  and  C6_6 
REMARK    3  A    between atoms: C6_6  and  C7_7 
REMARK    4  A    between atoms: C7_7  and  C9_9 
ROOT
HETATM    1  C9  UNL     1      -2.413  51.581 -11.141  1.00  0.00    -0.002 C 
HETATM    2  C10 UNL     1      -3.289  52.870 -11.110  1.00  0.00     0.007 C 
HETATM    3  C11 UNL     1      -2.523  53.932 -10.300  1.00  0.00     0.015 C 
HETATM    4  C12 UNL     1      -1.389  53.152  -9.604  1.00  0.00    -0.013 C 
HETATM    5  C13 UNL     1      -2.022  52.527  -8.319  1.00  0.00     0.021 C 
HETATM    6  C14 UNL     1      -0.163  53.929  -9.141  1.00  0.00    -0.070 C 
HETATM    7  C15 UNL     1      -0.221  55.218  -8.770  1.00  0.00    -0.022 C 
HETATM    8  C16 UNL     1       0.931  56.016  -8.247  1.00  0.00     0.034 C 
HETATM    9  C17 UNL     1       2.281  55.279  -8.048  1.00  0.00     0.013 C 
HETATM   10  C18 UNL     1       3.447  55.808  -8.959  1.00  0.00     0.018 C 
HETATM   11  C19 UNL     1       3.689  57.315  -8.703  1.00  0.00     0.023 C 
HETATM   12  C20 UNL     1       3.212  55.594 -10.459  1.00  0.00     0.023 C 
HETATM   13  C21 UNL     1       4.758  55.094  -8.578  1.00  0.00     0.135 C 
HETATM   14  O1  UNL     1       5.855  55.485  -8.980  1.00  0.00    -0.297 OA
HETATM   15  C22 UNL     1       4.666  53.891  -7.669  1.00  0.00     0.080 C 
HETATM   16  C23 UNL     1       3.515  53.015  -8.130  1.00  0.00     0.017 C 
HETATM   17  C24 UNL     1       2.130  53.707  -7.978  1.00  0.00    -0.031 C 
HETATM   18  C25 UNL     1       1.579  53.357  -6.565  1.00  0.00     0.016 C 
HETATM   19  C26 UNL     1       1.157  53.171  -9.095  1.00  0.00     0.024 C 
HETATM   20  C27 UNL     1       0.967  51.633  -9.092  1.00  0.00     0.010 C 
HETATM   21  C28 UNL     1      -0.025  51.078 -10.142  1.00  0.00     0.011 C 
HETATM   22  C29 UNL     1      -1.004  52.121 -10.726  1.00  0.00    -0.029 C 
HETATM   23  C30 UNL     1      -0.344  52.783 -11.978  1.00  0.00     0.016 C 
ENDROOT
BRANCH   1  24
HETATM   24  C7  UNL     1      -2.588  50.784 -12.472  1.00  0.00    -0.014 C 
HETATM   25  C8  UNL     1      -3.404  49.503 -12.273  1.00  0.00     0.010 C 
BRANCH  24  26
HETATM   26  C6  UNL     1      -3.264  51.685 -13.545  1.00  0.00     0.008 C 
BRANCH  26  27
HETATM   27  C5  UNL     1      -2.980  51.333 -15.012  1.00  0.00     0.028 C 
BRANCH  27  28
HETATM   28  C4  UNL     1      -1.614  50.744 -15.231  1.00  0.00    -0.025 C 
HETATM   29  C2  UNL     1      -1.063  50.365 -16.401  1.00  0.00    -0.091 C 
HETATM   30  C1  UNL     1       0.314  49.758 -16.442  1.00  0.00     0.042 C 
HETATM   31  C3  UNL     1      -1.718  50.508 -17.747  1.00  0.00     0.042 C 
ENDBRANCH  27  28
ENDBRANCH  26  27
ENDBRANCH  24  26
ENDBRANCH   1  24
TORSDOF 4
ENDMDL
MODEL 8
REMARK minimizedAffinity -7.11170197
REMARK CNNscore 0.370854676
REMARK CNNaffinity 5.69410086
REMARK  4 active torsions:
REMARK  status: ('A' for Active; 'I' for Inactive)
REMARK    1  A    between atoms: C4_4  and  C5_5 
REMARK    2  A    between atoms: C5_5  and  C6_6 
REMARK    3  A    between atoms: C6_6  and  C7_7 
REMARK    4  A    between atoms: C7_7  and  C9_9 
ROOT
HETATM    1  C9  UNL     1      -7.728  47.015 -30.248  1.00  0.00    -0.002 C 
HETATM    2  C10 UNL     1      -8.178  48.500 -30.396  1.00  0.00     0.007 C 
HETATM    3  C11 UNL     1      -9.599  48.614 -29.814  1.00  0.00     0.015 C 
HETATM    4  C12 UNL     1     -10.072  47.156 -29.646  1.00  0.00    -0.013 C 
HETATM    5  C13 UNL     1     -10.606  46.713 -31.046  1.00  0.00     0.021 C 
HETATM    6  C14 UNL     1     -11.194  46.876 -28.654  1.00  0.00    -0.070 C 
HETATM    7  C15 UNL     1     -12.148  47.775 -28.367  1.00  0.00    -0.022 C 
HETATM    8  C16 UNL     1     -13.308  47.539 -27.453  1.00  0.00     0.034 C 
HETATM    9  C17 UNL     1     -13.464  46.120 -26.846  1.00  0.00     0.013 C 
HETATM   10  C18 UNL     1     -13.332  46.068 -25.281  1.00  0.00     0.018 C 
HETATM   11  C19 UNL     1     -14.390  46.983 -24.621  1.00  0.00     0.023 C 
HETATM   12  C20 UNL     1     -11.945  46.462 -24.759  1.00  0.00     0.023 C 
HETATM   13  C21 UNL     1     -13.634  44.640 -24.789  1.00  0.00     0.135 C 
HETATM   14  O1  UNL     1     -13.822  44.385 -23.598  1.00  0.00    -0.297 OA
HETATM   15  C22 UNL     1     -13.715  43.541 -25.822  1.00  0.00     0.080 C 
HETATM   16  C23 UNL     1     -12.565  43.702 -26.800  1.00  0.00     0.017 C 
HETATM   17  C24 UNL     1     -12.660  45.012 -27.635  1.00  0.00    -0.031 C 
HETATM   18  C25 UNL     1     -13.463  44.690 -28.930  1.00  0.00     0.016 C 
HETATM   19  C26 UNL     1     -11.207  45.501 -27.998  1.00  0.00     0.024 C 
HETATM   20  C27 UNL     1     -10.355  44.460 -28.768  1.00  0.00     0.010 C 
HETATM   21  C28 UNL     1      -8.942  44.928 -29.187  1.00  0.00     0.011 C 
HETATM   22  C29 UNL     1      -8.739  46.460 -29.190  1.00  0.00    -0.029 C 
HETATM   23  C30 UNL     1      -8.259  46.906 -27.772  1.00  0.00     0.016 C 
ENDROOT
BRANCH   1  24
HETATM   24  C7  UNL     1      -6.191  46.889 -30.008  1.00  0.00    -0.014 C 
HETATM   25  C8  UNL     1      -5.449  46.411 -31.259  1.00  0.00     0.010 C 
BRANCH  24  26
HETATM   26  C6  UNL     1      -5.614  48.254 -29.534  1.00  0.00     0.008 C 
BRANCH  26  27
HETATM   27  C5  UNL     1      -4.441  48.196 -28.546  1.00  0.00     0.028 C 
BRANCH  27  28
HETATM   28  C4  UNL     1      -4.869  48.270 -27.106  1.00  0.00    -0.025 C 
HETATM   29  C2  UNL     1      -4.082  48.436 -26.025  1.00  0.00    -0.091 C 
HETATM   30  C1  UNL     1      -4.672  48.455 -24.640  1.00  0.00     0.042 C 
HETATM   31  C3  UNL     1      -2.591  48.629 -26.067  1.00  0.00     0.042 C 
ENDBRANCH  27  28
ENDBRANCH  26  27
ENDBRANCH  24  26
ENDBRANCH   1  24
TORSDOF 4
ENDMDL
MODEL 9
REMARK minimizedAffinity -7.19132853
REMARK CNNscore 0.337970883
REMARK CNNaffinity 7.0185256
REMARK  4 active torsions:
REMARK  status: ('A' for Active; 'I' for Inactive)
REMARK    1  A    between atoms: C4_4  and  C5_5 
REMARK    2  A    between atoms: C5_5  and  C6_6 
REMARK    3  A    between atoms: C6_6  and  C7_7 
REMARK    4  A    between atoms: C7_7  and  C9_9 
ROOT
HETATM    1  C9  UNL     1       0.313  50.401 -14.209  1.00  0.00    -0.002 C 
HETATM    2  C10 UNL     1      -0.906  51.371 -14.142  1.00  0.00     0.007 C 
HETATM    3  C11 UNL     1      -0.669  52.334 -12.964  1.00  0.00     0.015 C 
HETATM    4  C12 UNL     1       0.498  51.706 -12.174  1.00  0.00    -0.013 C 
HETATM    5  C13 UNL     1      -0.142  50.622 -11.249  1.00  0.00     0.021 C 
HETATM    6  C14 UNL     1       1.317  52.614 -11.263  1.00  0.00    -0.070 C 
HETATM    7  C15 UNL     1       0.798  53.698 -10.665  1.00  0.00    -0.022 C 
HETATM    8  C16 UNL     1       1.530  54.589  -9.713  1.00  0.00     0.034 C 
HETATM    9  C17 UNL     1       2.978  54.190  -9.328  1.00  0.00     0.013 C 
HETATM   10  C18 UNL     1       4.076  55.219  -9.781  1.00  0.00     0.018 C 
HETATM   11  C19 UNL     1       3.791  56.612  -9.170  1.00  0.00     0.023 C 
HETATM   12  C20 UNL     1       4.204  55.364 -11.302  1.00  0.00     0.023 C 
HETATM   13  C21 UNL     1       5.446  54.782  -9.230  1.00  0.00     0.135 C 
HETATM   14  O1  UNL     1       6.426  55.530  -9.247  1.00  0.00    -0.297 OA
HETATM   15  C22 UNL     1       5.559  53.397  -8.639  1.00  0.00     0.080 C 
HETATM   16  C23 UNL     1       4.839  52.417  -9.548  1.00  0.00     0.017 C 
HETATM   17  C24 UNL     1       3.306  52.671  -9.620  1.00  0.00    -0.031 C 
HETATM   18  C25 UNL     1       2.634  51.827  -8.498  1.00  0.00     0.016 C 
HETATM   19  C26 UNL     1       2.773  52.228 -11.034  1.00  0.00     0.024 C 
HETATM   20  C27 UNL     1       3.066  50.749 -11.394  1.00  0.00     0.010 C 
HETATM   21  C28 UNL     1       2.508  50.266 -12.753  1.00  0.00     0.011 C 
HETATM   22  C29 UNL     1       1.385  51.147 -13.344  1.00  0.00    -0.029 C 
HETATM   23  C30 UNL     1       2.032  52.264 -14.223  1.00  0.00     0.016 C 
ENDROOT
BRANCH   1  24
HETATM   24  C7  UNL     1       0.644  49.974 -15.673  1.00  0.00    -0.014 C 
HETATM   25  C8  UNL     1       0.492  48.464 -15.880  1.00  0.00     0.010 C 
BRANCH  24  26
HETATM   26  C6  UNL     1      -0.269  50.744 -16.669  1.00  0.00     0.008 C 
BRANCH  26  27
HETATM   27  C5  UNL     1       0.442  51.633 -17.700  1.00  0.00     0.028 C 
BRANCH  27  28
HETATM   28  C4  UNL     1      -0.095  51.474 -19.096  1.00  0.00    -0.025 C 
HETATM   29  C2  UNL     1      -0.051  52.374 -20.098  1.00  0.00    -0.091 C 
HETATM   30  C1  UNL     1      -0.669  52.067 -21.436  1.00  0.00     0.042 C 
HETATM   31  C3  UNL     1       0.601  53.727 -20.013  1.00  0.00     0.042 C 
ENDBRANCH  27  28
ENDBRANCH  26  27
ENDBRANCH  24  26
ENDBRANCH   1  24
TORSDOF 4
ENDMDL
