MODEL 1
REMARK minimizedAffinity -7.25119972
REMARK CNNscore 0.677845418
REMARK CNNaffinity 7.43237305
REMARK  20 active torsions:
REMARK  status: ('A' for Active; 'I' for Inactive)
REMARK    1  A    between atoms: C2_2  and  C18_24 
REMARK    2  A    between atoms: C3_3  and  C4_4 
REMARK    3  A    between atoms: C4_4  and  O2_6 
REMARK    4  A    between atoms: O2_6  and  C5_7 
REMARK    5  A    between atoms: C5_7  and  C6_8 
REMARK    6  A    between atoms: C6_8  and  C7_9 
REMARK    7  A    between atoms: C7_9  and  C8_10 
REMARK    8  A    between atoms: C8_10  and  C9_11 
REMARK    9  A    between atoms: C9_11  and  C10_12 
REMARK   10  A    between atoms: C10_12  and  C11_13 
REMARK   11  A    between atoms: C11_13  and  C12_14 
REMARK       I    between atoms: C12_14  and  N1_16 
REMARK   12  A    between atoms: N1_16  and  C13_17 
REMARK   13  A    between atoms: C18_24  and  C19_25 
REMARK   14  A    between atoms: C21_28  and  C22_29 
REMARK   15  A    between atoms: C22_29  and  C23_30 
REMARK   16  A    between atoms: C24_31  and  C25_32 
REMARK   17  A    between atoms: C25_32  and  C27_34 
REMARK   18  A    between atoms: C27_34  and  O6_36 
REMARK   19  A    between atoms: C29_37  and  O7_38 
REMARK   20  A    between atoms: C30_39  and  O8_40 
ROOT
HETATM    1  C1  UNL     1      -3.518   3.291  10.502  1.00  0.00     0.043 C 
HETATM    2  C2  UNL     1      -3.417   4.069  11.787  1.00  0.00    -0.075 C 
HETATM    3  C3  UNL     1      -4.397   4.149  12.711  1.00  0.00     0.084 C 
ENDROOT
BRANCH   3   4
HETATM    4  C4  UNL     1      -5.760   3.572  12.590  1.00  0.00     0.283 C 
HETATM    5  O1  UNL     1      -6.053   2.537  12.019  1.00  0.00    -0.260 OA
BRANCH   4   6
HETATM    6  O2  UNL     1      -6.617   4.418  13.218  1.00  0.00    -0.318 OA
BRANCH   6   7
HETATM    7  C5  UNL     1      -6.979   5.589  12.467  1.00  0.00     0.179 C 
BRANCH   7   8
HETATM    8  C6  UNL     1      -8.495   5.779  12.500  1.00  0.00     0.027 C 
BRANCH   8   9
HETATM    9  C7  UNL     1      -9.069   5.887  13.915  1.00  0.00     0.002 C 
BRANCH   9  10
HETATM   10  C8  UNL     1      -8.626   7.161  14.640  1.00  0.00     0.000 C 
BRANCH  10  11
HETATM   11  C9  UNL     1      -8.646   7.035  16.166  1.00  0.00     0.000 C 
BRANCH  11  12
HETATM   12  C10 UNL     1      -7.250   6.985  16.789  1.00  0.00     0.009 C 
BRANCH  12  13
HETATM   13  C11 UNL     1      -6.300   6.130  15.950  1.00  0.00     0.103 C 
BRANCH  13  14
HETATM   14  C12 UNL     1      -4.885   6.681  15.944  1.00  0.00     0.218 C 
HETATM   15  O3  UNL     1      -3.882   5.981  16.015  1.00  0.00    -0.274 OA
HETATM   16  N1  UNL     1      -4.845   8.059  15.889  1.00  0.00    -0.348 N 
HETATM   17  H19 UNL     1      -5.676   8.537  15.559  1.00  0.00     0.163 HD
BRANCH  16  18
HETATM   18  C13 UNL     1      -3.573   8.766  15.739  1.00  0.00     0.176 C 
HETATM   19  C14 UNL     1      -3.014   9.248  17.081  1.00  0.00     0.036 C 
HETATM   20  C15 UNL     1      -3.752  10.486  17.580  1.00  0.00     0.022 C 
HETATM   21  C16 UNL     1      -3.625  11.592  16.547  1.00  0.00     0.122 C 
HETATM   22  N2  UNL     1      -4.038  11.162  15.233  1.00  0.00    -0.359 N 
HETATM   23  C17 UNL     1      -3.797   9.909  14.734  1.00  0.00     0.240 C 
HETATM   24  H27 UNL     1      -4.153  11.863  14.510  1.00  0.00     0.162 HD
HETATM   25  O4  UNL     1      -3.929   9.705  13.525  1.00  0.00    -0.271 OA
ENDBRANCH  16  18
ENDBRANCH  13  14
ENDBRANCH  12  13
ENDBRANCH  11  12
ENDBRANCH  10  11
ENDBRANCH   9  10
ENDBRANCH   8   9
ENDBRANCH   7   8
ENDBRANCH   6   7
ENDBRANCH   4   6
ENDBRANCH   3   4
BRANCH   2  26
HETATM   26  C18 UNL     1      -2.094   4.781  12.023  1.00  0.00     0.068 C 
BRANCH  26  27
HETATM   27  C19 UNL     1      -2.048   5.529  13.371  1.00  0.00     0.156 C 
HETATM   28  O5  UNL     1      -2.283   6.943  13.259  1.00  0.00    -0.382 OA
HETATM   29  C20 UNL     1      -1.250   7.684  12.613  1.00  0.00     0.175 C 
HETATM   30  C21 UNL     1       0.083   7.575  13.359  1.00  0.00     0.044 C 
HETATM   31  C29 UNL     1       0.435   6.085  13.521  1.00  0.00     0.155 C 
HETATM   32  C30 UNL     1      -0.735   5.297  14.133  1.00  0.00     0.176 C 
BRANCH  30  33
HETATM   33  C22 UNL     1       1.164   8.381  12.607  1.00  0.00     0.036 C 
BRANCH  33  34
HETATM   34  C23 UNL     1       0.955   8.424  11.118  1.00  0.00    -0.030 C 
HETATM   35  C24 UNL     1       1.253   7.403  10.296  1.00  0.00    -0.024 C 
BRANCH  35  36
HETATM   36  C25 UNL     1       1.074   7.338   8.789  1.00  0.00     0.032 C 
HETATM   37  C26 UNL     1       0.057   8.406   8.353  1.00  0.00     0.017 C 
BRANCH  36  38
HETATM   38  C27 UNL     1       2.361   7.386   7.921  1.00  0.00     0.121 C 
HETATM   39  C28 UNL     1       3.124   8.707   7.980  1.00  0.00     0.040 C 
BRANCH  38  40
HETATM   40  O6  UNL     1       2.024   7.155   6.547  1.00  0.00    -0.395 OA
HETATM   41  H46 UNL     1       1.653   6.258   6.489  1.00  0.00     0.210 HD
ENDBRANCH  38  40
ENDBRANCH  36  38
ENDBRANCH  35  36
ENDBRANCH  33  34
ENDBRANCH  30  33
BRANCH  31  42
HETATM   42  O7  UNL     1       1.574   5.924  14.369  1.00  0.00    -0.392 OA
HETATM   43  H48 UNL     1       1.227   5.937  15.287  1.00  0.00     0.210 HD
ENDBRANCH  31  42
BRANCH  32  44
HETATM   44  O8  UNL     1      -0.887   5.739  15.499  1.00  0.00    -0.390 OA
HETATM   45  H50 UNL     1      -1.490   6.510  15.476  1.00  0.00     0.210 HD
ENDBRANCH  32  44
ENDBRANCH  26  27
ENDBRANCH   2  26
TORSDOF 20
ENDMDL
MODEL 2
REMARK minimizedAffinity -7.32368994
REMARK CNNscore 0.532625914
REMARK CNNaffinity 6.48105621
REMARK  20 active torsions:
REMARK  status: ('A' for Active; 'I' for Inactive)
REMARK    1  A    between atoms: C2_2  and  C18_24 
REMARK    2  A    between atoms: C3_3  and  C4_4 
REMARK    3  A    between atoms: C4_4  and  O2_6 
REMARK    4  A    between atoms: O2_6  and  C5_7 
REMARK    5  A    between atoms: C5_7  and  C6_8 
REMARK    6  A    between atoms: C6_8  and  C7_9 
REMARK    7  A    between atoms: C7_9  and  C8_10 
REMARK    8  A    between atoms: C8_10  and  C9_11 
REMARK    9  A    between atoms: C9_11  and  C10_12 
REMARK   10  A    between atoms: C10_12  and  C11_13 
REMARK   11  A    between atoms: C11_13  and  C12_14 
REMARK       I    between atoms: C12_14  and  N1_16 
REMARK   12  A    between atoms: N1_16  and  C13_17 
REMARK   13  A    between atoms: C18_24  and  C19_25 
REMARK   14  A    between atoms: C21_28  and  C22_29 
REMARK   15  A    between atoms: C22_29  and  C23_30 
REMARK   16  A    between atoms: C24_31  and  C25_32 
REMARK   17  A    between atoms: C25_32  and  C27_34 
REMARK   18  A    between atoms: C27_34  and  O6_36 
REMARK   19  A    between atoms: C29_37  and  O7_38 
REMARK   20  A    between atoms: C30_39  and  O8_40 
ROOT
HETATM    1  C1  UNL     1      -2.713   6.181  12.876  1.00  0.00     0.043 C 
HETATM    2  C2  UNL     1      -3.299   7.563  12.986  1.00  0.00    -0.075 C 
HETATM    3  C3  UNL     1      -2.596   8.706  12.841  1.00  0.00     0.084 C 
ENDROOT
BRANCH   3   4
HETATM    4  C4  UNL     1      -1.128   8.808  12.643  1.00  0.00     0.283 C 
HETATM    5  O1  UNL     1      -0.282   8.779  13.518  1.00  0.00    -0.260 OA
BRANCH   4   6
HETATM    6  O2  UNL     1      -0.907   8.957  11.311  1.00  0.00    -0.318 OA
BRANCH   6   7
HETATM    7  C5  UNL     1       0.370   8.488  10.847  1.00  0.00     0.179 C 
BRANCH   7   8
HETATM    8  C6  UNL     1       0.184   7.614   9.608  1.00  0.00     0.027 C 
BRANCH   8   9
HETATM    9  C7  UNL     1       0.557   8.317   8.301  1.00  0.00     0.002 C 
BRANCH   9  10
HETATM   10  C8  UNL     1       1.942   7.915   7.784  1.00  0.00     0.000 C 
BRANCH  10  11
HETATM   11  C9  UNL     1       2.425   6.562   8.316  1.00  0.00     0.000 C 
BRANCH  11  12
HETATM   12  C10 UNL     1       3.448   6.686   9.446  1.00  0.00     0.009 C 
BRANCH  12  13
HETATM   13  C11 UNL     1       3.968   8.118   9.568  1.00  0.00     0.103 C 
BRANCH  13  14
HETATM   14  C12 UNL     1       4.998   8.263  10.673  1.00  0.00     0.218 C 
HETATM   15  O3  UNL     1       5.886   9.107  10.670  1.00  0.00    -0.274 OA
HETATM   16  N1  UNL     1       4.854   7.319  11.668  1.00  0.00    -0.348 N 
HETATM   17  H19 UNL     1       3.958   6.850  11.741  1.00  0.00     0.163 HD
BRANCH  16  18
HETATM   18  C13 UNL     1       5.668   7.380  12.883  1.00  0.00     0.176 C 
HETATM   19  C14 UNL     1       5.032   8.257  13.966  1.00  0.00     0.036 C 
HETATM   20  C15 UNL     1       5.210   9.740  13.657  1.00  0.00     0.022 C 
HETATM   21  C16 UNL     1       6.693  10.053  13.553  1.00  0.00     0.122 C 
HETATM   22  N2  UNL     1       7.370   9.183  12.621  1.00  0.00    -0.359 N 
HETATM   23  C17 UNL     1       7.074   7.854  12.472  1.00  0.00     0.240 C 
HETATM   24  H27 UNL     1       8.319   9.413  12.350  1.00  0.00     0.162 HD
HETATM   25  O4  UNL     1       7.864   7.124  11.870  1.00  0.00    -0.271 OA
ENDBRANCH  16  18
ENDBRANCH  13  14
ENDBRANCH  12  13
ENDBRANCH  11  12
ENDBRANCH  10  11
ENDBRANCH   9  10
ENDBRANCH   8   9
ENDBRANCH   7   8
ENDBRANCH   6   7
ENDBRANCH   4   6
ENDBRANCH   3   4
BRANCH   2  26
HETATM   26  C18 UNL     1      -4.794   7.623  13.261  1.00  0.00     0.068 C 
BRANCH  26  27
HETATM   27  C19 UNL     1      -5.243   6.627  14.350  1.00  0.00     0.156 C 
HETATM   28  O5  UNL     1      -5.739   5.382  13.829  1.00  0.00    -0.382 OA
HETATM   29  C20 UNL     1      -6.985   5.462  13.141  1.00  0.00     0.175 C 
HETATM   30  C21 UNL     1      -8.109   5.972  14.048  1.00  0.00     0.044 C 
HETATM   31  C29 UNL     1      -7.678   7.321  14.651  1.00  0.00     0.155 C 
HETATM   32  C30 UNL     1      -6.288   7.225  15.304  1.00  0.00     0.176 C 
BRANCH  30  33
HETATM   33  C22 UNL     1      -9.425   6.052  13.247  1.00  0.00     0.036 C 
BRANCH  33  34
HETATM   34  C23 UNL     1     -10.413   7.037  13.810  1.00  0.00    -0.030 C 
HETATM   35  C24 UNL     1     -11.389   7.608  13.083  1.00  0.00    -0.024 C 
BRANCH  35  36
HETATM   36  C25 UNL     1     -12.438   8.601  13.551  1.00  0.00     0.032 C 
HETATM   37  C26 UNL     1     -12.599   9.705  12.492  1.00  0.00     0.017 C 
BRANCH  36  38
HETATM   38  C27 UNL     1     -13.812   8.025  13.989  1.00  0.00     0.121 C 
HETATM   39  C28 UNL     1     -14.152   6.660  13.398  1.00  0.00     0.040 C 
BRANCH  38  40
HETATM   40  O6  UNL     1     -14.858   8.925  13.601  1.00  0.00    -0.395 OA
HETATM   41  H46 UNL     1     -14.713   9.759  14.080  1.00  0.00     0.210 HD
ENDBRANCH  38  40
ENDBRANCH  36  38
ENDBRANCH  35  36
ENDBRANCH  33  34
ENDBRANCH  30  33
BRANCH  31  42
HETATM   42  O7  UNL     1      -8.609   7.751  15.647  1.00  0.00    -0.392 OA
HETATM   43  H48 UNL     1      -8.340   7.299  16.476  1.00  0.00     0.210 HD
ENDBRANCH  31  42
BRANCH  32  44
HETATM   44  O8  UNL     1      -6.414   6.380  16.468  1.00  0.00    -0.390 OA
HETATM   45  H50 UNL     1      -6.273   5.461  16.162  1.00  0.00     0.210 HD
ENDBRANCH  32  44
ENDBRANCH  26  27
ENDBRANCH   2  26
TORSDOF 20
ENDMDL
MODEL 3
REMARK minimizedAffinity -7.37344837
REMARK CNNscore 0.403933376
REMARK CNNaffinity 6.50602198
REMARK  20 active torsions:
REMARK  status: ('A' for Active; 'I' for Inactive)
REMARK    1  A    between atoms: C2_2  and  C18_24 
REMARK    2  A    between atoms: C3_3  and  C4_4 
REMARK    3  A    between atoms: C4_4  and  O2_6 
REMARK    4  A    between atoms: O2_6  and  C5_7 
REMARK    5  A    between atoms: C5_7  and  C6_8 
REMARK    6  A    between atoms: C6_8  and  C7_9 
REMARK    7  A    between atoms: C7_9  and  C8_10 
REMARK    8  A    between atoms: C8_10  and  C9_11 
REMARK    9  A    between atoms: C9_11  and  C10_12 
REMARK   10  A    between atoms: C10_12  and  C11_13 
REMARK   11  A    between atoms: C11_13  and  C12_14 
REMARK       I    between atoms: C12_14  and  N1_16 
REMARK   12  A    between atoms: N1_16  and  C13_17 
REMARK   13  A    between atoms: C18_24  and  C19_25 
REMARK   14  A    between atoms: C21_28  and  C22_29 
REMARK   15  A    between atoms: C22_29  and  C23_30 
REMARK   16  A    between atoms: C24_31  and  C25_32 
REMARK   17  A    between atoms: C25_32  and  C27_34 
REMARK   18  A    between atoms: C27_34  and  O6_36 
REMARK   19  A    between atoms: C29_37  and  O7_38 
REMARK   20  A    between atoms: C30_39  and  O8_40 
ROOT
HETATM    1  C1  UNL     1      -3.967   8.175  12.944  1.00  0.00     0.043 C 
HETATM    2  C2  UNL     1      -4.137   7.114  13.999  1.00  0.00    -0.075 C 
HETATM    3  C3  UNL     1      -3.222   6.164  14.283  1.00  0.00     0.084 C 
ENDROOT
BRANCH   3   4
HETATM    4  C4  UNL     1      -1.945   5.938  13.559  1.00  0.00     0.283 C 
HETATM    5  O1  UNL     1      -1.631   4.928  12.955  1.00  0.00    -0.260 OA
BRANCH   4   6
HETATM    6  O2  UNL     1      -1.190   7.057  13.708  1.00  0.00    -0.318 OA
BRANCH   6   7
HETATM    7  C5  UNL     1       0.225   6.866  13.545  1.00  0.00     0.179 C 
BRANCH   7   8
HETATM    8  C6  UNL     1       0.824   8.043  12.777  1.00  0.00     0.027 C 
BRANCH   8   9
HETATM    9  C7  UNL     1       0.166   8.286  11.417  1.00  0.00     0.002 C 
BRANCH   9  10
HETATM   10  C8  UNL     1       0.105   7.023  10.553  1.00  0.00     0.000 C 
BRANCH  10  11
HETATM   11  C9  UNL     1       1.401   6.740   9.788  1.00  0.00     0.000 C 
BRANCH  11  12
HETATM   12  C10 UNL     1       2.245   5.630  10.414  1.00  0.00     0.009 C 
BRANCH  12  13
HETATM   13  C11 UNL     1       3.721   5.781  10.046  1.00  0.00     0.103 C 
BRANCH  13  14
HETATM   14  C12 UNL     1       4.332   7.042  10.631  1.00  0.00     0.218 C 
HETATM   15  O3  UNL     1       4.634   8.024   9.963  1.00  0.00    -0.274 OA
HETATM   16  N1  UNL     1       4.546   6.954  11.990  1.00  0.00    -0.348 N 
HETATM   17  H19 UNL     1       4.029   6.247  12.500  1.00  0.00     0.163 HD
BRANCH  16  18
HETATM   18  C13 UNL     1       5.003   8.117  12.753  1.00  0.00     0.176 C 
HETATM   19  C14 UNL     1       6.448   8.501  12.420  1.00  0.00     0.036 C 
HETATM   20  C15 UNL     1       7.442   7.555  13.086  1.00  0.00     0.022 C 
HETATM   21  C16 UNL     1       7.237   7.594  14.590  1.00  0.00     0.122 C 
HETATM   22  N2  UNL     1       5.865   7.344  14.961  1.00  0.00    -0.359 N 
HETATM   23  C17 UNL     1       4.790   7.802  14.245  1.00  0.00     0.240 C 
HETATM   24  H27 UNL     1       5.651   7.180  15.938  1.00  0.00     0.162 HD
HETATM   25  O4  UNL     1       3.671   7.788  14.761  1.00  0.00    -0.271 OA
ENDBRANCH  16  18
ENDBRANCH  13  14
ENDBRANCH  12  13
ENDBRANCH  11  12
ENDBRANCH  10  11
ENDBRANCH   9  10
ENDBRANCH   8   9
ENDBRANCH   7   8
ENDBRANCH   6   7
ENDBRANCH   4   6
ENDBRANCH   3   4
BRANCH   2  26
HETATM   26  C18 UNL     1      -5.438   7.171  14.785  1.00  0.00     0.068 C 
BRANCH  26  27
HETATM   27  C19 UNL     1      -6.169   5.813  14.833  1.00  0.00     0.156 C 
HETATM   28  O5  UNL     1      -6.585   5.332  13.545  1.00  0.00    -0.382 OA
HETATM   29  C20 UNL     1      -7.635   6.073  12.927  1.00  0.00     0.175 C 
HETATM   30  C21 UNL     1      -8.914   6.065  13.770  1.00  0.00     0.044 C 
HETATM   31  C29 UNL     1      -8.574   6.582  15.180  1.00  0.00     0.155 C 
HETATM   32  C30 UNL     1      -7.377   5.825  15.781  1.00  0.00     0.176 C 
BRANCH  30  33
HETATM   33  C22 UNL     1     -10.006   6.894  13.062  1.00  0.00     0.036 C 
BRANCH  33  34
HETATM   34  C23 UNL     1     -11.380   6.703  13.644  1.00  0.00    -0.030 C 
HETATM   35  C24 UNL     1     -12.467   7.365  13.215  1.00  0.00    -0.024 C 
BRANCH  35  36
HETATM   36  C25 UNL     1     -13.893   7.242  13.723  1.00  0.00     0.032 C 
HETATM   37  C26 UNL     1     -14.843   7.061  12.527  1.00  0.00     0.017 C 
BRANCH  36  38
HETATM   38  C27 UNL     1     -14.161   6.188  14.831  1.00  0.00     0.121 C 
HETATM   39  C28 UNL     1     -15.348   5.265  14.563  1.00  0.00     0.040 C 
BRANCH  38  40
HETATM   40  O6  UNL     1     -14.416   6.852  16.076  1.00  0.00    -0.395 OA
HETATM   41  H46 UNL     1     -13.609   7.339  16.312  1.00  0.00     0.210 HD
ENDBRANCH  38  40
ENDBRANCH  36  38
ENDBRANCH  35  36
ENDBRANCH  33  34
ENDBRANCH  30  33
BRANCH  31  42
HETATM   42  O7  UNL     1      -9.690   6.422  16.059  1.00  0.00    -0.392 OA
HETATM   43  H48 UNL     1      -9.639   5.499  16.389  1.00  0.00     0.210 HD
ENDBRANCH  31  42
BRANCH  32  44
HETATM   44  O8  UNL     1      -7.804   4.468  16.031  1.00  0.00    -0.390 OA
HETATM   45  H50 UNL     1      -7.638   3.967  15.207  1.00  0.00     0.210 HD
ENDBRANCH  32  44
ENDBRANCH  26  27
ENDBRANCH   2  26
TORSDOF 20
ENDMDL
MODEL 4
REMARK minimizedAffinity -7.74162102
REMARK CNNscore 0.390799701
REMARK CNNaffinity 6.24611139
REMARK  20 active torsions:
REMARK  status: ('A' for Active; 'I' for Inactive)
REMARK    1  A    between atoms: C2_2  and  C18_24 
REMARK    2  A    between atoms: C3_3  and  C4_4 
REMARK    3  A    between atoms: C4_4  and  O2_6 
REMARK    4  A    between atoms: O2_6  and  C5_7 
REMARK    5  A    between atoms: C5_7  and  C6_8 
REMARK    6  A    between atoms: C6_8  and  C7_9 
REMARK    7  A    between atoms: C7_9  and  C8_10 
REMARK    8  A    between atoms: C8_10  and  C9_11 
REMARK    9  A    between atoms: C9_11  and  C10_12 
REMARK   10  A    between atoms: C10_12  and  C11_13 
REMARK   11  A    between atoms: C11_13  and  C12_14 
REMARK       I    between atoms: C12_14  and  N1_16 
REMARK   12  A    between atoms: N1_16  and  C13_17 
REMARK   13  A    between atoms: C18_24  and  C19_25 
REMARK   14  A    between atoms: C21_28  and  C22_29 
REMARK   15  A    between atoms: C22_29  and  C23_30 
REMARK   16  A    between atoms: C24_31  and  C25_32 
REMARK   17  A    between atoms: C25_32  and  C27_34 
REMARK   18  A    between atoms: C27_34  and  O6_36 
REMARK   19  A    between atoms: C29_37  and  O7_38 
REMARK   20  A    between atoms: C30_39  and  O8_40 
ROOT
HETATM    1  C1  UNL     1      -5.088   3.252  10.914  1.00  0.00     0.043 C 
HETATM    2  C2  UNL     1      -5.014   3.777  12.324  1.00  0.00    -0.075 C 
HETATM    3  C3  UNL     1      -6.056   3.819  13.180  1.00  0.00     0.084 C 
ENDROOT
BRANCH   3   4
HETATM    4  C4  UNL     1      -7.459   3.448  12.866  1.00  0.00     0.283 C 
HETATM    5  O1  UNL     1      -7.905   2.317  12.797  1.00  0.00    -0.260 OA
BRANCH   4   6
HETATM    6  O2  UNL     1      -8.146   4.601  12.654  1.00  0.00    -0.318 OA
BRANCH   6   7
HETATM    7  C5  UNL     1      -7.590   5.768  13.282  1.00  0.00     0.179 C 
BRANCH   7   8
HETATM    8  C6  UNL     1      -8.236   5.980  14.650  1.00  0.00     0.027 C 
BRANCH   8   9
HETATM    9  C7  UNL     1      -8.784   7.394  14.856  1.00  0.00     0.002 C 
BRANCH   9  10
HETATM   10  C8  UNL     1     -10.314   7.432  14.927  1.00  0.00     0.000 C 
BRANCH  10  11
HETATM   11  C9  UNL     1     -10.961   8.202  13.772  1.00  0.00     0.000 C 
BRANCH  11  12
HETATM   12  C10 UNL     1     -11.845   9.361  14.235  1.00  0.00     0.009 C 
BRANCH  12  13
HETATM   13  C11 UNL     1     -12.625   9.964  13.067  1.00  0.00     0.103 C 
BRANCH  13  14
HETATM   14  C12 UNL     1     -13.995   9.332  12.905  1.00  0.00     0.218 C 
HETATM   15  O3  UNL     1     -14.397   8.394  13.584  1.00  0.00    -0.274 OA
HETATM   16  N1  UNL     1     -14.731   9.898  11.885  1.00  0.00    -0.348 N 
HETATM   17  H19 UNL     1     -14.455  10.821  11.566  1.00  0.00     0.163 HD
BRANCH  16  18
HETATM   18  C13 UNL     1     -16.126   9.514  11.665  1.00  0.00     0.176 C 
HETATM   19  C14 UNL     1     -17.097  10.324  12.529  1.00  0.00     0.036 C 
HETATM   20  C15 UNL     1     -17.093   9.839  13.975  1.00  0.00     0.022 C 
HETATM   21  C16 UNL     1     -17.481   8.372  14.010  1.00  0.00     0.122 C 
HETATM   22  N2  UNL     1     -16.666   7.570  13.129  1.00  0.00    -0.359 N 
HETATM   23  C17 UNL     1     -16.229   7.996  11.903  1.00  0.00     0.240 C 
HETATM   24  H27 UNL     1     -16.728   6.561  13.202  1.00  0.00     0.162 HD
HETATM   25  O4  UNL     1     -15.780   7.173  11.103  1.00  0.00    -0.271 OA
ENDBRANCH  16  18
ENDBRANCH  13  14
ENDBRANCH  12  13
ENDBRANCH  11  12
ENDBRANCH  10  11
ENDBRANCH   9  10
ENDBRANCH   8   9
ENDBRANCH   7   8
ENDBRANCH   6   7
ENDBRANCH   4   6
ENDBRANCH   3   4
BRANCH   2  26
HETATM   26  C18 UNL     1      -3.645   4.265  12.773  1.00  0.00     0.068 C 
BRANCH  26  27
HETATM   27  C19 UNL     1      -3.724   5.467  13.736  1.00  0.00     0.156 C 
HETATM   28  O5  UNL     1      -3.611   6.743  13.084  1.00  0.00    -0.382 OA
HETATM   29  C20 UNL     1      -2.327   7.038  12.540  1.00  0.00     0.175 C 
HETATM   30  C21 UNL     1      -1.241   7.064  13.619  1.00  0.00     0.044 C 
HETATM   31  C29 UNL     1      -1.269   5.723  14.376  1.00  0.00     0.155 C 
HETATM   32  C30 UNL     1      -2.687   5.388  14.867  1.00  0.00     0.176 C 
BRANCH  30  33
HETATM   33  C22 UNL     1       0.126   7.372  12.971  1.00  0.00     0.036 C 
BRANCH  33  34
HETATM   34  C23 UNL     1       0.132   7.213  11.475  1.00  0.00    -0.030 C 
HETATM   35  C24 UNL     1       1.181   7.534  10.698  1.00  0.00    -0.024 C 
BRANCH  35  36
HETATM   36  C25 UNL     1       1.295   7.407   9.190  1.00  0.00     0.032 C 
HETATM   37  C26 UNL     1       0.236   8.303   8.524  1.00  0.00     0.017 C 
BRANCH  36  38
HETATM   38  C27 UNL     1       2.701   7.622   8.565  1.00  0.00     0.121 C 
HETATM   39  C28 UNL     1       3.800   7.965   9.567  1.00  0.00     0.040 C 
BRANCH  38  40
HETATM   40  O6  UNL     1       2.646   8.694   7.615  1.00  0.00    -0.395 OA
HETATM   41  H46 UNL     1       2.040   8.420   6.906  1.00  0.00     0.210 HD
ENDBRANCH  38  40
ENDBRANCH  36  38
ENDBRANCH  35  36
ENDBRANCH  33  34
ENDBRANCH  30  33
BRANCH  31  42
HETATM   42  O7  UNL     1      -0.401   5.764  15.511  1.00  0.00    -0.392 OA
HETATM   43  H48 UNL     1      -0.925   6.177  16.231  1.00  0.00     0.210 HD
ENDBRANCH  31  42
BRANCH  32  44
HETATM   44  O8  UNL     1      -3.026   6.343  15.896  1.00  0.00    -0.390 OA
HETATM   45  H50 UNL     1      -3.425   7.112  15.442  1.00  0.00     0.210 HD
ENDBRANCH  32  44
ENDBRANCH  26  27
ENDBRANCH   2  26
TORSDOF 20
ENDMDL
MODEL 5
REMARK minimizedAffinity -7.84988308
REMARK CNNscore 0.388677329
REMARK CNNaffinity 6.94982147
REMARK  20 active torsions:
REMARK  status: ('A' for Active; 'I' for Inactive)
REMARK    1  A    between atoms: C2_2  and  C18_24 
REMARK    2  A    between atoms: C3_3  and  C4_4 
REMARK    3  A    between atoms: C4_4  and  O2_6 
REMARK    4  A    between atoms: O2_6  and  C5_7 
REMARK    5  A    between atoms: C5_7  and  C6_8 
REMARK    6  A    between atoms: C6_8  and  C7_9 
REMARK    7  A    between atoms: C7_9  and  C8_10 
REMARK    8  A    between atoms: C8_10  and  C9_11 
REMARK    9  A    between atoms: C9_11  and  C10_12 
REMARK   10  A    between atoms: C10_12  and  C11_13 
REMARK   11  A    between atoms: C11_13  and  C12_14 
REMARK       I    between atoms: C12_14  and  N1_16 
REMARK   12  A    between atoms: N1_16  and  C13_17 
REMARK   13  A    between atoms: C18_24  and  C19_25 
REMARK   14  A    between atoms: C21_28  and  C22_29 
REMARK   15  A    between atoms: C22_29  and  C23_30 
REMARK   16  A    between atoms: C24_31  and  C25_32 
REMARK   17  A    between atoms: C25_32  and  C27_34 
REMARK   18  A    between atoms: C27_34  and  O6_36 
REMARK   19  A    between atoms: C29_37  and  O7_38 
REMARK   20  A    between atoms: C30_39  and  O8_40 
ROOT
HETATM    1  C1  UNL     1      -1.818   5.081  13.911  1.00  0.00     0.043 C 
HETATM    2  C2  UNL     1      -1.463   5.974  12.752  1.00  0.00    -0.075 C 
HETATM    3  C3  UNL     1      -0.938   5.541  11.586  1.00  0.00     0.084 C 
ENDROOT
BRANCH   3   4
HETATM    4  C4  UNL     1      -0.538   4.146  11.274  1.00  0.00     0.283 C 
HETATM    5  O1  UNL     1       0.563   3.657  11.453  1.00  0.00    -0.260 OA
BRANCH   4   6
HETATM    6  O2  UNL     1      -1.620   3.523  10.739  1.00  0.00    -0.318 OA
BRANCH   6   7
HETATM    7  C5  UNL     1      -1.881   2.205  11.249  1.00  0.00     0.179 C 
BRANCH   7   8
HETATM    8  C6  UNL     1      -3.378   2.033  11.505  1.00  0.00     0.027 C 
BRANCH   8   9
HETATM    9  C7  UNL     1      -4.034   3.258  12.146  1.00  0.00     0.002 C 
BRANCH   9  10
HETATM   10  C8  UNL     1      -5.479   3.468  11.684  1.00  0.00     0.000 C 
BRANCH  10  11
HETATM   11  C9  UNL     1      -6.428   2.344  12.110  1.00  0.00     0.000 C 
BRANCH  11  12
HETATM   12  C10 UNL     1      -7.569   2.823  13.009  1.00  0.00     0.009 C 
BRANCH  12  13
HETATM   13  C11 UNL     1      -8.052   4.214  12.597  1.00  0.00     0.103 C 
BRANCH  13  14
HETATM   14  C12 UNL     1      -7.585   5.291  13.558  1.00  0.00     0.218 C 
HETATM   15  O3  UNL     1      -7.100   6.358  13.201  1.00  0.00    -0.274 OA
HETATM   16  N1  UNL     1      -7.727   4.929  14.882  1.00  0.00    -0.348 N 
HETATM   17  H19 UNL     1      -8.373   4.176  15.093  1.00  0.00     0.163 HD
BRANCH  16  18
HETATM   18  C13 UNL     1      -7.457   5.888  15.953  1.00  0.00     0.176 C 
HETATM   19  C14 UNL     1      -8.655   6.800  16.235  1.00  0.00     0.036 C 
HETATM   20  C15 UNL     1      -8.792   7.884  15.171  1.00  0.00     0.022 C 
HETATM   21  C16 UNL     1      -7.518   8.711  15.135  1.00  0.00     0.122 C 
HETATM   22  N2  UNL     1      -6.340   7.892  14.979  1.00  0.00    -0.359 N 
HETATM   23  C17 UNL     1      -6.186   6.665  15.567  1.00  0.00     0.240 C 
HETATM   24  H27 UNL     1      -5.459   8.350  14.774  1.00  0.00     0.162 HD
HETATM   25  O4  UNL     1      -5.064   6.156  15.616  1.00  0.00    -0.271 OA
ENDBRANCH  16  18
ENDBRANCH  13  14
ENDBRANCH  12  13
ENDBRANCH  11  12
ENDBRANCH  10  11
ENDBRANCH   9  10
ENDBRANCH   8   9
ENDBRANCH   7   8
ENDBRANCH   6   7
ENDBRANCH   4   6
ENDBRANCH   3   4
BRANCH   2  26
HETATM   26  C18 UNL     1      -1.750   7.454  12.950  1.00  0.00     0.068 C 
BRANCH  26  27
HETATM   27  C19 UNL     1      -1.100   8.025  14.228  1.00  0.00     0.156 C 
HETATM   28  O5  UNL     1      -0.516   9.326  14.051  1.00  0.00    -0.382 OA
HETATM   29  C20 UNL     1       0.649   9.365  13.230  1.00  0.00     0.175 C 
HETATM   30  C21 UNL     1       1.783   8.512  13.806  1.00  0.00     0.044 C 
HETATM   31  C29 UNL     1       1.259   7.080  14.023  1.00  0.00     0.155 C 
HETATM   32  C30 UNL     1      -0.050   7.080  14.831  1.00  0.00     0.176 C 
BRANCH  30  33
HETATM   33  C22 UNL     1       3.008   8.579  12.870  1.00  0.00     0.036 C 
BRANCH  33  34
HETATM   34  C23 UNL     1       2.876   7.718  11.643  1.00  0.00    -0.030 C 
HETATM   35  C24 UNL     1       3.410   8.037  10.452  1.00  0.00    -0.024 C 
BRANCH  35  36
HETATM   36  C25 UNL     1       3.345   7.241   9.160  1.00  0.00     0.032 C 
HETATM   37  C26 UNL     1       3.077   5.762   9.489  1.00  0.00     0.017 C 
BRANCH  36  38
HETATM   38  C27 UNL     1       2.388   7.763   8.054  1.00  0.00     0.121 C 
HETATM   39  C28 UNL     1       1.053   8.299   8.564  1.00  0.00     0.040 C 
BRANCH  38  40
HETATM   40  O6  UNL     1       2.094   6.704   7.133  1.00  0.00    -0.395 OA
HETATM   41  H46 UNL     1       2.931   6.448   6.712  1.00  0.00     0.210 HD
ENDBRANCH  38  40
ENDBRANCH  36  38
ENDBRANCH  35  36
ENDBRANCH  33  34
ENDBRANCH  30  33
BRANCH  31  42
HETATM   42  O7  UNL     1       2.219   6.291  14.728  1.00  0.00    -0.392 OA
HETATM   43  H48 UNL     1       2.074   6.483  15.680  1.00  0.00     0.210 HD
ENDBRANCH  31  42
BRANCH  32  44
HETATM   44  O8  UNL     1       0.269   7.510  16.172  1.00  0.00    -0.390 OA
HETATM   45  H50 UNL     1       0.205   8.487  16.174  1.00  0.00     0.210 HD
ENDBRANCH  32  44
ENDBRANCH  26  27
ENDBRANCH   2  26
TORSDOF 20
ENDMDL
MODEL 6
REMARK minimizedAffinity -7.51743412
REMARK CNNscore 0.371897072
REMARK CNNaffinity 6.81946945
REMARK  20 active torsions:
REMARK  status: ('A' for Active; 'I' for Inactive)
REMARK    1  A    between atoms: C2_2  and  C18_24 
REMARK    2  A    between atoms: C3_3  and  C4_4 
REMARK    3  A    between atoms: C4_4  and  O2_6 
REMARK    4  A    between atoms: O2_6  and  C5_7 
REMARK    5  A    between atoms: C5_7  and  C6_8 
REMARK    6  A    between atoms: C6_8  and  C7_9 
REMARK    7  A    between atoms: C7_9  and  C8_10 
REMARK    8  A    between atoms: C8_10  and  C9_11 
REMARK    9  A    between atoms: C9_11  and  C10_12 
REMARK   10  A    between atoms: C10_12  and  C11_13 
REMARK   11  A    between atoms: C11_13  and  C12_14 
REMARK       I    between atoms: C12_14  and  N1_16 
REMARK   12  A    between atoms: N1_16  and  C13_17 
REMARK   13  A    between atoms: C18_24  and  C19_25 
REMARK   14  A    between atoms: C21_28  and  C22_29 
REMARK   15  A    between atoms: C22_29  and  C23_30 
REMARK   16  A    between atoms: C24_31  and  C25_32 
REMARK   17  A    between atoms: C25_32  and  C27_34 
REMARK   18  A    between atoms: C27_34  and  O6_36 
REMARK   19  A    between atoms: C29_37  and  O7_38 
REMARK   20  A    between atoms: C30_39  and  O8_40 
ROOT
HETATM    1  C1  UNL     1      -3.725   3.612  10.390  1.00  0.00     0.043 C 
HETATM    2  C2  UNL     1      -3.539   4.186  11.770  1.00  0.00    -0.075 C 
HETATM    3  C3  UNL     1      -4.488   4.194  12.730  1.00  0.00     0.084 C 
ENDROOT
BRANCH   3   4
HETATM    4  C4  UNL     1      -5.891   3.731  12.573  1.00  0.00     0.283 C 
HETATM    5  O1  UNL     1      -6.246   2.639  12.167  1.00  0.00    -0.260 OA
BRANCH   4   6
HETATM    6  O2  UNL     1      -6.701   4.755  12.950  1.00  0.00    -0.318 OA
BRANCH   6   7
HETATM    7  C5  UNL     1      -7.432   4.538  14.169  1.00  0.00     0.179 C 
BRANCH   7   8
HETATM    8  C6  UNL     1      -6.910   5.471  15.260  1.00  0.00     0.027 C 
BRANCH   8   9
HETATM    9  C7  UNL     1      -7.070   6.956  14.927  1.00  0.00     0.002 C 
BRANCH   9  10
HETATM   10  C8  UNL     1      -8.154   7.640  15.765  1.00  0.00     0.000 C 
BRANCH  10  11
HETATM   11  C9  UNL     1      -8.464   9.071  15.315  1.00  0.00     0.000 C 
BRANCH  11  12
HETATM   12  C10 UNL     1      -9.932   9.286  14.946  1.00  0.00     0.009 C 
BRANCH  12  13
HETATM   13  C11 UNL     1     -10.659   7.953  14.767  1.00  0.00     0.103 C 
BRANCH  13  14
HETATM   14  C12 UNL     1     -12.150   8.138  14.549  1.00  0.00     0.218 C 
HETATM   15  O3  UNL     1     -12.628   8.965  13.783  1.00  0.00    -0.274 OA
HETATM   16  N1  UNL     1     -12.915   7.301  15.335  1.00  0.00    -0.348 N 
HETATM   17  H19 UNL     1     -12.462   6.479  15.721  1.00  0.00     0.163 HD
BRANCH  16  18
HETATM   18  C13 UNL     1     -14.367   7.238  15.168  1.00  0.00     0.176 C 
HETATM   19  C14 UNL     1     -14.780   6.352  13.989  1.00  0.00     0.036 C 
HETATM   20  C15 UNL     1     -14.563   7.062  12.656  1.00  0.00     0.022 C 
HETATM   21  C16 UNL     1     -15.373   8.346  12.638  1.00  0.00     0.122 C 
HETATM   22  N2  UNL     1     -15.104   9.178  13.787  1.00  0.00    -0.359 N 
HETATM   23  C17 UNL     1     -14.880   8.684  15.044  1.00  0.00     0.240 C 
HETATM   24  H27 UNL     1     -15.461  10.127  13.789  1.00  0.00     0.162 HD
HETATM   25  O4  UNL     1     -14.932   9.447  16.011  1.00  0.00    -0.271 OA
ENDBRANCH  16  18
ENDBRANCH  13  14
ENDBRANCH  12  13
ENDBRANCH  11  12
ENDBRANCH  10  11
ENDBRANCH   9  10
ENDBRANCH   8   9
ENDBRANCH   7   8
ENDBRANCH   6   7
ENDBRANCH   4   6
ENDBRANCH   3   4
BRANCH   2  26
HETATM   26  C18 UNL     1      -2.164   4.768  12.061  1.00  0.00     0.068 C 
BRANCH  26  27
HETATM   27  C19 UNL     1      -2.094   5.486  13.424  1.00  0.00     0.156 C 
HETATM   28  O5  UNL     1      -2.370   6.895  13.354  1.00  0.00    -0.382 OA
HETATM   29  C20 UNL     1      -1.379   7.678  12.692  1.00  0.00     0.175 C 
HETATM   30  C21 UNL     1      -0.019   7.589  13.391  1.00  0.00     0.044 C 
HETATM   31  C29 UNL     1       0.378   6.106  13.506  1.00  0.00     0.155 C 
HETATM   32  C30 UNL     1      -0.750   5.272  14.137  1.00  0.00     0.176 C 
BRANCH  30  33
HETATM   33  C22 UNL     1       1.014   8.441  12.623  1.00  0.00     0.036 C 
BRANCH  33  34
HETATM   34  C23 UNL     1       0.807   8.439  11.133  1.00  0.00    -0.030 C 
HETATM   35  C24 UNL     1       1.205   7.437  10.330  1.00  0.00    -0.024 C 
BRANCH  35  36
HETATM   36  C25 UNL     1       1.039   7.330   8.824  1.00  0.00     0.032 C 
HETATM   37  C26 UNL     1       0.014   8.376   8.351  1.00  0.00     0.017 C 
BRANCH  36  38
HETATM   38  C27 UNL     1       2.332   7.368   7.965  1.00  0.00     0.121 C 
HETATM   39  C28 UNL     1       3.077   8.701   7.987  1.00  0.00     0.040 C 
BRANCH  38  40
HETATM   40  O6  UNL     1       2.010   7.088   6.597  1.00  0.00    -0.395 OA
HETATM   41  H46 UNL     1       1.652   6.184   6.564  1.00  0.00     0.210 HD
ENDBRANCH  38  40
ENDBRANCH  36  38
ENDBRANCH  35  36
ENDBRANCH  33  34
ENDBRANCH  30  33
BRANCH  31  42
HETATM   42  O7  UNL     1       1.549   5.957  14.312  1.00  0.00    -0.392 OA
HETATM   43  H48 UNL     1       1.232   5.940  15.241  1.00  0.00     0.210 HD
ENDBRANCH  31  42
BRANCH  32  44
HETATM   44  O8  UNL     1      -0.868   5.679  15.518  1.00  0.00    -0.390 OA
HETATM   45  H50 UNL     1      -1.492   6.433  15.533  1.00  0.00     0.210 HD
ENDBRANCH  32  44
ENDBRANCH  26  27
ENDBRANCH   2  26
TORSDOF 20
ENDMDL
MODEL 7
REMARK minimizedAffinity -7.40995932
REMARK CNNscore 0.37179029
REMARK CNNaffinity 5.95528173
REMARK  20 active torsions:
REMARK  status: ('A' for Active; 'I' for Inactive)
REMARK    1  A    between atoms: C2_2  and  C18_24 
REMARK    2  A    between atoms: C3_3  and  C4_4 
REMARK    3  A    between atoms: C4_4  and  O2_6 
REMARK    4  A    between atoms: O2_6  and  C5_7 
REMARK    5  A    between atoms: C5_7  and  C6_8 
REMARK    6  A    between atoms: C6_8  and  C7_9 
REMARK    7  A    between atoms: C7_9  and  C8_10 
REMARK    8  A    between atoms: C8_10  and  C9_11 
REMARK    9  A    between atoms: C9_11  and  C10_12 
REMARK   10  A    between atoms: C10_12  and  C11_13 
REMARK   11  A    between atoms: C11_13  and  C12_14 
REMARK       I    between atoms: C12_14  and  N1_16 
REMARK   12  A    between atoms: N1_16  and  C13_17 
REMARK   13  A    between atoms: C18_24  and  C19_25 
REMARK   14  A    between atoms: C21_28  and  C22_29 
REMARK   15  A    between atoms: C22_29  and  C23_30 
REMARK   16  A    between atoms: C24_31  and  C25_32 
REMARK   17  A    between atoms: C25_32  and  C27_34 
REMARK   18  A    between atoms: C27_34  and  O6_36 
REMARK   19  A    between atoms: C29_37  and  O7_38 
REMARK   20  A    between atoms: C30_39  and  O8_40 
ROOT
HETATM    1  C1  UNL     1       0.351  11.168  16.237  1.00  0.00     0.043 C 
HETATM    2  C2  UNL     1      -0.509  10.237  17.051  1.00  0.00    -0.075 C 
HETATM    3  C3  UNL     1      -0.600  10.261  18.398  1.00  0.00     0.084 C 
ENDROOT
BRANCH   3   4
HETATM    4  C4  UNL     1       0.186  11.130  19.310  1.00  0.00     0.283 C 
HETATM    5  O1  UNL     1      -0.101  12.265  19.645  1.00  0.00    -0.260 OA
BRANCH   4   6
HETATM    6  O2  UNL     1       1.289  10.431  19.686  1.00  0.00    -0.318 OA
BRANCH   6   7
HETATM    7  C5  UNL     1       1.776  10.722  21.007  1.00  0.00     0.179 C 
BRANCH   7   8
HETATM    8  C6  UNL     1       2.276   9.440  21.670  1.00  0.00     0.027 C 
BRANCH   8   9
HETATM    9  C7  UNL     1       3.416   9.669  22.665  1.00  0.00     0.002 C 
BRANCH   9  10
HETATM   10  C8  UNL     1       3.715  11.153  22.895  1.00  0.00     0.000 C 
BRANCH  10  11
HETATM   11  C9  UNL     1       4.967  11.646  22.164  1.00  0.00     0.000 C 
BRANCH  11  12
HETATM   12  C10 UNL     1       5.937  12.407  23.068  1.00  0.00     0.009 C 
BRANCH  12  13
HETATM   13  C11 UNL     1       7.366  12.339  22.529  1.00  0.00     0.103 C 
BRANCH  13  14
HETATM   14  C12 UNL     1       8.300  13.290  23.256  1.00  0.00     0.218 C 
HETATM   15  O3  UNL     1       9.380  12.954  23.727  1.00  0.00    -0.274 OA
HETATM   16  N1  UNL     1       7.788  14.566  23.367  1.00  0.00    -0.348 N 
HETATM   17  H19 UNL     1       7.044  14.828  22.730  1.00  0.00     0.163 HD
BRANCH  16  18
HETATM   18  C13 UNL     1       8.599  15.652  23.917  1.00  0.00     0.176 C 
HETATM   19  C14 UNL     1       7.811  16.530  24.894  1.00  0.00     0.036 C 
HETATM   20  C15 UNL     1       6.870  17.478  24.157  1.00  0.00     0.022 C 
HETATM   21  C16 UNL     1       7.681  18.357  23.222  1.00  0.00     0.122 C 
HETATM   22  N2  UNL     1       8.528  17.585  22.344  1.00  0.00    -0.359 N 
HETATM   23  C17 UNL     1       9.178  16.442  22.729  1.00  0.00     0.240 C 
HETATM   24  H27 UNL     1       8.982  18.060  21.572  1.00  0.00     0.162 HD
HETATM   25  O4  UNL     1      10.087  15.998  22.025  1.00  0.00    -0.271 OA
ENDBRANCH  16  18
ENDBRANCH  13  14
ENDBRANCH  12  13
ENDBRANCH  11  12
ENDBRANCH  10  11
ENDBRANCH   9  10
ENDBRANCH   8   9
ENDBRANCH   7   8
ENDBRANCH   6   7
ENDBRANCH   4   6
ENDBRANCH   3   4
BRANCH   2  26
HETATM   26  C18 UNL     1      -1.327   9.233  16.255  1.00  0.00     0.068 C 
BRANCH  26  27
HETATM   27  C19 UNL     1      -1.791   9.784  14.890  1.00  0.00     0.156 C 
HETATM   28  O5  UNL     1      -3.189   9.584  14.628  1.00  0.00    -0.382 OA
HETATM   29  C20 UNL     1      -3.581   8.230  14.411  1.00  0.00     0.175 C 
HETATM   30  C21 UNL     1      -2.873   7.616  13.200  1.00  0.00     0.044 C 
HETATM   31  C29 UNL     1      -1.353   7.769  13.391  1.00  0.00     0.155 C 
HETATM   32  C30 UNL     1      -0.973   9.224  13.717  1.00  0.00     0.176 C 
BRANCH  30  33
HETATM   33  C22 UNL     1      -3.323   6.150  13.025  1.00  0.00     0.036 C 
BRANCH  33  34
HETATM   34  C23 UNL     1      -4.731   5.894  13.487  1.00  0.00    -0.030 C 
HETATM   35  C24 UNL     1      -5.374   4.728  13.301  1.00  0.00    -0.024 C 
BRANCH  35  36
HETATM   36  C25 UNL     1      -6.783   4.363  13.732  1.00  0.00     0.032 C 
HETATM   37  C26 UNL     1      -7.217   5.288  14.882  1.00  0.00     0.017 C 
BRANCH  36  38
HETATM   38  C27 UNL     1      -7.865   4.285  12.621  1.00  0.00     0.121 C 
HETATM   39  C28 UNL     1      -8.570   5.605  12.320  1.00  0.00     0.040 C 
BRANCH  38  40
HETATM   40  O6  UNL     1      -8.878   3.344  13.001  1.00  0.00    -0.395 OA
HETATM   41  H46 UNL     1      -8.451   2.473  13.068  1.00  0.00     0.210 HD
ENDBRANCH  38  40
ENDBRANCH  36  38
ENDBRANCH  35  36
ENDBRANCH  33  34
ENDBRANCH  30  33
BRANCH  31  42
HETATM   42  O7  UNL     1      -0.652   7.380  12.208  1.00  0.00    -0.392 OA
HETATM   43  H48 UNL     1      -0.654   8.169  11.625  1.00  0.00     0.210 HD
ENDBRANCH  31  42
BRANCH  32  44
HETATM   44  O8  UNL     1      -1.227  10.013  12.534  1.00  0.00    -0.390 OA
HETATM   45  H50 UNL     1      -2.161  10.302  12.588  1.00  0.00     0.210 HD
ENDBRANCH  32  44
ENDBRANCH  26  27
ENDBRANCH   2  26
TORSDOF 20
ENDMDL
MODEL 8
REMARK minimizedAffinity -7.41004372
REMARK CNNscore 0.357380748
REMARK CNNaffinity 6.57043886
REMARK  20 active torsions:
REMARK  status: ('A' for Active; 'I' for Inactive)
REMARK    1  A    between atoms: C2_2  and  C18_24 
REMARK    2  A    between atoms: C3_3  and  C4_4 
REMARK    3  A    between atoms: C4_4  and  O2_6 
REMARK    4  A    between atoms: O2_6  and  C5_7 
REMARK    5  A    between atoms: C5_7  and  C6_8 
REMARK    6  A    between atoms: C6_8  and  C7_9 
REMARK    7  A    between atoms: C7_9  and  C8_10 
REMARK    8  A    between atoms: C8_10  and  C9_11 
REMARK    9  A    between atoms: C9_11  and  C10_12 
REMARK   10  A    between atoms: C10_12  and  C11_13 
REMARK   11  A    between atoms: C11_13  and  C12_14 
REMARK       I    between atoms: C12_14  and  N1_16 
REMARK   12  A    between atoms: N1_16  and  C13_17 
REMARK   13  A    between atoms: C18_24  and  C19_25 
REMARK   14  A    between atoms: C21_28  and  C22_29 
REMARK   15  A    between atoms: C22_29  and  C23_30 
REMARK   16  A    between atoms: C24_31  and  C25_32 
REMARK   17  A    between atoms: C25_32  and  C27_34 
REMARK   18  A    between atoms: C27_34  and  O6_36 
REMARK   19  A    between atoms: C29_37  and  O7_38 
REMARK   20  A    between atoms: C30_39  and  O8_40 
ROOT
HETATM    1  C1  UNL     1      -2.025   9.426  14.344  1.00  0.00     0.043 C 
HETATM    2  C2  UNL     1      -1.197   8.341  13.707  1.00  0.00    -0.075 C 
HETATM    3  C3  UNL     1      -1.535   7.035  13.684  1.00  0.00     0.084 C 
ENDROOT
BRANCH   3   4
HETATM    4  C4  UNL     1      -2.716   6.427  14.348  1.00  0.00     0.283 C 
HETATM    5  O1  UNL     1      -2.929   6.396  15.547  1.00  0.00    -0.260 OA
BRANCH   4   6
HETATM    6  O2  UNL     1      -3.504   5.901  13.374  1.00  0.00    -0.318 OA
BRANCH   6   7
HETATM    7  C5  UNL     1      -3.424   4.474  13.227  1.00  0.00     0.179 C 
BRANCH   7   8
HETATM    8  C6  UNL     1      -3.784   4.077  11.797  1.00  0.00     0.027 C 
BRANCH   8   9
HETATM    9  C7  UNL     1      -4.458   2.707  11.692  1.00  0.00     0.002 C 
BRANCH   9  10
HETATM   10  C8  UNL     1      -5.943   2.801  11.329  1.00  0.00     0.000 C 
BRANCH  10  11
HETATM   11  C9  UNL     1      -6.872   2.219  12.399  1.00  0.00     0.000 C 
BRANCH  11  12
HETATM   12  C10 UNL     1      -7.572   3.287  13.239  1.00  0.00     0.009 C 
BRANCH  12  13
HETATM   13  C11 UNL     1      -7.480   4.662  12.576  1.00  0.00     0.103 C 
BRANCH  13  14
HETATM   14  C12 UNL     1      -7.560   5.793  13.586  1.00  0.00     0.218 C 
HETATM   15  O3  UNL     1      -8.504   6.570  13.663  1.00  0.00    -0.274 OA
HETATM   16  N1  UNL     1      -6.440   5.879  14.385  1.00  0.00    -0.348 N 
HETATM   17  H19 UNL     1      -5.848   5.058  14.450  1.00  0.00     0.163 HD
BRANCH  16  18
HETATM   18  C13 UNL     1      -6.390   6.820  15.505  1.00  0.00     0.176 C 
HETATM   19  C14 UNL     1      -7.481   6.546  16.544  1.00  0.00     0.036 C 
HETATM   20  C15 UNL     1      -8.842   7.042  16.066  1.00  0.00     0.022 C 
HETATM   21  C16 UNL     1      -8.762   8.533  15.791  1.00  0.00     0.122 C 
HETATM   22  N2  UNL     1      -7.678   8.865  14.897  1.00  0.00    -0.359 N 
HETATM   23  C17 UNL     1      -6.459   8.241  14.917  1.00  0.00     0.240 C 
HETATM   24  H27 UNL     1      -7.639   9.804  14.516  1.00  0.00     0.162 HD
HETATM   25  O4  UNL     1      -5.508   8.754  14.324  1.00  0.00    -0.271 OA
ENDBRANCH  16  18
ENDBRANCH  13  14
ENDBRANCH  12  13
ENDBRANCH  11  12
ENDBRANCH  10  11
ENDBRANCH   9  10
ENDBRANCH   8   9
ENDBRANCH   7   8
ENDBRANCH   6   7
ENDBRANCH   4   6
ENDBRANCH   3   4
BRANCH   2  26
HETATM   26  C18 UNL     1       0.091   8.802  13.042  1.00  0.00     0.068 C 
BRANCH  26  27
HETATM   27  C19 UNL     1       1.323   8.663  13.961  1.00  0.00     0.156 C 
HETATM   28  O5  UNL     1       2.220   9.784  13.903  1.00  0.00    -0.382 OA
HETATM   29  C20 UNL     1       2.933   9.932  12.677  1.00  0.00     0.175 C 
HETATM   30  C21 UNL     1       3.817   8.718  12.379  1.00  0.00     0.044 C 
HETATM   31  C29 UNL     1       2.940   7.453  12.404  1.00  0.00     0.155 C 
HETATM   32  C30 UNL     1       2.113   7.372  13.699  1.00  0.00     0.176 C 
BRANCH  30  33
HETATM   33  C22 UNL     1       4.549   8.928  11.036  1.00  0.00     0.036 C 
BRANCH  33  34
HETATM   34  C23 UNL     1       3.781   8.419   9.846  1.00  0.00    -0.030 C 
HETATM   35  C24 UNL     1       2.547   7.893   9.929  1.00  0.00    -0.024 C 
BRANCH  35  36
HETATM   36  C25 UNL     1       1.684   7.362   8.798  1.00  0.00     0.032 C 
HETATM   37  C26 UNL     1       0.578   8.384   8.481  1.00  0.00     0.017 C 
BRANCH  36  38
HETATM   38  C27 UNL     1       2.414   6.893   7.510  1.00  0.00     0.121 C 
HETATM   39  C28 UNL     1       1.637   7.117   6.215  1.00  0.00     0.040 C 
BRANCH  38  40
HETATM   40  O6  UNL     1       2.691   5.489   7.599  1.00  0.00    -0.395 OA
HETATM   41  H46 UNL     1       3.293   5.361   8.351  1.00  0.00     0.210 HD
ENDBRANCH  38  40
ENDBRANCH  36  38
ENDBRANCH  35  36
ENDBRANCH  33  34
ENDBRANCH  30  33
BRANCH  31  42
HETATM   42  O7  UNL     1       3.746   6.276  12.315  1.00  0.00    -0.392 OA
HETATM   43  H48 UNL     1       4.040   6.085  13.231  1.00  0.00     0.210 HD
ENDBRANCH  31  42
BRANCH  32  44
HETATM   44  O8  UNL     1       3.034   7.144  14.787  1.00  0.00    -0.390 OA
HETATM   45  H50 UNL     1       3.326   8.026  15.094  1.00  0.00     0.210 HD
ENDBRANCH  32  44
ENDBRANCH  26  27
ENDBRANCH   2  26
TORSDOF 20
ENDMDL
MODEL 9
REMARK minimizedAffinity -8.00719833
REMARK CNNscore 0.308442086
REMARK CNNaffinity 6.72985125
REMARK  20 active torsions:
REMARK  status: ('A' for Active; 'I' for Inactive)
REMARK    1  A    between atoms: C2_2  and  C18_24 
REMARK    2  A    between atoms: C3_3  and  C4_4 
REMARK    3  A    between atoms: C4_4  and  O2_6 
REMARK    4  A    between atoms: O2_6  and  C5_7 
REMARK    5  A    between atoms: C5_7  and  C6_8 
REMARK    6  A    between atoms: C6_8  and  C7_9 
REMARK    7  A    between atoms: C7_9  and  C8_10 
REMARK    8  A    between atoms: C8_10  and  C9_11 
REMARK    9  A    between atoms: C9_11  and  C10_12 
REMARK   10  A    between atoms: C10_12  and  C11_13 
REMARK   11  A    between atoms: C11_13  and  C12_14 
REMARK       I    between atoms: C12_14  and  N1_16 
REMARK   12  A    between atoms: N1_16  and  C13_17 
REMARK   13  A    between atoms: C18_24  and  C19_25 
REMARK   14  A    between atoms: C21_28  and  C22_29 
REMARK   15  A    between atoms: C22_29  and  C23_30 
REMARK   16  A    between atoms: C24_31  and  C25_32 
REMARK   17  A    between atoms: C25_32  and  C27_34 
REMARK   18  A    between atoms: C27_34  and  O6_36 
REMARK   19  A    between atoms: C29_37  and  O7_38 
REMARK   20  A    between atoms: C30_39  and  O8_40 
ROOT
HETATM    1  C1  UNL     1      -2.991   4.678  13.756  1.00  0.00     0.043 C 
HETATM    2  C2  UNL     1      -2.217   5.358  12.658  1.00  0.00    -0.075 C 
HETATM    3  C3  UNL     1      -1.699   4.727  11.583  1.00  0.00     0.084 C 
ENDROOT
BRANCH   3   4
HETATM    4  C4  UNL     1      -1.719   3.262  11.338  1.00  0.00     0.283 C 
HETATM    5  O1  UNL     1      -0.745   2.544  11.203  1.00  0.00    -0.260 OA
BRANCH   4   6
HETATM    6  O2  UNL     1      -3.020   2.878  11.278  1.00  0.00    -0.318 OA
BRANCH   6   7
HETATM    7  C5  UNL     1      -3.809   3.544  10.277  1.00  0.00     0.179 C 
BRANCH   7   8
HETATM    8  C6  UNL     1      -5.261   3.077  10.364  1.00  0.00     0.027 C 
BRANCH   8   9
HETATM    9  C7  UNL     1      -5.672   2.611  11.762  1.00  0.00     0.002 C 
BRANCH   9  10
HETATM   10  C8  UNL     1      -6.180   3.755  12.645  1.00  0.00     0.000 C 
BRANCH  10  11
HETATM   11  C9  UNL     1      -7.707   3.856  12.699  1.00  0.00     0.000 C 
BRANCH  11  12
HETATM   12  C10 UNL     1      -8.212   5.279  12.938  1.00  0.00     0.009 C 
BRANCH  12  13
HETATM   13  C11 UNL     1      -7.706   5.830  14.271  1.00  0.00     0.103 C 
BRANCH  13  14
HETATM   14  C12 UNL     1      -8.791   6.565  15.038  1.00  0.00     0.218 C 
HETATM   15  O3  UNL     1      -8.668   6.942  16.197  1.00  0.00    -0.274 OA
HETATM   16  N1  UNL     1      -9.947   6.732  14.305  1.00  0.00    -0.348 N 
HETATM   17  H19 UNL     1      -9.878   6.648  13.296  1.00  0.00     0.163 HD
BRANCH  16  18
HETATM   18  C13 UNL     1     -11.055   7.534  14.826  1.00  0.00     0.176 C 
HETATM   19  C14 UNL     1     -12.420   6.913  14.514  1.00  0.00     0.036 C 
HETATM   20  C15 UNL     1     -12.815   7.140  13.058  1.00  0.00     0.022 C 
HETATM   21  C16 UNL     1     -12.858   8.633  12.780  1.00  0.00     0.122 C 
HETATM   22  N2  UNL     1     -11.631   9.293  13.156  1.00  0.00    -0.359 N 
HETATM   23  C17 UNL     1     -10.897   8.958  14.263  1.00  0.00     0.240 C 
HETATM   24  H27 UNL     1     -11.489  10.252  12.859  1.00  0.00     0.162 HD
HETATM   25  O4  UNL     1     -10.027   9.732  14.668  1.00  0.00    -0.271 OA
ENDBRANCH  16  18
ENDBRANCH  13  14
ENDBRANCH  12  13
ENDBRANCH  11  12
ENDBRANCH  10  11
ENDBRANCH   9  10
ENDBRANCH   8   9
ENDBRANCH   7   8
ENDBRANCH   6   7
ENDBRANCH   4   6
ENDBRANCH   3   4
BRANCH   2  26
HETATM   26  C18 UNL     1      -2.050   6.863  12.805  1.00  0.00     0.068 C 
BRANCH  26  27
HETATM   27  C19 UNL     1      -1.569   7.277  14.212  1.00  0.00     0.156 C 
HETATM   28  O5  UNL     1      -1.358   8.691  14.361  1.00  0.00    -0.382 OA
HETATM   29  C20 UNL     1      -0.252   9.223  13.634  1.00  0.00     0.175 C 
HETATM   30  C21 UNL     1       1.074   8.590  14.068  1.00  0.00     0.044 C 
HETATM   31  C29 UNL     1       0.956   7.061  13.931  1.00  0.00     0.155 C 
HETATM   32  C30 UNL     1      -0.298   6.530  14.646  1.00  0.00     0.176 C 
BRANCH  30  33
HETATM   33  C22 UNL     1       2.229   9.191  13.239  1.00  0.00     0.036 C 
BRANCH  33  34
HETATM   34  C23 UNL     1       2.242   8.734  11.805  1.00  0.00    -0.030 C 
HETATM   35  C24 UNL     1       1.303   7.934  11.272  1.00  0.00    -0.024 C 
BRANCH  35  36
HETATM   36  C25 UNL     1       1.216   7.423   9.845  1.00  0.00     0.032 C 
HETATM   37  C26 UNL     1       0.416   8.426   8.996  1.00  0.00     0.017 C 
BRANCH  36  38
HETATM   38  C27 UNL     1       2.548   7.023   9.154  1.00  0.00     0.121 C 
HETATM   39  C28 UNL     1       2.386   6.328   7.804  1.00  0.00     0.040 C 
BRANCH  38  40
HETATM   40  O6  UNL     1       3.282   6.131  10.002  1.00  0.00    -0.395 OA
HETATM   41  H46 UNL     1       3.498   6.618  10.815  1.00  0.00     0.210 HD
ENDBRANCH  38  40
ENDBRANCH  36  38
ENDBRANCH  35  36
ENDBRANCH  33  34
ENDBRANCH  30  33
BRANCH  31  42
HETATM   42  O7  UNL     1       2.099   6.414  14.496  1.00  0.00    -0.392 OA
HETATM   43  H48 UNL     1       1.914   6.338  15.456  1.00  0.00     0.210 HD
ENDBRANCH  31  42
BRANCH  32  44
HETATM   44  O8  UNL     1      -0.097   6.710  16.065  1.00  0.00    -0.390 OA
HETATM   45  H50 UNL     1      -0.422   7.609  16.280  1.00  0.00     0.210 HD
ENDBRANCH  32  44
ENDBRANCH  26  27
ENDBRANCH   2  26
TORSDOF 20
ENDMDL
