MODEL 1
REMARK minimizedAffinity -9.17847252
REMARK  14 active torsions:
REMARK  status: ('A' for Active; 'I' for Inactive)
REMARK    1  A    between atoms: C2_2  and  C30_34 
REMARK    2  A    between atoms: C3_3  and  C4_4 
REMARK    3  A    between atoms: C4_4  and  C5_5 
REMARK    4  A    between atoms: C5_5  and  C6_6 
REMARK    5  A    between atoms: C6_6  and  C8_8 
REMARK    6  A    between atoms: C16_16  and  C17_17 
REMARK    7  A    between atoms: C17_17  and  O1_19 
REMARK    8  A    between atoms: C17_17  and  C19_20 
REMARK    9  A    between atoms: C19_20  and  O2_21 
REMARK   10  A    between atoms: C20_22  and  C21_23 
REMARK   11  A    between atoms: C21_23  and  C22_24 
REMARK   12  A    between atoms: C22_24  and  C23_25 
REMARK   13  A    between atoms: C23_25  and  O4_27 
REMARK   14  A    between atoms: C30_34  and  O5_35 
ROOT
HETATM    1  C8  UNL     1      -2.002  50.538 -24.861  1.00  0.00    -0.002 C 
HETATM    2  C9  UNL     1      -1.718  52.043 -24.916  1.00  0.00     0.006 C 
HETATM    3  C10 UNL     1      -1.617  52.411 -23.447  1.00  0.00     0.011 C 
HETATM    4  C11 UNL     1      -2.830  51.703 -22.785  1.00  0.00    -0.032 C 
HETATM    5  C12 UNL     1      -4.019  52.700 -22.882  1.00  0.00     0.016 C 
HETATM    6  C13 UNL     1      -2.520  51.453 -21.271  1.00  0.00     0.004 C 
HETATM    7  C14 UNL     1      -3.762  50.960 -20.440  1.00  0.00     0.007 C 
HETATM    8  C15 UNL     1      -3.507  50.237 -19.082  1.00  0.00     0.009 C 
HETATM    9  C16 UNL     1      -2.118  49.538 -18.933  1.00  0.00     0.031 C 
HETATM   10  C20 UNL     1      -1.094  50.539 -19.483  1.00  0.00    -0.025 A 
HETATM   11  C24 UNL     1       0.001  50.521 -20.497  1.00  0.00     0.021 A 
HETATM   12  C25 UNL     1      -1.386  50.469 -21.053  1.00  0.00    -0.027 A 
HETATM   13  C26 UNL     1      -1.430  49.237 -21.963  1.00  0.00     0.011 C 
HETATM   14  C27 UNL     1      -2.678  49.109 -22.823  1.00  0.00     0.011 C 
HETATM   15  C28 UNL     1      -3.025  50.374 -23.658  1.00  0.00    -0.032 C 
HETATM   16  C29 UNL     1      -4.480  50.190 -24.126  1.00  0.00     0.016 C 
ENDROOT
BRANCH   1  17
HETATM   17  C6  UNL     1      -2.229  49.929 -26.279  1.00  0.00    -0.014 C 
HETATM   18  C7  UNL     1      -3.080  50.760 -27.247  1.00  0.00     0.010 C 
BRANCH  17  19
HETATM   19  C5  UNL     1      -2.731  48.468 -26.284  1.00  0.00     0.008 C 
BRANCH  19  20
HETATM   20  C4  UNL     1      -4.205  48.321 -26.683  1.00  0.00     0.028 C 
BRANCH  20  21
HETATM   21  C3  UNL     1      -4.378  48.474 -28.169  1.00  0.00    -0.022 C 
HETATM   22  C2  UNL     1      -5.410  48.066 -28.936  1.00  0.00    -0.064 C 
HETATM   23  C1  UNL     1      -6.619  47.320 -28.440  1.00  0.00     0.045 C 
BRANCH  22  24
HETATM   24  C30 UNL     1      -5.402  48.311 -30.425  1.00  0.00     0.197 C 
BRANCH  24  25
HETATM   25  O5  UNL     1      -4.710  49.521 -30.689  1.00  0.00    -0.397 OA
HETATM   26  H50 UNL     1      -3.838  49.434 -30.265  1.00  0.00     0.209 HD
ENDBRANCH  24  25
ENDBRANCH  22  24
ENDBRANCH  20  21
ENDBRANCH  19  20
ENDBRANCH  17  19
ENDBRANCH   1  17
BRANCH  10  27
HETATM   27  C21 UNL     1      -0.977  51.863 -18.673  1.00  0.00     0.021 C 
BRANCH  27  28
HETATM   28  C22 UNL     1       0.465  52.361 -18.521  1.00  0.00     0.111 C 
BRANCH  28  29
HETATM   29  C23 UNL     1       0.988  52.093 -17.137  1.00  0.00     0.139 C 
HETATM   30  O3  UNL     1       1.076  51.020 -16.565  1.00  0.00    -0.650 OA
BRANCH  29  31
HETATM   31  O4  UNL     1       1.351  53.230 -16.510  1.00  0.00    -0.776 OA
HETATM   32  H38 UNL     1       1.657  52.933 -15.629  1.00  0.00     0.167 HD
ENDBRANCH  29  31
ENDBRANCH  28  29
ENDBRANCH  27  28
ENDBRANCH  10  27
BRANCH   9  33
HETATM   33  C17 UNL     1      -1.833  48.955 -17.516  1.00  0.00     0.080 C 
HETATM   34  C18 UNL     1      -2.581  47.624 -17.333  1.00  0.00     0.048 C 
BRANCH  33  35
HETATM   35  O1  UNL     1      -0.430  48.726 -17.334  1.00  0.00    -0.388 OA
HETATM   36  H30 UNL     1      -0.299  48.292 -16.473  1.00  0.00     0.210 HD
ENDBRANCH  33  35
BRANCH  33  37
HETATM   37  C19 UNL     1      -2.277  49.940 -16.400  1.00  0.00     0.201 C 
BRANCH  37  38
HETATM   38  O2  UNL     1      -3.483  49.557 -15.753  1.00  0.00    -0.398 OA
HETATM   39  H33 UNL     1      -3.287  48.806 -15.168  1.00  0.00     0.209 HD
ENDBRANCH  37  38
ENDBRANCH  33  37
ENDBRANCH   9  33
TORSDOF 14
ENDMDL
MODEL 2
REMARK minimizedAffinity -9.16918659
REMARK  14 active torsions:
REMARK  status: ('A' for Active; 'I' for Inactive)
REMARK    1  A    between atoms: C2_2  and  C30_34 
REMARK    2  A    between atoms: C3_3  and  C4_4 
REMARK    3  A    between atoms: C4_4  and  C5_5 
REMARK    4  A    between atoms: C5_5  and  C6_6 
REMARK    5  A    between atoms: C6_6  and  C8_8 
REMARK    6  A    between atoms: C16_16  and  C17_17 
REMARK    7  A    between atoms: C17_17  and  O1_19 
REMARK    8  A    between atoms: C17_17  and  C19_20 
REMARK    9  A    between atoms: C19_20  and  O2_21 
REMARK   10  A    between atoms: C20_22  and  C21_23 
REMARK   11  A    between atoms: C21_23  and  C22_24 
REMARK   12  A    between atoms: C22_24  and  C23_25 
REMARK   13  A    between atoms: C23_25  and  O4_27 
REMARK   14  A    between atoms: C30_34  and  O5_35 
ROOT
HETATM    1  C8  UNL     1      -2.749  50.589 -24.998  1.00  0.00    -0.002 C 
HETATM    2  C9  UNL     1      -2.580  52.111 -25.037  1.00  0.00     0.006 C 
HETATM    3  C10 UNL     1      -2.367  52.454 -23.575  1.00  0.00     0.011 C 
HETATM    4  C11 UNL     1      -3.457  51.645 -22.822  1.00  0.00    -0.032 C 
HETATM    5  C12 UNL     1      -4.719  52.552 -22.779  1.00  0.00     0.016 C 
HETATM    6  C13 UNL     1      -2.988  51.386 -21.351  1.00  0.00     0.004 C 
HETATM    7  C14 UNL     1      -4.105  50.784 -20.422  1.00  0.00     0.007 C 
HETATM    8  C15 UNL     1      -3.670  50.053 -19.115  1.00  0.00     0.009 C 
HETATM    9  C16 UNL     1      -2.227  49.457 -19.116  1.00  0.00     0.031 C 
HETATM   10  C20 UNL     1      -1.335  50.542 -19.732  1.00  0.00    -0.025 A 
HETATM   11  C24 UNL     1      -0.343  50.628 -20.843  1.00  0.00     0.021 A 
HETATM   12  C25 UNL     1      -1.770  50.485 -21.268  1.00  0.00    -0.027 A 
HETATM   13  C26 UNL     1      -1.811  49.273 -22.205  1.00  0.00     0.011 C 
HETATM   14  C27 UNL     1      -3.123  49.070 -22.948  1.00  0.00     0.011 C 
HETATM   15  C28 UNL     1      -3.638  50.323 -23.710  1.00  0.00    -0.032 C 
HETATM   16  C29 UNL     1      -5.114  50.042 -24.045  1.00  0.00     0.016 C 
ENDROOT
BRANCH   1  17
HETATM   17  C6  UNL     1      -3.065  49.995 -26.406  1.00  0.00    -0.014 C 
HETATM   18  C7  UNL     1      -3.094  48.465 -26.507  1.00  0.00     0.010 C 
BRANCH  17  19
HETATM   19  C5  UNL     1      -2.208  50.566 -27.558  1.00  0.00     0.008 C 
BRANCH  19  20
HETATM   20  C4  UNL     1      -1.294  51.723 -27.135  1.00  0.00     0.028 C 
BRANCH  20  21
HETATM   21  C3  UNL     1       0.149  51.300 -27.150  1.00  0.00    -0.022 C 
HETATM   22  C2  UNL     1       1.128  51.641 -26.287  1.00  0.00    -0.064 C 
HETATM   23  C1  UNL     1       0.968  52.576 -25.117  1.00  0.00     0.045 C 
BRANCH  22  24
HETATM   24  C30 UNL     1       2.529  51.111 -26.468  1.00  0.00     0.197 C 
BRANCH  24  25
HETATM   25  O5  UNL     1       3.255  52.005 -27.298  1.00  0.00    -0.397 OA
HETATM   26  H50 UNL     1       3.180  52.883 -26.883  1.00  0.00     0.209 HD
ENDBRANCH  24  25
ENDBRANCH  22  24
ENDBRANCH  20  21
ENDBRANCH  19  20
ENDBRANCH  17  19
ENDBRANCH   1  17
BRANCH  10  27
HETATM   27  C21 UNL     1      -1.237  51.854 -18.898  1.00  0.00     0.021 C 
BRANCH  27  28
HETATM   28  C22 UNL     1       0.204  52.320 -18.660  1.00  0.00     0.111 C 
BRANCH  28  29
HETATM   29  C23 UNL     1       0.519  53.544 -19.475  1.00  0.00     0.139 C 
HETATM   30  O3  UNL     1       1.390  53.679 -20.318  1.00  0.00    -0.650 OA
BRANCH  29  31
HETATM   31  O4  UNL     1      -0.281  54.581 -19.151  1.00  0.00    -0.776 OA
HETATM   32  H38 UNL     1       0.023  55.310 -19.729  1.00  0.00     0.167 HD
ENDBRANCH  29  31
ENDBRANCH  28  29
ENDBRANCH  27  28
ENDBRANCH  10  27
BRANCH   9  33
HETATM   33  C17 UNL     1      -1.766  48.867 -17.749  1.00  0.00     0.080 C 
HETATM   34  C18 UNL     1      -2.604  49.467 -16.606  1.00  0.00     0.048 C 
BRANCH  33  35
HETATM   35  O1  UNL     1      -1.917  47.443 -17.734  1.00  0.00    -0.388 OA
HETATM   36  H30 UNL     1      -1.695  47.119 -16.843  1.00  0.00     0.210 HD
ENDBRANCH  33  35
BRANCH  33  37
HETATM   37  C19 UNL     1      -0.266  49.165 -17.482  1.00  0.00     0.201 C 
BRANCH  37  38
HETATM   38  O2  UNL     1       0.277  48.423 -16.399  1.00  0.00    -0.398 OA
HETATM   39  H33 UNL     1       0.395  47.504 -16.691  1.00  0.00     0.209 HD
ENDBRANCH  37  38
ENDBRANCH  33  37
ENDBRANCH   9  33
TORSDOF 14
ENDMDL
MODEL 3
REMARK minimizedAffinity -8.87355518
REMARK  14 active torsions:
REMARK  status: ('A' for Active; 'I' for Inactive)
REMARK    1  A    between atoms: C2_2  and  C30_34 
REMARK    2  A    between atoms: C3_3  and  C4_4 
REMARK    3  A    between atoms: C4_4  and  C5_5 
REMARK    4  A    between atoms: C5_5  and  C6_6 
REMARK    5  A    between atoms: C6_6  and  C8_8 
REMARK    6  A    between atoms: C16_16  and  C17_17 
REMARK    7  A    between atoms: C17_17  and  O1_19 
REMARK    8  A    between atoms: C17_17  and  C19_20 
REMARK    9  A    between atoms: C19_20  and  O2_21 
REMARK   10  A    between atoms: C20_22  and  C21_23 
REMARK   11  A    between atoms: C21_23  and  C22_24 
REMARK   12  A    between atoms: C22_24  and  C23_25 
REMARK   13  A    between atoms: C23_25  and  O4_27 
REMARK   14  A    between atoms: C30_34  and  O5_35 
ROOT
HETATM    1  C8  UNL     1      -2.983  49.239 -24.605  1.00  0.00    -0.002 C 
HETATM    2  C9  UNL     1      -2.420  50.555 -25.152  1.00  0.00     0.006 C 
HETATM    3  C10 UNL     1      -1.940  51.254 -23.894  1.00  0.00     0.011 C 
HETATM    4  C11 UNL     1      -3.102  51.073 -22.881  1.00  0.00    -0.032 C 
HETATM    5  C12 UNL     1      -4.060  52.278 -23.101  1.00  0.00     0.016 C 
HETATM    6  C13 UNL     1      -2.536  51.155 -21.424  1.00  0.00     0.004 C 
HETATM    7  C14 UNL     1      -3.647  51.226 -20.312  1.00  0.00     0.007 C 
HETATM    8  C15 UNL     1      -3.261  50.839 -18.851  1.00  0.00     0.009 C 
HETATM    9  C16 UNL     1      -2.042  49.876 -18.701  1.00  0.00     0.031 C 
HETATM   10  C20 UNL     1      -0.978  50.406 -19.670  1.00  0.00    -0.025 A 
HETATM   11  C24 UNL     1      -0.148  49.850 -20.778  1.00  0.00     0.021 A 
HETATM   12  C25 UNL     1      -1.603  50.008 -21.085  1.00  0.00    -0.027 A 
HETATM   13  C26 UNL     1      -2.084  48.635 -21.564  1.00  0.00     0.011 C 
HETATM   14  C27 UNL     1      -3.486  48.607 -22.155  1.00  0.00     0.011 C 
HETATM   15  C28 UNL     1      -3.740  49.657 -23.274  1.00  0.00    -0.032 C 
HETATM   16  C29 UNL     1      -5.268  49.732 -23.448  1.00  0.00     0.016 C 
ENDROOT
BRANCH   1  17
HETATM   17  C6  UNL     1      -3.621  48.360 -25.725  1.00  0.00    -0.014 C 
HETATM   18  C7  UNL     1      -2.850  48.280 -27.048  1.00  0.00     0.010 C 
BRANCH  17  19
HETATM   19  C5  UNL     1      -5.108  48.664 -26.018  1.00  0.00     0.008 C 
BRANCH  19  20
HETATM   20  C4  UNL     1      -5.749  47.703 -27.027  1.00  0.00     0.028 C 
BRANCH  20  21
HETATM   21  C3  UNL     1      -5.370  48.071 -28.435  1.00  0.00    -0.022 C 
HETATM   22  C2  UNL     1      -6.155  48.091 -29.533  1.00  0.00    -0.064 C 
HETATM   23  C1  UNL     1      -7.608  47.698 -29.569  1.00  0.00     0.045 C 
BRANCH  22  24
HETATM   24  C30 UNL     1      -5.589  48.492 -30.872  1.00  0.00     0.197 C 
BRANCH  24  25
HETATM   25  O5  UNL     1      -4.734  49.611 -30.695  1.00  0.00    -0.397 OA
HETATM   26  H50 UNL     1      -4.085  49.353 -30.016  1.00  0.00     0.209 HD
ENDBRANCH  24  25
ENDBRANCH  22  24
ENDBRANCH  20  21
ENDBRANCH  19  20
ENDBRANCH  17  19
ENDBRANCH   1  17
BRANCH  10  27
HETATM   27  C21 UNL     1      -0.429  51.822 -19.323  1.00  0.00     0.021 C 
BRANCH  27  28
HETATM   28  C22 UNL     1       0.604  52.340 -20.330  1.00  0.00     0.111 C 
BRANCH  28  29
HETATM   29  C23 UNL     1       0.853  53.811 -20.143  1.00  0.00     0.139 C 
HETATM   30  O3  UNL     1       1.673  54.510 -20.713  1.00  0.00    -0.650 OA
BRANCH  29  31
HETATM   31  O4  UNL     1       0.055  54.336 -19.191  1.00  0.00    -0.776 OA
HETATM   32  H38 UNL     1       0.315  55.280 -19.153  1.00  0.00     0.167 HD
ENDBRANCH  29  31
ENDBRANCH  28  29
ENDBRANCH  27  28
ENDBRANCH  10  27
BRANCH   9  33
HETATM   33  C17 UNL     1      -1.586  49.629 -17.231  1.00  0.00     0.080 C 
HETATM   34  C18 UNL     1      -0.060  49.442 -17.176  1.00  0.00     0.048 C 
BRANCH  33  35
HETATM   35  O1  UNL     1      -1.947  50.734 -16.395  1.00  0.00    -0.388 OA
HETATM   36  H30 UNL     1      -1.580  50.581 -15.506  1.00  0.00     0.210 HD
ENDBRANCH  33  35
BRANCH  33  37
HETATM   37  C19 UNL     1      -2.268  48.368 -16.633  1.00  0.00     0.201 C 
BRANCH  37  38
HETATM   38  O2  UNL     1      -3.569  48.617 -16.118  1.00  0.00    -0.398 OA
HETATM   39  H33 UNL     1      -4.175  48.727 -16.869  1.00  0.00     0.209 HD
ENDBRANCH  37  38
ENDBRANCH  33  37
ENDBRANCH   9  33
TORSDOF 14
ENDMDL
MODEL 4
REMARK minimizedAffinity -8.67482281
REMARK  14 active torsions:
REMARK  status: ('A' for Active; 'I' for Inactive)
REMARK    1  A    between atoms: C2_2  and  C30_34 
REMARK    2  A    between atoms: C3_3  and  C4_4 
REMARK    3  A    between atoms: C4_4  and  C5_5 
REMARK    4  A    between atoms: C5_5  and  C6_6 
REMARK    5  A    between atoms: C6_6  and  C8_8 
REMARK    6  A    between atoms: C16_16  and  C17_17 
REMARK    7  A    between atoms: C17_17  and  O1_19 
REMARK    8  A    between atoms: C17_17  and  C19_20 
REMARK    9  A    between atoms: C19_20  and  O2_21 
REMARK   10  A    between atoms: C20_22  and  C21_23 
REMARK   11  A    between atoms: C21_23  and  C22_24 
REMARK   12  A    between atoms: C22_24  and  C23_25 
REMARK   13  A    between atoms: C23_25  and  O4_27 
REMARK   14  A    between atoms: C30_34  and  O5_35 
ROOT
HETATM    1  C8  UNL     1      -2.063  50.379 -25.051  1.00  0.00    -0.002 C 
HETATM    2  C9  UNL     1      -1.684  51.863 -25.081  1.00  0.00     0.006 C 
HETATM    3  C10 UNL     1      -1.594  52.207 -23.606  1.00  0.00     0.011 C 
HETATM    4  C11 UNL     1      -2.863  51.571 -22.979  1.00  0.00    -0.032 C 
HETATM    5  C12 UNL     1      -3.985  52.641 -23.090  1.00  0.00     0.016 C 
HETATM    6  C13 UNL     1      -2.605  51.284 -21.463  1.00  0.00     0.004 C 
HETATM    7  C14 UNL     1      -3.893  50.861 -20.665  1.00  0.00     0.007 C 
HETATM    8  C15 UNL     1      -3.715  50.108 -19.311  1.00  0.00     0.009 C 
HETATM    9  C16 UNL     1      -2.377  49.321 -19.141  1.00  0.00     0.031 C 
HETATM   10  C20 UNL     1      -1.280  50.262 -19.656  1.00  0.00    -0.025 A 
HETATM   11  C24 UNL     1      -0.165  50.187 -20.645  1.00  0.00     0.021 A 
HETATM   12  C25 UNL     1      -1.540  50.229 -21.232  1.00  0.00    -0.027 A 
HETATM   13  C26 UNL     1      -1.640  49.012 -22.158  1.00  0.00     0.011 C 
HETATM   14  C27 UNL     1      -2.874  48.972 -23.047  1.00  0.00     0.011 C 
HETATM   15  C28 UNL     1      -3.121  50.266 -23.873  1.00  0.00    -0.032 C 
HETATM   16  C29 UNL     1      -4.574  50.180 -24.375  1.00  0.00     0.016 C 
ENDROOT
BRANCH   1  17
HETATM   17  C6  UNL     1      -2.295  49.802 -26.482  1.00  0.00    -0.014 C 
HETATM   18  C7  UNL     1      -2.921  50.756 -27.506  1.00  0.00     0.010 C 
BRANCH  17  19
HETATM   19  C5  UNL     1      -3.042  48.449 -26.522  1.00  0.00     0.008 C 
BRANCH  19  20
HETATM   20  C4  UNL     1      -3.952  48.281 -27.745  1.00  0.00     0.028 C 
BRANCH  20  21
HETATM   21  C3  UNL     1      -5.370  48.005 -27.325  1.00  0.00    -0.022 C 
HETATM   22  C2  UNL     1      -6.387  47.533 -28.076  1.00  0.00    -0.064 C 
HETATM   23  C1  UNL     1      -6.305  47.211 -29.544  1.00  0.00     0.045 C 
BRANCH  22  24
HETATM   24  C30 UNL     1      -7.752  47.321 -27.471  1.00  0.00     0.197 C 
BRANCH  24  25
HETATM   25  O5  UNL     1      -8.459  48.552 -27.486  1.00  0.00    -0.397 OA
HETATM   26  H50 UNL     1      -8.443  48.863 -28.408  1.00  0.00     0.209 HD
ENDBRANCH  24  25
ENDBRANCH  22  24
ENDBRANCH  20  21
ENDBRANCH  19  20
ENDBRANCH  17  19
ENDBRANCH   1  17
BRANCH  10  27
HETATM   27  C21 UNL     1      -1.099  51.567 -18.826  1.00  0.00     0.021 C 
BRANCH  27  28
HETATM   28  C22 UNL     1       0.369  51.954 -18.610  1.00  0.00     0.111 C 
BRANCH  28  29
HETATM   29  C23 UNL     1       0.730  53.176 -19.408  1.00  0.00     0.139 C 
HETATM   30  O3  UNL     1       1.602  53.288 -20.252  1.00  0.00    -0.650 OA
BRANCH  29  31
HETATM   31  O4  UNL     1      -0.026  54.239 -19.065  1.00  0.00    -0.776 OA
HETATM   32  H38 UNL     1       0.305  54.964 -19.634  1.00  0.00     0.167 HD
ENDBRANCH  29  31
ENDBRANCH  28  29
ENDBRANCH  27  28
ENDBRANCH  10  27
BRANCH   9  33
HETATM   33  C17 UNL     1      -2.161  48.706 -17.725  1.00  0.00     0.080 C 
HETATM   34  C18 UNL     1      -2.866  47.342 -17.630  1.00  0.00     0.048 C 
BRANCH  33  35
HETATM   35  O1  UNL     1      -0.765  48.525 -17.458  1.00  0.00    -0.388 OA
HETATM   36  H30 UNL     1      -0.673  48.069 -16.603  1.00  0.00     0.210 HD
ENDBRANCH  33  35
BRANCH  33  37
HETATM   37  C19 UNL     1      -2.716  49.637 -16.613  1.00  0.00     0.201 C 
BRANCH  37  38
HETATM   38  O2  UNL     1      -3.596  48.982 -15.711  1.00  0.00    -0.398 OA
HETATM   39  H33 UNL     1      -3.064  48.416 -15.127  1.00  0.00     0.209 HD
ENDBRANCH  37  38
ENDBRANCH  33  37
ENDBRANCH   9  33
TORSDOF 14
ENDMDL
MODEL 5
REMARK minimizedAffinity -8.60119534
REMARK  14 active torsions:
REMARK  status: ('A' for Active; 'I' for Inactive)
REMARK    1  A    between atoms: C2_2  and  C30_34 
REMARK    2  A    between atoms: C3_3  and  C4_4 
REMARK    3  A    between atoms: C4_4  and  C5_5 
REMARK    4  A    between atoms: C5_5  and  C6_6 
REMARK    5  A    between atoms: C6_6  and  C8_8 
REMARK    6  A    between atoms: C16_16  and  C17_17 
REMARK    7  A    between atoms: C17_17  and  O1_19 
REMARK    8  A    between atoms: C17_17  and  C19_20 
REMARK    9  A    between atoms: C19_20  and  O2_21 
REMARK   10  A    between atoms: C20_22  and  C21_23 
REMARK   11  A    between atoms: C21_23  and  C22_24 
REMARK   12  A    between atoms: C22_24  and  C23_25 
REMARK   13  A    between atoms: C23_25  and  O4_27 
REMARK   14  A    between atoms: C30_34  and  O5_35 
ROOT
HETATM    1  C8  UNL     1      -3.650  48.541 -21.133  1.00  0.00    -0.002 C 
HETATM    2  C9  UNL     1      -4.790  47.689 -21.701  1.00  0.00     0.006 C 
HETATM    3  C10 UNL     1      -4.859  48.154 -23.143  1.00  0.00     0.011 C 
HETATM    4  C11 UNL     1      -4.791  49.703 -23.057  1.00  0.00    -0.032 C 
HETATM    5  C12 UNL     1      -6.258  50.194 -22.900  1.00  0.00     0.016 C 
HETATM    6  C13 UNL     1      -4.223  50.273 -24.399  1.00  0.00     0.004 C 
HETATM    7  C14 UNL     1      -4.329  51.837 -24.523  1.00  0.00     0.007 C 
HETATM    8  C15 UNL     1      -3.406  52.565 -25.548  1.00  0.00     0.009 C 
HETATM    9  C16 UNL     1      -2.084  51.823 -25.922  1.00  0.00     0.031 C 
HETATM   10  C20 UNL     1      -2.484  50.359 -26.141  1.00  0.00    -0.025 A 
HETATM   11  C24 UNL     1      -2.042  49.028 -25.632  1.00  0.00     0.021 A 
HETATM   12  C25 UNL     1      -2.779  49.877 -24.647  1.00  0.00    -0.027 A 
HETATM   13  C26 UNL     1      -1.874  49.976 -23.414  1.00  0.00     0.011 C 
HETATM   14  C27 UNL     1      -2.514  50.604 -22.185  1.00  0.00     0.011 C 
HETATM   15  C28 UNL     1      -3.875  49.977 -21.771  1.00  0.00    -0.032 C 
HETATM   16  C29 UNL     1      -4.523  50.974 -20.793  1.00  0.00     0.016 C 
ENDROOT
BRANCH   1  17
HETATM   17  C6  UNL     1      -3.433  48.295 -19.608  1.00  0.00    -0.014 C 
HETATM   18  C7  UNL     1      -4.185  49.233 -18.655  1.00  0.00     0.010 C 
BRANCH  17  19
HETATM   19  C5  UNL     1      -1.954  48.201 -19.170  1.00  0.00     0.008 C 
BRANCH  19  20
HETATM   20  C4  UNL     1      -1.015  49.119 -19.962  1.00  0.00     0.028 C 
BRANCH  20  21
HETATM   21  C3  UNL     1      -0.565  50.282 -19.120  1.00  0.00    -0.022 C 
HETATM   22  C2  UNL     1       0.091  51.393 -19.513  1.00  0.00    -0.064 C 
HETATM   23  C1  UNL     1       0.550  51.679 -20.918  1.00  0.00     0.045 C 
BRANCH  22  24
HETATM   24  C30 UNL     1       0.460  52.460 -18.512  1.00  0.00     0.197 C 
BRANCH  24  25
HETATM   25  O5  UNL     1       0.045  53.722 -19.011  1.00  0.00    -0.397 OA
HETATM   26  H50 UNL     1      -0.903  53.636 -19.214  1.00  0.00     0.209 HD
ENDBRANCH  24  25
ENDBRANCH  22  24
ENDBRANCH  20  21
ENDBRANCH  19  20
ENDBRANCH  17  19
ENDBRANCH   1  17
BRANCH  10  27
HETATM   27  C21 UNL     1      -3.443  50.119 -27.343  1.00  0.00     0.021 C 
BRANCH  27  28
HETATM   28  C22 UNL     1      -3.752  48.638 -27.592  1.00  0.00     0.111 C 
BRANCH  28  29
HETATM   29  C23 UNL     1      -4.825  48.475 -28.633  1.00  0.00     0.139 C 
HETATM   30  O3  UNL     1      -4.686  48.331 -29.836  1.00  0.00    -0.650 OA
BRANCH  29  31
HETATM   31  O4  UNL     1      -6.059  48.541 -28.094  1.00  0.00    -0.776 OA
HETATM   32  H38 UNL     1      -6.662  48.436 -28.858  1.00  0.00     0.167 HD
ENDBRANCH  29  31
ENDBRANCH  28  29
ENDBRANCH  27  28
ENDBRANCH  10  27
BRANCH   9  33
HETATM   33  C17 UNL     1      -1.258  52.499 -27.057  1.00  0.00     0.080 C 
HETATM   34  C18 UNL     1      -0.487  51.433 -27.855  1.00  0.00     0.048 C 
BRANCH  33  35
HETATM   35  O1  UNL     1      -2.116  53.215 -27.952  1.00  0.00    -0.388 OA
HETATM   36  H30 UNL     1      -1.578  53.557 -28.688  1.00  0.00     0.210 HD
ENDBRANCH  33  35
BRANCH  33  37
HETATM   37  C19 UNL     1      -0.245  53.527 -26.483  1.00  0.00     0.201 C 
BRANCH  37  38
HETATM   38  O2  UNL     1      -0.213  54.754 -27.200  1.00  0.00    -0.398 OA
HETATM   39  H33 UNL     1      -1.017  55.253 -26.981  1.00  0.00     0.209 HD
ENDBRANCH  37  38
ENDBRANCH  33  37
ENDBRANCH   9  33
TORSDOF 14
ENDMDL
MODEL 6
REMARK minimizedAffinity -8.38842583
REMARK  14 active torsions:
REMARK  status: ('A' for Active; 'I' for Inactive)
REMARK    1  A    between atoms: C2_2  and  C30_34 
REMARK    2  A    between atoms: C3_3  and  C4_4 
REMARK    3  A    between atoms: C4_4  and  C5_5 
REMARK    4  A    between atoms: C5_5  and  C6_6 
REMARK    5  A    between atoms: C6_6  and  C8_8 
REMARK    6  A    between atoms: C16_16  and  C17_17 
REMARK    7  A    between atoms: C17_17  and  O1_19 
REMARK    8  A    between atoms: C17_17  and  C19_20 
REMARK    9  A    between atoms: C19_20  and  O2_21 
REMARK   10  A    between atoms: C20_22  and  C21_23 
REMARK   11  A    between atoms: C21_23  and  C22_24 
REMARK   12  A    between atoms: C22_24  and  C23_25 
REMARK   13  A    between atoms: C23_25  and  O4_27 
REMARK   14  A    between atoms: C30_34  and  O5_35 
ROOT
HETATM    1  C8  UNL     1      -1.183  51.514 -20.192  1.00  0.00    -0.002 C 
HETATM    2  C9  UNL     1      -0.007  51.091 -21.077  1.00  0.00     0.006 C 
HETATM    3  C10 UNL     1      -0.687  50.259 -22.149  1.00  0.00     0.011 C 
HETATM    4  C11 UNL     1      -1.659  49.335 -21.366  1.00  0.00    -0.032 C 
HETATM    5  C12 UNL     1      -0.844  48.064 -20.993  1.00  0.00     0.016 C 
HETATM    6  C13 UNL     1      -2.836  48.907 -22.305  1.00  0.00     0.004 C 
HETATM    7  C14 UNL     1      -3.756  47.783 -21.701  1.00  0.00     0.007 C 
HETATM    8  C15 UNL     1      -5.190  47.602 -22.288  1.00  0.00     0.009 C 
HETATM    9  C16 UNL     1      -5.812  48.863 -22.967  1.00  0.00     0.031 C 
HETATM   10  C20 UNL     1      -4.691  49.460 -23.827  1.00  0.00    -0.025 A 
HETATM   11  C24 UNL     1      -4.039  50.793 -23.984  1.00  0.00     0.021 A 
HETATM   12  C25 UNL     1      -3.720  50.070 -22.715  1.00  0.00    -0.027 A 
HETATM   13  C26 UNL     1      -4.059  51.041 -21.579  1.00  0.00     0.011 C 
HETATM   14  C27 UNL     1      -3.599  50.609 -20.195  1.00  0.00     0.011 C 
HETATM   15  C28 UNL     1      -2.096  50.219 -20.103  1.00  0.00    -0.032 C 
HETATM   16  C29 UNL     1      -1.935  49.459 -18.774  1.00  0.00     0.016 C 
ENDROOT
BRANCH   1  17
HETATM   17  C6  UNL     1      -0.719  52.334 -18.948  1.00  0.00    -0.014 C 
HETATM   18  C7  UNL     1      -0.039  53.678 -19.235  1.00  0.00     0.010 C 
BRANCH  17  19
HETATM   19  C5  UNL     1       0.129  51.540 -17.929  1.00  0.00     0.008 C 
BRANCH  19  20
HETATM   20  C4  UNL     1       1.323  52.326 -17.373  1.00  0.00     0.028 C 
BRANCH  20  21
HETATM   21  C3  UNL     1       1.748  51.783 -16.036  1.00  0.00    -0.022 C 
HETATM   22  C2  UNL     1       2.959  51.863 -15.448  1.00  0.00    -0.064 C 
HETATM   23  C1  UNL     1       4.178  52.505 -16.056  1.00  0.00     0.045 C 
BRANCH  22  24
HETATM   24  C30 UNL     1       3.195  51.250 -14.090  1.00  0.00     0.197 C 
BRANCH  24  25
HETATM   25  O5  UNL     1       4.297  50.358 -14.173  1.00  0.00    -0.397 OA
HETATM   26  H50 UNL     1       5.035  50.872 -14.544  1.00  0.00     0.209 HD
ENDBRANCH  24  25
ENDBRANCH  22  24
ENDBRANCH  20  21
ENDBRANCH  19  20
ENDBRANCH  17  19
ENDBRANCH   1  17
BRANCH  10  27
HETATM   27  C21 UNL     1      -4.217  48.553 -25.000  1.00  0.00     0.021 C 
BRANCH  27  28
HETATM   28  C22 UNL     1      -3.431  49.309 -26.079  1.00  0.00     0.111 C 
BRANCH  28  29
HETATM   29  C23 UNL     1      -3.919  48.951 -27.455  1.00  0.00     0.139 C 
HETATM   30  O3  UNL     1      -4.643  48.024 -27.775  1.00  0.00    -0.650 OA
BRANCH  29  31
HETATM   31  O4  UNL     1      -3.425  49.784 -28.393  1.00  0.00    -0.776 OA
HETATM   32  H38 UNL     1      -3.797  49.448 -29.234  1.00  0.00     0.167 HD
ENDBRANCH  29  31
ENDBRANCH  28  29
ENDBRANCH  27  28
ENDBRANCH  10  27
BRANCH   9  33
HETATM   33  C17 UNL     1      -7.177  48.612 -23.675  1.00  0.00     0.080 C 
HETATM   34  C18 UNL     1      -8.295  48.463 -22.628  1.00  0.00     0.048 C 
BRANCH  33  35
HETATM   35  O1  UNL     1      -7.503  49.700 -24.548  1.00  0.00    -0.388 OA
HETATM   36  H30 UNL     1      -8.394  49.547 -24.911  1.00  0.00     0.210 HD
ENDBRANCH  33  35
BRANCH  33  37
HETATM   37  C19 UNL     1      -7.133  47.329 -24.549  1.00  0.00     0.201 C 
BRANCH  37  38
HETATM   38  O2  UNL     1      -8.415  46.885 -24.970  1.00  0.00    -0.398 OA
HETATM   39  H33 UNL     1      -8.730  47.485 -25.667  1.00  0.00     0.209 HD
ENDBRANCH  37  38
ENDBRANCH  33  37
ENDBRANCH   9  33
TORSDOF 14
ENDMDL
MODEL 7
REMARK minimizedAffinity -8.28271961
REMARK  14 active torsions:
REMARK  status: ('A' for Active; 'I' for Inactive)
REMARK    1  A    between atoms: C2_2  and  C30_34 
REMARK    2  A    between atoms: C3_3  and  C4_4 
REMARK    3  A    between atoms: C4_4  and  C5_5 
REMARK    4  A    between atoms: C5_5  and  C6_6 
REMARK    5  A    between atoms: C6_6  and  C8_8 
REMARK    6  A    between atoms: C16_16  and  C17_17 
REMARK    7  A    between atoms: C17_17  and  O1_19 
REMARK    8  A    between atoms: C17_17  and  C19_20 
REMARK    9  A    between atoms: C19_20  and  O2_21 
REMARK   10  A    between atoms: C20_22  and  C21_23 
REMARK   11  A    between atoms: C21_23  and  C22_24 
REMARK   12  A    between atoms: C22_24  and  C23_25 
REMARK   13  A    between atoms: C23_25  and  O4_27 
REMARK   14  A    between atoms: C30_34  and  O5_35 
ROOT
HETATM    1  C8  UNL     1      -1.517  51.210 -21.838  1.00  0.00    -0.002 C 
HETATM    2  C9  UNL     1      -1.887  51.152 -23.324  1.00  0.00     0.006 C 
HETATM    3  C10 UNL     1      -3.225  50.439 -23.301  1.00  0.00     0.011 C 
HETATM    4  C11 UNL     1      -3.013  49.243 -22.334  1.00  0.00    -0.032 C 
HETATM    5  C12 UNL     1      -2.481  48.070 -23.206  1.00  0.00     0.016 C 
HETATM    6  C13 UNL     1      -4.390  48.817 -21.726  1.00  0.00     0.004 C 
HETATM    7  C14 UNL     1      -4.341  47.468 -20.918  1.00  0.00     0.007 C 
HETATM    8  C15 UNL     1      -5.477  47.175 -19.890  1.00  0.00     0.009 C 
HETATM    9  C16 UNL     1      -6.209  48.426 -19.310  1.00  0.00     0.031 C 
HETATM   10  C20 UNL     1      -6.467  49.345 -20.511  1.00  0.00    -0.025 A 
HETATM   11  C24 UNL     1      -6.199  50.770 -20.863  1.00  0.00     0.021 A 
HETATM   12  C25 UNL     1      -4.996  49.881 -20.829  1.00  0.00    -0.027 A 
HETATM   13  C26 UNL     1      -3.999  50.556 -19.881  1.00  0.00     0.011 C 
HETATM   14  C27 UNL     1      -2.604  49.950 -19.867  1.00  0.00     0.011 C 
HETATM   15  C28 UNL     1      -1.950  49.793 -21.269  1.00  0.00    -0.032 C 
HETATM   16  C29 UNL     1      -0.762  48.832 -21.079  1.00  0.00     0.016 C 
ENDROOT
BRANCH   1  17
HETATM   17  C6  UNL     1      -0.112  51.844 -21.604  1.00  0.00    -0.014 C 
HETATM   18  C7  UNL     1       0.039  52.720 -20.354  1.00  0.00     0.010 C 
BRANCH  17  19
HETATM   19  C5  UNL     1       0.474  52.591 -22.824  1.00  0.00     0.008 C 
BRANCH  19  20
HETATM   20  C4  UNL     1      -0.034  52.066 -24.173  1.00  0.00     0.028 C 
BRANCH  20  21
HETATM   21  C3  UNL     1       1.047  52.134 -25.217  1.00  0.00    -0.022 C 
HETATM   22  C2  UNL     1       0.994  51.728 -26.502  1.00  0.00    -0.064 C 
HETATM   23  C1  UNL     1      -0.192  51.070 -27.157  1.00  0.00     0.045 C 
BRANCH  22  24
HETATM   24  C30 UNL     1       2.193  51.879 -27.405  1.00  0.00     0.197 C 
BRANCH  24  25
HETATM   25  O5  UNL     1       3.308  51.243 -26.799  1.00  0.00    -0.397 OA
HETATM   26  H50 UNL     1       3.030  50.330 -26.608  1.00  0.00     0.209 HD
ENDBRANCH  24  25
ENDBRANCH  22  24
ENDBRANCH  20  21
ENDBRANCH  19  20
ENDBRANCH  17  19
ENDBRANCH   1  17
BRANCH  10  27
HETATM   27  C21 UNL     1      -7.436  48.760 -21.581  1.00  0.00     0.021 C 
BRANCH  27  28
HETATM   28  C22 UNL     1      -7.596  49.657 -22.815  1.00  0.00     0.111 C 
BRANCH  28  29
HETATM   29  C23 UNL     1      -8.278  48.921 -23.935  1.00  0.00     0.139 C 
HETATM   30  O3  UNL     1      -8.411  47.717 -24.067  1.00  0.00    -0.650 OA
BRANCH  29  31
HETATM   31  O4  UNL     1      -8.741  49.765 -24.879  1.00  0.00    -0.776 OA
HETATM   32  H38 UNL     1      -9.146  49.178 -25.549  1.00  0.00     0.167 HD
ENDBRANCH  29  31
ENDBRANCH  28  29
ENDBRANCH  27  28
ENDBRANCH  10  27
BRANCH   9  33
HETATM   33  C17 UNL     1      -7.436  48.100 -18.405  1.00  0.00     0.080 C 
HETATM   34  C18 UNL     1      -8.031  46.735 -18.795  1.00  0.00     0.048 C 
BRANCH  33  35
HETATM   35  O1  UNL     1      -7.052  48.059 -17.026  1.00  0.00    -0.388 OA
HETATM   36  H30 UNL     1      -7.822  47.777 -16.500  1.00  0.00     0.210 HD
ENDBRANCH  33  35
BRANCH  33  37
HETATM   37  C19 UNL     1      -8.539  49.185 -18.535  1.00  0.00     0.201 C 
BRANCH  37  38
HETATM   38  O2  UNL     1      -8.980  49.699 -17.287  1.00  0.00    -0.398 OA
HETATM   39  H33 UNL     1      -8.287  50.285 -16.939  1.00  0.00     0.209 HD
ENDBRANCH  37  38
ENDBRANCH  33  37
ENDBRANCH   9  33
TORSDOF 14
ENDMDL
MODEL 8
REMARK minimizedAffinity -8.21543026
REMARK  14 active torsions:
REMARK  status: ('A' for Active; 'I' for Inactive)
REMARK    1  A    between atoms: C2_2  and  C30_34 
REMARK    2  A    between atoms: C3_3  and  C4_4 
REMARK    3  A    between atoms: C4_4  and  C5_5 
REMARK    4  A    between atoms: C5_5  and  C6_6 
REMARK    5  A    between atoms: C6_6  and  C8_8 
REMARK    6  A    between atoms: C16_16  and  C17_17 
REMARK    7  A    between atoms: C17_17  and  O1_19 
REMARK    8  A    between atoms: C17_17  and  C19_20 
REMARK    9  A    between atoms: C19_20  and  O2_21 
REMARK   10  A    between atoms: C20_22  and  C21_23 
REMARK   11  A    between atoms: C21_23  and  C22_24 
REMARK   12  A    between atoms: C22_24  and  C23_25 
REMARK   13  A    between atoms: C23_25  and  O4_27 
REMARK   14  A    between atoms: C30_34  and  O5_35 
ROOT
HETATM    1  C8  UNL     1      -2.671  48.768 -19.295  1.00  0.00    -0.002 C 
HETATM    2  C9  UNL     1      -4.048  48.105 -19.409  1.00  0.00     0.006 C 
HETATM    3  C10 UNL     1      -4.457  48.443 -20.830  1.00  0.00     0.011 C 
HETATM    4  C11 UNL     1      -4.120  49.951 -20.985  1.00  0.00    -0.032 C 
HETATM    5  C12 UNL     1      -5.381  50.727 -20.511  1.00  0.00     0.016 C 
HETATM    6  C13 UNL     1      -3.882  50.276 -22.497  1.00  0.00     0.004 C 
HETATM    7  C14 UNL     1      -3.769  51.814 -22.808  1.00  0.00     0.007 C 
HETATM    8  C15 UNL     1      -3.079  52.255 -24.135  1.00  0.00     0.009 C 
HETATM    9  C16 UNL     1      -2.058  51.241 -24.741  1.00  0.00     0.031 C 
HETATM   10  C20 UNL     1      -2.732  49.867 -24.636  1.00  0.00    -0.025 A 
HETATM   11  C24 UNL     1      -2.380  48.527 -24.082  1.00  0.00     0.021 A 
HETATM   12  C25 UNL     1      -2.655  49.589 -23.065  1.00  0.00    -0.027 A 
HETATM   13  C26 UNL     1      -1.427  49.622 -22.148  1.00  0.00     0.011 C 
HETATM   14  C27 UNL     1      -1.575  50.470 -20.894  1.00  0.00     0.011 C 
HETATM   15  C28 UNL     1      -2.839  50.158 -20.044  1.00  0.00    -0.032 C 
HETATM   16  C29 UNL     1      -3.008  51.346 -19.080  1.00  0.00     0.016 C 
ENDROOT
BRANCH   1  17
HETATM   17  C6  UNL     1      -2.064  48.624 -17.865  1.00  0.00    -0.014 C 
HETATM   18  C7  UNL     1      -3.034  48.816 -16.693  1.00  0.00     0.010 C 
BRANCH  17  19
HETATM   19  C5  UNL     1      -0.789  49.461 -17.614  1.00  0.00     0.008 C 
BRANCH  19  20
HETATM   20  C4  UNL     1       0.037  48.986 -16.413  1.00  0.00     0.028 C 
BRANCH  20  21
HETATM   21  C3  UNL     1       0.751  50.139 -15.762  1.00  0.00    -0.022 C 
HETATM   22  C2  UNL     1       1.034  51.349 -16.286  1.00  0.00    -0.064 C 
HETATM   23  C1  UNL     1       0.710  51.784 -17.690  1.00  0.00     0.045 C 
BRANCH  22  24
HETATM   24  C30 UNL     1       1.765  52.386 -15.470  1.00  0.00     0.197 C 
BRANCH  24  25
HETATM   25  O5  UNL     1       2.471  53.249 -16.349  1.00  0.00    -0.397 OA
HETATM   26  H50 UNL     1       1.814  53.589 -16.982  1.00  0.00     0.209 HD
ENDBRANCH  24  25
ENDBRANCH  22  24
ENDBRANCH  20  21
ENDBRANCH  19  20
ENDBRANCH  17  19
ENDBRANCH   1  17
BRANCH  10  27
HETATM   27  C21 UNL     1      -4.024  49.710 -25.490  1.00  0.00     0.021 C 
BRANCH  27  28
HETATM   28  C22 UNL     1      -4.075  48.399 -26.285  1.00  0.00     0.111 C 
BRANCH  28  29
HETATM   29  C23 UNL     1      -4.202  48.665 -27.760  1.00  0.00     0.139 C 
HETATM   30  O3  UNL     1      -3.583  49.474 -28.430  1.00  0.00    -0.650 OA
BRANCH  29  31
HETATM   31  O4  UNL     1      -5.157  47.900 -28.326  1.00  0.00    -0.776 OA
HETATM   32  H38 UNL     1      -5.154  48.168 -29.267  1.00  0.00     0.167 HD
ENDBRANCH  29  31
ENDBRANCH  28  29
ENDBRANCH  27  28
ENDBRANCH  10  27
BRANCH   9  33
HETATM   33  C17 UNL     1      -1.499  51.639 -26.141  1.00  0.00     0.080 C 
HETATM   34  C18 UNL     1      -0.272  52.553 -25.978  1.00  0.00     0.048 C 
BRANCH  33  35
HETATM   35  O1  UNL     1      -1.115  50.476 -26.883  1.00  0.00    -0.388 OA
HETATM   36  H30 UNL     1      -0.700  50.766 -27.716  1.00  0.00     0.210 HD
ENDBRANCH  33  35
BRANCH  33  37
HETATM   37  C19 UNL     1      -2.570  52.381 -26.986  1.00  0.00     0.201 C 
BRANCH  37  38
HETATM   38  O2  UNL     1      -2.029  53.386 -27.833  1.00  0.00    -0.398 OA
HETATM   39  H33 UNL     1      -1.584  52.947 -28.576  1.00  0.00     0.209 HD
ENDBRANCH  37  38
ENDBRANCH  33  37
ENDBRANCH   9  33
TORSDOF 14
ENDMDL
MODEL 9
REMARK minimizedAffinity -7.91231346
REMARK  14 active torsions:
REMARK  status: ('A' for Active; 'I' for Inactive)
REMARK    1  A    between atoms: C2_2  and  C30_34 
REMARK    2  A    between atoms: C3_3  and  C4_4 
REMARK    3  A    between atoms: C4_4  and  C5_5 
REMARK    4  A    between atoms: C5_5  and  C6_6 
REMARK    5  A    between atoms: C6_6  and  C8_8 
REMARK    6  A    between atoms: C16_16  and  C17_17 
REMARK    7  A    between atoms: C17_17  and  O1_19 
REMARK    8  A    between atoms: C17_17  and  C19_20 
REMARK    9  A    between atoms: C19_20  and  O2_21 
REMARK   10  A    between atoms: C20_22  and  C21_23 
REMARK   11  A    between atoms: C21_23  and  C22_24 
REMARK   12  A    between atoms: C22_24  and  C23_25 
REMARK   13  A    between atoms: C23_25  and  O4_27 
REMARK   14  A    between atoms: C30_34  and  O5_35 
ROOT
HETATM    1  C8  UNL     1      -5.210  49.993 -21.909  1.00  0.00    -0.002 C 
HETATM    2  C9  UNL     1      -4.219  49.684 -20.781  1.00  0.00     0.006 C 
HETATM    3  C10 UNL     1      -2.892  50.096 -21.389  1.00  0.00     0.011 C 
HETATM    4  C11 UNL     1      -2.913  49.489 -22.818  1.00  0.00    -0.032 C 
HETATM    5  C12 UNL     1      -2.331  48.053 -22.688  1.00  0.00     0.016 C 
HETATM    6  C13 UNL     1      -1.969  50.320 -23.749  1.00  0.00     0.004 C 
HETATM    7  C14 UNL     1      -1.722  49.663 -25.157  1.00  0.00     0.007 C 
HETATM    8  C15 UNL     1      -1.216  50.569 -26.321  1.00  0.00     0.009 C 
HETATM    9  C16 UNL     1      -1.553  52.088 -26.198  1.00  0.00     0.031 C 
HETATM   10  C20 UNL     1      -1.254  52.459 -24.739  1.00  0.00    -0.025 A 
HETATM   11  C24 UNL     1      -1.985  53.115 -23.616  1.00  0.00     0.021 A 
HETATM   12  C25 UNL     1      -2.456  51.740 -23.970  1.00  0.00    -0.027 A 
HETATM   13  C26 UNL     1      -3.962  51.863 -24.225  1.00  0.00     0.011 C 
HETATM   14  C27 UNL     1      -4.705  50.544 -24.377  1.00  0.00     0.011 C 
HETATM   15  C28 UNL     1      -4.462  49.525 -23.229  1.00  0.00    -0.032 C 
HETATM   16  C29 UNL     1      -4.960  48.166 -23.753  1.00  0.00     0.016 C 
ENDROOT
BRANCH   1  17
HETATM   17  C6  UNL     1      -6.667  49.573 -21.544  1.00  0.00    -0.014 C 
HETATM   18  C7  UNL     1      -7.178  50.016 -20.167  1.00  0.00     0.010 C 
BRANCH  17  19
HETATM   19  C5  UNL     1      -6.979  48.073 -21.746  1.00  0.00     0.008 C 
BRANCH  19  20
HETATM   20  C4  UNL     1      -8.316  47.808 -22.451  1.00  0.00     0.028 C 
BRANCH  20  21
HETATM   21  C3  UNL     1      -8.171  46.728 -23.488  1.00  0.00    -0.022 C 
HETATM   22  C2  UNL     1      -8.315  46.830 -24.825  1.00  0.00    -0.064 C 
HETATM   23  C1  UNL     1      -8.699  48.084 -25.564  1.00  0.00     0.045 C 
BRANCH  22  24
HETATM   24  C30 UNL     1      -8.129  45.623 -25.710  1.00  0.00     0.197 C 
BRANCH  24  25
HETATM   25  O5  UNL     1      -9.392  45.232 -26.227  1.00  0.00    -0.397 OA
HETATM   26  H50 UNL     1      -9.767  46.022 -26.655  1.00  0.00     0.209 HD
ENDBRANCH  24  25
ENDBRANCH  22  24
ENDBRANCH  20  21
ENDBRANCH  19  20
ENDBRANCH  17  19
ENDBRANCH   1  17
BRANCH  10  27
HETATM   27  C21 UNL     1       0.244  52.336 -24.331  1.00  0.00     0.021 C 
BRANCH  27  28
HETATM   28  C22 UNL     1       0.565  52.994 -22.984  1.00  0.00     0.111 C 
BRANCH  28  29
HETATM   29  C23 UNL     1       1.281  54.302 -23.177  1.00  0.00     0.139 C 
HETATM   30  O3  UNL     1       1.452  54.915 -24.217  1.00  0.00    -0.650 OA
BRANCH  29  31
HETATM   31  O4  UNL     1       1.793  54.768 -22.020  1.00  0.00    -0.776 OA
HETATM   32  H38 UNL     1       2.237  55.603 -22.272  1.00  0.00     0.167 HD
ENDBRANCH  29  31
ENDBRANCH  28  29
ENDBRANCH  27  28
ENDBRANCH  10  27
BRANCH   9  33
HETATM   33  C17 UNL     1      -0.907  52.989 -27.293  1.00  0.00     0.080 C 
HETATM   34  C18 UNL     1       0.056  52.157 -28.159  1.00  0.00     0.048 C 
BRANCH  33  35
HETATM   35  O1  UNL     1      -1.912  53.560 -28.139  1.00  0.00    -0.388 OA
HETATM   36  H30 UNL     1      -1.470  54.050 -28.854  1.00  0.00     0.210 HD
ENDBRANCH  33  35
BRANCH  33  37
HETATM   37  C19 UNL     1      -0.122  54.171 -26.662  1.00  0.00     0.201 C 
BRANCH  37  38
HETATM   38  O2  UNL     1      -0.324  55.408 -27.331  1.00  0.00    -0.398 OA
HETATM   39  H33 UNL     1      -1.212  55.731 -27.107  1.00  0.00     0.209 HD
ENDBRANCH  37  38
ENDBRANCH  33  37
ENDBRANCH   9  33
TORSDOF 14
ENDMDL
