MODEL 1
REMARK minimizedAffinity -9.69152641
REMARK CNNscore 0.751928508
REMARK CNNaffinity 6.99534369
REMARK  13 active torsions:
REMARK  status: ('A' for Active; 'I' for Inactive)
REMARK    1  A    between atoms: O1_2  and  C2_3 
REMARK    2  A    between atoms: C2_3  and  C3_4 
REMARK    3  A    between atoms: C3_4  and  C4_5 
REMARK    4  A    between atoms: C4_5  and  O2_6 
REMARK    5  A    between atoms: O2_6  and  C5_7 
REMARK    6  A    between atoms: C20_23  and  C21_24 
REMARK    7  A    between atoms: C21_24  and  O4_26 
REMARK    8  A    between atoms: C21_24  and  C23_27 
REMARK    9  A    between atoms: C23_27  and  O5_28 
REMARK   10  A    between atoms: C23_27  and  C24_29 
REMARK   11  A    between atoms: C25_31  and  C26_32 
REMARK   12  A    between atoms: C26_32  and  O7_33 
REMARK   13  A    between atoms: C35_42  and  O8_43 
ROOT
HETATM    1  C5  UNL     1      -2.120  52.187 -25.537  1.00  0.00     0.122 C 
HETATM    2  C6  UNL     1      -3.532  52.200 -24.950  1.00  0.00     0.033 C 
HETATM    3  C7  UNL     1      -3.525  52.086 -23.424  1.00  0.00     0.013 C 
HETATM    4  C8  UNL     1      -2.763  50.839 -22.880  1.00  0.00    -0.026 C 
HETATM    5  C9  UNL     1      -3.503  49.568 -23.375  1.00  0.00     0.016 C 
HETATM    6  C10 UNL     1      -1.323  50.860 -23.480  1.00  0.00     0.071 C 
HETATM    7  C11 UNL     1      -1.312  50.991 -25.011  1.00  0.00     0.045 C 
HETATM    8  C12 UNL     1      -0.451  51.955 -22.859  1.00  0.00     0.161 C 
HETATM    9  O3  UNL     1       0.288  52.688 -23.513  1.00  0.00    -0.292 OA
HETATM   10  C13 UNL     1      -0.441  52.047 -21.380  1.00  0.00    -0.006 C 
HETATM   11  C14 UNL     1      -1.445  51.459 -20.708  1.00  0.00    -0.030 C 
HETATM   12  C15 UNL     1      -2.743  50.911 -21.292  1.00  0.00     0.027 C 
HETATM   13  C16 UNL     1      -3.251  49.648 -20.529  1.00  0.00     0.011 C 
HETATM   14  C17 UNL     1      -3.170  49.742 -18.981  1.00  0.00     0.014 C 
HETATM   15  C18 UNL     1      -1.734  50.079 -18.543  1.00  0.00    -0.002 C 
HETATM   16  C19 UNL     1      -0.812  48.909 -18.986  1.00  0.00     0.019 C 
HETATM   17  C20 UNL     1      -1.489  50.508 -17.042  1.00  0.00     0.034 C 
HETATM   18  C31 UNL     1      -0.220  51.447 -17.122  1.00  0.00     0.016 C 
HETATM   19  C32 UNL     1       0.016  51.671 -18.626  1.00  0.00     0.026 C 
HETATM   20  C33 UNL     1       0.585  52.964 -19.175  1.00  0.00     0.013 C 
HETATM   21  C34 UNL     1       0.697  52.811 -20.718  1.00  0.00     0.043 C 
HETATM   22  C35 UNL     1      -1.368  51.424 -19.221  1.00  0.00     0.094 C 
ENDROOT
BRANCH  17  23
HETATM   23  C21 UNL     1      -1.547  49.468 -15.865  1.00  0.00     0.087 C 
HETATM   24  C22 UNL     1      -0.192  49.185 -15.204  1.00  0.00     0.049 C 
BRANCH  23  25
HETATM   25  O4  UNL     1      -1.991  48.219 -16.435  1.00  0.00    -0.387 OA
HETATM   26  H33 UNL     1      -2.770  48.405 -16.988  1.00  0.00     0.210 HD
ENDBRANCH  23  25
BRANCH  23  27
HETATM   27  C23 UNL     1      -2.617  49.945 -14.800  1.00  0.00     0.181 C 
BRANCH  27  28
HETATM   28  O5  UNL     1      -3.439  50.986 -15.345  1.00  0.00    -0.390 OA
HETATM   29  H35 UNL     1      -2.895  51.795 -15.265  1.00  0.00     0.210 HD
ENDBRANCH  27  28
BRANCH  27  30
HETATM   30  C24 UNL     1      -2.052  50.416 -13.429  1.00  0.00     0.158 C 
HETATM   31  O6  UNL     1      -1.895  51.860 -13.455  1.00  0.00    -0.375 OA
HETATM   32  C25 UNL     1      -2.623  52.468 -12.365  1.00  0.00     0.149 C 
HETATM   33  C27 UNL     1      -3.642  51.416 -11.929  1.00  0.00     0.019 C 
HETATM   34  C28 UNL     1      -4.186  51.587 -10.516  1.00  0.00     0.013 C 
HETATM   35  C29 UNL     1      -2.907  50.107 -12.181  1.00  0.00     0.019 C 
HETATM   36  C30 UNL     1      -3.817  48.887 -12.258  1.00  0.00     0.013 C 
BRANCH  32  37
HETATM   37  C26 UNL     1      -1.615  52.968 -11.316  1.00  0.00     0.196 C 
BRANCH  37  38
HETATM   38  O7  UNL     1      -1.893  54.302 -10.897  1.00  0.00    -0.398 OA
HETATM   39  H40 UNL     1      -2.752  54.255 -10.434  1.00  0.00     0.209 HD
ENDBRANCH  37  38
ENDBRANCH  32  37
ENDBRANCH  27  30
ENDBRANCH  23  27
ENDBRANCH  17  23
BRANCH  22  40
HETATM   40  O8  UNL     1      -2.270  52.456 -18.771  1.00  0.00    -0.384 OA
HETATM   41  H56 UNL     1      -2.245  53.185 -19.419  1.00  0.00     0.211 HD
ENDBRANCH  22  40
BRANCH   1  42
HETATM   42  O2  UNL     1      -2.163  52.039 -26.961  1.00  0.00    -0.386 OA
BRANCH  42  43
HETATM   43  C4  UNL     1      -3.064  51.050 -27.450  1.00  0.00     0.170 C 
BRANCH  43  44
HETATM   44  C3  UNL     1      -2.616  49.648 -27.043  1.00  0.00     0.052 C 
BRANCH  44  45
HETATM   45  C2  UNL     1      -3.621  48.552 -27.394  1.00  0.00     0.169 C 
BRANCH  45  46
HETATM   46  O1  UNL     1      -4.189  48.745 -28.691  1.00  0.00    -0.396 OA
HETATM   47  C1  UNL     1      -5.442  48.093 -28.860  1.00  0.00     0.201 C 
ENDBRANCH  45  46
ENDBRANCH  44  45
ENDBRANCH  43  44
ENDBRANCH  42  43
ENDBRANCH   1  42
TORSDOF 13
ENDMDL
MODEL 2
REMARK minimizedAffinity -8.94573116
REMARK CNNscore 0.70151341
REMARK CNNaffinity 6.9534297
REMARK  13 active torsions:
REMARK  status: ('A' for Active; 'I' for Inactive)
REMARK    1  A    between atoms: O1_2  and  C2_3 
REMARK    2  A    between atoms: C2_3  and  C3_4 
REMARK    3  A    between atoms: C3_4  and  C4_5 
REMARK    4  A    between atoms: C4_5  and  O2_6 
REMARK    5  A    between atoms: O2_6  and  C5_7 
REMARK    6  A    between atoms: C20_23  and  C21_24 
REMARK    7  A    between atoms: C21_24  and  O4_26 
REMARK    8  A    between atoms: C21_24  and  C23_27 
REMARK    9  A    between atoms: C23_27  and  O5_28 
REMARK   10  A    between atoms: C23_27  and  C24_29 
REMARK   11  A    between atoms: C25_31  and  C26_32 
REMARK   12  A    between atoms: C26_32  and  O7_33 
REMARK   13  A    between atoms: C35_42  and  O8_43 
ROOT
HETATM    1  C5  UNL     1      -9.368  47.614 -27.587  1.00  0.00     0.122 C 
HETATM    2  C6  UNL     1      -9.992  48.607 -26.606  1.00  0.00     0.033 C 
HETATM    3  C7  UNL     1      -8.981  49.116 -25.576  1.00  0.00     0.013 C 
HETATM    4  C8  UNL     1      -8.268  47.988 -24.769  1.00  0.00    -0.026 C 
HETATM    5  C9  UNL     1      -9.343  47.237 -23.939  1.00  0.00     0.016 C 
HETATM    6  C10 UNL     1      -7.627  47.001 -25.792  1.00  0.00     0.071 C 
HETATM    7  C11 UNL     1      -8.625  46.493 -26.844  1.00  0.00     0.045 C 
HETATM    8  C12 UNL     1      -6.400  47.600 -26.488  1.00  0.00     0.161 C 
HETATM    9  O3  UNL     1      -6.186  47.499 -27.694  1.00  0.00    -0.292 OA
HETATM   10  C13 UNL     1      -5.385  48.245 -25.621  1.00  0.00    -0.006 C 
HETATM   11  C14 UNL     1      -5.756  48.602 -24.380  1.00  0.00    -0.030 C 
HETATM   12  C15 UNL     1      -7.176  48.655 -23.825  1.00  0.00     0.027 C 
HETATM   13  C16 UNL     1      -7.237  48.278 -22.312  1.00  0.00     0.011 C 
HETATM   14  C17 UNL     1      -6.124  48.913 -21.434  1.00  0.00     0.014 C 
HETATM   15  C18 UNL     1      -4.737  48.572 -22.006  1.00  0.00    -0.002 C 
HETATM   16  C19 UNL     1      -4.558  47.030 -21.939  1.00  0.00     0.019 C 
HETATM   17  C20 UNL     1      -3.482  49.352 -21.445  1.00  0.00     0.034 C 
HETATM   18  C31 UNL     1      -2.465  49.348 -22.655  1.00  0.00     0.016 C 
HETATM   19  C32 UNL     1      -3.268  48.799 -23.848  1.00  0.00     0.026 C 
HETATM   20  C33 UNL     1      -3.014  49.250 -25.273  1.00  0.00     0.013 C 
HETATM   21  C34 UNL     1      -3.994  48.470 -26.194  1.00  0.00     0.043 C 
HETATM   22  C35 UNL     1      -4.708  49.119 -23.456  1.00  0.00     0.094 C 
ENDROOT
BRANCH  17  23
HETATM   23  C21 UNL     1      -2.903  49.065 -20.012  1.00  0.00     0.087 C 
HETATM   24  C22 UNL     1      -1.834  47.965 -19.970  1.00  0.00     0.049 C 
BRANCH  23  25
HETATM   25  O4  UNL     1      -4.003  48.595 -19.205  1.00  0.00    -0.387 OA
HETATM   26  H33 UNL     1      -4.751  49.203 -19.339  1.00  0.00     0.210 HD
ENDBRANCH  23  25
BRANCH  23  27
HETATM   27  C23 UNL     1      -2.362  50.416 -19.389  1.00  0.00     0.181 C 
BRANCH  27  28
HETATM   28  O5  UNL     1      -3.185  51.519 -19.789  1.00  0.00    -0.390 OA
HETATM   29  H35 UNL     1      -2.883  51.734 -20.695  1.00  0.00     0.210 HD
ENDBRANCH  27  28
BRANCH  27  30
HETATM   30  C24 UNL     1      -0.876  50.761 -19.693  1.00  0.00     0.158 C 
HETATM   31  O6  UNL     1      -0.807  52.101 -20.250  1.00  0.00    -0.375 OA
HETATM   32  C25 UNL     1       0.082  52.928 -19.469  1.00  0.00     0.149 C 
HETATM   33  C27 UNL     1       0.204  52.222 -18.120  1.00  0.00     0.019 C 
HETATM   34  C28 UNL     1       1.436  52.591 -17.303  1.00  0.00     0.013 C 
HETATM   35  C29 UNL     1       0.100  50.751 -18.497  1.00  0.00     0.019 C 
HETATM   36  C30 UNL     1      -0.252  49.833 -17.332  1.00  0.00     0.013 C 
BRANCH  32  37
HETATM   37  C26 UNL     1       1.372  53.165 -20.274  1.00  0.00     0.196 C 
BRANCH  37  38
HETATM   38  O7  UNL     1       1.413  54.467 -20.853  1.00  0.00    -0.398 OA
HETATM   39  H40 UNL     1       1.457  55.086 -20.098  1.00  0.00     0.209 HD
ENDBRANCH  37  38
ENDBRANCH  32  37
ENDBRANCH  27  30
ENDBRANCH  23  27
ENDBRANCH  17  23
BRANCH  22  40
HETATM   40  O8  UNL     1      -4.890  50.550 -23.439  1.00  0.00    -0.384 OA
HETATM   41  H56 UNL     1      -5.188  50.829 -24.326  1.00  0.00     0.211 HD
ENDBRANCH  22  40
BRANCH   1  42
HETATM   42  O2  UNL     1     -10.378  46.967 -28.369  1.00  0.00    -0.386 OA
BRANCH  42  43
HETATM   43  C4  UNL     1     -10.920  47.741 -29.435  1.00  0.00     0.170 C 
BRANCH  43  44
HETATM   44  C3  UNL     1      -9.814  48.308 -30.322  1.00  0.00     0.052 C 
BRANCH  44  45
HETATM   45  C2  UNL     1      -9.441  47.405 -31.497  1.00  0.00     0.169 C 
BRANCH  45  46
HETATM   46  O1  UNL     1      -8.030  47.378 -31.721  1.00  0.00    -0.396 OA
HETATM   47  C1  UNL     1      -7.319  48.336 -30.947  1.00  0.00     0.201 C 
ENDBRANCH  45  46
ENDBRANCH  44  45
ENDBRANCH  43  44
ENDBRANCH  42  43
ENDBRANCH   1  42
TORSDOF 13
ENDMDL
MODEL 3
REMARK minimizedAffinity -9.92351246
REMARK CNNscore 0.667320192
REMARK CNNaffinity 7.1140151
REMARK  13 active torsions:
REMARK  status: ('A' for Active; 'I' for Inactive)
REMARK    1  A    between atoms: O1_2  and  C2_3 
REMARK    2  A    between atoms: C2_3  and  C3_4 
REMARK    3  A    between atoms: C3_4  and  C4_5 
REMARK    4  A    between atoms: C4_5  and  O2_6 
REMARK    5  A    between atoms: O2_6  and  C5_7 
REMARK    6  A    between atoms: C20_23  and  C21_24 
REMARK    7  A    between atoms: C21_24  and  O4_26 
REMARK    8  A    between atoms: C21_24  and  C23_27 
REMARK    9  A    between atoms: C23_27  and  O5_28 
REMARK   10  A    between atoms: C23_27  and  C24_29 
REMARK   11  A    between atoms: C25_31  and  C26_32 
REMARK   12  A    between atoms: C26_32  and  O7_33 
REMARK   13  A    between atoms: C35_42  and  O8_43 
ROOT
HETATM    1  C5  UNL     1      -2.090  52.327 -25.583  1.00  0.00     0.122 C 
HETATM    2  C6  UNL     1      -3.508  52.224 -25.020  1.00  0.00     0.033 C 
HETATM    3  C7  UNL     1      -3.515  52.020 -23.503  1.00  0.00     0.013 C 
HETATM    4  C8  UNL     1      -2.690  50.788 -23.021  1.00  0.00    -0.026 C 
HETATM    5  C9  UNL     1      -3.348  49.509 -23.601  1.00  0.00     0.016 C 
HETATM    6  C10 UNL     1      -1.246  50.927 -23.593  1.00  0.00     0.071 C 
HETATM    7  C11 UNL     1      -1.221  51.149 -25.114  1.00  0.00     0.045 C 
HETATM    8  C12 UNL     1      -0.447  52.031 -22.895  1.00  0.00     0.161 C 
HETATM    9  O3  UNL     1       0.257  52.843 -23.492  1.00  0.00    -0.292 OA
HETATM   10  C13 UNL     1      -0.463  52.036 -21.413  1.00  0.00    -0.006 C 
HETATM   11  C14 UNL     1      -1.440  51.352 -20.794  1.00  0.00    -0.030 C 
HETATM   12  C15 UNL     1      -2.696  50.767 -21.430  1.00  0.00     0.027 C 
HETATM   13  C16 UNL     1      -3.141  49.434 -20.752  1.00  0.00     0.011 C 
HETATM   14  C17 UNL     1      -3.087  49.440 -19.200  1.00  0.00     0.014 C 
HETATM   15  C18 UNL     1      -1.678  49.832 -18.719  1.00  0.00    -0.002 C 
HETATM   16  C19 UNL     1      -0.684  48.745 -19.213  1.00  0.00     0.019 C 
HETATM   17  C20 UNL     1      -1.480  50.184 -17.191  1.00  0.00     0.034 C 
HETATM   18  C31 UNL     1      -0.266  51.197 -17.194  1.00  0.00     0.016 C 
HETATM   19  C32 UNL     1      -0.022  51.522 -18.678  1.00  0.00     0.026 C 
HETATM   20  C33 UNL     1       0.478  52.877 -19.140  1.00  0.00     0.013 C 
HETATM   21  C34 UNL     1       0.620  52.822 -20.688  1.00  0.00     0.043 C 
HETATM   22  C35 UNL     1      -1.382  51.233 -19.310  1.00  0.00     0.094 C 
ENDROOT
BRANCH  17  23
HETATM   23  C21 UNL     1      -1.493  49.074 -16.078  1.00  0.00     0.087 C 
HETATM   24  C22 UNL     1      -0.114  48.755 -15.486  1.00  0.00     0.049 C 
BRANCH  23  25
HETATM   25  O4  UNL     1      -1.958  47.861 -16.706  1.00  0.00    -0.387 OA
HETATM   26  H33 UNL     1      -2.757  48.078 -17.217  1.00  0.00     0.210 HD
ENDBRANCH  23  25
BRANCH  23  27
HETATM   27  C23 UNL     1      -2.524  49.482 -14.947  1.00  0.00     0.181 C 
BRANCH  27  28
HETATM   28  O5  UNL     1      -3.443  50.467 -15.437  1.00  0.00    -0.390 OA
HETATM   29  H35 UNL     1      -2.948  51.310 -15.389  1.00  0.00     0.210 HD
ENDBRANCH  27  28
BRANCH  27  30
HETATM   30  C24 UNL     1      -1.906  49.991 -13.613  1.00  0.00     0.158 C 
HETATM   31  O6  UNL     1      -1.637  51.414 -13.729  1.00  0.00    -0.375 OA
HETATM   32  C25 UNL     1      -2.301  52.143 -12.674  1.00  0.00     0.149 C 
HETATM   33  C27 UNL     1      -3.393  51.204 -12.165  1.00  0.00     0.019 C 
HETATM   34  C28 UNL     1      -3.905  51.503 -10.761  1.00  0.00     0.013 C 
HETATM   35  C29 UNL     1      -2.766  49.828 -12.341  1.00  0.00     0.019 C 
HETATM   36  C30 UNL     1      -3.770  48.681 -12.335  1.00  0.00     0.013 C 
BRANCH  32  37
HETATM   37  C26 UNL     1      -1.243  52.625 -11.666  1.00  0.00     0.196 C 
BRANCH  37  38
HETATM   38  O7  UNL     1      -1.436  53.989 -11.297  1.00  0.00    -0.398 OA
HETATM   39  H40 UNL     1      -2.286  54.010 -10.816  1.00  0.00     0.209 HD
ENDBRANCH  37  38
ENDBRANCH  32  37
ENDBRANCH  27  30
ENDBRANCH  23  27
ENDBRANCH  17  23
BRANCH  22  40
HETATM   40  O8  UNL     1      -2.348  52.184 -18.816  1.00  0.00    -0.384 OA
HETATM   41  H56 UNL     1      -2.356  52.950 -19.420  1.00  0.00     0.211 HD
ENDBRANCH  22  40
BRANCH   1  42
HETATM   42  O2  UNL     1      -2.105  52.261 -27.013  1.00  0.00    -0.386 OA
BRANCH  42  43
HETATM   43  C4  UNL     1      -1.036  51.529 -27.606  1.00  0.00     0.170 C 
BRANCH  43  44
HETATM   44  C3  UNL     1       0.015  52.468 -28.194  1.00  0.00     0.052 C 
BRANCH  44  45
HETATM   45  C2  UNL     1       1.439  51.916 -28.132  1.00  0.00     0.169 C 
BRANCH  45  46
HETATM   46  O1  UNL     1       2.097  52.275 -26.915  1.00  0.00    -0.396 OA
HETATM   47  C1  UNL     1       2.492  51.152 -26.137  1.00  0.00     0.201 C 
ENDBRANCH  45  46
ENDBRANCH  44  45
ENDBRANCH  43  44
ENDBRANCH  42  43
ENDBRANCH   1  42
TORSDOF 13
ENDMDL
MODEL 4
REMARK minimizedAffinity -8.71358967
REMARK CNNscore 0.624165177
REMARK CNNaffinity 6.90842247
REMARK  13 active torsions:
REMARK  status: ('A' for Active; 'I' for Inactive)
REMARK    1  A    between atoms: O1_2  and  C2_3 
REMARK    2  A    between atoms: C2_3  and  C3_4 
REMARK    3  A    between atoms: C3_4  and  C4_5 
REMARK    4  A    between atoms: C4_5  and  O2_6 
REMARK    5  A    between atoms: O2_6  and  C5_7 
REMARK    6  A    between atoms: C20_23  and  C21_24 
REMARK    7  A    between atoms: C21_24  and  O4_26 
REMARK    8  A    between atoms: C21_24  and  C23_27 
REMARK    9  A    between atoms: C23_27  and  O5_28 
REMARK   10  A    between atoms: C23_27  and  C24_29 
REMARK   11  A    between atoms: C25_31  and  C26_32 
REMARK   12  A    between atoms: C26_32  and  O7_33 
REMARK   13  A    between atoms: C35_42  and  O8_43 
ROOT
HETATM    1  C5  UNL     1      -1.955  52.416 -25.481  1.00  0.00     0.122 C 
HETATM    2  C6  UNL     1      -3.390  52.322 -24.962  1.00  0.00     0.033 C 
HETATM    3  C7  UNL     1      -3.445  52.092 -23.450  1.00  0.00     0.013 C 
HETATM    4  C8  UNL     1      -2.649  50.843 -22.964  1.00  0.00    -0.026 C 
HETATM    5  C9  UNL     1      -3.306  49.582 -23.585  1.00  0.00     0.016 C 
HETATM    6  C10 UNL     1      -1.187  50.973 -23.491  1.00  0.00     0.071 C 
HETATM    7  C11 UNL     1      -1.115  51.220 -25.006  1.00  0.00     0.045 C 
HETATM    8  C12 UNL     1      -0.396  52.055 -22.750  1.00  0.00     0.161 C 
HETATM    9  O3  UNL     1       0.336  52.867 -23.313  1.00  0.00    -0.292 OA
HETATM   10  C13 UNL     1      -0.456  52.035 -21.270  1.00  0.00    -0.006 C 
HETATM   11  C14 UNL     1      -1.460  51.353 -20.692  1.00  0.00    -0.030 C 
HETATM   12  C15 UNL     1      -2.703  50.795 -21.375  1.00  0.00     0.027 C 
HETATM   13  C16 UNL     1      -3.184  49.457 -20.733  1.00  0.00     0.011 C 
HETATM   14  C17 UNL     1      -3.176  49.436 -19.180  1.00  0.00     0.014 C 
HETATM   15  C18 UNL     1      -1.778  49.802 -18.650  1.00  0.00    -0.002 C 
HETATM   16  C19 UNL     1      -0.783  48.711 -19.134  1.00  0.00     0.019 C 
HETATM   17  C20 UNL     1      -1.621  50.126 -17.112  1.00  0.00     0.034 C 
HETATM   18  C31 UNL     1      -0.395  51.124 -17.062  1.00  0.00     0.016 C 
HETATM   19  C32 UNL     1      -0.103  51.471 -18.533  1.00  0.00     0.026 C 
HETATM   20  C33 UNL     1       0.427  52.826 -18.957  1.00  0.00     0.013 C 
HETATM   21  C34 UNL     1       0.614  52.795 -20.500  1.00  0.00     0.043 C 
HETATM   22  C35 UNL     1      -1.447  51.209 -19.209  1.00  0.00     0.094 C 
ENDROOT
BRANCH  17  23
HETATM   23  C21 UNL     1      -1.681  48.998 -16.019  1.00  0.00     0.087 C 
HETATM   24  C22 UNL     1      -1.490  49.499 -14.582  1.00  0.00     0.049 C 
BRANCH  23  25
HETATM   25  O4  UNL     1      -0.584  48.100 -16.287  1.00  0.00    -0.387 OA
HETATM   26  H33 UNL     1      -0.597  47.889 -17.237  1.00  0.00     0.210 HD
ENDBRANCH  23  25
BRANCH  23  27
HETATM   27  C23 UNL     1      -3.037  48.196 -16.173  1.00  0.00     0.181 C 
BRANCH  27  28
HETATM   28  O5  UNL     1      -3.765  48.197 -14.938  1.00  0.00    -0.390 OA
HETATM   29  H35 UNL     1      -3.334  47.503 -14.399  1.00  0.00     0.210 HD
ENDBRANCH  27  28
BRANCH  27  30
HETATM   30  C24 UNL     1      -2.908  46.730 -16.679  1.00  0.00     0.158 C 
HETATM   31  O6  UNL     1      -2.397  45.902 -15.602  1.00  0.00    -0.375 OA
HETATM   32  C25 UNL     1      -3.292  44.799 -15.342  1.00  0.00     0.149 C 
HETATM   33  C27 UNL     1      -4.628  45.216 -15.954  1.00  0.00     0.019 C 
HETATM   34  C28 UNL     1      -5.586  44.072 -16.262  1.00  0.00     0.013 C 
HETATM   35  C29 UNL     1      -4.205  46.043 -17.159  1.00  0.00     0.019 C 
HETATM   36  C30 UNL     1      -5.300  46.951 -17.706  1.00  0.00     0.013 C 
BRANCH  32  37
HETATM   37  C26 UNL     1      -2.641  43.502 -15.854  1.00  0.00     0.196 C 
BRANCH  37  38
HETATM   38  O7  UNL     1      -1.462  43.757 -16.615  1.00  0.00    -0.398 OA
HETATM   39  H40 UNL     1      -0.823  44.139 -15.983  1.00  0.00     0.209 HD
ENDBRANCH  37  38
ENDBRANCH  32  37
ENDBRANCH  27  30
ENDBRANCH  23  27
ENDBRANCH  17  23
BRANCH  22  40
HETATM   40  O8  UNL     1      -2.416  52.164 -18.728  1.00  0.00    -0.384 OA
HETATM   41  H56 UNL     1      -2.397  52.941 -19.319  1.00  0.00     0.211 HD
ENDBRANCH  22  40
BRANCH   1  42
HETATM   42  O2  UNL     1      -1.927  52.374 -26.912  1.00  0.00    -0.386 OA
BRANCH  42  43
HETATM   43  C4  UNL     1      -1.792  51.078 -27.487  1.00  0.00     0.170 C 
BRANCH  43  44
HETATM   44  C3  UNL     1      -3.113  50.601 -28.087  1.00  0.00     0.052 C 
BRANCH  44  45
HETATM   45  C2  UNL     1      -3.626  49.291 -27.489  1.00  0.00     0.169 C 
BRANCH  45  46
HETATM   46  O1  UNL     1      -4.127  48.407 -28.494  1.00  0.00    -0.396 OA
HETATM   47  C1  UNL     1      -5.414  47.883 -28.191  1.00  0.00     0.201 C 
ENDBRANCH  45  46
ENDBRANCH  44  45
ENDBRANCH  43  44
ENDBRANCH  42  43
ENDBRANCH   1  42
TORSDOF 13
ENDMDL
MODEL 5
REMARK minimizedAffinity -8.85719681
REMARK CNNscore 0.596402884
REMARK CNNaffinity 6.98646545
REMARK  13 active torsions:
REMARK  status: ('A' for Active; 'I' for Inactive)
REMARK    1  A    between atoms: O1_2  and  C2_3 
REMARK    2  A    between atoms: C2_3  and  C3_4 
REMARK    3  A    between atoms: C3_4  and  C4_5 
REMARK    4  A    between atoms: C4_5  and  O2_6 
REMARK    5  A    between atoms: O2_6  and  C5_7 
REMARK    6  A    between atoms: C20_23  and  C21_24 
REMARK    7  A    between atoms: C21_24  and  O4_26 
REMARK    8  A    between atoms: C21_24  and  C23_27 
REMARK    9  A    between atoms: C23_27  and  O5_28 
REMARK   10  A    between atoms: C23_27  and  C24_29 
REMARK   11  A    between atoms: C25_31  and  C26_32 
REMARK   12  A    between atoms: C26_32  and  O7_33 
REMARK   13  A    between atoms: C35_42  and  O8_43 
ROOT
HETATM    1  C5  UNL     1      -2.029  52.222 -25.762  1.00  0.00     0.122 C 
HETATM    2  C6  UNL     1      -3.479  52.219 -25.274  1.00  0.00     0.033 C 
HETATM    3  C7  UNL     1      -3.577  52.043 -23.757  1.00  0.00     0.013 C 
HETATM    4  C8  UNL     1      -2.858  50.771 -23.213  1.00  0.00    -0.026 C 
HETATM    5  C9  UNL     1      -3.566  49.525 -23.809  1.00  0.00     0.016 C 
HETATM    6  C10 UNL     1      -1.381  50.808 -23.710  1.00  0.00     0.071 C 
HETATM    7  C11 UNL     1      -1.263  51.001 -25.231  1.00  0.00     0.045 C 
HETATM    8  C12 UNL     1      -0.550  51.872 -22.987  1.00  0.00     0.161 C 
HETATM    9  O3  UNL     1       0.234  52.627 -23.558  1.00  0.00    -0.292 OA
HETATM   10  C13 UNL     1      -0.643  51.904 -21.508  1.00  0.00    -0.006 C 
HETATM   11  C14 UNL     1      -1.693  51.295 -20.932  1.00  0.00    -0.030 C 
HETATM   12  C15 UNL     1      -2.949  50.779 -21.625  1.00  0.00     0.027 C 
HETATM   13  C16 UNL     1      -3.512  49.489 -20.952  1.00  0.00     0.011 C 
HETATM   14  C17 UNL     1      -3.539  49.520 -19.399  1.00  0.00     0.014 C 
HETATM   15  C18 UNL     1      -2.135  49.831 -18.850  1.00  0.00    -0.002 C 
HETATM   16  C19 UNL     1      -1.189  48.674 -19.275  1.00  0.00     0.019 C 
HETATM   17  C20 UNL     1      -1.994  50.197 -17.319  1.00  0.00     0.034 C 
HETATM   18  C31 UNL     1      -0.720  51.131 -17.273  1.00  0.00     0.016 C 
HETATM   19  C32 UNL     1      -0.379  51.414 -18.747  1.00  0.00     0.026 C 
HETATM   20  C33 UNL     1       0.230  52.725 -19.202  1.00  0.00     0.013 C 
HETATM   21  C34 UNL     1       0.448  52.634 -20.738  1.00  0.00     0.043 C 
HETATM   22  C35 UNL     1      -1.719  51.199 -19.445  1.00  0.00     0.094 C 
ENDROOT
BRANCH  17  23
HETATM   23  C21 UNL     1      -2.136  49.110 -16.192  1.00  0.00     0.087 C 
HETATM   24  C22 UNL     1      -2.727  47.777 -16.670  1.00  0.00     0.049 C 
BRANCH  23  25
HETATM   25  O4  UNL     1      -3.060  49.640 -15.218  1.00  0.00    -0.387 OA
HETATM   26  H33 UNL     1      -2.787  50.551 -15.014  1.00  0.00     0.210 HD
ENDBRANCH  23  25
BRANCH  23  27
HETATM   27  C23 UNL     1      -0.732  48.900 -15.492  1.00  0.00     0.181 C 
BRANCH  27  28
HETATM   28  O5  UNL     1      -0.356  47.517 -15.525  1.00  0.00    -0.390 OA
HETATM   29  H35 UNL     1      -0.861  47.108 -14.794  1.00  0.00     0.210 HD
ENDBRANCH  27  28
BRANCH  27  30
HETATM   30  C24 UNL     1      -0.615  49.417 -14.029  1.00  0.00     0.158 C 
HETATM   31  O6  UNL     1      -0.953  48.338 -13.118  1.00  0.00    -0.375 OA
HETATM   32  C25 UNL     1       0.125  48.105 -12.186  1.00  0.00     0.149 C 
HETATM   33  C27 UNL     1       1.356  48.739 -12.832  1.00  0.00     0.019 C 
HETATM   34  C28 UNL     1       2.491  49.077 -11.873  1.00  0.00     0.013 C 
HETATM   35  C29 UNL     1       0.771  49.929 -13.580  1.00  0.00     0.019 C 
HETATM   36  C30 UNL     1       1.680  50.488 -14.668  1.00  0.00     0.013 C 
BRANCH  32  37
HETATM   37  C26 UNL     1      -0.301  48.618 -10.799  1.00  0.00     0.196 C 
BRANCH  37  38
HETATM   38  O7  UNL     1      -1.700  48.887 -10.732  1.00  0.00    -0.398 OA
HETATM   39  H40 UNL     1      -2.137  48.019 -10.837  1.00  0.00     0.209 HD
ENDBRANCH  37  38
ENDBRANCH  32  37
ENDBRANCH  27  30
ENDBRANCH  23  27
ENDBRANCH  17  23
BRANCH  22  40
HETATM   40  O8  UNL     1      -2.648  52.218 -19.017  1.00  0.00    -0.384 OA
HETATM   41  H56 UNL     1      -2.575  52.973 -19.632  1.00  0.00     0.211 HD
ENDBRANCH  22  40
BRANCH   1  42
HETATM   42  O2  UNL     1      -1.973  52.131 -27.190  1.00  0.00    -0.386 OA
BRANCH  42  43
HETATM   43  C4  UNL     1      -0.838  51.454 -27.720  1.00  0.00     0.170 C 
BRANCH  43  44
HETATM   44  C3  UNL     1       0.228  52.445 -28.183  1.00  0.00     0.052 C 
BRANCH  44  45
HETATM   45  C2  UNL     1       1.650  51.884 -28.145  1.00  0.00     0.169 C 
BRANCH  45  46
HETATM   46  O1  UNL     1       2.323  52.218 -26.930  1.00  0.00    -0.396 OA
HETATM   47  C1  UNL     1       2.561  51.094 -26.091  1.00  0.00     0.201 C 
ENDBRANCH  45  46
ENDBRANCH  44  45
ENDBRANCH  43  44
ENDBRANCH  42  43
ENDBRANCH   1  42
TORSDOF 13
ENDMDL
MODEL 6
REMARK minimizedAffinity -7.87188578
REMARK CNNscore 0.562143683
REMARK CNNaffinity 6.98361778
REMARK  13 active torsions:
REMARK  status: ('A' for Active; 'I' for Inactive)
REMARK    1  A    between atoms: O1_2  and  C2_3 
REMARK    2  A    between atoms: C2_3  and  C3_4 
REMARK    3  A    between atoms: C3_4  and  C4_5 
REMARK    4  A    between atoms: C4_5  and  O2_6 
REMARK    5  A    between atoms: O2_6  and  C5_7 
REMARK    6  A    between atoms: C20_23  and  C21_24 
REMARK    7  A    between atoms: C21_24  and  O4_26 
REMARK    8  A    between atoms: C21_24  and  C23_27 
REMARK    9  A    between atoms: C23_27  and  O5_28 
REMARK   10  A    between atoms: C23_27  and  C24_29 
REMARK   11  A    between atoms: C25_31  and  C26_32 
REMARK   12  A    between atoms: C26_32  and  O7_33 
REMARK   13  A    between atoms: C35_42  and  O8_43 
ROOT
HETATM    1  C5  UNL     1      -7.578  45.226 -16.775  1.00  0.00     0.122 C 
HETATM    2  C6  UNL     1      -8.636  45.397 -17.866  1.00  0.00     0.033 C 
HETATM    3  C7  UNL     1      -8.077  46.089 -19.111  1.00  0.00     0.013 C 
HETATM    4  C8  UNL     1      -7.414  47.472 -18.829  1.00  0.00    -0.026 C 
HETATM    5  C9  UNL     1      -8.509  48.432 -18.293  1.00  0.00     0.016 C 
HETATM    6  C10 UNL     1      -6.329  47.266 -17.727  1.00  0.00     0.071 C 
HETATM    7  C11 UNL     1      -6.870  46.557 -16.476  1.00  0.00     0.045 C 
HETATM    8  C12 UNL     1      -5.099  46.522 -18.255  1.00  0.00     0.161 C 
HETATM    9  O3  UNL     1      -4.537  45.616 -17.641  1.00  0.00    -0.292 OA
HETATM   10  C13 UNL     1      -4.516  47.006 -19.529  1.00  0.00    -0.006 C 
HETATM   11  C14 UNL     1      -5.285  47.776 -20.317  1.00  0.00    -0.030 C 
HETATM   12  C15 UNL     1      -6.785  48.017 -20.184  1.00  0.00     0.027 C 
HETATM   13  C16 UNL     1      -7.195  49.460 -20.613  1.00  0.00     0.011 C 
HETATM   14  C17 UNL     1      -6.522  49.971 -21.917  1.00  0.00     0.014 C 
HETATM   15  C18 UNL     1      -4.990  49.873 -21.798  1.00  0.00    -0.002 C 
HETATM   16  C19 UNL     1      -4.539  50.810 -20.643  1.00  0.00     0.019 C 
HETATM   17  C20 UNL     1      -4.124  50.062 -23.105  1.00  0.00     0.034 C 
HETATM   18  C31 UNL     1      -2.826  49.204 -22.823  1.00  0.00     0.016 C 
HETATM   19  C32 UNL     1      -3.136  48.426 -21.531  1.00  0.00     0.026 C 
HETATM   20  C33 UNL     1      -2.585  47.039 -21.267  1.00  0.00     0.013 C 
HETATM   21  C34 UNL     1      -3.092  46.591 -19.867  1.00  0.00     0.043 C 
HETATM   22  C35 UNL     1      -4.662  48.383 -21.527  1.00  0.00     0.094 C 
ENDROOT
BRANCH  17  23
HETATM   23  C21 UNL     1      -3.928  51.473 -23.770  1.00  0.00     0.087 C 
HETATM   24  C22 UNL     1      -4.385  52.651 -22.901  1.00  0.00     0.049 C 
BRANCH  23  25
HETATM   25  O4  UNL     1      -4.754  51.493 -24.953  1.00  0.00    -0.387 OA
HETATM   26  H33 UNL     1      -4.588  50.670 -25.446  1.00  0.00     0.210 HD
ENDBRANCH  23  25
BRANCH  23  27
HETATM   27  C23 UNL     1      -2.415  51.635 -24.210  1.00  0.00     0.181 C 
BRANCH  27  28
HETATM   28  O5  UNL     1      -1.689  52.402 -23.241  1.00  0.00    -0.390 OA
HETATM   29  H35 UNL     1      -1.920  53.332 -23.440  1.00  0.00     0.210 HD
ENDBRANCH  27  28
BRANCH  27  30
HETATM   30  C24 UNL     1      -2.177  52.252 -25.619  1.00  0.00     0.158 C 
HETATM   31  O6  UNL     1      -1.298  53.400 -25.489  1.00  0.00    -0.375 OA
HETATM   32  C25 UNL     1      -0.135  53.246 -26.332  1.00  0.00     0.149 C 
HETATM   33  C27 UNL     1      -0.059  51.751 -26.638  1.00  0.00     0.019 C 
HETATM   34  C28 UNL     1       0.748  51.382 -27.877  1.00  0.00     0.013 C 
HETATM   35  C29 UNL     1      -1.523  51.338 -26.677  1.00  0.00     0.019 C 
HETATM   36  C30 UNL     1      -1.751  49.839 -26.524  1.00  0.00     0.013 C 
BRANCH  32  37
HETATM   37  C26 UNL     1      -0.255  54.216 -27.521  1.00  0.00     0.196 C 
BRANCH  37  38
HETATM   38  O7  UNL     1      -1.579  54.261 -28.047  1.00  0.00    -0.398 OA
HETATM   39  H40 UNL     1      -2.128  54.647 -27.336  1.00  0.00     0.209 HD
ENDBRANCH  37  38
ENDBRANCH  32  37
ENDBRANCH  27  30
ENDBRANCH  23  27
ENDBRANCH  17  23
BRANCH  22  40
HETATM   40  O8  UNL     1      -5.118  47.575 -22.632  1.00  0.00    -0.384 OA
HETATM   41  H56 UNL     1      -5.203  46.654 -22.321  1.00  0.00     0.211 HD
ENDBRANCH  22  40
BRANCH   1  42
HETATM   42  O2  UNL     1      -8.180  44.814 -15.543  1.00  0.00    -0.386 OA
BRANCH  42  43
HETATM   43  C4  UNL     1      -9.556  44.454 -15.621  1.00  0.00     0.170 C 
BRANCH  43  44
HETATM   44  C3  UNL     1     -10.456  45.667 -15.399  1.00  0.00     0.052 C 
BRANCH  44  45
HETATM   45  C2  UNL     1     -11.934  45.401 -15.686  1.00  0.00     0.169 C 
BRANCH  45  46
HETATM   46  O1  UNL     1     -12.631  46.595 -16.043  1.00  0.00    -0.396 OA
HETATM   47  C1  UNL     1     -12.046  47.281 -17.143  1.00  0.00     0.201 C 
ENDBRANCH  45  46
ENDBRANCH  44  45
ENDBRANCH  43  44
ENDBRANCH  42  43
ENDBRANCH   1  42
TORSDOF 13
ENDMDL
MODEL 7
REMARK minimizedAffinity -7.33091307
REMARK CNNscore 0.522333324
REMARK CNNaffinity 6.89641809
REMARK  13 active torsions:
REMARK  status: ('A' for Active; 'I' for Inactive)
REMARK    1  A    between atoms: O1_2  and  C2_3 
REMARK    2  A    between atoms: C2_3  and  C3_4 
REMARK    3  A    between atoms: C3_4  and  C4_5 
REMARK    4  A    between atoms: C4_5  and  O2_6 
REMARK    5  A    between atoms: O2_6  and  C5_7 
REMARK    6  A    between atoms: C20_23  and  C21_24 
REMARK    7  A    between atoms: C21_24  and  O4_26 
REMARK    8  A    between atoms: C21_24  and  C23_27 
REMARK    9  A    between atoms: C23_27  and  O5_28 
REMARK   10  A    between atoms: C23_27  and  C24_29 
REMARK   11  A    between atoms: C25_31  and  C26_32 
REMARK   12  A    between atoms: C26_32  and  O7_33 
REMARK   13  A    between atoms: C35_42  and  O8_43 
ROOT
HETATM    1  C5  UNL     1      -6.585  49.276 -23.854  1.00  0.00     0.122 C 
HETATM    2  C6  UNL     1      -7.437  49.722 -22.665  1.00  0.00     0.033 C 
HETATM    3  C7  UNL     1      -6.584  50.125 -21.461  1.00  0.00     0.013 C 
HETATM    4  C8  UNL     1      -5.589  49.022 -20.985  1.00  0.00    -0.026 C 
HETATM    5  C9  UNL     1      -6.418  47.803 -20.500  1.00  0.00     0.016 C 
HETATM    6  C10 UNL     1      -4.723  48.599 -22.211  1.00  0.00     0.071 C 
HETATM    7  C11 UNL     1      -5.565  48.207 -23.435  1.00  0.00     0.045 C 
HETATM    8  C12 UNL     1      -3.706  49.675 -22.603  1.00  0.00     0.161 C 
HETATM    9  O3  UNL     1      -3.487  50.012 -23.765  1.00  0.00    -0.292 OA
HETATM   10  C13 UNL     1      -2.886  50.254 -21.513  1.00  0.00    -0.006 C 
HETATM   11  C14 UNL     1      -3.323  50.102 -20.251  1.00  0.00    -0.030 C 
HETATM   12  C15 UNL     1      -4.700  49.618 -19.808  1.00  0.00     0.027 C 
HETATM   13  C16 UNL     1      -4.641  48.787 -18.489  1.00  0.00     0.011 C 
HETATM   14  C17 UNL     1      -3.724  49.378 -17.383  1.00  0.00     0.014 C 
HETATM   15  C18 UNL     1      -2.303  49.595 -17.932  1.00  0.00    -0.002 C 
HETATM   16  C19 UNL     1      -1.724  48.207 -18.322  1.00  0.00     0.019 C 
HETATM   17  C20 UNL     1      -1.291  50.453 -17.074  1.00  0.00     0.034 C 
HETATM   18  C31 UNL     1      -0.323  51.084 -18.154  1.00  0.00     0.016 C 
HETATM   19  C32 UNL     1      -0.968  50.748 -19.510  1.00  0.00     0.026 C 
HETATM   20  C33 UNL     1      -0.859  51.669 -20.710  1.00  0.00     0.013 C 
HETATM   21  C34 UNL     1      -1.610  50.991 -21.891  1.00  0.00     0.043 C 
HETATM   22  C35 UNL     1      -2.436  50.554 -19.142  1.00  0.00     0.094 C 
ENDROOT
BRANCH  17  23
HETATM   23  C21 UNL     1      -0.640  49.892 -15.758  1.00  0.00     0.087 C 
HETATM   24  C22 UNL     1       0.778  49.336 -15.942  1.00  0.00     0.049 C 
BRANCH  23  25
HETATM   25  O4  UNL     1      -1.460  48.787 -15.327  1.00  0.00    -0.387 OA
HETATM   26  H33 UNL     1      -2.388  49.077 -15.351  1.00  0.00     0.210 HD
ENDBRANCH  23  25
BRANCH  23  27
HETATM   27  C23 UNL     1      -0.677  51.013 -14.640  1.00  0.00     0.181 C 
BRANCH  27  28
HETATM   28  O5  UNL     1       0.653  51.379 -14.250  1.00  0.00    -0.390 OA
HETATM   29  H35 UNL     1       0.931  50.673 -13.633  1.00  0.00     0.210 HD
ENDBRANCH  27  28
BRANCH  27  30
HETATM   30  C24 UNL     1      -1.500  50.675 -13.363  1.00  0.00     0.158 C 
HETATM   31  O6  UNL     1      -0.737  51.070 -12.192  1.00  0.00    -0.375 OA
HETATM   32  C25 UNL     1      -1.503  51.979 -11.372  1.00  0.00     0.149 C 
HETATM   33  C27 UNL     1      -2.588  52.532 -12.294  1.00  0.00     0.019 C 
HETATM   34  C28 UNL     1      -3.808  53.110 -11.588  1.00  0.00     0.013 C 
HETATM   35  C29 UNL     1      -2.876  51.359 -13.220  1.00  0.00     0.019 C 
HETATM   36  C30 UNL     1      -3.587  51.745 -14.512  1.00  0.00     0.013 C 
BRANCH  32  37
HETATM   37  C26 UNL     1      -1.952  51.239 -10.100  1.00  0.00     0.196 C 
BRANCH  37  38
HETATM   38  O7  UNL     1      -3.166  51.767  -9.571  1.00  0.00    -0.398 OA
HETATM   39  H40 UNL     1      -3.848  51.573 -10.243  1.00  0.00     0.209 HD
ENDBRANCH  37  38
ENDBRANCH  32  37
ENDBRANCH  27  30
ENDBRANCH  23  27
ENDBRANCH  17  23
BRANCH  22  40
HETATM   40  O8  UNL     1      -2.989  51.814 -18.706  1.00  0.00    -0.384 OA
HETATM   41  H56 UNL     1      -3.360  52.268 -19.486  1.00  0.00     0.211 HD
ENDBRANCH  22  40
BRANCH   1  42
HETATM   42  O2  UNL     1      -7.399  48.670 -24.864  1.00  0.00    -0.386 OA
BRANCH  42  43
HETATM   43  C4  UNL     1      -7.280  47.255 -24.984  1.00  0.00     0.170 C 
BRANCH  43  44
HETATM   44  C3  UNL     1      -7.688  46.784 -26.378  1.00  0.00     0.052 C 
BRANCH  44  45
HETATM   45  C2  UNL     1      -9.191  46.553 -26.536  1.00  0.00     0.169 C 
BRANCH  45  46
HETATM   46  O1  UNL     1      -9.656  46.942 -27.830  1.00  0.00    -0.396 OA
HETATM   47  C1  UNL     1      -9.058  46.204 -28.888  1.00  0.00     0.201 C 
ENDBRANCH  45  46
ENDBRANCH  44  45
ENDBRANCH  43  44
ENDBRANCH  42  43
ENDBRANCH   1  42
TORSDOF 13
ENDMDL
MODEL 8
REMARK minimizedAffinity -8.57795143
REMARK CNNscore 0.510885894
REMARK CNNaffinity 6.8094945
REMARK  13 active torsions:
REMARK  status: ('A' for Active; 'I' for Inactive)
REMARK    1  A    between atoms: O1_2  and  C2_3 
REMARK    2  A    between atoms: C2_3  and  C3_4 
REMARK    3  A    between atoms: C3_4  and  C4_5 
REMARK    4  A    between atoms: C4_5  and  O2_6 
REMARK    5  A    between atoms: O2_6  and  C5_7 
REMARK    6  A    between atoms: C20_23  and  C21_24 
REMARK    7  A    between atoms: C21_24  and  O4_26 
REMARK    8  A    between atoms: C21_24  and  C23_27 
REMARK    9  A    between atoms: C23_27  and  O5_28 
REMARK   10  A    between atoms: C23_27  and  C24_29 
REMARK   11  A    between atoms: C25_31  and  C26_32 
REMARK   12  A    between atoms: C26_32  and  O7_33 
REMARK   13  A    between atoms: C35_42  and  O8_43 
ROOT
HETATM    1  C5  UNL     1      -1.180  52.074 -24.350  1.00  0.00     0.122 C 
HETATM    2  C6  UNL     1      -2.080  52.129 -25.585  1.00  0.00     0.033 C 
HETATM    3  C7  UNL     1      -3.465  51.534 -25.318  1.00  0.00     0.013 C 
HETATM    4  C8  UNL     1      -3.438  50.072 -24.777  1.00  0.00    -0.026 C 
HETATM    5  C9  UNL     1      -2.815  49.164 -25.870  1.00  0.00     0.016 C 
HETATM    6  C10 UNL     1      -2.529  50.048 -23.510  1.00  0.00     0.071 C 
HETATM    7  C11 UNL     1      -1.139  50.658 -23.756  1.00  0.00     0.045 C 
HETATM    8  C12 UNL     1      -3.189  50.729 -22.307  1.00  0.00     0.161 C 
HETATM    9  O3  UNL     1      -2.598  51.502 -21.555  1.00  0.00    -0.292 OA
HETATM   10  C13 UNL     1      -4.585  50.342 -21.999  1.00  0.00    -0.006 C 
HETATM   11  C14 UNL     1      -5.298  49.742 -22.968  1.00  0.00    -0.030 C 
HETATM   12  C15 UNL     1      -4.929  49.629 -24.443  1.00  0.00     0.027 C 
HETATM   13  C16 UNL     1      -5.417  48.289 -25.078  1.00  0.00     0.011 C 
HETATM   14  C17 UNL     1      -6.861  47.870 -24.688  1.00  0.00     0.014 C 
HETATM   15  C18 UNL     1      -7.003  47.810 -23.157  1.00  0.00    -0.002 C 
HETATM   16  C19 UNL     1      -6.041  46.708 -22.631  1.00  0.00     0.019 C 
HETATM   17  C20 UNL     1      -8.454  47.691 -22.543  1.00  0.00     0.034 C 
HETATM   18  C31 UNL     1      -8.321  48.386 -21.129  1.00  0.00     0.016 C 
HETATM   19  C32 UNL     1      -6.926  49.036 -21.134  1.00  0.00     0.026 C 
HETATM   20  C33 UNL     1      -6.630  50.326 -20.395  1.00  0.00     0.013 C 
HETATM   21  C34 UNL     1      -5.126  50.657 -20.613  1.00  0.00     0.043 C 
HETATM   22  C35 UNL     1      -6.651  49.221 -22.624  1.00  0.00     0.094 C 
ENDROOT
BRANCH  17  23
HETATM   23  C21 UNL     1      -9.276  46.353 -22.618  1.00  0.00     0.087 C 
HETATM   24  C22 UNL     1      -9.998  45.981 -21.316  1.00  0.00     0.049 C 
BRANCH  23  25
HETATM   25  O4  UNL     1      -8.329  45.297 -22.876  1.00  0.00    -0.387 OA
HETATM   26  H33 UNL     1      -7.756  45.583 -23.609  1.00  0.00     0.210 HD
ENDBRANCH  23  25
BRANCH  23  27
HETATM   27  C23 UNL     1     -10.288  46.432 -23.834  1.00  0.00     0.181 C 
BRANCH  27  28
HETATM   28  O5  UNL     1     -10.216  47.716 -24.466  1.00  0.00    -0.390 OA
HETATM   29  H35 UNL     1     -10.751  48.302 -23.892  1.00  0.00     0.210 HD
ENDBRANCH  27  28
BRANCH  27  30
HETATM   30  C24 UNL     1     -11.775  46.115 -23.505  1.00  0.00     0.158 C 
HETATM   31  O6  UNL     1     -12.619  47.130 -24.112  1.00  0.00    -0.375 OA
HETATM   32  C25 UNL     1     -13.601  46.521 -24.977  1.00  0.00     0.149 C 
HETATM   33  C27 UNL     1     -13.055  45.128 -25.284  1.00  0.00     0.019 C 
HETATM   34  C28 UNL     1     -14.091  44.112 -25.749  1.00  0.00     0.013 C 
HETATM   35  C29 UNL     1     -12.325  44.760 -24.000  1.00  0.00     0.019 C 
HETATM   36  C30 UNL     1     -11.316  43.629 -24.160  1.00  0.00     0.013 C 
BRANCH  32  37
HETATM   37  C26 UNL     1     -14.981  46.618 -24.304  1.00  0.00     0.196 C 
BRANCH  37  38
HETATM   38  O7  UNL     1     -15.364  47.969 -24.054  1.00  0.00    -0.398 OA
HETATM   39  H40 UNL     1     -15.472  48.376 -24.936  1.00  0.00     0.209 HD
ENDBRANCH  37  38
ENDBRANCH  32  37
ENDBRANCH  27  30
ENDBRANCH  23  27
ENDBRANCH  17  23
BRANCH  22  40
HETATM   40  O8  UNL     1      -7.576  50.189 -23.162  1.00  0.00    -0.384 OA
HETATM   41  H56 UNL     1      -7.168  51.073 -23.091  1.00  0.00     0.211 HD
ENDBRANCH  22  40
BRANCH   1  42
HETATM   42  O2  UNL     1       0.173  52.397 -24.692  1.00  0.00    -0.386 OA
BRANCH  42  43
HETATM   43  C4  UNL     1       0.706  53.558 -24.061  1.00  0.00     0.170 C 
BRANCH  43  44
HETATM   44  C3  UNL     1       0.822  53.360 -22.551  1.00  0.00     0.052 C 
BRANCH  44  45
HETATM   45  C2  UNL     1       1.572  54.485 -21.837  1.00  0.00     0.169 C 
BRANCH  45  46
HETATM   46  O1  UNL     1       1.598  54.293 -20.421  1.00  0.00    -0.396 OA
HETATM   47  C1  UNL     1       0.446  53.623 -19.923  1.00  0.00     0.201 C 
ENDBRANCH  45  46
ENDBRANCH  44  45
ENDBRANCH  43  44
ENDBRANCH  42  43
ENDBRANCH   1  42
TORSDOF 13
ENDMDL
MODEL 9
REMARK minimizedAffinity -8.46695805
REMARK CNNscore 0.499554157
REMARK CNNaffinity 6.74930191
REMARK  13 active torsions:
REMARK  status: ('A' for Active; 'I' for Inactive)
REMARK    1  A    between atoms: O1_2  and  C2_3 
REMARK    2  A    between atoms: C2_3  and  C3_4 
REMARK    3  A    between atoms: C3_4  and  C4_5 
REMARK    4  A    between atoms: C4_5  and  O2_6 
REMARK    5  A    between atoms: O2_6  and  C5_7 
REMARK    6  A    between atoms: C20_23  and  C21_24 
REMARK    7  A    between atoms: C21_24  and  O4_26 
REMARK    8  A    between atoms: C21_24  and  C23_27 
REMARK    9  A    between atoms: C23_27  and  O5_28 
REMARK   10  A    between atoms: C23_27  and  C24_29 
REMARK   11  A    between atoms: C25_31  and  C26_32 
REMARK   12  A    between atoms: C26_32  and  O7_33 
REMARK   13  A    between atoms: C35_42  and  O8_43 
ROOT
HETATM    1  C5  UNL     1      -2.741  51.922 -25.485  1.00  0.00     0.122 C 
HETATM    2  C6  UNL     1      -4.088  51.955 -24.762  1.00  0.00     0.033 C 
HETATM    3  C7  UNL     1      -3.931  51.877 -23.242  1.00  0.00     0.013 C 
HETATM    4  C8  UNL     1      -3.120  50.641 -22.746  1.00  0.00    -0.026 C 
HETATM    5  C9  UNL     1      -3.907  49.361 -23.134  1.00  0.00     0.016 C 
HETATM    6  C10 UNL     1      -1.746  50.643 -23.485  1.00  0.00     0.071 C 
HETATM    7  C11 UNL     1      -1.886  50.737 -25.012  1.00  0.00     0.045 C 
HETATM    8  C12 UNL     1      -0.815  51.749 -22.980  1.00  0.00     0.161 C 
HETATM    9  O3  UNL     1      -0.144  52.464 -23.721  1.00  0.00    -0.292 OA
HETATM   10  C13 UNL     1      -0.660  51.877 -21.511  1.00  0.00    -0.006 C 
HETATM   11  C14 UNL     1      -1.593  51.308 -20.730  1.00  0.00    -0.030 C 
HETATM   12  C15 UNL     1      -2.943  50.752 -21.169  1.00  0.00     0.027 C 
HETATM   13  C16 UNL     1      -3.375  49.509 -20.330  1.00  0.00     0.011 C 
HETATM   14  C17 UNL     1      -3.142  49.640 -18.799  1.00  0.00     0.014 C 
HETATM   15  C18 UNL     1      -1.669  49.982 -18.514  1.00  0.00    -0.002 C 
HETATM   16  C19 UNL     1      -0.797  48.798 -19.017  1.00  0.00     0.019 C 
HETATM   17  C20 UNL     1      -1.277  50.446 -17.055  1.00  0.00     0.034 C 
HETATM   18  C31 UNL     1      -0.020  51.379 -17.283  1.00  0.00     0.016 C 
HETATM   19  C32 UNL     1       0.066  51.565 -18.808  1.00  0.00     0.026 C 
HETATM   20  C33 UNL     1       0.580  52.843 -19.441  1.00  0.00     0.013 C 
HETATM   21  C34 UNL     1       0.538  52.652 -20.984  1.00  0.00     0.043 C 
HETATM   22  C35 UNL     1      -1.370  51.309 -19.257  1.00  0.00     0.094 C 
ENDROOT
BRANCH  17  23
HETATM   23  C21 UNL     1      -1.219  49.435 -15.853  1.00  0.00     0.087 C 
HETATM   24  C22 UNL     1      -0.563  49.996 -14.585  1.00  0.00     0.049 C 
BRANCH  23  25
HETATM   25  O4  UNL     1      -0.400  48.327 -16.280  1.00  0.00    -0.387 OA
HETATM   26  H33 UNL     1      -0.706  48.052 -17.162  1.00  0.00     0.210 HD
ENDBRANCH  23  25
BRANCH  23  27
HETATM   27  C23 UNL     1      -2.678  48.896 -15.556  1.00  0.00     0.181 C 
BRANCH  27  28
HETATM   28  O5  UNL     1      -3.387  49.806 -14.705  1.00  0.00    -0.390 OA
HETATM   29  H35 UNL     1      -3.055  49.610 -13.805  1.00  0.00     0.210 HD
ENDBRANCH  27  28
BRANCH  27  30
HETATM   30  C24 UNL     1      -2.766  47.466 -14.947  1.00  0.00     0.158 C 
HETATM   31  O6  UNL     1      -1.598  46.707 -15.356  1.00  0.00    -0.375 OA
HETATM   32  C25 UNL     1      -0.895  46.197 -14.202  1.00  0.00     0.149 C 
HETATM   33  C27 UNL     1      -1.372  47.056 -13.032  1.00  0.00     0.019 C 
HETATM   34  C28 UNL     1      -1.186  46.436 -11.653  1.00  0.00     0.013 C 
HETATM   35  C29 UNL     1      -2.814  47.368 -13.407  1.00  0.00     0.019 C 
HETATM   36  C30 UNL     1      -3.408  48.558 -12.662  1.00  0.00     0.013 C 
BRANCH  32  37
HETATM   37  C26 UNL     1      -1.122  44.678 -14.116  1.00  0.00     0.196 C 
BRANCH  37  38
HETATM   38  O7  UNL     1      -0.742  44.009 -15.316  1.00  0.00    -0.398 OA
HETATM   39  H40 UNL     1       0.225  44.127 -15.384  1.00  0.00     0.209 HD
ENDBRANCH  37  38
ENDBRANCH  32  37
ENDBRANCH  27  30
ENDBRANCH  23  27
ENDBRANCH  17  23
BRANCH  22  40
HETATM   40  O8  UNL     1      -2.222  52.355 -18.746  1.00  0.00    -0.384 OA
HETATM   41  H56 UNL     1      -2.260  53.068 -19.411  1.00  0.00     0.211 HD
ENDBRANCH  22  40
BRANCH   1  42
HETATM   42  O2  UNL     1      -2.924  51.741 -26.893  1.00  0.00    -0.386 OA
BRANCH  42  43
HETATM   43  C4  UNL     1      -1.729  51.656 -27.663  1.00  0.00     0.170 C 
BRANCH  43  44
HETATM   44  C3  UNL     1      -0.941  52.962 -27.603  1.00  0.00     0.052 C 
BRANCH  44  45
HETATM   45  C2  UNL     1       0.575  52.773 -27.668  1.00  0.00     0.169 C 
BRANCH  45  46
HETATM   46  O1  UNL     1       1.031  51.800 -26.726  1.00  0.00    -0.396 OA
HETATM   47  C1  UNL     1       2.433  51.567 -26.792  1.00  0.00     0.201 C 
ENDBRANCH  45  46
ENDBRANCH  44  45
ENDBRANCH  43  44
ENDBRANCH  42  43
ENDBRANCH   1  42
TORSDOF 13
ENDMDL
