MODEL 1
REMARK minimizedAffinity -8.76480293
REMARK  6 active torsions:
REMARK  status: ('A' for Active; 'I' for Inactive)
REMARK    1  A    between atoms: C10_10  and  O1_12 
REMARK    2  A    between atoms: C12_13  and  C14_15 
REMARK    3  A    between atoms: C14_15  and  O2_16 
REMARK    4  A    between atoms: C15_17  and  C16_18 
REMARK    5  A    between atoms: C16_18  and  C17_19 
REMARK    6  A    between atoms: C21_25  and  O5_26 
ROOT
HETATM    1  C1  UNL     1      -8.956   6.226  11.620  1.00  0.00     0.015 C 
HETATM    2  C2  UNL     1      -8.433   5.701  12.741  1.00  0.00    -0.084 C 
HETATM    3  C3  UNL     1      -7.551   4.469  12.688  1.00  0.00     0.034 C 
HETATM    4  C4  UNL     1      -6.274   4.631  13.536  1.00  0.00     0.010 C 
HETATM    5  C5  UNL     1      -5.969   6.124  13.793  1.00  0.00     0.008 C 
HETATM    6  C6  UNL     1      -7.118   6.765  14.676  1.00  0.00    -0.032 C 
HETATM    7  C7  UNL     1      -7.076   6.344  16.168  1.00  0.00     0.016 C 
HETATM    8  C8  UNL     1      -6.933   8.300  14.592  1.00  0.00     0.013 C 
HETATM    9  C9  UNL     1      -5.522   8.769  14.974  1.00  0.00     0.039 C 
HETATM   10  C10 UNL     1      -4.397   8.114  14.144  1.00  0.00     0.064 C 
HETATM   11  C11 UNL     1      -3.052   8.683  14.629  1.00  0.00     0.046 C 
HETATM   12  C12 UNL     1      -4.482   6.530  14.153  1.00  0.00     0.012 C 
HETATM   13  C13 UNL     1      -3.551   5.953  13.041  1.00  0.00     0.021 C 
HETATM   14  C15 UNL     1      -8.551   6.276  14.151  1.00  0.00     0.025 C 
ENDROOT
BRANCH  14  15
HETATM   15  C16 UNL     1      -9.697   7.294  14.394  1.00  0.00     0.037 C 
BRANCH  15  16
HETATM   16  C17 UNL     1     -11.061   6.646  14.484  1.00  0.00    -0.010 C 
HETATM   17  C18 UNL     1     -12.209   7.082  13.940  1.00  0.00     0.044 C 
HETATM   18  C19 UNL     1     -12.416   8.302  13.123  1.00  0.00     0.291 C 
HETATM   19  C21 UNL     1     -13.521   6.396  14.028  1.00  0.00     0.181 C 
HETATM   20  O3  UNL     1     -11.639   9.229  12.988  1.00  0.00    -0.260 OA
HETATM   21  O4  UNL     1     -13.646   8.225  12.543  1.00  0.00    -0.315 OA
HETATM   22  C20 UNL     1     -14.230   6.945  12.809  1.00  0.00     0.215 C 
BRANCH  19  23
HETATM   23  O5  UNL     1     -14.192   6.789  15.220  1.00  0.00    -0.389 OA
HETATM   24  H32 UNL     1     -13.559   6.716  15.956  1.00  0.00     0.210 HD
ENDBRANCH  19  23
ENDBRANCH  15  16
ENDBRANCH  14  15
BRANCH  12  25
HETATM   25  C14 UNL     1      -3.944   5.956  15.490  1.00  0.00     0.176 C 
BRANCH  25  26
HETATM   26  O2  UNL     1      -3.304   6.947  16.279  1.00  0.00    -0.400 OA
HETATM   27  H24 UNL     1      -2.945   6.503  17.067  1.00  0.00     0.209 HD
ENDBRANCH  25  26
ENDBRANCH  12  25
BRANCH  10  28
HETATM   28  O1  UNL     1      -4.585   8.604  12.803  1.00  0.00    -0.389 OA
HETATM   29  H18 UNL     1      -3.790   8.396  12.284  1.00  0.00     0.210 HD
ENDBRANCH  10  28
TORSDOF 6
ENDMDL
MODEL 2
REMARK minimizedAffinity -8.29112911
REMARK  6 active torsions:
REMARK  status: ('A' for Active; 'I' for Inactive)
REMARK    1  A    between atoms: C10_10  and  O1_12 
REMARK    2  A    between atoms: C12_13  and  C14_15 
REMARK    3  A    between atoms: C14_15  and  O2_16 
REMARK    4  A    between atoms: C15_17  and  C16_18 
REMARK    5  A    between atoms: C16_18  and  C17_19 
REMARK    6  A    between atoms: C21_25  and  O5_26 
ROOT
HETATM    1  C1  UNL     1       0.092   4.467  12.398  1.00  0.00     0.015 C 
HETATM    2  C2  UNL     1      -0.807   5.394  12.029  1.00  0.00    -0.084 C 
HETATM    3  C3  UNL     1      -2.286   5.063  11.964  1.00  0.00     0.034 C 
HETATM    4  C4  UNL     1      -3.153   6.144  12.640  1.00  0.00     0.010 C 
HETATM    5  C5  UNL     1      -2.314   6.989  13.624  1.00  0.00     0.008 C 
HETATM    6  C6  UNL     1      -1.209   7.803  12.831  1.00  0.00    -0.032 C 
HETATM    7  C7  UNL     1      -1.768   9.010  12.034  1.00  0.00     0.016 C 
HETATM    8  C8  UNL     1      -0.208   8.330  13.888  1.00  0.00     0.013 C 
HETATM    9  C9  UNL     1      -0.874   9.126  15.019  1.00  0.00     0.039 C 
HETATM   10  C10 UNL     1      -1.979   8.351  15.766  1.00  0.00     0.064 C 
HETATM   11  C11 UNL     1      -2.543   9.265  16.868  1.00  0.00     0.046 C 
HETATM   12  C12 UNL     1      -3.073   7.757  14.782  1.00  0.00     0.012 C 
HETATM   13  C13 UNL     1      -3.950   6.716  15.546  1.00  0.00     0.021 C 
HETATM   14  C15 UNL     1      -0.523   6.864  11.728  1.00  0.00     0.025 C 
ENDROOT
BRANCH  14  15
HETATM   15  C16 UNL     1       0.949   7.237  11.406  1.00  0.00     0.037 C 
BRANCH  15  16
HETATM   16  C17 UNL     1       1.117   7.880  10.047  1.00  0.00    -0.010 C 
HETATM   17  C18 UNL     1       1.712   7.356   8.963  1.00  0.00     0.044 C 
HETATM   18  C19 UNL     1       2.348   6.022   8.839  1.00  0.00     0.291 C 
HETATM   19  C21 UNL     1       1.827   8.013   7.639  1.00  0.00     0.181 C 
HETATM   20  O3  UNL     1       2.636   5.264   9.746  1.00  0.00    -0.260 OA
HETATM   21  O4  UNL     1       2.575   5.778   7.518  1.00  0.00    -0.315 OA
HETATM   22  C20 UNL     1       1.992   6.819   6.724  1.00  0.00     0.215 C 
BRANCH  19  23
HETATM   23  O5  UNL     1       2.988   8.836   7.607  1.00  0.00    -0.389 OA
HETATM   24  H32 UNL     1       2.991   9.378   8.417  1.00  0.00     0.210 HD
ENDBRANCH  19  23
ENDBRANCH  15  16
ENDBRANCH  14  15
BRANCH  12  25
HETATM   25  C14 UNL     1      -4.051   8.865  14.311  1.00  0.00     0.176 C 
BRANCH  25  26
HETATM   26  O2  UNL     1      -5.206   8.330  13.684  1.00  0.00    -0.400 OA
HETATM   27  H24 UNL     1      -5.738   9.079  13.367  1.00  0.00     0.209 HD
ENDBRANCH  25  26
ENDBRANCH  12  25
BRANCH  10  28
HETATM   28  O1  UNL     1      -1.296   7.277  16.440  1.00  0.00    -0.389 OA
HETATM   29  H18 UNL     1      -1.903   6.884  17.089  1.00  0.00     0.210 HD
ENDBRANCH  10  28
TORSDOF 6
ENDMDL
MODEL 3
REMARK minimizedAffinity -8.18592072
REMARK  6 active torsions:
REMARK  status: ('A' for Active; 'I' for Inactive)
REMARK    1  A    between atoms: C10_10  and  O1_12 
REMARK    2  A    between atoms: C12_13  and  C14_15 
REMARK    3  A    between atoms: C14_15  and  O2_16 
REMARK    4  A    between atoms: C15_17  and  C16_18 
REMARK    5  A    between atoms: C16_18  and  C17_19 
REMARK    6  A    between atoms: C21_25  and  O5_26 
ROOT
HETATM    1  C1  UNL     1       3.487   8.797  12.357  1.00  0.00     0.015 C 
HETATM    2  C2  UNL     1       2.882   7.889  13.141  1.00  0.00    -0.084 C 
HETATM    3  C3  UNL     1       2.819   8.077  14.645  1.00  0.00     0.034 C 
HETATM    4  C4  UNL     1       1.407   7.813  15.205  1.00  0.00     0.010 C 
HETATM    5  C5  UNL     1       0.342   7.930  14.092  1.00  0.00     0.008 C 
HETATM    6  C6  UNL     1       0.562   6.792  13.012  1.00  0.00    -0.032 C 
HETATM    7  C7  UNL     1       0.128   5.381  13.488  1.00  0.00     0.016 C 
HETATM    8  C8  UNL     1      -0.293   7.182  11.781  1.00  0.00     0.013 C 
HETATM    9  C9  UNL     1      -1.768   7.443  12.117  1.00  0.00     0.039 C 
HETATM   10  C10 UNL     1      -1.984   8.521  13.199  1.00  0.00     0.064 C 
HETATM   11  C11 UNL     1      -3.498   8.679  13.422  1.00  0.00     0.046 C 
HETATM   12  C12 UNL     1      -1.153   8.230  14.519  1.00  0.00     0.012 C 
HETATM   13  C13 UNL     1      -1.142   9.506  15.419  1.00  0.00     0.021 C 
HETATM   14  C15 UNL     1       2.122   6.650  12.675  1.00  0.00     0.025 C 
ENDROOT
BRANCH  14  15
HETATM   15  C16 UNL     1       2.416   6.155  11.233  1.00  0.00     0.037 C 
BRANCH  15  16
HETATM   16  C17 UNL     1       2.136   7.199  10.175  1.00  0.00    -0.010 C 
HETATM   17  C18 UNL     1       2.277   7.072   8.845  1.00  0.00     0.044 C 
HETATM   18  C19 UNL     1       2.741   5.880   8.095  1.00  0.00     0.291 C 
HETATM   19  C21 UNL     1       1.960   8.116   7.841  1.00  0.00     0.181 C 
HETATM   20  O3  UNL     1       3.280   4.892   8.558  1.00  0.00    -0.260 OA
HETATM   21  O4  UNL     1       2.472   6.074   6.774  1.00  0.00    -0.315 OA
HETATM   22  C20 UNL     1       1.716   7.279   6.604  1.00  0.00     0.215 C 
BRANCH  19  23
HETATM   23  O5  UNL     1       3.087   8.967   7.658  1.00  0.00    -0.389 OA
HETATM   24  H32 UNL     1       3.410   9.227   8.539  1.00  0.00     0.210 HD
ENDBRANCH  19  23
ENDBRANCH  15  16
ENDBRANCH  14  15
BRANCH  12  25
HETATM   25  C14 UNL     1      -1.834   7.125  15.367  1.00  0.00     0.176 C 
BRANCH  25  26
HETATM   26  O2  UNL     1      -2.266   7.607  16.630  1.00  0.00    -0.400 OA
HETATM   27  H24 UNL     1      -2.626   6.849  17.122  1.00  0.00     0.209 HD
ENDBRANCH  25  26
ENDBRANCH  12  25
BRANCH  10  28
HETATM   28  O1  UNL     1      -1.532   9.751  12.600  1.00  0.00    -0.389 OA
HETATM   29  H18 UNL     1      -1.835  10.492  13.150  1.00  0.00     0.210 HD
ENDBRANCH  10  28
TORSDOF 6
ENDMDL
MODEL 4
REMARK minimizedAffinity -8.18515873
REMARK  6 active torsions:
REMARK  status: ('A' for Active; 'I' for Inactive)
REMARK    1  A    between atoms: C10_10  and  O1_12 
REMARK    2  A    between atoms: C12_13  and  C14_15 
REMARK    3  A    between atoms: C14_15  and  O2_16 
REMARK    4  A    between atoms: C15_17  and  C16_18 
REMARK    5  A    between atoms: C16_18  and  C17_19 
REMARK    6  A    between atoms: C21_25  and  O5_26 
ROOT
HETATM    1  C1  UNL     1       0.245   7.916  10.218  1.00  0.00     0.015 C 
HETATM    2  C2  UNL     1       0.480   7.739  11.529  1.00  0.00    -0.084 C 
HETATM    3  C3  UNL     1       1.017   8.870  12.384  1.00  0.00     0.034 C 
HETATM    4  C4  UNL     1       0.245   9.012  13.711  1.00  0.00     0.010 C 
HETATM    5  C5  UNL     1      -1.145   8.345  13.614  1.00  0.00     0.008 C 
HETATM    6  C6  UNL     1      -0.981   6.782  13.414  1.00  0.00    -0.032 C 
HETATM    7  C7  UNL     1      -0.540   6.026  14.695  1.00  0.00     0.016 C 
HETATM    8  C8  UNL     1      -2.367   6.246  12.978  1.00  0.00     0.013 C 
HETATM    9  C9  UNL     1      -3.503   6.634  13.935  1.00  0.00     0.039 C 
HETATM   10  C10 UNL     1      -3.638   8.154  14.165  1.00  0.00     0.064 C 
HETATM   11  C11 UNL     1      -4.814   8.389  15.130  1.00  0.00     0.046 C 
HETATM   12  C12 UNL     1      -2.272   8.822  14.619  1.00  0.00     0.012 C 
HETATM   13  C13 UNL     1      -2.387  10.374  14.499  1.00  0.00     0.021 C 
HETATM   14  C15 UNL     1       0.173   6.484  12.343  1.00  0.00     0.025 C 
ENDROOT
BRANCH  14  15
HETATM   15  C16 UNL     1      -0.026   5.168  11.546  1.00  0.00     0.037 C 
BRANCH  15  16
HETATM   16  C17 UNL     1      -1.481   4.836  11.298  1.00  0.00    -0.010 C 
HETATM   17  C18 UNL     1      -2.029   3.617  11.162  1.00  0.00     0.044 C 
HETATM   18  C19 UNL     1      -1.340   2.305  11.222  1.00  0.00     0.291 C 
HETATM   19  C21 UNL     1      -3.469   3.337  10.950  1.00  0.00     0.181 C 
HETATM   20  O3  UNL     1      -0.139   2.109  11.184  1.00  0.00    -0.260 OA
HETATM   21  O4  UNL     1      -2.285   1.329  11.318  1.00  0.00    -0.315 OA
HETATM   22  C20 UNL     1      -3.581   1.920  11.472  1.00  0.00     0.215 C 
BRANCH  19  23
HETATM   23  O5  UNL     1      -3.771   3.386   9.559  1.00  0.00    -0.389 OA
HETATM   24  H32 UNL     1      -3.379   4.201   9.198  1.00  0.00     0.210 HD
ENDBRANCH  19  23
ENDBRANCH  15  16
ENDBRANCH  14  15
BRANCH  12  25
HETATM   25  C14 UNL     1      -1.989   8.537  16.116  1.00  0.00     0.176 C 
BRANCH  25  26
HETATM   26  O2  UNL     1      -2.640   7.361  16.571  1.00  0.00    -0.400 OA
HETATM   27  H24 UNL     1      -2.465   7.281  17.524  1.00  0.00     0.209 HD
ENDBRANCH  25  26
ENDBRANCH  12  25
BRANCH  10  28
HETATM   28  O1  UNL     1      -4.045   8.692  12.893  1.00  0.00    -0.389 OA
HETATM   29  H18 UNL     1      -4.347   9.606  13.026  1.00  0.00     0.210 HD
ENDBRANCH  10  28
TORSDOF 6
ENDMDL
MODEL 5
REMARK minimizedAffinity -8.04238605
REMARK  6 active torsions:
REMARK  status: ('A' for Active; 'I' for Inactive)
REMARK    1  A    between atoms: C10_10  and  O1_12 
REMARK    2  A    between atoms: C12_13  and  C14_15 
REMARK    3  A    between atoms: C14_15  and  O2_16 
REMARK    4  A    between atoms: C15_17  and  C16_18 
REMARK    5  A    between atoms: C16_18  and  C17_19 
REMARK    6  A    between atoms: C21_25  and  O5_26 
ROOT
HETATM    1  C1  UNL     1      -3.325   3.763  10.527  1.00  0.00     0.015 C 
HETATM    2  C2  UNL     1      -2.549   3.849  11.620  1.00  0.00    -0.084 C 
HETATM    3  C3  UNL     1      -1.282   3.023  11.743  1.00  0.00     0.034 C 
HETATM    4  C4  UNL     1      -0.085   3.865  12.229  1.00  0.00     0.010 C 
HETATM    5  C5  UNL     1      -0.332   5.370  11.980  1.00  0.00     0.008 C 
HETATM    6  C6  UNL     1      -1.553   5.869  12.858  1.00  0.00    -0.032 C 
HETATM    7  C7  UNL     1      -1.225   6.018  14.366  1.00  0.00     0.016 C 
HETATM    8  C8  UNL     1      -1.956   7.257  12.301  1.00  0.00     0.013 C 
HETATM    9  C9  UNL     1      -0.789   8.253  12.236  1.00  0.00     0.039 C 
HETATM   10  C10 UNL     1       0.419   7.752  11.417  1.00  0.00     0.064 C 
HETATM   11  C11 UNL     1       1.496   8.851  11.433  1.00  0.00     0.046 C 
HETATM   12  C12 UNL     1       0.927   6.327  11.897  1.00  0.00     0.012 C 
HETATM   13  C13 UNL     1       1.902   5.736  10.830  1.00  0.00     0.021 C 
HETATM   14  C15 UNL     1      -2.744   4.799  12.799  1.00  0.00     0.025 C 
ENDROOT
BRANCH  14  15
HETATM   15  C16 UNL     1      -4.159   5.415  12.970  1.00  0.00     0.037 C 
BRANCH  15  16
HETATM   16  C17 UNL     1      -5.260   4.380  13.000  1.00  0.00    -0.010 C 
HETATM   17  C18 UNL     1      -6.581   4.595  13.116  1.00  0.00     0.044 C 
HETATM   18  C19 UNL     1      -7.276   5.899  13.244  1.00  0.00     0.291 C 
HETATM   19  C21 UNL     1      -7.630   3.547  13.110  1.00  0.00     0.181 C 
HETATM   20  O3  UNL     1      -6.765   6.977  13.485  1.00  0.00    -0.260 OA
HETATM   21  O4  UNL     1      -8.609   5.694  13.054  1.00  0.00    -0.315 OA
HETATM   22  C20 UNL     1      -8.841   4.337  12.659  1.00  0.00     0.215 C 
BRANCH  19  23
HETATM   23  O5  UNL     1      -7.819   3.045  14.429  1.00  0.00    -0.389 OA
HETATM   24  H32 UNL     1      -6.941   2.847  14.800  1.00  0.00     0.210 HD
ENDBRANCH  19  23
ENDBRANCH  15  16
ENDBRANCH  14  15
BRANCH  12  25
HETATM   25  C14 UNL     1       1.755   6.447  13.202  1.00  0.00     0.176 C 
BRANCH  25  26
HETATM   26  O2  UNL     1       1.354   5.502  14.181  1.00  0.00    -0.400 OA
HETATM   27  H24 UNL     1       1.874   5.677  14.984  1.00  0.00     0.209 HD
ENDBRANCH  25  26
ENDBRANCH  12  25
BRANCH  10  28
HETATM   28  O1  UNL     1      -0.055   7.669  10.060  1.00  0.00    -0.389 OA
HETATM   29  H18 UNL     1       0.711   7.562   9.471  1.00  0.00     0.210 HD
ENDBRANCH  10  28
TORSDOF 6
ENDMDL
MODEL 6
REMARK minimizedAffinity -8.03237247
REMARK  6 active torsions:
REMARK  status: ('A' for Active; 'I' for Inactive)
REMARK    1  A    between atoms: C10_10  and  O1_12 
REMARK    2  A    between atoms: C12_13  and  C14_15 
REMARK    3  A    between atoms: C14_15  and  O2_16 
REMARK    4  A    between atoms: C15_17  and  C16_18 
REMARK    5  A    between atoms: C16_18  and  C17_19 
REMARK    6  A    between atoms: C21_25  and  O5_26 
ROOT
HETATM    1  C1  UNL     1      -1.028   5.265  11.574  1.00  0.00     0.015 C 
HETATM    2  C2  UNL     1      -1.416   5.329  12.858  1.00  0.00    -0.084 C 
HETATM    3  C3  UNL     1      -0.397   5.307  13.982  1.00  0.00     0.034 C 
HETATM    4  C4  UNL     1      -0.673   6.396  15.037  1.00  0.00     0.010 C 
HETATM    5  C5  UNL     1      -1.559   7.518  14.453  1.00  0.00     0.008 C 
HETATM    6  C6  UNL     1      -2.990   6.943  14.092  1.00  0.00    -0.032 C 
HETATM    7  C7  UNL     1      -3.889   6.668  15.326  1.00  0.00     0.016 C 
HETATM    8  C8  UNL     1      -3.682   8.007  13.205  1.00  0.00     0.013 C 
HETATM    9  C9  UNL     1      -3.717   9.405  13.841  1.00  0.00     0.039 C 
HETATM   10  C10 UNL     1      -2.328   9.951  14.233  1.00  0.00     0.064 C 
HETATM   11  C11 UNL     1      -2.519  11.350  14.843  1.00  0.00     0.046 C 
HETATM   12  C12 UNL     1      -1.516   8.940  15.148  1.00  0.00     0.012 C 
HETATM   13  C13 UNL     1      -0.022   9.387  15.220  1.00  0.00     0.021 C 
HETATM   14  C15 UNL     1      -2.843   5.521  13.366  1.00  0.00     0.025 C 
ENDROOT
BRANCH  14  15
HETATM   15  C16 UNL     1      -3.987   5.197  12.369  1.00  0.00     0.037 C 
BRANCH  15  16
HETATM   16  C17 UNL     1      -5.253   4.725  13.047  1.00  0.00    -0.010 C 
HETATM   17  C18 UNL     1      -6.066   3.729  12.657  1.00  0.00     0.044 C 
HETATM   18  C19 UNL     1      -5.918   2.855  11.468  1.00  0.00     0.291 C 
HETATM   19  C21 UNL     1      -7.284   3.279  13.372  1.00  0.00     0.181 C 
HETATM   20  O3  UNL     1      -5.166   3.026  10.527  1.00  0.00    -0.260 OA
HETATM   21  O4  UNL     1      -6.784   1.812  11.593  1.00  0.00    -0.315 OA
HETATM   22  C20 UNL     1      -7.414   1.854  12.879  1.00  0.00     0.215 C 
BRANCH  19  23
HETATM   23  O5  UNL     1      -8.402   4.058  12.959  1.00  0.00    -0.389 OA
HETATM   24  H32 UNL     1      -8.141   4.995  12.994  1.00  0.00     0.210 HD
ENDBRANCH  19  23
ENDBRANCH  15  16
ENDBRANCH  14  15
BRANCH  12  25
HETATM   25  C14 UNL     1      -2.036   8.980  16.609  1.00  0.00     0.176 C 
BRANCH  25  26
HETATM   26  O2  UNL     1      -1.962   7.710  17.239  1.00  0.00    -0.400 OA
HETATM   27  H24 UNL     1      -2.357   7.802  18.123  1.00  0.00     0.209 HD
ENDBRANCH  25  26
ENDBRANCH  12  25
BRANCH  10  28
HETATM   28  O1  UNL     1      -1.633  10.143  12.986  1.00  0.00    -0.389 OA
HETATM   29  H18 UNL     1      -0.839  10.678  13.154  1.00  0.00     0.210 HD
ENDBRANCH  10  28
TORSDOF 6
ENDMDL
MODEL 7
REMARK minimizedAffinity -8.01669598
REMARK  6 active torsions:
REMARK  status: ('A' for Active; 'I' for Inactive)
REMARK    1  A    between atoms: C10_10  and  O1_12 
REMARK    2  A    between atoms: C12_13  and  C14_15 
REMARK    3  A    between atoms: C14_15  and  O2_16 
REMARK    4  A    between atoms: C15_17  and  C16_18 
REMARK    5  A    between atoms: C16_18  and  C17_19 
REMARK    6  A    between atoms: C21_25  and  O5_26 
ROOT
HETATM    1  C1  UNL     1      -4.608   7.057  14.951  1.00  0.00     0.015 C 
HETATM    2  C2  UNL     1      -3.855   7.414  13.897  1.00  0.00    -0.084 C 
HETATM    3  C3  UNL     1      -3.614   8.876  13.570  1.00  0.00     0.034 C 
HETATM    4  C4  UNL     1      -2.130   9.168  13.275  1.00  0.00     0.010 C 
HETATM    5  C5  UNL     1      -1.222   8.067  13.868  1.00  0.00     0.008 C 
HETATM    6  C6  UNL     1      -1.507   6.686  13.146  1.00  0.00    -0.032 C 
HETATM    7  C7  UNL     1      -0.933   6.597  11.708  1.00  0.00     0.016 C 
HETATM    8  C8  UNL     1      -0.840   5.590  14.013  1.00  0.00     0.013 C 
HETATM    9  C9  UNL     1       0.647   5.850  14.291  1.00  0.00     0.039 C 
HETATM   10  C10 UNL     1       0.932   7.213  14.956  1.00  0.00     0.064 C 
HETATM   11  C11 UNL     1       2.450   7.328  15.180  1.00  0.00     0.046 C 
HETATM   12  C12 UNL     1       0.293   8.424  14.154  1.00  0.00     0.012 C 
HETATM   13  C13 UNL     1       0.319   9.708  15.042  1.00  0.00     0.021 C 
HETATM   14  C15 UNL     1      -3.086   6.474  12.972  1.00  0.00     0.025 C 
ENDROOT
BRANCH  14  15
HETATM   15  C16 UNL     1      -3.529   4.986  12.967  1.00  0.00     0.037 C 
BRANCH  15  16
HETATM   16  C17 UNL     1      -4.998   4.801  13.274  1.00  0.00    -0.010 C 
HETATM   17  C18 UNL     1      -5.835   3.893  12.745  1.00  0.00     0.044 C 
HETATM   18  C19 UNL     1      -5.520   2.856  11.732  1.00  0.00     0.291 C 
HETATM   19  C21 UNL     1      -7.265   3.727  13.099  1.00  0.00     0.181 C 
HETATM   20  O3  UNL     1      -4.517   2.786  11.047  1.00  0.00    -0.260 OA
HETATM   21  O4  UNL     1      -6.560   1.978  11.681  1.00  0.00    -0.315 OA
HETATM   22  C20 UNL     1      -7.506   2.284  12.712  1.00  0.00     0.215 C 
BRANCH  19  23
HETATM   23  O5  UNL     1      -8.064   4.600  12.307  1.00  0.00    -0.389 OA
HETATM   24  H32 UNL     1      -7.658   5.485  12.338  1.00  0.00     0.210 HD
ENDBRANCH  19  23
ENDBRANCH  15  16
ENDBRANCH  14  15
BRANCH  12  25
HETATM   25  C14 UNL     1       1.141   8.764  12.901  1.00  0.00     0.176 C 
BRANCH  25  26
HETATM   26  O2  UNL     1       1.785  10.023  13.014  1.00  0.00    -0.400 OA
HETATM   27  H24 UNL     1       2.245  10.191  12.173  1.00  0.00     0.209 HD
ENDBRANCH  25  26
ENDBRANCH  12  25
BRANCH  10  28
HETATM   28  O1  UNL     1       0.335   7.126  16.264  1.00  0.00    -0.389 OA
HETATM   29  H18 UNL     1       0.660   7.868  16.802  1.00  0.00     0.210 HD
ENDBRANCH  10  28
TORSDOF 6
ENDMDL
MODEL 8
REMARK minimizedAffinity -7.91584969
REMARK  6 active torsions:
REMARK  status: ('A' for Active; 'I' for Inactive)
REMARK    1  A    between atoms: C10_10  and  O1_12 
REMARK    2  A    between atoms: C12_13  and  C14_15 
REMARK    3  A    between atoms: C14_15  and  O2_16 
REMARK    4  A    between atoms: C15_17  and  C16_18 
REMARK    5  A    between atoms: C16_18  and  C17_19 
REMARK    6  A    between atoms: C21_25  and  O5_26 
ROOT
HETATM    1  C1  UNL     1      -0.169   3.434  11.969  1.00  0.00     0.015 C 
HETATM    2  C2  UNL     1      -0.865   4.544  11.673  1.00  0.00    -0.084 C 
HETATM    3  C3  UNL     1      -2.373   4.585  11.832  1.00  0.00     0.034 C 
HETATM    4  C4  UNL     1      -2.845   5.862  12.555  1.00  0.00     0.010 C 
HETATM    5  C5  UNL     1      -1.692   6.499  13.362  1.00  0.00     0.008 C 
HETATM    6  C6  UNL     1      -0.555   6.997  12.377  1.00  0.00    -0.032 C 
HETATM    7  C7  UNL     1      -0.920   8.285  11.594  1.00  0.00     0.016 C 
HETATM    8  C8  UNL     1       0.689   7.287  13.252  1.00  0.00     0.013 C 
HETATM    9  C9  UNL     1       0.409   8.250  14.415  1.00  0.00     0.039 C 
HETATM   10  C10 UNL     1      -0.727   7.788  15.352  1.00  0.00     0.064 C 
HETATM   11  C11 UNL     1      -0.885   8.839  16.465  1.00  0.00     0.046 C 
HETATM   12  C12 UNL     1      -2.065   7.458  14.566  1.00  0.00     0.012 C 
HETATM   13  C13 UNL     1      -3.042   6.682  15.504  1.00  0.00     0.021 C 
HETATM   14  C15 UNL     1      -0.285   5.892  11.248  1.00  0.00     0.025 C 
ENDROOT
BRANCH  14  15
HETATM   15  C16 UNL     1       1.169   5.884  10.704  1.00  0.00     0.037 C 
BRANCH  15  16
HETATM   16  C17 UNL     1       2.114   6.739  11.517  1.00  0.00    -0.010 C 
HETATM   17  C18 UNL     1       3.441   6.874  11.352  1.00  0.00     0.044 C 
HETATM   18  C19 UNL     1       4.296   6.217  10.334  1.00  0.00     0.291 C 
HETATM   19  C21 UNL     1       4.326   7.751  12.156  1.00  0.00     0.181 C 
HETATM   20  O3  UNL     1       3.990   5.281   9.619  1.00  0.00    -0.260 OA
HETATM   21  O4  UNL     1       5.511   6.833  10.334  1.00  0.00    -0.315 OA
HETATM   22  C20 UNL     1       5.479   7.973  11.201  1.00  0.00     0.215 C 
BRANCH  19  23
HETATM   23  O5  UNL     1       4.763   7.058  13.321  1.00  0.00    -0.389 OA
HETATM   24  H32 UNL     1       3.982   6.650  13.735  1.00  0.00     0.210 HD
ENDBRANCH  19  23
ENDBRANCH  15  16
ENDBRANCH  14  15
BRANCH  12  25
HETATM   25  C14 UNL     1      -2.807   8.760  14.169  1.00  0.00     0.176 C 
BRANCH  25  26
HETATM   26  O2  UNL     1      -1.972   9.903  14.260  1.00  0.00    -0.400 OA
HETATM   27  H24 UNL     1      -2.519  10.680  14.055  1.00  0.00     0.209 HD
ENDBRANCH  25  26
ENDBRANCH  12  25
BRANCH  10  28
HETATM   28  O1  UNL     1      -0.229   6.596  15.989  1.00  0.00    -0.389 OA
HETATM   29  H18 UNL     1      -0.809   6.380  16.738  1.00  0.00     0.210 HD
ENDBRANCH  10  28
TORSDOF 6
ENDMDL
MODEL 9
REMARK minimizedAffinity -7.86943007
REMARK  6 active torsions:
REMARK  status: ('A' for Active; 'I' for Inactive)
REMARK    1  A    between atoms: C10_10  and  O1_12 
REMARK    2  A    between atoms: C12_13  and  C14_15 
REMARK    3  A    between atoms: C14_15  and  O2_16 
REMARK    4  A    between atoms: C15_17  and  C16_18 
REMARK    5  A    between atoms: C16_18  and  C17_19 
REMARK    6  A    between atoms: C21_25  and  O5_26 
ROOT
HETATM    1  C1  UNL     1      -2.640   8.910  12.211  1.00  0.00     0.015 C 
HETATM    2  C2  UNL     1      -2.818   8.432  13.454  1.00  0.00    -0.084 C 
HETATM    3  C3  UNL     1      -3.469   9.281  14.530  1.00  0.00     0.034 C 
HETATM    4  C4  UNL     1      -4.549   8.503  15.309  1.00  0.00     0.010 C 
HETATM    5  C5  UNL     1      -5.042   7.283  14.499  1.00  0.00     0.008 C 
HETATM    6  C6  UNL     1      -3.860   6.245  14.312  1.00  0.00    -0.032 C 
HETATM    7  C7  UNL     1      -3.516   5.445  15.596  1.00  0.00     0.016 C 
HETATM    8  C8  UNL     1      -4.317   5.249  13.218  1.00  0.00     0.013 C 
HETATM    9  C9  UNL     1      -5.676   4.597  13.512  1.00  0.00     0.039 C 
HETATM   10  C10 UNL     1      -6.821   5.607  13.736  1.00  0.00     0.064 C 
HETATM   11  C11 UNL     1      -8.111   4.814  14.008  1.00  0.00     0.046 C 
HETATM   12  C12 UNL     1      -6.468   6.687  14.843  1.00  0.00     0.012 C 
HETATM   13  C13 UNL     1      -7.499   7.857  14.776  1.00  0.00     0.021 C 
HETATM   14  C15 UNL     1      -2.507   7.016  13.934  1.00  0.00     0.025 C 
ENDROOT
BRANCH  14  15
HETATM   15  C16 UNL     1      -1.526   6.186  13.064  1.00  0.00     0.037 C 
BRANCH  15  16
HETATM   16  C17 UNL     1      -2.191   5.028  12.356  1.00  0.00    -0.010 C 
HETATM   17  C18 UNL     1      -1.593   3.989  11.749  1.00  0.00     0.044 C 
HETATM   18  C19 UNL     1      -0.138   3.730  11.627  1.00  0.00     0.291 C 
HETATM   19  C21 UNL     1      -2.289   2.857  11.091  1.00  0.00     0.181 C 
HETATM   20  O3  UNL     1       0.764   4.513  11.859  1.00  0.00    -0.260 OA
HETATM   21  O4  UNL     1       0.033   2.450  11.194  1.00  0.00    -0.315 OA
HETATM   22  C20 UNL     1      -1.230   1.776  11.153  1.00  0.00     0.215 C 
BRANCH  19  23
HETATM   23  O5  UNL     1      -2.586   3.192   9.739  1.00  0.00    -0.389 OA
HETATM   24  H32 UNL     1      -2.993   4.077   9.735  1.00  0.00     0.210 HD
ENDBRANCH  19  23
ENDBRANCH  15  16
ENDBRANCH  14  15
BRANCH  12  25
HETATM   25  C14 UNL     1      -6.608   6.085  16.266  1.00  0.00     0.176 C 
BRANCH  25  26
HETATM   26  O2  UNL     1      -7.163   7.010  17.187  1.00  0.00    -0.400 OA
HETATM   27  H24 UNL     1      -7.165   6.584  18.061  1.00  0.00     0.209 HD
ENDBRANCH  25  26
ENDBRANCH  12  25
BRANCH  10  28
HETATM   28  O1  UNL     1      -7.005   6.256  12.464  1.00  0.00    -0.389 OA
HETATM   29  H18 UNL     1      -7.843   6.747  12.485  1.00  0.00     0.210 HD
ENDBRANCH  10  28
TORSDOF 6
ENDMDL
