MODEL 1
REMARK minimizedAffinity -8.35227108
REMARK CNNscore 0.603900611
REMARK CNNaffinity 7.04032135
REMARK  6 active torsions:
REMARK  status: ('A' for Active; 'I' for Inactive)
REMARK    1  A    between atoms: C3_3  and  C4_4 
REMARK    2  A    between atoms: C4_4  and  O1_5 
REMARK    3  A    between atoms: C7_9  and  O3_10 
REMARK    4  A    between atoms: C21_24  and  O4_26 
REMARK    5  A    between atoms: C23_27  and  O5_28 
REMARK    6  A    between atoms: C30_36  and  C31_37 
ROOT
HETATM    1  C1  UNL     1      11.399  45.991  -7.471  1.00  0.00     0.013 C 
HETATM    2  C2  UNL     1       9.962  46.492  -7.555  1.00  0.00     0.023 C 
HETATM    3  C3  UNL     1       8.978  45.749  -6.655  1.00  0.00     0.047 C 
HETATM    4  C5  UNL     1       7.620  46.059  -7.298  1.00  0.00     0.160 C 
HETATM    5  O2  UNL     1       7.911  46.084  -8.711  1.00  0.00    -0.373 OA
HETATM    6  C6  UNL     1       9.324  46.274  -8.926  1.00  0.00     0.167 C 
HETATM    7  C7  UNL     1       9.583  47.400  -9.944  1.00  0.00     0.226 C 
HETATM    8  C8  UNL     1       8.605  48.516  -9.904  1.00  0.00    -0.072 C 
HETATM    9  C9  UNL     1       7.806  49.409  -9.954  1.00  0.00    -0.103 C 
HETATM   10  C10 UNL     1       6.974  50.604 -10.153  1.00  0.00     0.099 C 
HETATM   11  C11 UNL     1       5.585  50.752  -9.442  1.00  0.00     0.009 C 
HETATM   12  C12 UNL     1       5.139  52.184  -9.928  1.00  0.00     0.016 C 
HETATM   13  C13 UNL     1       4.414  53.211  -9.001  1.00  0.00     0.027 C 
HETATM   14  C14 UNL     1       4.337  52.848  -7.542  1.00  0.00    -0.030 C 
HETATM   15  C15 UNL     1       4.309  53.739  -6.529  1.00  0.00    -0.006 C 
HETATM   16  C16 UNL     1       4.266  53.362  -5.068  1.00  0.00     0.043 C 
HETATM   17  C17 UNL     1       4.805  51.961  -4.806  1.00  0.00     0.013 C 
HETATM   18  C18 UNL     1       4.187  50.957  -5.782  1.00  0.00     0.026 C 
HETATM   19  C19 UNL     1       4.791  49.535  -5.765  1.00  0.00     0.016 C 
HETATM   20  C20 UNL     1       4.996  49.159  -7.279  1.00  0.00     0.034 C 
HETATM   21  C21 UNL     1       5.565  47.710  -7.486  1.00  0.00     0.087 C 
HETATM   22  C22 UNL     1       5.382  47.244  -8.936  1.00  0.00     0.049 C 
HETATM   23  C23 UNL     1       6.932  47.380  -6.811  1.00  0.00     0.181 C 
HETATM   24  C24 UNL     1       5.450  50.553  -7.893  1.00  0.00     0.003 C 
HETATM   25  C25 UNL     1       6.771  51.102  -7.293  1.00  0.00     0.019 C 
HETATM   26  C26 UNL     1       4.213  51.376  -7.291  1.00  0.00     0.098 C 
HETATM   27  O6  UNL     1       2.867  50.952  -7.622  1.00  0.00    -0.363 OA
HETATM   28  C27 UNL     1       2.317  50.733  -8.896  1.00  0.00     0.263 C 
HETATM   29  C28 UNL     1       1.215  51.690  -9.119  1.00  0.00    -0.080 C 
HETATM   30  C29 UNL     1       0.365  52.523  -9.272  1.00  0.00    -0.093 C 
HETATM   31  C30 UNL     1      -0.649  53.613  -9.359  1.00  0.00     0.121 C 
HETATM   32  C37 UNL     1      -0.208  54.756 -10.314  1.00  0.00     0.190 C 
HETATM   33  O7  UNL     1       0.668  55.734  -9.712  1.00  0.00    -0.384 OA
HETATM   34  C38 UNL     1       2.004  55.286  -9.497  1.00  0.00     0.122 C 
HETATM   35  C39 UNL     1       2.767  55.119 -10.822  1.00  0.00     0.033 C 
HETATM   36  C40 UNL     1       4.296  55.172 -10.659  1.00  0.00     0.013 C 
HETATM   37  C41 UNL     1       4.802  54.723  -9.262  1.00  0.00    -0.026 C 
HETATM   38  C42 UNL     1       6.338  54.922  -9.175  1.00  0.00     0.016 C 
HETATM   39  C43 UNL     1       4.177  55.709  -8.222  1.00  0.00     0.071 C 
HETATM   40  C44 UNL     1       2.759  56.223  -8.560  1.00  0.00     0.045 C 
HETATM   41  C45 UNL     1       4.248  55.204  -6.794  1.00  0.00     0.161 C 
HETATM   42  O8  UNL     1       4.257  56.001  -5.858  1.00  0.00    -0.292 OA
ENDROOT
BRANCH  31  43
HETATM   43  C31 UNL     1      -1.992  53.022  -9.762  1.00  0.00    -0.040 A 
HETATM   44  C32 UNL     1      -2.923  53.762 -10.507  1.00  0.00     0.008 A 
HETATM   45  C33 UNL     1      -4.141  53.195 -10.881  1.00  0.00     0.001 A 
HETATM   46  C34 UNL     1      -4.442  51.882 -10.523  1.00  0.00     0.000 A 
HETATM   47  C35 UNL     1      -3.528  51.143  -9.778  1.00  0.00     0.001 A 
HETATM   48  C36 UNL     1      -2.312  51.705  -9.398  1.00  0.00     0.008 A 
ENDBRANCH  31  43
BRANCH  21  49
HETATM   49  O4  UNL     1       4.628  46.843  -6.749  1.00  0.00    -0.387 OA
HETATM   50  H30 UNL     1       3.754  46.917  -7.166  1.00  0.00     0.210 HD
ENDBRANCH  21  49
BRANCH  23  51
HETATM   51  O5  UNL     1       7.852  48.460  -6.845  1.00  0.00    -0.390 OA
HETATM   52  H32 UNL     1       7.687  48.979  -6.043  1.00  0.00     0.210 HD
ENDBRANCH  23  51
BRANCH   7  53
HETATM   53  O3  UNL     1       9.555  46.844 -11.268  1.00  0.00    -0.381 OA
HETATM   54  H12 UNL     1       9.624  47.605 -11.865  1.00  0.00     0.211 HD
ENDBRANCH   7  53
BRANCH   3  55
HETATM   55  C4  UNL     1       9.068  46.052  -5.168  1.00  0.00     0.172 C 
BRANCH  55  56
HETATM   56  O1  UNL     1      10.396  46.434  -4.853  1.00  0.00    -0.400 OA
HETATM   57  H8  UNL     1      10.528  46.342  -3.898  1.00  0.00     0.209 HD
ENDBRANCH  55  56
ENDBRANCH   3  55
TORSDOF 6
ENDMDL
MODEL 2
REMARK minimizedAffinity -9.14123535
REMARK CNNscore 0.559391737
REMARK CNNaffinity 7.32791138
REMARK  6 active torsions:
REMARK  status: ('A' for Active; 'I' for Inactive)
REMARK    1  A    between atoms: C3_3  and  C4_4 
REMARK    2  A    between atoms: C4_4  and  O1_5 
REMARK    3  A    between atoms: C7_9  and  O3_10 
REMARK    4  A    between atoms: C21_24  and  O4_26 
REMARK    5  A    between atoms: C23_27  and  O5_28 
REMARK    6  A    between atoms: C30_36  and  C31_37 
ROOT
HETATM    1  C1  UNL     1      -2.838  47.724 -14.403  1.00  0.00     0.013 C 
HETATM    2  C2  UNL     1      -2.636  48.615 -13.183  1.00  0.00     0.023 C 
HETATM    3  C3  UNL     1      -3.246  48.072 -11.893  1.00  0.00     0.047 C 
HETATM    4  C5  UNL     1      -3.370  49.325 -11.016  1.00  0.00     0.160 C 
HETATM    5  O2  UNL     1      -3.702  50.367 -11.958  1.00  0.00    -0.373 OA
HETATM    6  C6  UNL     1      -3.344  49.964 -13.294  1.00  0.00     0.167 C 
HETATM    7  C7  UNL     1      -2.530  51.062 -14.004  1.00  0.00     0.226 C 
HETATM    8  C8  UNL     1      -1.634  51.847 -13.119  1.00  0.00    -0.072 C 
HETATM    9  C9  UNL     1      -0.943  52.550 -12.436  1.00  0.00    -0.103 C 
HETATM   10  C10 UNL     1      -0.016  53.493 -11.793  1.00  0.00     0.099 C 
HETATM   11  C11 UNL     1       0.090  53.588 -10.233  1.00  0.00     0.009 C 
HETATM   12  C12 UNL     1       1.224  54.670 -10.065  1.00  0.00     0.016 C 
HETATM   13  C13 UNL     1       2.334  54.579  -8.969  1.00  0.00     0.027 C 
HETATM   14  C14 UNL     1       2.397  53.288  -8.196  1.00  0.00    -0.030 C 
HETATM   15  C15 UNL     1       3.522  52.763  -7.669  1.00  0.00    -0.006 C 
HETATM   16  C16 UNL     1       3.579  51.451  -6.925  1.00  0.00     0.043 C 
HETATM   17  C17 UNL     1       2.426  50.521  -7.283  1.00  0.00     0.013 C 
HETATM   18  C18 UNL     1       1.094  51.274  -7.228  1.00  0.00     0.026 C 
HETATM   19  C19 UNL     1      -0.139  50.510  -7.763  1.00  0.00     0.016 C 
HETATM   20  C20 UNL     1      -0.892  51.540  -8.682  1.00  0.00     0.034 C 
HETATM   21  C21 UNL     1      -2.220  50.967  -9.295  1.00  0.00     0.087 C 
HETATM   22  C22 UNL     1      -3.106  52.092  -9.846  1.00  0.00     0.049 C 
HETATM   23  C23 UNL     1      -2.104  49.677 -10.165  1.00  0.00     0.181 C 
HETATM   24  C24 UNL     1       0.323  52.305  -9.363  1.00  0.00     0.003 C 
HETATM   25  C25 UNL     1       1.239  51.392 -10.220  1.00  0.00     0.019 C 
HETATM   26  C26 UNL     1       1.060  52.646  -7.981  1.00  0.00     0.098 C 
HETATM   27  O6  UNL     1       0.335  53.392  -6.970  1.00  0.00    -0.363 OA
HETATM   28  C27 UNL     1      -0.331  54.620  -7.113  1.00  0.00     0.263 C 
HETATM   29  C28 UNL     1       0.318  55.626  -6.248  1.00  0.00    -0.080 C 
HETATM   30  C29 UNL     1       0.915  56.418  -5.571  1.00  0.00    -0.093 C 
HETATM   31  C30 UNL     1       1.743  57.315  -4.716  1.00  0.00     0.121 C 
HETATM   32  C37 UNL     1       2.622  58.284  -5.554  1.00  0.00     0.190 C 
HETATM   33  O7  UNL     1       3.867  57.715  -6.016  1.00  0.00    -0.384 OA
HETATM   34  C38 UNL     1       3.735  56.779  -7.084  1.00  0.00     0.122 C 
HETATM   35  C39 UNL     1       3.328  57.469  -8.396  1.00  0.00     0.033 C 
HETATM   36  C40 UNL     1       3.686  56.655  -9.652  1.00  0.00     0.013 C 
HETATM   37  C41 UNL     1       3.750  55.122  -9.419  1.00  0.00    -0.026 C 
HETATM   38  C42 UNL     1       4.225  54.417 -10.717  1.00  0.00     0.016 C 
HETATM   39  C43 UNL     1       4.871  54.878  -8.357  1.00  0.00     0.071 C 
HETATM   40  C44 UNL     1       5.015  55.974  -7.278  1.00  0.00     0.045 C 
HETATM   41  C45 UNL     1       4.817  53.498  -7.730  1.00  0.00     0.161 C 
HETATM   42  O8  UNL     1       5.838  52.988  -7.273  1.00  0.00    -0.292 OA
ENDROOT
BRANCH  31  43
HETATM   43  C31 UNL     1       0.841  58.062  -3.744  1.00  0.00    -0.040 A 
HETATM   44  C32 UNL     1       1.362  58.983  -2.823  1.00  0.00     0.008 A 
HETATM   45  C33 UNL     1       0.516  59.670  -1.954  1.00  0.00     0.001 A 
HETATM   46  C34 UNL     1      -0.861  59.452  -1.998  1.00  0.00     0.000 A 
HETATM   47  C35 UNL     1      -1.386  58.536  -2.903  1.00  0.00     0.001 A 
HETATM   48  C36 UNL     1      -0.545  57.844  -3.771  1.00  0.00     0.008 A 
ENDBRANCH  31  43
BRANCH  21  49
HETATM   49  O4  UNL     1      -2.986  50.497  -8.128  1.00  0.00    -0.387 OA
HETATM   50  H30 UNL     1      -3.186  51.264  -7.566  1.00  0.00     0.210 HD
ENDBRANCH  21  49
BRANCH  23  51
HETATM   51  O5  UNL     1      -0.938  49.647 -10.974  1.00  0.00    -0.390 OA
HETATM   52  H32 UNL     1      -0.247  49.234 -10.434  1.00  0.00     0.210 HD
ENDBRANCH  23  51
BRANCH   7  53
HETATM   53  O3  UNL     1      -3.439  51.982 -14.630  1.00  0.00    -0.381 OA
HETATM   54  H12 UNL     1      -2.881  52.697 -14.972  1.00  0.00     0.211 HD
ENDBRANCH   7  53
BRANCH   3  55
HETATM   55  C4  UNL     1      -2.518  46.905 -11.245  1.00  0.00     0.172 C 
BRANCH  55  56
HETATM   56  O1  UNL     1      -3.394  46.263 -10.333  1.00  0.00    -0.400 OA
HETATM   57  H8  UNL     1      -2.867  45.729  -9.721  1.00  0.00     0.209 HD
ENDBRANCH  55  56
ENDBRANCH   3  55
TORSDOF 6
ENDMDL
MODEL 3
REMARK minimizedAffinity -8.74869347
REMARK CNNscore 0.418926626
REMARK CNNaffinity 6.86274099
REMARK  6 active torsions:
REMARK  status: ('A' for Active; 'I' for Inactive)
REMARK    1  A    between atoms: C3_3  and  C4_4 
REMARK    2  A    between atoms: C4_4  and  O1_5 
REMARK    3  A    between atoms: C7_9  and  O3_10 
REMARK    4  A    between atoms: C21_24  and  O4_26 
REMARK    5  A    between atoms: C23_27  and  O5_28 
REMARK    6  A    between atoms: C30_36  and  C31_37 
ROOT
HETATM    1  C1  UNL     1      -7.345  54.704   3.434  1.00  0.00     0.013 C 
HETATM    2  C2  UNL     1      -6.561  54.917   2.145  1.00  0.00     0.023 C 
HETATM    3  C3  UNL     1      -7.423  55.168   0.911  1.00  0.00     0.047 C 
HETATM    4  C5  UNL     1      -6.478  54.823  -0.247  1.00  0.00     0.160 C 
HETATM    5  O2  UNL     1      -5.703  53.718   0.265  1.00  0.00    -0.373 OA
HETATM    6  C6  UNL     1      -5.773  53.685   1.704  1.00  0.00     0.167 C 
HETATM    7  C7  UNL     1      -4.369  53.561   2.324  1.00  0.00     0.226 C 
HETATM    8  C8  UNL     1      -3.291  54.253   1.574  1.00  0.00    -0.072 C 
HETATM    9  C9  UNL     1      -2.377  54.741   0.971  1.00  0.00    -0.103 C 
HETATM   10  C10 UNL     1      -1.133  55.293   0.414  1.00  0.00     0.099 C 
HETATM   11  C11 UNL     1      -1.098  55.927  -1.019  1.00  0.00     0.009 C 
HETATM   12  C12 UNL     1       0.403  56.400  -1.111  1.00  0.00     0.016 C 
HETATM   13  C13 UNL     1       0.832  57.748  -1.774  1.00  0.00     0.027 C 
HETATM   14  C14 UNL     1      -0.284  58.688  -2.147  1.00  0.00    -0.030 C 
HETATM   15  C15 UNL     1      -0.179  60.032  -2.172  1.00  0.00    -0.006 C 
HETATM   16  C16 UNL     1      -1.314  60.966  -2.516  1.00  0.00     0.043 C 
HETATM   17  C17 UNL     1      -2.683  60.335  -2.291  1.00  0.00     0.013 C 
HETATM   18  C18 UNL     1      -2.740  58.940  -2.920  1.00  0.00     0.026 C 
HETATM   19  C19 UNL     1      -3.997  58.102  -2.598  1.00  0.00     0.016 C 
HETATM   20  C20 UNL     1      -3.453  56.673  -2.227  1.00  0.00     0.034 C 
HETATM   21  C21 UNL     1      -4.592  55.640  -1.908  1.00  0.00     0.087 C 
HETATM   22  C22 UNL     1      -4.060  54.201  -1.940  1.00  0.00     0.049 C 
HETATM   23  C23 UNL     1      -5.574  55.999  -0.749  1.00  0.00     0.181 C 
HETATM   24  C24 UNL     1      -2.125  57.036  -1.433  1.00  0.00     0.003 C 
HETATM   25  C25 UNL     1      -2.370  57.867  -0.146  1.00  0.00     0.019 C 
HETATM   26  C26 UNL     1      -1.540  57.994  -2.577  1.00  0.00     0.098 C 
HETATM   27  O6  UNL     1      -1.348  57.452  -3.909  1.00  0.00    -0.363 OA
HETATM   28  C27 UNL     1      -0.640  56.297  -4.279  1.00  0.00     0.263 C 
HETATM   29  C28 UNL     1       0.498  56.682  -5.137  1.00  0.00    -0.080 C 
HETATM   30  C29 UNL     1       1.439  57.051  -5.785  1.00  0.00    -0.093 C 
HETATM   31  C30 UNL     1       2.579  57.626  -6.555  1.00  0.00     0.121 C 
HETATM   32  C37 UNL     1       3.916  57.565  -5.765  1.00  0.00     0.190 C 
HETATM   33  O7  UNL     1       4.109  58.651  -4.832  1.00  0.00    -0.384 OA
HETATM   34  C38 UNL     1       3.313  58.571  -3.652  1.00  0.00     0.122 C 
HETATM   35  C39 UNL     1       3.773  57.429  -2.732  1.00  0.00     0.033 C 
HETATM   36  C40 UNL     1       3.348  57.615  -1.265  1.00  0.00     0.013 C 
HETATM   37  C41 UNL     1       2.061  58.462  -1.078  1.00  0.00    -0.026 C 
HETATM   38  C42 UNL     1       1.792  58.676   0.434  1.00  0.00     0.016 C 
HETATM   39  C43 UNL     1       2.369  59.877  -1.669  1.00  0.00     0.071 C 
HETATM   40  C44 UNL     1       3.307  59.896  -2.897  1.00  0.00     0.045 C 
HETATM   41  C45 UNL     1       1.125  60.708  -1.920  1.00  0.00     0.161 C 
HETATM   42  O8  UNL     1       1.193  61.936  -1.915  1.00  0.00    -0.292 OA
ENDROOT
BRANCH  31  43
HETATM   43  C31 UNL     1       2.682  56.926  -7.902  1.00  0.00    -0.040 A 
HETATM   44  C32 UNL     1       3.805  57.092  -8.728  1.00  0.00     0.008 A 
HETATM   45  C33 UNL     1       3.887  56.428  -9.951  1.00  0.00     0.001 A 
HETATM   46  C34 UNL     1       2.856  55.584 -10.362  1.00  0.00     0.000 A 
HETATM   47  C35 UNL     1       1.736  55.419  -9.553  1.00  0.00     0.001 A 
HETATM   48  C36 UNL     1       1.646  56.084  -8.332  1.00  0.00     0.008 A 
ENDBRANCH  31  43
BRANCH  21  49
HETATM   49  O4  UNL     1      -5.467  55.686  -3.093  1.00  0.00    -0.387 OA
HETATM   50  H30 UNL     1      -4.955  55.386  -3.861  1.00  0.00     0.210 HD
ENDBRANCH  21  49
BRANCH  23  51
HETATM   51  O5  UNL     1      -4.940  56.641   0.347  1.00  0.00    -0.390 OA
HETATM   52  H32 UNL     1      -4.967  57.591   0.154  1.00  0.00     0.210 HD
ENDBRANCH  23  51
BRANCH   7  53
HETATM   53  O3  UNL     1      -4.019  52.170   2.405  1.00  0.00    -0.381 OA
HETATM   54  H12 UNL     1      -3.097  52.158   2.707  1.00  0.00     0.211 HD
ENDBRANCH   7  53
BRANCH   3  55
HETATM   55  C4  UNL     1      -8.080  56.536   0.817  1.00  0.00     0.172 C 
BRANCH  55  56
HETATM   56  O1  UNL     1      -7.674  57.162  -0.389  1.00  0.00    -0.400 OA
HETATM   57  H8  UNL     1      -7.840  58.113  -0.316  1.00  0.00     0.209 HD
ENDBRANCH  55  56
ENDBRANCH   3  55
TORSDOF 6
ENDMDL
MODEL 4
REMARK minimizedAffinity -9.97087097
REMARK CNNscore 0.306172907
REMARK CNNaffinity 7.24737167
REMARK  6 active torsions:
REMARK  status: ('A' for Active; 'I' for Inactive)
REMARK    1  A    between atoms: C3_3  and  C4_4 
REMARK    2  A    between atoms: C4_4  and  O1_5 
REMARK    3  A    between atoms: C7_9  and  O3_10 
REMARK    4  A    between atoms: C21_24  and  O4_26 
REMARK    5  A    between atoms: C23_27  and  O5_28 
REMARK    6  A    between atoms: C30_36  and  C31_37 
ROOT
HETATM    1  C1  UNL     1       0.428  40.643 -14.321  1.00  0.00     0.013 C 
HETATM    2  C2  UNL     1       0.786  42.096 -14.034  1.00  0.00     0.023 C 
HETATM    3  C3  UNL     1       1.981  42.623 -14.823  1.00  0.00     0.047 C 
HETATM    4  C5  UNL     1       2.432  43.836 -13.999  1.00  0.00     0.160 C 
HETATM    5  O2  UNL     1       2.194  43.428 -12.636  1.00  0.00    -0.373 OA
HETATM    6  C6  UNL     1       1.258  42.332 -12.600  1.00  0.00     0.167 C 
HETATM    7  C7  UNL     1       0.130  42.600 -11.586  1.00  0.00     0.226 C 
HETATM    8  C8  UNL     1      -0.272  44.024 -11.460  1.00  0.00    -0.072 C 
HETATM    9  C9  UNL     1      -0.588  45.165 -11.276  1.00  0.00    -0.103 C 
HETATM   10  C10 UNL     1      -1.146  46.480 -10.929  1.00  0.00     0.099 C 
HETATM   11  C11 UNL     1      -0.485  47.803 -11.448  1.00  0.00     0.009 C 
HETATM   12  C12 UNL     1      -1.463  48.890 -10.859  1.00  0.00     0.016 C 
HETATM   13  C13 UNL     1      -1.891  50.169 -11.648  1.00  0.00     0.027 C 
HETATM   14  C14 UNL     1      -1.483  50.221 -13.097  1.00  0.00    -0.030 C 
HETATM   15  C15 UNL     1      -2.172  50.858 -14.065  1.00  0.00    -0.006 C 
HETATM   16  C16 UNL     1      -1.771  50.876 -15.521  1.00  0.00     0.043 C 
HETATM   17  C17 UNL     1      -0.879  49.700 -15.899  1.00  0.00     0.013 C 
HETATM   18  C18 UNL     1       0.257  49.541 -14.886  1.00  0.00     0.026 C 
HETATM   19  C19 UNL     1       1.122  48.269 -15.030  1.00  0.00     0.016 C 
HETATM   20  C20 UNL     1       1.261  47.701 -13.570  1.00  0.00     0.034 C 
HETATM   21  C21 UNL     1       2.158  46.414 -13.489  1.00  0.00     0.087 C 
HETATM   22  C22 UNL     1       2.587  46.127 -12.044  1.00  0.00     0.049 C 
HETATM   23  C23 UNL     1       1.720  45.187 -14.347  1.00  0.00     0.181 C 
HETATM   24  C24 UNL     1      -0.179  48.005 -12.973  1.00  0.00     0.003 C 
HETATM   25  C25 UNL     1      -1.333  47.285 -13.719  1.00  0.00     0.019 C 
HETATM   26  C26 UNL     1      -0.172  49.555 -13.380  1.00  0.00     0.098 C 
HETATM   27  O6  UNL     1       0.902  50.398 -12.891  1.00  0.00    -0.363 OA
HETATM   28  C27 UNL     1       1.331  50.572 -11.565  1.00  0.00     0.263 C 
HETATM   29  C28 UNL     1       1.118  51.978 -11.168  1.00  0.00    -0.080 C 
HETATM   30  C29 UNL     1       0.876  53.117 -10.877  1.00  0.00    -0.093 C 
HETATM   31  C30 UNL     1       0.510  54.540 -10.622  1.00  0.00     0.121 C 
HETATM   32  C37 UNL     1      -0.728  54.674  -9.693  1.00  0.00     0.190 C 
HETATM   33  O7  UNL     1      -1.999  54.558 -10.370  1.00  0.00    -0.384 OA
HETATM   34  C38 UNL     1      -2.341  53.233 -10.772  1.00  0.00     0.122 C 
HETATM   35  C39 UNL     1      -2.672  52.340  -9.564  1.00  0.00     0.033 C 
HETATM   36  C40 UNL     1      -3.540  51.122  -9.922  1.00  0.00     0.013 C 
HETATM   37  C41 UNL     1      -3.381  50.636 -11.388  1.00  0.00    -0.026 C 
HETATM   38  C42 UNL     1      -4.378  49.482 -11.666  1.00  0.00     0.016 C 
HETATM   39  C43 UNL     1      -3.824  51.824 -12.303  1.00  0.00     0.071 C 
HETATM   40  C44 UNL     1      -3.497  53.236 -11.766  1.00  0.00     0.045 C 
HETATM   41  C45 UNL     1      -3.379  51.672 -13.744  1.00  0.00     0.161 C 
HETATM   42  O8  UNL     1      -4.012  52.218 -14.646  1.00  0.00    -0.292 OA
ENDROOT
BRANCH  31  43
HETATM   43  C31 UNL     1       1.719  55.281 -10.069  1.00  0.00    -0.040 A 
HETATM   44  C32 UNL     1       2.792  55.649 -10.896  1.00  0.00     0.008 A 
HETATM   45  C33 UNL     1       3.881  56.343 -10.373  1.00  0.00     0.001 A 
HETATM   46  C34 UNL     1       3.912  56.685  -9.021  1.00  0.00     0.000 A 
HETATM   47  C35 UNL     1       2.856  56.318  -8.193  1.00  0.00     0.001 A 
HETATM   48  C36 UNL     1       1.766  55.621  -8.709  1.00  0.00     0.008 A 
ENDBRANCH  31  43
BRANCH  21  49
HETATM   49  O4  UNL     1       3.425  46.813 -14.127  1.00  0.00    -0.387 OA
HETATM   50  H30 UNL     1       3.821  47.525 -13.598  1.00  0.00     0.210 HD
ENDBRANCH  21  49
BRANCH  23  51
HETATM   51  O5  UNL     1       0.313  45.007 -14.395  1.00  0.00    -0.390 OA
HETATM   52  H32 UNL     1       0.001  45.529 -15.151  1.00  0.00     0.210 HD
ENDBRANCH  23  51
BRANCH   7  53
HETATM   53  O3  UNL     1       0.556  42.152 -10.289  1.00  0.00    -0.381 OA
HETATM   54  H12 UNL     1      -0.145  42.433  -9.680  1.00  0.00     0.211 HD
ENDBRANCH   7  53
BRANCH   3  55
HETATM   55  C4  UNL     1       1.741  42.903 -16.298  1.00  0.00     0.172 C 
BRANCH  55  56
HETATM   56  O1  UNL     1       0.347  43.043 -16.521  1.00  0.00    -0.400 OA
HETATM   57  H8  UNL     1       0.171  42.928 -17.466  1.00  0.00     0.209 HD
ENDBRANCH  55  56
ENDBRANCH   3  55
TORSDOF 6
ENDMDL
MODEL 5
REMARK minimizedAffinity -8.66657352
REMARK CNNscore 0.300894618
REMARK CNNaffinity 6.70084715
REMARK  6 active torsions:
REMARK  status: ('A' for Active; 'I' for Inactive)
REMARK    1  A    between atoms: C3_3  and  C4_4 
REMARK    2  A    between atoms: C4_4  and  O1_5 
REMARK    3  A    between atoms: C7_9  and  O3_10 
REMARK    4  A    between atoms: C21_24  and  O4_26 
REMARK    5  A    between atoms: C23_27  and  O5_28 
REMARK    6  A    between atoms: C30_36  and  C31_37 
ROOT
HETATM    1  C1  UNL     1      -4.123  57.141  -0.664  1.00  0.00     0.013 C 
HETATM    2  C2  UNL     1      -3.243  56.200  -1.479  1.00  0.00     0.023 C 
HETATM    3  C3  UNL     1      -3.930  54.909  -1.917  1.00  0.00     0.047 C 
HETATM    4  C5  UNL     1      -2.750  53.975  -2.217  1.00  0.00     0.160 C 
HETATM    5  O2  UNL     1      -1.769  54.338  -1.222  1.00  0.00    -0.373 OA
HETATM    6  C6  UNL     1      -2.057  55.646  -0.691  1.00  0.00     0.167 C 
HETATM    7  C7  UNL     1      -0.802  56.537  -0.704  1.00  0.00     0.226 C 
HETATM    8  C8  UNL     1       0.120  56.302  -1.843  1.00  0.00    -0.072 C 
HETATM    9  C9  UNL     1       0.927  56.107  -2.708  1.00  0.00    -0.103 C 
HETATM   10  C10 UNL     1       2.016  56.054  -3.694  1.00  0.00     0.099 C 
HETATM   11  C11 UNL     1       2.088  54.909  -4.761  1.00  0.00     0.009 C 
HETATM   12  C12 UNL     1       3.368  55.329  -5.580  1.00  0.00     0.016 C 
HETATM   13  C13 UNL     1       3.467  55.195  -7.134  1.00  0.00     0.027 C 
HETATM   14  C14 UNL     1       2.194  54.830  -7.850  1.00  0.00    -0.030 C 
HETATM   15  C15 UNL     1       1.887  55.206  -9.109  1.00  0.00    -0.006 C 
HETATM   16  C16 UNL     1       0.592  54.863  -9.805  1.00  0.00     0.043 C 
HETATM   17  C17 UNL     1      -0.536  54.554  -8.829  1.00  0.00     0.013 C 
HETATM   18  C18 UNL     1      -0.063  53.570  -7.756  1.00  0.00     0.026 C 
HETATM   19  C19 UNL     1      -1.041  53.323  -6.585  1.00  0.00     0.016 C 
HETATM   20  C20 UNL     1      -0.154  53.407  -5.288  1.00  0.00     0.034 C 
HETATM   21  C21 UNL     1      -0.961  53.132  -3.968  1.00  0.00     0.087 C 
HETATM   22  C22 UNL     1      -0.018  52.836  -2.794  1.00  0.00     0.049 C 
HETATM   23  C23 UNL     1      -2.179  54.061  -3.672  1.00  0.00     0.181 C 
HETATM   24  C24 UNL     1       0.853  54.575  -5.668  1.00  0.00     0.003 C 
HETATM   25  C25 UNL     1       0.162  55.939  -5.933  1.00  0.00     0.019 C 
HETATM   26  C26 UNL     1       1.296  53.925  -7.064  1.00  0.00     0.098 C 
HETATM   27  O6  UNL     1       1.856  52.588  -7.063  1.00  0.00    -0.363 OA
HETATM   28  C27 UNL     1       2.932  52.101  -6.304  1.00  0.00     0.263 C 
HETATM   29  C28 UNL     1       4.022  51.695  -7.214  1.00  0.00    -0.080 C 
HETATM   30  C29 UNL     1       4.898  51.432  -7.992  1.00  0.00    -0.093 C 
HETATM   31  C30 UNL     1       5.917  51.161  -9.045  1.00  0.00     0.121 C 
HETATM   32  C37 UNL     1       7.063  52.211  -9.043  1.00  0.00     0.190 C 
HETATM   33  O7  UNL     1       6.763  53.426  -9.764  1.00  0.00    -0.384 OA
HETATM   34  C38 UNL     1       5.848  54.300  -9.105  1.00  0.00     0.122 C 
HETATM   35  C39 UNL     1       6.480  54.952  -7.864  1.00  0.00     0.033 C 
HETATM   36  C40 UNL     1       5.787  56.258  -7.439  1.00  0.00     0.013 C 
HETATM   37  C41 UNL     1       4.291  56.345  -7.843  1.00  0.00    -0.026 C 
HETATM   38  C42 UNL     1       3.729  57.740  -7.465  1.00  0.00     0.016 C 
HETATM   39  C43 UNL     1       4.244  56.266  -9.404  1.00  0.00     0.071 C 
HETATM   40  C44 UNL     1       5.318  55.367 -10.057  1.00  0.00     0.045 C 
HETATM   41  C45 UNL     1       2.865  55.953  -9.950  1.00  0.00     0.161 C 
HETATM   42  O8  UNL     1       2.553  56.315 -11.083  1.00  0.00    -0.292 OA
ENDROOT
BRANCH  31  43
HETATM   43  C31 UNL     1       6.445  49.743  -8.886  1.00  0.00    -0.040 A 
HETATM   44  C32 UNL     1       7.810  49.489  -8.684  1.00  0.00     0.008 A 
HETATM   45  C33 UNL     1       8.270  48.183  -8.522  1.00  0.00     0.001 A 
HETATM   46  C34 UNL     1       7.374  47.116  -8.551  1.00  0.00     0.000 A 
HETATM   47  C35 UNL     1       6.019  47.357  -8.757  1.00  0.00     0.001 A 
HETATM   48  C36 UNL     1       5.555  48.659  -8.924  1.00  0.00     0.008 A 
ENDBRANCH  31  43
BRANCH  21  49
HETATM   49  O4  UNL     1      -1.604  51.827  -4.200  1.00  0.00    -0.387 OA
HETATM   50  H30 UNL     1      -0.908  51.159  -4.307  1.00  0.00     0.210 HD
ENDBRANCH  21  49
BRANCH  23  51
HETATM   51  O5  UNL     1      -1.957  55.414  -4.039  1.00  0.00    -0.390 OA
HETATM   52  H32 UNL     1      -2.240  55.492  -4.963  1.00  0.00     0.210 HD
ENDBRANCH  23  51
BRANCH   7  53
HETATM   53  O3  UNL     1      -0.063  56.315   0.508  1.00  0.00    -0.381 OA
HETATM   54  H12 UNL     1       0.758  56.821   0.402  1.00  0.00     0.211 HD
ENDBRANCH   7  53
BRANCH   3  55
HETATM   55  C4  UNL     1      -4.948  55.038  -3.039  1.00  0.00     0.172 C 
BRANCH  55  56
HETATM   56  O1  UNL     1      -5.409  53.745  -3.396  1.00  0.00    -0.400 OA
HETATM   57  H8  UNL     1      -5.813  53.792  -4.274  1.00  0.00     0.209 HD
ENDBRANCH  55  56
ENDBRANCH   3  55
TORSDOF 6
ENDMDL
MODEL 6
REMARK minimizedAffinity -10.2334223
REMARK CNNscore 0.258223385
REMARK CNNaffinity 6.46622467
REMARK  6 active torsions:
REMARK  status: ('A' for Active; 'I' for Inactive)
REMARK    1  A    between atoms: C3_3  and  C4_4 
REMARK    2  A    between atoms: C4_4  and  O1_5 
REMARK    3  A    between atoms: C7_9  and  O3_10 
REMARK    4  A    between atoms: C21_24  and  O4_26 
REMARK    5  A    between atoms: C23_27  and  O5_28 
REMARK    6  A    between atoms: C30_36  and  C31_37 
ROOT
HETATM    1  C1  UNL     1     -10.721  37.784 -36.254  1.00  0.00     0.013 C 
HETATM    2  C2  UNL     1     -10.025  38.876 -35.450  1.00  0.00     0.023 C 
HETATM    3  C3  UNL     1      -9.031  39.716 -36.249  1.00  0.00     0.047 C 
HETATM    4  C5  UNL     1      -8.139  40.324 -35.158  1.00  0.00     0.160 C 
HETATM    5  O2  UNL     1      -8.047  39.275 -34.172  1.00  0.00    -0.373 OA
HETATM    6  C6  UNL     1      -9.123  38.332 -34.344  1.00  0.00     0.167 C 
HETATM    7  C7  UNL     1      -9.837  38.056 -33.008  1.00  0.00     0.226 C 
HETATM    8  C8  UNL     1      -9.906  39.217 -32.085  1.00  0.00    -0.072 C 
HETATM    9  C9  UNL     1      -9.932  40.104 -31.280  1.00  0.00    -0.103 C 
HETATM   10  C10 UNL     1     -10.104  41.061 -30.177  1.00  0.00     0.099 C 
HETATM   11  C11 UNL     1      -9.383  42.452 -30.190  1.00  0.00     0.009 C 
HETATM   12  C12 UNL     1      -9.923  43.094 -28.856  1.00  0.00     0.016 C 
HETATM   13  C13 UNL     1     -10.309  44.603 -28.731  1.00  0.00     0.027 C 
HETATM   14  C14 UNL     1     -10.335  45.388 -30.016  1.00  0.00    -0.030 C 
HETATM   15  C15 UNL     1     -11.140  46.444 -30.254  1.00  0.00    -0.006 C 
HETATM   16  C16 UNL     1     -11.181  47.203 -31.558  1.00  0.00     0.043 C 
HETATM   17  C17 UNL     1     -10.678  46.377 -32.735  1.00  0.00     0.013 C 
HETATM   18  C18 UNL     1      -9.349  45.702 -32.387  1.00  0.00     0.026 C 
HETATM   19  C19 UNL     1      -8.822  44.673 -33.413  1.00  0.00     0.016 C 
HETATM   20  C20 UNL     1      -8.377  43.432 -32.555  1.00  0.00     0.034 C 
HETATM   21  C21 UNL     1      -7.757  42.274 -33.417  1.00  0.00     0.087 C 
HETATM   22  C22 UNL     1      -6.992  41.276 -32.537  1.00  0.00     0.049 C 
HETATM   23  C23 UNL     1      -8.650  41.671 -34.545  1.00  0.00     0.181 C 
HETATM   24  C24 UNL     1      -9.498  43.406 -31.429  1.00  0.00     0.003 C 
HETATM   25  C25 UNL     1     -10.933  43.191 -31.977  1.00  0.00     0.019 C 
HETATM   26  C26 UNL     1      -9.313  44.944 -31.018  1.00  0.00     0.098 C 
HETATM   27  O6  UNL     1      -8.004  45.398 -30.590  1.00  0.00    -0.363 OA
HETATM   28  C27 UNL     1      -7.185  44.857 -29.586  1.00  0.00     0.263 C 
HETATM   29  C28 UNL     1      -7.001  45.860 -28.518  1.00  0.00    -0.080 C 
HETATM   30  C29 UNL     1      -6.928  46.690 -27.653  1.00  0.00    -0.093 C 
HETATM   31  C30 UNL     1      -6.926  47.782 -26.639  1.00  0.00     0.121 C 
HETATM   32  C37 UNL     1      -7.794  47.437 -25.398  1.00  0.00     0.190 C 
HETATM   33  O7  UNL     1      -9.204  47.706 -25.560  1.00  0.00    -0.384 OA
HETATM   34  C38 UNL     1      -9.893  46.783 -26.401  1.00  0.00     0.122 C 
HETATM   35  C39 UNL     1     -10.024  45.401 -25.740  1.00  0.00     0.033 C 
HETATM   36  C40 UNL     1     -11.175  44.555 -26.312  1.00  0.00     0.013 C 
HETATM   37  C41 UNL     1     -11.541  44.892 -27.782  1.00  0.00    -0.026 C 
HETATM   38  C42 UNL     1     -12.778  44.062 -28.215  1.00  0.00     0.016 C 
HETATM   39  C43 UNL     1     -11.995  46.388 -27.798  1.00  0.00     0.071 C 
HETATM   40  C44 UNL     1     -11.265  47.316 -26.801  1.00  0.00     0.045 C 
HETATM   41  C45 UNL     1     -12.024  46.994 -29.187  1.00  0.00     0.161 C 
HETATM   42  O8  UNL     1     -12.774  47.937 -29.434  1.00  0.00    -0.292 OA
ENDROOT
BRANCH  31  43
HETATM   43  C31 UNL     1      -5.491  48.114 -26.257  1.00  0.00    -0.040 A 
HETATM   44  C32 UNL     1      -4.488  48.253 -27.229  1.00  0.00     0.008 A 
HETATM   45  C33 UNL     1      -3.184  48.574 -26.858  1.00  0.00     0.001 A 
HETATM   46  C34 UNL     1      -2.864  48.769 -25.515  1.00  0.00     0.000 A 
HETATM   47  C35 UNL     1      -3.851  48.627 -24.544  1.00  0.00     0.001 A 
HETATM   48  C36 UNL     1      -5.155  48.302 -24.908  1.00  0.00     0.008 A 
ENDBRANCH  31  43
BRANCH  21  49
HETATM   49  O4  UNL     1      -6.677  42.925 -34.178  1.00  0.00    -0.387 OA
HETATM   50  H30 UNL     1      -6.017  43.256 -33.547  1.00  0.00     0.210 HD
ENDBRANCH  21  49
BRANCH  23  51
HETATM   51  O5  UNL     1     -10.019  41.564 -34.183  1.00  0.00    -0.390 OA
HETATM   52  H32 UNL     1     -10.430  42.405 -34.435  1.00  0.00     0.210 HD
ENDBRANCH  23  51
BRANCH   7  53
HETATM   53  O3  UNL     1      -9.148  36.997 -32.324  1.00  0.00    -0.381 OA
HETATM   54  H12 UNL     1      -9.576  36.934 -31.456  1.00  0.00     0.211 HD
ENDBRANCH   7  53
BRANCH   3  55
HETATM   55  C4  UNL     1      -9.630  40.720 -37.221  1.00  0.00     0.172 C 
BRANCH  55  56
HETATM   56  O1  UNL     1      -8.582  41.354 -37.935  1.00  0.00    -0.400 OA
HETATM   57  H8  UNL     1      -8.922  42.173 -38.323  1.00  0.00     0.209 HD
ENDBRANCH  55  56
ENDBRANCH   3  55
TORSDOF 6
ENDMDL
MODEL 7
REMARK minimizedAffinity -7.59627247
REMARK CNNscore 0.24500227
REMARK CNNaffinity 6.3853569
REMARK  6 active torsions:
REMARK  status: ('A' for Active; 'I' for Inactive)
REMARK    1  A    between atoms: C3_3  and  C4_4 
REMARK    2  A    between atoms: C4_4  and  O1_5 
REMARK    3  A    between atoms: C7_9  and  O3_10 
REMARK    4  A    between atoms: C21_24  and  O4_26 
REMARK    5  A    between atoms: C23_27  and  O5_28 
REMARK    6  A    between atoms: C30_36  and  C31_37 
ROOT
HETATM    1  C1  UNL     1     -11.431  36.113 -29.917  1.00  0.00     0.013 C 
HETATM    2  C2  UNL     1     -11.611  37.330 -29.018  1.00  0.00     0.023 C 
HETATM    3  C3  UNL     1     -10.525  38.393 -29.165  1.00  0.00     0.047 C 
HETATM    4  C5  UNL     1     -10.636  39.185 -27.855  1.00  0.00     0.160 C 
HETATM    5  O2  UNL     1     -10.970  38.177 -26.877  1.00  0.00    -0.373 OA
HETATM    6  C6  UNL     1     -11.500  37.005 -27.529  1.00  0.00     0.167 C 
HETATM    7  C7  UNL     1     -12.814  36.552 -26.869  1.00  0.00     0.226 C 
HETATM    8  C8  UNL     1     -13.664  37.651 -26.346  1.00  0.00    -0.072 C 
HETATM    9  C9  UNL     1     -14.354  38.497 -25.852  1.00  0.00    -0.103 C 
HETATM   10  C10 UNL     1     -15.353  39.372 -25.221  1.00  0.00     0.099 C 
HETATM   11  C11 UNL     1     -15.066  40.896 -24.991  1.00  0.00     0.009 C 
HETATM   12  C12 UNL     1     -16.427  41.375 -24.356  1.00  0.00     0.016 C 
HETATM   13  C13 UNL     1     -17.093  42.746 -24.700  1.00  0.00     0.027 C 
HETATM   14  C14 UNL     1     -16.473  43.517 -25.835  1.00  0.00    -0.030 C 
HETATM   15  C15 UNL     1     -17.146  44.352 -26.653  1.00  0.00    -0.006 C 
HETATM   16  C16 UNL     1     -16.521  45.093 -27.810  1.00  0.00     0.043 C 
HETATM   17  C17 UNL     1     -15.249  44.426 -28.318  1.00  0.00     0.013 C 
HETATM   18  C18 UNL     1     -14.319  44.084 -27.151  1.00  0.00     0.026 C 
HETATM   19  C19 UNL     1     -13.084  43.223 -27.498  1.00  0.00     0.016 C 
HETATM   20  C20 UNL     1     -13.031  42.115 -26.382  1.00  0.00     0.034 C 
HETATM   21  C21 UNL     1     -11.801  41.149 -26.527  1.00  0.00     0.087 C 
HETATM   22  C22 UNL     1     -11.566  40.354 -25.235  1.00  0.00     0.049 C 
HETATM   23  C23 UNL     1     -11.667  40.363 -27.868  1.00  0.00     0.181 C 
HETATM   24  C24 UNL     1     -14.576  41.809 -26.168  1.00  0.00     0.003 C 
HETATM   25  C25 UNL     1     -15.289  41.263 -27.433  1.00  0.00     0.019 C 
HETATM   26  C26 UNL     1     -14.989  43.341 -25.947  1.00  0.00     0.098 C 
HETATM   27  O6  UNL     1     -14.344  44.091 -24.887  1.00  0.00    -0.363 OA
HETATM   28  C27 UNL     1     -14.234  43.750 -23.529  1.00  0.00     0.263 C 
HETATM   29  C28 UNL     1     -14.949  44.756 -22.718  1.00  0.00    -0.080 C 
HETATM   30  C29 UNL     1     -15.589  45.569 -22.109  1.00  0.00    -0.093 C 
HETATM   31  C30 UNL     1     -16.427  46.619 -21.462  1.00  0.00     0.121 C 
HETATM   32  C37 UNL     1     -17.787  46.062 -20.959  1.00  0.00     0.190 C 
HETATM   33  O7  UNL     1     -18.814  45.987 -21.972  1.00  0.00    -0.384 OA
HETATM   34  C38 UNL     1     -18.640  44.935 -22.920  1.00  0.00     0.122 C 
HETATM   35  C39 UNL     1     -18.878  43.555 -22.286  1.00  0.00     0.033 C 
HETATM   36  C40 UNL     1     -19.237  42.464 -23.311  1.00  0.00     0.013 C 
HETATM   37  C41 UNL     1     -18.675  42.720 -24.735  1.00  0.00    -0.026 C 
HETATM   38  C42 UNL     1     -19.188  41.623 -25.703  1.00  0.00     0.016 C 
HETATM   39  C43 UNL     1     -19.303  44.064 -25.228  1.00  0.00     0.071 C 
HETATM   40  C44 UNL     1     -19.543  45.128 -24.134  1.00  0.00     0.045 C 
HETATM   41  C45 UNL     1     -18.585  44.662 -26.423  1.00  0.00     0.161 C 
HETATM   42  O8  UNL     1     -19.189  45.400 -27.199  1.00  0.00    -0.292 OA
ENDROOT
BRANCH  31  43
HETATM   43  C31 UNL     1     -15.634  47.280 -20.344  1.00  0.00    -0.040 A 
HETATM   44  C32 UNL     1     -16.135  47.349 -19.035  1.00  0.00     0.008 A 
HETATM   45  C33 UNL     1     -15.384  47.943 -18.021  1.00  0.00     0.001 A 
HETATM   46  C34 UNL     1     -14.123  48.469 -18.299  1.00  0.00     0.000 A 
HETATM   47  C35 UNL     1     -13.622  48.411 -19.595  1.00  0.00     0.001 A 
HETATM   48  C36 UNL     1     -14.369  47.822 -20.613  1.00  0.00     0.008 A 
ENDBRANCH  31  43
BRANCH  21  49
HETATM   49  O4  UNL     1     -10.635  42.049 -26.567  1.00  0.00    -0.387 OA
HETATM   50  H30 UNL     1     -10.586  42.521 -25.720  1.00  0.00     0.210 HD
ENDBRANCH  21  49
BRANCH  23  51
HETATM   51  O5  UNL     1     -12.913  39.927 -28.391  1.00  0.00    -0.390 OA
HETATM   52  H32 UNL     1     -13.235  40.648 -28.953  1.00  0.00     0.210 HD
ENDBRANCH  23  51
BRANCH   7  53
HETATM   53  O3  UNL     1     -12.504  35.681 -25.769  1.00  0.00    -0.381 OA
HETATM   54  H12 UNL     1     -13.355  35.508 -25.334  1.00  0.00     0.211 HD
ENDBRANCH   7  53
BRANCH   3  55
HETATM   55  C4  UNL     1     -10.577  39.236 -30.429  1.00  0.00     0.172 C 
BRANCH  55  56
HETATM   56  O1  UNL     1     -11.881  39.160 -30.982  1.00  0.00    -0.400 OA
HETATM   57  H8  UNL     1     -11.842  39.437 -31.909  1.00  0.00     0.209 HD
ENDBRANCH  55  56
ENDBRANCH   3  55
TORSDOF 6
ENDMDL
MODEL 8
REMARK minimizedAffinity -9.0726757
REMARK CNNscore 0.240213275
REMARK CNNaffinity 6.73051262
REMARK  6 active torsions:
REMARK  status: ('A' for Active; 'I' for Inactive)
REMARK    1  A    between atoms: C3_3  and  C4_4 
REMARK    2  A    between atoms: C4_4  and  O1_5 
REMARK    3  A    between atoms: C7_9  and  O3_10 
REMARK    4  A    between atoms: C21_24  and  O4_26 
REMARK    5  A    between atoms: C23_27  and  O5_28 
REMARK    6  A    between atoms: C30_36  and  C31_37 
ROOT
HETATM    1  C1  UNL     1      -7.010  45.558  -5.580  1.00  0.00     0.013 C 
HETATM    2  C2  UNL     1      -6.519  46.216  -6.863  1.00  0.00     0.023 C 
HETATM    3  C3  UNL     1      -7.604  46.932  -7.664  1.00  0.00     0.047 C 
HETATM    4  C5  UNL     1      -6.994  47.020  -9.070  1.00  0.00     0.160 C 
HETATM    5  O2  UNL     1      -6.260  45.784  -9.199  1.00  0.00    -0.373 OA
HETATM    6  C6  UNL     1      -6.005  45.217  -7.898  1.00  0.00     0.167 C 
HETATM    7  C7  UNL     1      -4.521  44.834  -7.743  1.00  0.00     0.226 C 
HETATM    8  C8  UNL     1      -3.568  45.728  -8.447  1.00  0.00    -0.072 C 
HETATM    9  C9  UNL     1      -2.763  46.381  -9.049  1.00  0.00    -0.103 C 
HETATM   10  C10 UNL     1      -1.622  47.068  -9.672  1.00  0.00     0.099 C 
HETATM   11  C11 UNL     1      -1.838  48.189 -10.745  1.00  0.00     0.009 C 
HETATM   12  C12 UNL     1      -0.352  48.623 -11.043  1.00  0.00     0.016 C 
HETATM   13  C13 UNL     1       0.072  50.109 -11.271  1.00  0.00     0.027 C 
HETATM   14  C14 UNL     1      -0.979  51.149 -10.989  1.00  0.00    -0.030 C 
HETATM   15  C15 UNL     1      -0.724  52.403 -10.561  1.00  0.00    -0.006 C 
HETATM   16  C16 UNL     1      -1.788  53.427 -10.249  1.00  0.00     0.043 C 
HETATM   17  C17 UNL     1      -3.135  52.794  -9.922  1.00  0.00     0.013 C 
HETATM   18  C18 UNL     1      -3.499  51.736 -10.968  1.00  0.00     0.026 C 
HETATM   19  C19 UNL     1      -4.741  50.872 -10.654  1.00  0.00     0.016 C 
HETATM   20  C20 UNL     1      -4.300  49.394 -10.966  1.00  0.00     0.034 C 
HETATM   21  C21 UNL     1      -5.452  48.347 -10.755  1.00  0.00     0.087 C 
HETATM   22  C22 UNL     1      -5.116  47.011 -11.430  1.00  0.00     0.049 C 
HETATM   23  C23 UNL     1      -6.094  48.274  -9.335  1.00  0.00     0.181 C 
HETATM   24  C24 UNL     1      -2.793  49.400 -10.462  1.00  0.00     0.003 C 
HETATM   25  C25 UNL     1      -2.639  49.697  -8.947  1.00  0.00     0.019 C 
HETATM   26  C26 UNL     1      -2.374  50.700 -11.301  1.00  0.00     0.098 C 
HETATM   27  O6  UNL     1      -2.556  50.689 -12.740  1.00  0.00    -0.363 OA
HETATM   28  C27 UNL     1      -2.093  49.737 -13.663  1.00  0.00     0.263 C 
HETATM   29  C28 UNL     1      -1.142  50.384 -14.589  1.00  0.00    -0.080 C 
HETATM   30  C29 UNL     1      -0.335  50.943 -15.281  1.00  0.00    -0.093 C 
HETATM   31  C30 UNL     1       0.660  51.734 -16.061  1.00  0.00     0.121 C 
HETATM   32  C37 UNL     1       2.124  51.348 -15.712  1.00  0.00     0.190 C 
HETATM   33  O7  UNL     1       2.652  52.001 -14.538  1.00  0.00    -0.384 OA
HETATM   34  C38 UNL     1       2.141  51.508 -13.301  1.00  0.00     0.122 C 
HETATM   35  C39 UNL     1       2.659  50.093 -12.996  1.00  0.00     0.033 C 
HETATM   36  C40 UNL     1       2.604  49.729 -11.502  1.00  0.00     0.013 C 
HETATM   37  C41 UNL     1       1.503  50.480 -10.705  1.00  0.00    -0.026 C 
HETATM   38  C42 UNL     1       1.612  50.121  -9.200  1.00  0.00     0.016 C 
HETATM   39  C43 UNL     1       1.834  52.004 -10.814  1.00  0.00     0.071 C 
HETATM   40  C44 UNL     1       2.465  52.455 -12.150  1.00  0.00     0.045 C 
HETATM   41  C45 UNL     1       0.675  52.901 -10.427  1.00  0.00     0.161 C 
HETATM   42  O8  UNL     1       0.887  54.036 -10.004  1.00  0.00    -0.292 OA
ENDROOT
BRANCH  31  43
HETATM   43  C31 UNL     1       0.370  51.585 -17.547  1.00  0.00    -0.040 A 
HETATM   44  C32 UNL     1       0.682  52.606 -18.458  1.00  0.00     0.008 A 
HETATM   45  C33 UNL     1       0.425  52.442 -19.819  1.00  0.00     0.001 A 
HETATM   46  C34 UNL     1      -0.139  51.256 -20.288  1.00  0.00     0.000 A 
HETATM   47  C35 UNL     1      -0.458  50.241 -19.391  1.00  0.00     0.001 A 
HETATM   48  C36 UNL     1      -0.207  50.401 -18.030  1.00  0.00     0.008 A 
ENDBRANCH  31  43
BRANCH  21  49
HETATM   49  O4  UNL     1      -6.561  48.855 -11.581  1.00  0.00    -0.387 OA
HETATM   50  H30 UNL     1      -6.276  48.849 -12.510  1.00  0.00     0.210 HD
ENDBRANCH  21  49
BRANCH  23  51
HETATM   51  O5  UNL     1      -5.157  48.443  -8.283  1.00  0.00    -0.390 OA
HETATM   52  H32 UNL     1      -5.114  49.397  -8.113  1.00  0.00     0.210 HD
ENDBRANCH  23  51
BRANCH   7  53
HETATM   53  O3  UNL     1      -4.330  43.505  -8.252  1.00  0.00    -0.381 OA
HETATM   54  H12 UNL     1      -3.372  43.356  -8.221  1.00  0.00     0.211 HD
ENDBRANCH   7  53
BRANCH   3  55
HETATM   55  C4  UNL     1      -8.096  48.253  -7.096  1.00  0.00     0.172 C 
BRANCH  55  56
HETATM   56  O1  UNL     1      -8.027  49.246  -8.106  1.00  0.00    -0.400 OA
HETATM   57  H8  UNL     1      -8.054  50.118  -7.687  1.00  0.00     0.209 HD
ENDBRANCH  55  56
ENDBRANCH   3  55
TORSDOF 6
ENDMDL
MODEL 9
REMARK minimizedAffinity -8.00170708
REMARK CNNscore 0.23873499
REMARK CNNaffinity 6.6461215
REMARK  6 active torsions:
REMARK  status: ('A' for Active; 'I' for Inactive)
REMARK    1  A    between atoms: C3_3  and  C4_4 
REMARK    2  A    between atoms: C4_4  and  O1_5 
REMARK    3  A    between atoms: C7_9  and  O3_10 
REMARK    4  A    between atoms: C21_24  and  O4_26 
REMARK    5  A    between atoms: C23_27  and  O5_28 
REMARK    6  A    between atoms: C30_36  and  C31_37 
ROOT
HETATM    1  C1  UNL     1      -0.679  51.820 -23.879  1.00  0.00     0.013 C 
HETATM    2  C2  UNL     1      -1.941  51.251 -23.244  1.00  0.00     0.023 C 
HETATM    3  C3  UNL     1      -3.240  51.671 -23.929  1.00  0.00     0.047 C 
HETATM    4  C5  UNL     1      -4.296  51.430 -22.842  1.00  0.00     0.160 C 
HETATM    5  O2  UNL     1      -3.612  51.781 -21.620  1.00  0.00    -0.373 OA
HETATM    6  C6  UNL     1      -2.185  51.757 -21.823  1.00  0.00     0.167 C 
HETATM    7  C7  UNL     1      -1.483  50.943 -20.721  1.00  0.00     0.226 C 
HETATM    8  C8  UNL     1      -2.257  49.782 -20.211  1.00  0.00    -0.072 C 
HETATM    9  C9  UNL     1      -2.867  48.874 -19.723  1.00  0.00    -0.103 C 
HETATM   10  C10 UNL     1      -3.423  47.708 -19.021  1.00  0.00     0.099 C 
HETATM   11  C11 UNL     1      -4.919  47.284 -19.212  1.00  0.00     0.009 C 
HETATM   12  C12 UNL     1      -4.992  45.990 -18.315  1.00  0.00     0.016 C 
HETATM   13  C13 UNL     1      -5.794  44.713 -18.724  1.00  0.00     0.027 C 
HETATM   14  C14 UNL     1      -6.338  44.694 -20.128  1.00  0.00    -0.030 C 
HETATM   15  C15 UNL     1      -6.523  43.579 -20.864  1.00  0.00    -0.006 C 
HETATM   16  C16 UNL     1      -7.038  43.574 -22.283  1.00  0.00     0.043 C 
HETATM   17  C17 UNL     1      -6.808  44.901 -22.996  1.00  0.00     0.013 C 
HETATM   18  C18 UNL     1      -7.261  46.069 -22.115  1.00  0.00     0.026 C 
HETATM   19  C19 UNL     1      -6.903  47.482 -22.626  1.00  0.00     0.016 C 
HETATM   20  C20 UNL     1      -6.331  48.238 -21.371  1.00  0.00     0.034 C 
HETATM   21  C21 UNL     1      -5.946  49.732 -21.670  1.00  0.00     0.087 C 
HETATM   22  C22 UNL     1      -5.772  50.529 -20.371  1.00  0.00     0.049 C 
HETATM   23  C23 UNL     1      -4.893  49.983 -22.793  1.00  0.00     0.181 C 
HETATM   24  C24 UNL     1      -5.521  47.080 -20.645  1.00  0.00     0.003 C 
HETATM   25  C25 UNL     1      -4.360  46.498 -21.496  1.00  0.00     0.019 C 
HETATM   26  C26 UNL     1      -6.743  46.043 -20.638  1.00  0.00     0.098 C 
HETATM   27  O6  UNL     1      -7.985  46.435 -20.001  1.00  0.00    -0.363 OA
HETATM   28  C27 UNL     1      -8.173  46.924 -18.698  1.00  0.00     0.263 C 
HETATM   29  C28 UNL     1      -9.012  45.974 -17.940  1.00  0.00    -0.080 C 
HETATM   30  C29 UNL     1      -9.651  45.144 -17.353  1.00  0.00    -0.093 C 
HETATM   31  C30 UNL     1     -10.426  44.039 -16.721  1.00  0.00     0.121 C 
HETATM   32  C37 UNL     1      -9.567  43.206 -15.730  1.00  0.00     0.190 C 
HETATM   33  O7  UNL     1      -8.767  42.176 -16.351  1.00  0.00    -0.384 OA
HETATM   34  C38 UNL     1      -7.628  42.655 -17.064  1.00  0.00     0.122 C 
HETATM   35  C39 UNL     1      -6.551  43.203 -16.114  1.00  0.00     0.033 C 
HETATM   36  C40 UNL     1      -5.143  43.225 -16.732  1.00  0.00     0.013 C 
HETATM   37  C41 UNL     1      -5.129  43.347 -18.279  1.00  0.00    -0.026 C 
HETATM   38  C42 UNL     1      -3.671  43.248 -18.798  1.00  0.00     0.016 C 
HETATM   39  C43 UNL     1      -5.874  42.089 -18.833  1.00  0.00     0.071 C 
HETATM   40  C44 UNL     1      -7.044  41.572 -17.966  1.00  0.00     0.045 C 
HETATM   41  C45 UNL     1      -6.289  42.226 -20.285  1.00  0.00     0.161 C 
HETATM   42  O8  UNL     1      -6.433  41.223 -20.982  1.00  0.00    -0.292 OA
ENDROOT
BRANCH  31  43
HETATM   43  C31 UNL     1     -11.669  44.610 -16.056  1.00  0.00    -0.040 A 
HETATM   44  C32 UNL     1     -12.570  45.422 -16.763  1.00  0.00     0.008 A 
HETATM   45  C33 UNL     1     -13.713  45.920 -16.139  1.00  0.00     0.001 A 
HETATM   46  C34 UNL     1     -13.975  45.609 -14.805  1.00  0.00     0.000 A 
HETATM   47  C35 UNL     1     -13.085  44.811 -14.095  1.00  0.00     0.001 A 
HETATM   48  C36 UNL     1     -11.939  44.313 -14.711  1.00  0.00     0.008 A 
ENDBRANCH  31  43
BRANCH  21  49
HETATM   49  O4  UNL     1      -7.170  50.315 -22.244  1.00  0.00    -0.387 OA
HETATM   50  H30 UNL     1      -7.868  50.283 -21.569  1.00  0.00     0.210 HD
ENDBRANCH  21  49
BRANCH  23  51
HETATM   51  O5  UNL     1      -3.853  49.017 -22.817  1.00  0.00    -0.390 OA
HETATM   52  H32 UNL     1      -4.163  48.304 -23.396  1.00  0.00     0.210 HD
ENDBRANCH  23  51
BRANCH   7  53
HETATM   53  O3  UNL     1      -1.213  51.808 -19.606  1.00  0.00    -0.381 OA
HETATM   54  H12 UNL     1      -0.864  51.227 -18.912  1.00  0.00     0.211 HD
ENDBRANCH   7  53
BRANCH   3  55
HETATM   55  C4  UNL     1      -3.536  51.013 -25.267  1.00  0.00     0.172 C 
BRANCH  55  56
HETATM   56  O1  UNL     1      -3.325  51.958 -26.303  1.00  0.00    -0.400 OA
HETATM   57  H8  UNL     1      -3.781  51.651 -27.100  1.00  0.00     0.209 HD
ENDBRANCH  55  56
ENDBRANCH   3  55
TORSDOF 6
ENDMDL
